data_PCOD9197343
_publ_section_title
;
Structure prediction by ZEFSAII (Michael W. Deem and Ramdas Pophale) SiO2 
 PCOD9197343
Probable space group: C 2/M
;
_chemical_formula_sum "Si O2"
_cell_formula_units_Z 64
_cell_length_a 20.859944
_cell_length_b 8.388532
_cell_length_c 23.210693
_cell_angle_alpha 90.000000
_cell_angle_beta 124.990701
_cell_angle_gamma 90.000000
_cell_volume 3327.369844
_symmetry_space_group_name_H-M "C 2/M"
_symmetry_group_IT_number 12
_symmetry_cell_setting 'monoclinic'
loop_
_space_group_symop_operation_xyz
x,y,z
-x,y,-z
-x,-y,-z
x,-y,z
1/2+x,1/2+y,z
1/2-x,1/2+y,-z
1/2-x,1/2-y,-z
1/2+x,1/2-y,z
loop_
_atom_site_type_symbol
_atom_site_label
_atom_site_fract_x
_atom_site_fract_y
_atom_site_fract_z
Si Si1 0.964166 0.690745 0.164056
Si Si2 0.288008 0.690787 0.078076
Si Si3 0.409436 0.192472 0.450518
Si Si4 0.977418 0.809018 0.686604
Si Si5 0.162396 0.308830 0.465246
Si Si6 0.463198 0.194947 0.919695
Si Si7 0.713983 0.805693 0.158800
Si Si8 0.631743 0.692052 0.695541
O O1 0.967439 0.500000 0.165727
O O2 0.875574 0.745209 0.129329
O O3 0.015560 0.752592 0.243905
O O4 0.991629 0.746699 0.114771
O O5 0.291470 0.500000 0.080176
O O6 0.234964 0.741337 0.104566
O O7 0.250000 0.750000 0.000000
O O8 0.500000 0.242366 0.500000
O O9 0.366676 0.245870 0.486610
O O10 0.374273 0.257601 0.373546
O O11 0.407153 0.000000 0.447439
O O12 0.900133 0.750325 0.614056
O O13 0.055110 0.751460 0.691642
O O14 0.978245 0.000000 0.686214
O O15 0.161401 0.500000 0.464069
O O16 0.250000 0.250000 0.500000
O O17 0.372762 0.246575 0.869301
O O18 0.465131 0.000000 0.921171
O O19 0.500000 0.245845 0.000000
O O20 0.786757 0.750933 0.235016
O O21 0.713271 0.000000 0.160601
O O22 0.631172 0.500000 0.699026
#
# Coordination Sequence:
#
# PCOD9197343 Si02
#       8
#     8   8   8   8   8   8   8   8
#     4  11  22  36  59  90 119 156 199 242 302 363
#     4  11  21  36  58  85 116 151 195 247 297 352
#     4  10  21  38  60  87 118 153 193 246 303 349
#     4  11  22  39  61  88 123 160 199 247 302 358
#     4  11  24  42  63  90 125 162 200 246 300 358
#     4   9  18  34  57  84 115 152 197 245 291 348
#     4   9  18  35  56  81 113 148 192 243 289 339
#     4  10  20  35  59  88 116 154 200 247 296 354
#
# _framework density 19.234411000000001
#
# number of rings (size 3 to 8) (size 9 to 14) (size 15 to 20)
#    0.000    1.750    2.500    2.250    0.000    4.750 
#    0.000    1.250    0.000    9.000    0.000    0.000 
#    0.000    0.000    0.000    0.000    0.000    0.000 
#
# Total GULP energy -178741.188996 kJ/mol
# GULP energy per Si atom -5585.662156 kJ/mol
# Density = 1.919063 g / cm^3
# Si number density = 19.234411 Si / 1000 Ang^3
#
#
#
# Elastic Constant Matrix: (Units=GPa)
#
#
# Indices 1 2 3 4 5 6 
#
# 1 91.0498 13.9423 9.8141 0.0000 -3.2292 0.0000
# 2 13.9423 24.8863 12.6808 0.0000 -1.6070 0.0000
# 3 9.8141 12.6808 100.4457 0.0000 -8.2576 0.0000
# 4 0.0000 0.0000 0.0000 31.4388 0.0000 -2.2737
# 5 -3.2292 -1.6070 -8.2576 0.0000 37.7182 0.0000
# 6 0.0000 0.0000 0.0000 -2.2737 0.0000 21.1563
#
#
#
# Elastic Compliance Matrix: (Units=1/GPa)
#
#
# Indices 1 2 3 4 5 6 
#
# 1 0.012042 -0.006553 -0.000293 0.000000 0.000688 0.000000
# 2 -0.006553 0.046527 -0.005211 0.000000 0.000281 0.000000
# 3 -0.000293 -0.005211 0.010816 0.000000 0.002121 0.000000
# 4 0.000000 0.000000 0.000000 0.032057 0.000000 0.003445
# 5 0.000688 0.000281 0.002121 0.000000 0.027048 0.000000
# 6 0.000000 0.000000 0.000000 0.003445 0.000000 0.047638
#
#
# Mechanical properties :
#
#
# Convention : Reuss Voigt Hill
#
# Bulk Modulus (GPa) = 22.08804 32.13958 27.11381
# Shear Modulus (GPa) = 23.21996 30.05897 26.63947
#
# Velocity S-wave (km/s) = 3.47826 3.95748 3.72558
# Velocity P-wave (km/s) = 5.25734 6.13416 5.71259
#
# Compressibility (1/GPa) = 0.04527337
#
# Stress axis : x y z
#
# Youngs Moduli (GPa) = 83.03992 21.49279 92.45221
#
# Poissons Ratio (x) = 0.14084 0.02707
# Poissons Ratio (y) = 0.54416 0.48172
# Poissons Ratio (z) = 0.02431 0.11199
#
# Static dielectric constant tensor:
#      x y z
#    x 1.675910 0.000000 -0.018190 
#    y 0.000000 1.656600 0.000000 
#    z -0.018190 0.000000 1.658760 
# 
# From -- ./inp_files/346185.got.cif
#   From: 2010.05.17/outbox.cif.g08.bks.cpg/sg12_174_cif.got.tgz:346185.got - 2010.06.03 13:09:07.
