data_PCOD9197972
_publ_section_title
;
Structure prediction by ZEFSAII (Michael W. Deem and Ramdas Pophale) SiO2 
 PCOD9197972
Probable space group: C 2/M
;
_chemical_formula_sum "Si O2"
_cell_formula_units_Z 28
_cell_length_a 16.279557
_cell_length_b 17.173566
_cell_length_c 4.893901
_cell_angle_alpha 90.000000
_cell_angle_beta 82.133973
_cell_angle_gamma 90.000000
_cell_volume 1355.353338
_symmetry_space_group_name_H-M "C 2/M"
_symmetry_group_IT_number 12
_symmetry_cell_setting 'monoclinic'
loop_
_space_group_symop_operation_xyz
x,y,z
-x,y,-z
-x,-y,-z
x,-y,z
1/2+x,1/2+y,z
1/2-x,1/2+y,-z
1/2-x,1/2-y,-z
1/2+x,1/2-y,z
loop_
_atom_site_type_symbol
_atom_site_label
_atom_site_fract_x
_atom_site_fract_y
_atom_site_fract_z
Si Si1 0.228044 0.662708 0.104570
Si Si2 0.937591 0.000000 0.283498
Si Si3 0.330851 0.635554 0.578723
Si Si4 0.942586 0.723175 0.766279
O O1 0.258795 0.659897 0.401023
O O2 0.129132 0.661640 0.124324
O O3 0.250000 0.750000 0.000000
O O4 0.281657 0.609087 0.874647
O O5 0.881378 0.925155 0.371220
O O6 0.000000 0.000000 0.500000
O O7 0.000000 0.000000 0.000000
O O8 0.395103 0.701649 0.655850
O O9 0.000000 0.691656 0.500000
O O10 0.000000 0.744099 0.000000
#
# Coordination Sequence:
#
# PCOD9197972 Si02
#       4
#     8   4   8   8
#     4  10  20  36  55  79 110 148 186 226 279 335
#     4  12  26  40  56  84 114 152 192 222 260 328
#     4  11  22  38  55  78 116 153 183 221 271 337
#     4  11  20  33  56  88 115 142 181 238 287 324
#
# _framework density 20.658819000000001
#
# number of rings (size 3 to 8) (size 9 to 14) (size 15 to 20)
#    0.000    1.143    0.000   11.143    0.000    4.571 
#    0.000    0.000    0.000    0.000    0.000   20.000 
#    0.000    0.000    0.000    0.000    0.000    0.000 
#
# Total GULP energy -78018.046426 kJ/mol
# GULP energy per Si atom -5572.717602 kJ/mol
# Density = 2.061180 g / cm^3
# Si number density = 20.658819 Si / 1000 Ang^3
#
#
#
# Elastic Constant Matrix: (Units=GPa)
#
#
# Indices 1 2 3 4 5 6 
#
# 1 144.9083 16.3683 63.0659 0.0000 8.9561 0.0000
# 2 16.3683 28.3958 19.0341 0.0000 -7.2237 0.0000
# 3 63.0659 19.0341 181.5901 0.0000 -11.5701 0.0000
# 4 0.0000 0.0000 0.0000 21.7877 0.0000 -8.3345
# 5 8.9561 -7.2237 -11.5701 0.0000 65.9669 0.0000
# 6 0.0000 0.0000 0.0000 -8.3345 0.0000 16.7952
#
#
#
# Elastic Compliance Matrix: (Units=1/GPa)
#
#
# Indices 1 2 3 4 5 6 
#
# 1 0.008637 -0.003660 -0.002747 0.000000 -0.002055 0.000000
# 2 -0.003660 0.040241 -0.002664 0.000000 0.004436 0.000000
# 3 -0.002747 -0.002664 0.006822 0.000000 0.001278 0.000000
# 4 0.000000 0.000000 0.000000 0.056652 0.000000 0.028113
# 5 -0.002055 0.004436 0.001278 0.000000 0.016148 0.000000
# 6 0.000000 0.000000 0.000000 0.028113 0.000000 0.073492
#
#
# Mechanical properties :
#
#
# Convention : Reuss Voigt Hill
#
# Bulk Modulus (GPa) = 26.62636 61.31456 43.97046
# Shear Modulus (GPa) = 21.49131 38.00500 29.74816
#
# Velocity S-wave (km/s) = 3.22886 4.29377 3.79882
# Velocity P-wave (km/s) = 5.17855 7.37061 6.36959
#
# Compressibility (1/GPa) = 0.03755677
#
# Stress axis : x y z
#
# Youngs Moduli (GPa) = 115.78315 24.85042 146.59433
#
# Poissons Ratio (x) = 0.09096 0.40267
# Poissons Ratio (y) = 0.42378 0.39055
# Poissons Ratio (z) = 0.31804 0.06621
#
# Static dielectric constant tensor:
#      x y z
#    x 1.854620 0.000000 0.034300 
#    y 0.000000 1.809850 0.000000 
#    z 0.034300 0.000000 1.866910 
# 
# From -- ./inp_files/9843.got.cif
#   From: 2010.05.17/outbox.cif.g08.bks.cpg/sg12_5_cif.got.tgz:9843.got - 2010.06.03 13:09:07.
