data_PCOD9197068
_publ_section_title
;
Structure prediction by ZEFSAII (Michael W. Deem and Ramdas Pophale) SiO2 
 PCOD9197068
Probable space group: C 2/M
;
_chemical_formula_sum "Si O2"
_cell_formula_units_Z 48
_cell_length_a 9.642024
_cell_length_b 17.985593
_cell_length_c 14.868745
_cell_angle_alpha 90.000000
_cell_angle_beta 129.535013
_cell_angle_gamma 90.000000
_cell_volume 1988.632022
_symmetry_space_group_name_H-M "C 2/M"
_symmetry_group_IT_number 12
_symmetry_cell_setting 'monoclinic'
loop_
_space_group_symop_operation_xyz
x,y,z
-x,y,-z
-x,-y,-z
x,-y,z
1/2+x,1/2+y,z
1/2-x,1/2+y,-z
1/2-x,1/2-y,-z
1/2+x,1/2-y,z
loop_
_atom_site_type_symbol
_atom_site_label
_atom_site_fract_x
_atom_site_fract_y
_atom_site_fract_z
Si Si1 0.298933 0.841776 0.118911
Si Si2 0.935122 0.587136 0.631267
Si Si3 0.644235 0.797904 0.143987
Si Si4 0.378988 0.356442 0.376847
Si Si5 0.827655 0.914520 0.630257
Si Si6 0.863950 0.088271 0.117889
O O1 0.394823 0.877133 0.246715
O O2 0.177372 0.773245 0.097890
O O3 0.460665 0.810990 0.121556
O O4 0.183457 0.894215 0.005039
O O5 0.969203 0.500000 0.632991
O O6 0.777574 0.598113 0.639947
O O7 0.842248 0.615821 0.498891
O O8 0.795121 0.793462 0.282128
O O9 0.711899 0.869780 0.114903
O O10 0.500000 0.318032 0.500000
O O11 0.509435 0.409321 0.374445
O O12 0.938911 0.884515 0.763621
O O13 0.782677 0.000000 0.631369
O O14 0.856338 0.000000 0.129416
#
# Coordination Sequence:
#
# PCOD9197068 Si02
#       6
#     8   8   8   8   8   8
#     4  11  22  37  58  83 117 155 191 233 284 344
#     4   9  16  28  51  83 113 144 186 237 287 334
#     4  10  22  37  56  83 117 154 188 234 289 341
#     4   8  14  27  47  76 109 142 179 225 279 332
#     4   8  14  26  46  77 116 145 173 230 299 342
#     4  10  20  35  58  87 114 145 191 245 293 337
#
# _framework density 24.137197
#
# number of rings (size 3 to 8) (size 9 to 14) (size 15 to 20)
#    0.000    2.667    0.000    2.000    0.000    7.333 
#    0.000   13.333    0.000    7.000    0.000    0.000 
#    0.000   21.333    0.000    4.000    0.000    0.000 
#
# Total GULP energy -133799.122457 kJ/mol
# GULP energy per Si atom -5574.963436 kJ/mol
# Density = 2.408226 g / cm^3
# Si number density = 24.137197 Si / 1000 Ang^3
#
#
#
# Elastic Constant Matrix: (Units=GPa)
#
#
# Indices 1 2 3 4 5 6 
#
# 1 135.9082 37.8497 38.5108 0.0000 1.3284 0.0000
# 2 37.8497 77.0399 39.1071 0.0000 24.4457 0.0000
# 3 38.5108 39.1071 201.7161 0.0000 78.6345 0.0000
# 4 0.0000 0.0000 0.0000 9.8224 0.0000 24.3549
# 5 1.3284 24.4457 78.6345 0.0000 -49.5086 0.0000
# 6 0.0000 0.0000 0.0000 24.3549 0.0000 -48.7801
#
#
#
# Elastic Compliance Matrix: (Units=1/GPa)
#
#
# Indices 1 2 3 4 5 6 
#
# 1 0.008395 -0.003430 -0.000226 0.000000 -0.001827 0.000000
# 2 -0.003430 0.015583 -0.003292 0.000000 0.002374 0.000000
# 3 -0.000226 -0.003292 0.003875 0.000000 0.004524 0.000000
# 4 0.000000 0.000000 0.000000 0.045491 0.000000 0.022713
# 5 -0.001827 0.002374 0.004524 0.000000 -0.011890 0.000000
# 6 0.000000 0.000000 0.000000 0.022713 0.000000 -0.009160
#
#
# Mechanical properties :
#
#
# Convention : Reuss Voigt Hill
#
# Bulk Modulus (GPa) = 71.64234 71.73328 71.68781
# Shear Modulus (GPa) = 70.57958 2.25319 36.41638
#
# Velocity S-wave (km/s) = 5.41336 0.96722 3.88844
# Velocity P-wave (km/s) = 8.29568 5.57053 7.06574
#
# Compressibility (1/GPa) = 0.01395823
#
# Stress axis : x y z
#
# Youngs Moduli (GPa) = 119.11856 64.17157 258.04724
#
# Poissons Ratio (x) = 0.22013 0.05821
# Poissons Ratio (y) = 0.40861 0.84943
# Poissons Ratio (z) = 0.02687 0.21124
#
# Static dielectric constant tensor:
#      x y z
#    x 1.918070 0.000000 -0.012380 
#    y 0.000000 1.850640 0.000000 
#    z -0.012380 0.000000 2.060850 
# 
# From -- ./inp_files/207360.got.cif
#   From: 2010.05.17/outbox.cif.g08.bks.cpg/sg12_104_cif.got.tgz:207360.got - 2010.06.03 13:09:07.
