data_PCOD9197513
_publ_section_title
;
Structure prediction by ZEFSAII (Michael W. Deem and Ramdas Pophale) SiO2 
 PCOD9197513
Probable space group: C 2/M
;
_chemical_formula_sum "Si O2"
_cell_formula_units_Z 48
_cell_length_a 12.153862
_cell_length_b 18.681998
_cell_length_c 10.499590
_cell_angle_alpha 90.000000
_cell_angle_beta 111.346326
_cell_angle_gamma 90.000000
_cell_volume 2220.469948
_symmetry_space_group_name_H-M "C 2/M"
_symmetry_group_IT_number 12
_symmetry_cell_setting 'monoclinic'
loop_
_space_group_symop_operation_xyz
x,y,z
-x,y,-z
-x,-y,-z
x,-y,z
1/2+x,1/2+y,z
1/2-x,1/2+y,-z
1/2-x,1/2-y,-z
1/2+x,1/2-y,z
loop_
_atom_site_type_symbol
_atom_site_label
_atom_site_fract_x
_atom_site_fract_y
_atom_site_fract_z
Si Si1 0.154821 0.856694 0.192176
Si Si2 0.776784 0.666806 0.989018
Si Si3 0.618017 0.783231 0.613267
Si Si4 0.619062 0.500000 0.631677
Si Si5 0.487935 0.212599 0.813482
Si Si6 0.483743 0.500000 0.837355
Si Si7 0.254937 0.644823 0.320466
O O1 0.204175 0.871768 0.070195
O O2 0.270962 0.835336 0.322309
O O3 0.073430 0.784495 0.155929
O O4 0.087221 0.925698 0.214238
O O5 0.918510 0.665730 0.066485
O O6 0.750000 0.750000 0.000000
O O7 0.740878 0.646903 0.832472
O O8 0.500000 0.812218 0.500000
O O9 0.568997 0.763040 0.731443
O O10 0.668263 0.708151 0.583009
O O11 0.500000 0.500000 0.500000
O O12 0.585012 0.500000 0.769467
O O13 0.694274 0.568972 0.624066
O O14 0.381311 0.164570 0.714843
O O15 0.500000 0.500000 0.000000
#
# Coordination Sequence:
#
# PCOD9197513 Si02
#       7
#     8   8   8   4   8   4   8
#     4  10  23  36  58  90 119 154 200 251 310 367
#     4  11  19  35  62  93 126 148 195 262 319 367
#     4  10  21  37  58  85 113 150 206 258 294 358
#     4  12  28  46  60  88 134 174 210 256 311 380
#     4  10  20  35  60  87 116 155 194 251 316 361
#     4  12  26  40  66  90 122 162 210 261 314 371
#     4  11  22  37  61  88 119 162 207 246 308 373
#
# _framework density 21.617045000000001
#
# number of rings (size 3 to 8) (size 9 to 14) (size 15 to 20)
#    0.000    1.333    5.000    3.000    2.333    4.000 
#    0.000    5.417    0.000    0.000    0.000    0.000 
#    0.000    0.000    0.000    0.000    0.000    0.000 
#
# Total GULP energy -133933.002239 kJ/mol
# GULP energy per Si atom -5580.541760 kJ/mol
# Density = 2.156784 g / cm^3
# Si number density = 21.617045 Si / 1000 Ang^3
#
#
#
# Elastic Constant Matrix: (Units=GPa)
#
#
# Indices 1 2 3 4 5 6 
#
# 1 103.7960 45.6321 6.9961 0.0000 8.3535 0.0000
# 2 45.6321 104.1805 3.8268 0.0000 23.8306 0.0000
# 3 6.9961 3.8268 51.4253 0.0000 18.5541 0.0000
# 4 0.0000 0.0000 0.0000 12.9025 0.0000 0.2431
# 5 8.3535 23.8306 18.5541 0.0000 45.6804 0.0000
# 6 0.0000 0.0000 0.0000 0.2431 0.0000 28.8379
#
#
#
# Elastic Compliance Matrix: (Units=1/GPa)
#
#
# Indices 1 2 3 4 5 6 
#
# 1 0.012076 -0.005543 -0.001731 0.000000 0.001386 0.000000
# 2 -0.005543 0.013537 0.002260 0.000000 -0.006966 0.000000
# 3 -0.001731 0.002260 0.023228 0.000000 -0.010297 0.000000
# 4 0.000000 0.000000 0.000000 0.077517 0.000000 -0.000653
# 5 0.001386 -0.006966 -0.010297 0.000000 0.029454 0.000000
# 6 0.000000 0.000000 0.000000 -0.000653 0.000000 0.034682
#
#
# Mechanical properties :
#
#
# Convention : Reuss Voigt Hill
#
# Bulk Modulus (GPa) = 25.76339 41.36797 33.56568
# Shear Modulus (GPa) = 23.42360 31.01393 27.21876
#
# Velocity S-wave (km/s) = 3.29533 3.79185 3.55228
# Velocity P-wave (km/s) = 5.14032 6.19267 5.69087
#
# Compressibility (1/GPa) = 0.03881477
#
# Stress axis : x y z
#
# Youngs Moduli (GPa) = 82.80700 73.87084 43.05115
#
# Poissons Ratio (x) = 0.40947 0.07450
# Poissons Ratio (y) = 0.45900 -0.09731
# Poissons Ratio (z) = 0.14331 -0.16697
#
# Static dielectric constant tensor:
#      x y z
#    x 1.828260 0.000000 -0.027530 
#    y 0.000000 1.740910 0.000000 
#    z -0.027530 0.000000 1.948010 
# 
# From -- ./inp_files/131811.got.cif
#   From: 2010.05.17/outbox.cif.g08.bks.cpg/sg12_66_cif.got.tgz:131811.got - 2010.06.03 13:09:07.
