data_PCOD9197775
_publ_section_title
;
Structure prediction by ZEFSAII (Michael W. Deem and Ramdas Pophale) SiO2 
 PCOD9197775
Probable space group: C 2/M
;
_chemical_formula_sum "Si O2"
_cell_formula_units_Z 28
_cell_length_a 15.807414
_cell_length_b 11.229794
_cell_length_c 7.161080
_cell_angle_alpha 90.000000
_cell_angle_beta 58.521904
_cell_angle_gamma 90.000000
_cell_volume 1084.123176
_symmetry_space_group_name_H-M "C 2/M"
_symmetry_group_IT_number 12
_symmetry_cell_setting 'monoclinic'
loop_
_space_group_symop_operation_xyz
x,y,z
-x,y,-z
-x,-y,-z
x,-y,z
1/2+x,1/2+y,z
1/2-x,1/2+y,-z
1/2-x,1/2-y,-z
1/2+x,1/2-y,z
loop_
_atom_site_type_symbol
_atom_site_label
_atom_site_fract_x
_atom_site_fract_y
_atom_site_fract_z
Si Si1 0.364558 0.500000 0.243118
Si Si2 0.926738 0.270080 0.803010
Si Si3 0.884912 0.000000 0.799854
Si Si4 0.817133 0.500000 0.797033
Si Si5 0.864181 0.250079 0.307229
O O1 0.248141 0.500000 0.317471
O O2 0.391369 0.614440 0.322627
O O3 0.414400 0.500000 0.984755
O O4 0.912380 0.139229 0.723131
O O5 0.874969 0.377233 0.752656
O O6 0.040127 0.312361 0.713598
O O7 0.874784 0.262242 0.069541
O O8 0.765237 0.000000 0.941991
O O9 0.750000 0.250000 0.500000
#
# Coordination Sequence:
#
# PCOD9197775 Si02
#       5
#     4   8   4   4   8
#     4   8  19  36  60  79 112 162 185 233 286 344
#     4  10  20  37  61  87 110 158 189 237 289 338
#     4   8  17  34  61  78 110 149 194 221 286 340
#     4  10  20  35  64  87 118 144 196 243 291 329
#     4  10  21  36  58  84 119 149 196 232 287 345
#
# _framework density 25.827327
#
# number of rings (size 3 to 8) (size 9 to 14) (size 15 to 20)
#    0.857    1.714    0.000    1.714    0.000    8.000 
#    0.000    2.857    0.000    1.714    0.000    0.000 
#    0.000    0.000    0.000    0.000    0.000    0.000 
#
# Total GULP energy -77977.100027 kJ/mol
# GULP energy per Si atom -5569.792859 kJ/mol
# Density = 2.576854 g / cm^3
# Si number density = 25.827327 Si / 1000 Ang^3
#
#
#
# Elastic Constant Matrix: (Units=GPa)
#
#
# Indices 1 2 3 4 5 6 
#
# 1 115.7978 49.1348 52.2752 0.0000 -13.2686 0.0000
# 2 49.1348 142.7566 23.2939 0.0000 -4.6739 0.0000
# 3 52.2752 23.2939 204.5736 0.0000 -15.9270 0.0000
# 4 0.0000 0.0000 0.0000 -53.3724 0.0000 -25.6701
# 5 -13.2686 -4.6739 -15.9270 0.0000 46.1120 0.0000
# 6 0.0000 0.0000 0.0000 -25.6701 0.0000 36.5238
#
#
#
# Elastic Compliance Matrix: (Units=1/GPa)
#
#
# Indices 1 2 3 4 5 6 
#
# 1 0.011417 -0.003476 -0.002357 0.000000 0.002119 0.000000
# 2 -0.003476 0.008205 -0.000061 0.000000 -0.000189 0.000000
# 3 -0.002357 -0.000061 0.005595 0.000000 0.001248 0.000000
# 4 0.000000 0.000000 0.000000 -0.014003 0.000000 -0.009842
# 5 0.002119 -0.000189 0.001248 0.000000 0.022708 0.000000
# 6 0.000000 0.000000 0.000000 -0.009842 0.000000 0.020462
#
#
# Mechanical properties :
#
#
# Convention : Reuss Voigt Hill
#
# Bulk Modulus (GPa) = 74.45962 79.17065 76.81514
# Shear Modulus (GPa) = 70.77384 28.41430 49.59407
#
# Velocity S-wave (km/s) = 5.24044 3.32047 4.38678
# Velocity P-wave (km/s) = 8.09374 6.73952 7.44747
#
# Compressibility (1/GPa) = 0.01343010
#
# Stress axis : x y z
#
# Youngs Moduli (GPa) = 87.58664 121.87764 178.74590
#
# Poissons Ratio (x) = 0.42361 0.42126
# Poissons Ratio (y) = 0.30443 0.01088
# Poissons Ratio (z) = 0.20642 0.00742
#
# Static dielectric constant tensor:
#      x y z
#    x 2.040380 0.000000 -0.072790 
#    y 0.000000 2.018250 0.000000 
#    z -0.072790 0.000000 2.233540 
# 
# From -- ./inp_files/152541.got.cif
#   From: 2010.05.17/outbox.cif.g08.bks.cpg/sg12_77_cif.got.tgz:152541.got - 2010.06.03 13:09:07.
