data_PCOD9197460
_publ_section_title
;
Structure prediction by ZEFSAII (Michael W. Deem and Ramdas Pophale) SiO2 
 PCOD9197460
Probable space group: C 2/M
;
_chemical_formula_sum "Si O2"
_cell_formula_units_Z 58
_cell_length_a 19.446160
_cell_length_b 14.797958
_cell_length_c 24.928410
_cell_angle_alpha 90.000000
_cell_angle_beta 154.718025
_cell_angle_gamma 90.000000
_cell_volume 3063.604994
_symmetry_space_group_name_H-M "C 2/M"
_symmetry_group_IT_number 12
_symmetry_cell_setting 'monoclinic'
loop_
_space_group_symop_operation_xyz
x,y,z
-x,y,-z
-x,-y,-z
x,-y,z
1/2+x,1/2+y,z
1/2-x,1/2+y,-z
1/2-x,1/2-y,-z
1/2+x,1/2-y,z
loop_
_atom_site_type_symbol
_atom_site_label
_atom_site_fract_x
_atom_site_fract_y
_atom_site_fract_z
Si Si1 0.469524 0.187702 0.036992
Si Si2 0.000000 0.500000 0.000000
Si Si3 0.370480 0.105690 0.455882
Si Si4 0.109608 0.241116 0.812404
Si Si5 0.617980 0.607502 0.535161
Si Si6 0.389644 0.754900 0.753750
Si Si7 0.969515 0.394960 0.643765
Si Si8 0.407995 0.396197 0.601378
O O1 0.286867 0.204070 0.926844
O O2 0.500000 0.232092 0.000000
O O3 0.577467 0.227624 0.160639
O O4 0.500716 0.081641 0.046545
O O5 0.500000 0.112526 0.500000
O O6 0.217629 0.166445 0.333609
O O7 0.453015 0.135002 0.570085
O O8 0.324759 0.000000 0.430741
O O9 0.051809 0.251508 0.832781
O O10 0.080547 0.333218 0.758813
O O11 0.985932 0.170661 0.698075
O O12 0.500000 0.633851 0.500000
O O13 0.647621 0.500000 0.558701
O O14 0.780998 0.662747 0.655617
O O15 0.538050 0.625307 0.421049
O O16 0.017874 0.500000 0.679329
O O17 0.784974 0.388659 0.534146
O O18 0.451158 0.500000 0.643990
#
# Coordination Sequence:
#
# PCOD9197460 Si02
#       8
#     8   2   8   8   8   8   8   8
#     4  10  27  45  65  90 120 163 214 258 320 377
#     4   8  24  52  64  92 120 160 212 268 326 374
#     4  10  22  38  61  92 124 160 202 252 309 369
#     4  12  23  39  65  90 126 168 212 259 309 382
#     4  10  22  35  57  96 132 164 203 257 325 386
#     4  12  23  40  64  89 127 166 214 260 308 372
#     4  10  20  38  60  94 128 159 200 251 318 376
#     4  10  20  35  59  93 127 159 201 259 324 383
#
# _framework density 18.931946
#
# number of rings (size 3 to 8) (size 9 to 14) (size 15 to 20)
#    0.414    1.103    2.759    2.069    5.793    0.000 
#    2.483    0.690    0.000    0.828    0.000    0.000 
#    0.000    0.000    0.000    0.000    0.000    0.000 
#
# Total GULP energy -161632.145747 kJ/mol
# GULP energy per Si atom -5573.522267 kJ/mol
# Density = 1.888886 g / cm^3
# Si number density = 18.931946 Si / 1000 Ang^3
#
#
#
# Elastic Constant Matrix: (Units=GPa)
#
#
# Indices 1 2 3 4 5 6 
#
# 1 123.0711 19.6923 8.8889 0.0085 -16.7649 0.0068
# 2 19.6923 58.4610 17.3723 0.0186 -13.6699 0.0125
# 3 8.8889 17.3723 30.6267 0.0363 -12.0411 0.0216
# 4 0.0085 0.0186 0.0363 -11.9502 0.0055 1.1590
# 5 -16.7649 -13.6699 -12.0411 0.0055 30.0920 0.0018
# 6 0.0068 0.0125 0.0216 1.1590 0.0018 38.7257
#
#
#
# Elastic Compliance Matrix: (Units=1/GPa)
#
#
# Indices 1 2 3 4 5 6 
#
# 1 0.009015 -0.002134 0.000223 0.000006 0.004142 -0.000001
# 2 -0.002134 0.021890 -0.009915 0.000004 0.004788 -0.000001
# 3 0.000223 -0.009915 0.043301 0.000120 0.012946 -0.000025
# 4 0.000006 0.000004 0.000120 -0.083438 0.000068 0.002497
# 5 0.004142 0.004788 0.012946 0.000068 0.042894 -0.000014
# 6 -0.000001 -0.000001 -0.000025 0.002497 -0.000014 0.025748
#
#
# Mechanical properties :
#
#
# Convention : Reuss Voigt Hill
#
# Bulk Modulus (GPa) = 19.78146 33.78508 26.78327
# Shear Modulus (GPa) = 50.04305 22.45385 36.24845
#
# Velocity S-wave (km/s) = 5.14689 3.44761 4.38044
# Velocity P-wave (km/s) = 6.76698 5.80796 6.30573
#
# Compressibility (1/GPa) = 0.05055239
#
# Stress axis : x y z
#
# Youngs Moduli (GPa) = 110.92584 45.68265 23.09441
#
# Poissons Ratio (x) = 0.09750 -0.00514
# Poissons Ratio (y) = 0.23675 0.22898
# Poissons Ratio (z) = -0.02469 0.45294
#
# Static dielectric constant tensor:
#      x y z
#    x 1.694450 0.000000 0.000380 
#    y 0.000000 1.657410 0.000000 
#    z 0.000380 0.000000 1.638020 
# 
# From -- ./inp_files/343849.got.cif
#   From: 2010.05.17/outbox.cif.g08.bks.cpg/sg12_172_cif.got.tgz:343849.got - 2010.06.03 13:09:07.
