data_PCOD9197341
_publ_section_title
;
Structure prediction by ZEFSAII (Michael W. Deem and Ramdas Pophale) SiO2 
 PCOD9197341
Probable space group: C 2/M
;
_chemical_formula_sum "Si O2"
_cell_formula_units_Z 36
_cell_length_a 5.004834
_cell_length_b 24.087981
_cell_length_c 15.594251
_cell_angle_alpha 90.000000
_cell_angle_beta 104.291037
_cell_angle_gamma 90.000000
_cell_volume 1821.808554
_symmetry_space_group_name_H-M "C 2/M"
_symmetry_group_IT_number 12
_symmetry_cell_setting 'monoclinic'
loop_
_space_group_symop_operation_xyz
x,y,z
-x,y,-z
-x,-y,-z
x,-y,z
1/2+x,1/2+y,z
1/2-x,1/2+y,-z
1/2-x,1/2-y,-z
1/2+x,1/2-y,z
loop_
_atom_site_type_symbol
_atom_site_label
_atom_site_fract_x
_atom_site_fract_y
_atom_site_fract_z
Si Si1 0.144722 0.065328 0.847536
Si Si2 0.423348 0.110145 0.251208
Si Si3 0.105235 0.713670 0.859753
Si Si4 0.212675 0.435756 0.438677
Si Si5 0.500000 0.638180 0.000000
O O1 0.413404 0.082327 0.815400
O O2 0.113746 0.100026 0.932391
O O3 0.878014 0.082610 0.770062
O O4 0.143861 0.000000 0.864422
O O5 0.399055 0.174582 0.224136
O O6 0.591246 0.098226 0.350148
O O7 0.300562 0.766838 0.860173
O O8 0.259936 0.677213 0.943512
O O9 0.500000 0.415160 0.500000
O O10 0.252833 0.500000 0.412589
O O11 0.000000 0.436028 0.500000
#
# Coordination Sequence:
#
# PCOD9197341 Si02
#       5
#     8   8   8   8   4
#     4  11  22  37  57  84 122 157 188 228 281 351
#     4  11  23  39  59  86 116 154 193 232 287 340
#     4  11  23  40  60  81 111 150 199 249 285 324
#     4  10  20  35  59  88 116 145 179 224 281 347
#     4  10  23  38  58  88 114 152 197 240 288 332
#
# _framework density 19.760584999999999
#
# number of rings (size 3 to 8) (size 9 to 14) (size 15 to 20)
#    0.000    1.333    0.000    7.000    0.000    8.889 
#    0.000    5.556    0.000    4.000    0.000    0.000 
#    0.000    0.000    0.000    0.000    0.000    0.000 
#
# Total GULP energy -100757.453906 kJ/mol
# GULP energy per Si atom -5597.636328 kJ/mol
# Density = 1.971561 g / cm^3
# Si number density = 19.760585 Si / 1000 Ang^3
#
#
#
# Elastic Constant Matrix: (Units=GPa)
#
#
# Indices 1 2 3 4 5 6 
#
# 1 57.9015 -2.3335 -8.6798 0.0000 8.1424 0.0000
# 2 -2.3335 81.5216 34.6175 0.0000 5.2478 0.0000
# 3 -8.6798 34.6175 111.1628 0.0000 19.2259 0.0000
# 4 0.0000 0.0000 0.0000 21.5597 0.0000 0.6883
# 5 8.1424 5.2478 19.2259 0.0000 29.2773 0.0000
# 6 0.0000 0.0000 0.0000 0.6883 0.0000 27.6945
#
#
#
# Elastic Compliance Matrix: (Units=1/GPa)
#
#
# Indices 1 2 3 4 5 6 
#
# 1 0.018645 -0.000170 0.002708 0.000000 -0.006933 0.000000
# 2 -0.000170 0.014142 -0.004498 0.000000 0.000466 0.000000
# 3 0.002708 -0.004498 0.011957 0.000000 -0.007799 0.000000
# 4 0.000000 0.000000 0.000000 0.046420 0.000000 -0.001154
# 5 -0.006933 0.000466 -0.007799 0.000000 0.041122 0.000000
# 6 0.000000 0.000000 0.000000 -0.001154 0.000000 0.036137
#
#
# Mechanical properties :
#
#
# Convention : Reuss Voigt Hill
#
# Bulk Modulus (GPa) = 24.49565 33.08825 28.79195
# Shear Modulus (GPa) = 26.88903 30.83841 28.86372
#
# Velocity S-wave (km/s) = 3.69282 3.95473 3.82602
# Velocity P-wave (km/s) = 5.53224 6.13467 5.84123
#
# Compressibility (1/GPa) = 0.04082357
#
# Stress axis : x y z
#
# Youngs Moduli (GPa) = 53.63440 70.71249 83.63506
#
# Poissons Ratio (x) = 0.01201 -0.22647
# Poissons Ratio (y) = 0.00911 0.37617
# Poissons Ratio (z) = -0.14523 0.31805
#
# Static dielectric constant tensor:
#      x y z
#    x 1.686900 0.000000 0.013660 
#    y 0.000000 1.694090 0.000000 
#    z 0.013660 0.000000 1.670080 
# 
# From -- ./inp_files/191444.got.cif
#   From: 2010.05.17/outbox.cif.g08.bks.cpg/sg12_96_cif.got.tgz:191444.got - 2010.06.03 13:09:07.
