data_PCOD9197610
_publ_section_title
;
Structure prediction by ZEFSAII (Michael W. Deem and Ramdas Pophale) SiO2 
 PCOD9197610
Probable space group: C 2/M
;
_chemical_formula_sum "Si O2"
_cell_formula_units_Z 64
_cell_length_a 28.055603
_cell_length_b 13.752242
_cell_length_c 10.053227
_cell_angle_alpha 90.000000
_cell_angle_beta 68.265666
_cell_angle_gamma 90.000000
_cell_volume 3603.069440
_symmetry_space_group_name_H-M "C 2/M"
_symmetry_group_IT_number 12
_symmetry_cell_setting 'monoclinic'
loop_
_space_group_symop_operation_xyz
x,y,z
-x,y,-z
-x,-y,-z
x,-y,z
1/2+x,1/2+y,z
1/2-x,1/2+y,-z
1/2-x,1/2-y,-z
1/2+x,1/2-y,z
loop_
_atom_site_type_symbol
_atom_site_label
_atom_site_fract_x
_atom_site_fract_y
_atom_site_fract_z
Si Si1 0.679651 0.112214 0.856962
Si Si2 0.464205 0.604021 0.906259
Si Si3 0.156562 0.618130 0.363316
Si Si4 0.900172 0.614286 0.836226
Si Si5 0.258383 0.284701 0.143000
Si Si6 0.122500 0.699718 0.676947
Si Si7 0.143472 0.114252 0.836366
Si Si8 0.497049 0.803245 0.164447
O O1 0.728309 0.182908 0.797775
O O2 0.646925 0.125794 0.758005
O O3 0.693026 0.000000 0.866194
O O4 0.641818 0.151575 0.013422
O O5 0.466406 0.500000 0.834509
O O6 0.485706 0.695665 0.807821
O O7 0.500000 0.598276 0.000000
O O8 0.407198 0.622011 0.019565
O O9 0.157301 0.500000 0.380759
O O10 0.113543 0.646091 0.298114
O O11 0.209574 0.656660 0.246107
O O12 0.146062 0.674009 0.510766
O O13 0.891023 0.500000 0.846890
O O14 0.958045 0.631365 0.822572
O O15 0.307496 0.351774 0.128558
O O16 0.250000 0.250000 0.000000
O O17 0.134789 0.807432 0.725627
O O18 0.061495 0.681861 0.735961
O O19 0.147802 0.000000 0.791669
O O20 0.500000 0.809037 0.000000
#
# Coordination Sequence:
#
# PCOD9197610 Si02
#       8
#     8   8   8   8   8   8   8   8
#     4  10  20  36  59  88 116 145 192 248 294 348
#     4   9  16  29  54  89 119 145 183 241 297 340
#     4  11  25  43  59  83 123 162 195 244 308 357
#     4  10  21  36  57  84 117 154 195 245 297 352
#     4  11  22  38  63  84 112 155 202 241 293 352
#     4  11  22  37  59  89 120 159 194 243 299 356
#     4  10  20  35  60  94 121 149 201 252 295 352
#     4  11  18  33  58  88 119 150 205 246 287 342
#
# _framework density 17.762632
#
# number of rings (size 3 to 8) (size 9 to 14) (size 15 to 20)
#    0.000    1.625    5.000    1.500    0.000    4.250 
#    0.000    3.125    0.000    0.750    0.000    1.750 
#    0.000    0.000    0.000    0.000    0.000    0.000 
#
# Total GULP energy -178256.112284 kJ/mol
# GULP energy per Si atom -5570.503509 kJ/mol
# Density = 1.772220 g / cm^3
# Si number density = 17.762632 Si / 1000 Ang^3
#
#
#
# Elastic Constant Matrix: (Units=GPa)
#
#
# Indices 1 2 3 4 5 6 
#
# 1 108.7790 11.6988 26.6744 0.0000 0.4819 0.0000
# 2 11.6988 49.2590 -2.8868 0.0000 3.4046 0.0000
# 3 26.6744 -2.8868 57.7272 0.0000 4.7338 0.0000
# 4 0.0000 0.0000 0.0000 18.5615 0.0000 -5.1859
# 5 0.4819 3.4046 4.7338 0.0000 19.9356 0.0000
# 6 0.0000 0.0000 0.0000 -5.1859 0.0000 18.1460
#
#
#
# Elastic Compliance Matrix: (Units=1/GPa)
#
#
# Indices 1 2 3 4 5 6 
#
# 1 0.010796 -0.002976 -0.005260 0.000000 0.001496 0.000000
# 2 -0.002976 0.021466 0.002798 0.000000 -0.004258 0.000000
# 3 -0.005260 0.002798 0.020318 0.000000 -0.005175 0.000000
# 4 0.000000 0.000000 0.000000 0.058550 0.000000 0.016733
# 5 0.001496 -0.004258 -0.005175 0.000000 0.052082 0.000000
# 6 0.000000 0.000000 0.000000 0.016733 0.000000 0.059890
#
#
# Mechanical properties :
#
#
# Convention : Reuss Voigt Hill
#
# Bulk Modulus (GPa) = 23.97894 31.85978 27.91936
# Shear Modulus (GPa) = 20.17112 23.34722 21.75917
#
# Velocity S-wave (km/s) = 3.37351 3.62940 3.50379
# Velocity P-wave (km/s) = 5.35752 5.96144 5.66753
#
# Compressibility (1/GPa) = 0.04170325
#
# Stress axis : x y z
#
# Youngs Moduli (GPa) = 92.62486 46.58564 49.21811
#
# Poissons Ratio (x) = 0.13863 0.25890
# Poissons Ratio (y) = 0.27563 -0.13769
# Poissons Ratio (z) = 0.48722 -0.13033
#
# Static dielectric constant tensor:
#      x y z
#    x 1.638310 0.000000 0.004860 
#    y 0.000000 1.671600 0.000000 
#    z 0.004860 0.000000 1.611500 
# 
# From -- ./inp_files/104505.got.cif
#   From: 2010.05.17/outbox.cif.g08.bks.cpg/sg12_53_cif.got.tgz:104505.got - 2010.06.03 13:09:07.
