data_PCOD9197391
_publ_section_title
;
Structure prediction by ZEFSAII (Michael W. Deem and Ramdas Pophale) SiO2 
 PCOD9197391
Probable space group: C 2/M
;
_chemical_formula_sum "Si O2"
_cell_formula_units_Z 64
_cell_length_a 28.836337
_cell_length_b 12.750801
_cell_length_c 16.583088
_cell_angle_alpha 90.000000
_cell_angle_beta 145.302672
_cell_angle_gamma 90.000000
_cell_volume 3470.877429
_symmetry_space_group_name_H-M "C 2/M"
_symmetry_group_IT_number 12
_symmetry_cell_setting 'monoclinic'
loop_
_space_group_symop_operation_xyz
x,y,z
-x,y,-z
-x,-y,-z
x,-y,z
1/2+x,1/2+y,z
1/2-x,1/2+y,-z
1/2-x,1/2-y,-z
1/2+x,1/2-y,z
loop_
_atom_site_type_symbol
_atom_site_label
_atom_site_fract_x
_atom_site_fract_y
_atom_site_fract_z
Si Si1 0.589016 0.388516 0.091313
Si Si2 0.838479 0.625088 0.572568
Si Si3 0.266297 0.235100 0.118813
Si Si4 0.797480 0.288226 0.685623
Si Si5 0.316300 0.375882 0.339179
Si Si6 0.100025 0.883927 0.917352
Si Si7 0.066386 0.618381 0.666019
Si Si8 0.461279 0.747446 0.637603
O O1 0.630136 0.500000 0.175877
O O2 0.631652 0.282457 0.177477
O O3 0.500000 0.389123 0.000000
O O4 0.583870 0.390404 0.988587
O O5 0.833902 0.500000 0.549251
O O6 0.830529 0.645007 0.657324
O O7 0.765664 0.698108 0.434517
O O8 0.915969 0.678124 0.638259
O O9 0.286692 0.330151 0.210138
O O10 0.347500 0.164101 0.239654
O O11 0.250000 0.250000 0.000000
O O12 0.182500 0.182147 0.026980
O O13 0.752570 0.354561 0.690851
O O14 0.333713 0.500000 0.358823
O O15 0.394159 0.310000 0.484713
O O16 0.019072 0.837008 0.762551
O O17 0.115535 0.000000 0.905722
O O18 0.079454 0.500000 0.712725
O O19 0.000000 0.618159 0.500000
O O20 0.024264 0.685661 0.674990
#
# Coordination Sequence:
#
# PCOD9197391 Si02
#       8
#     8   8   8   8   8   8   8   8
#     4  10  20  35  59  89 121 159 201 250 308 362
#     4  10  21  36  61  93 125 166 209 252 307 363
#     4  12  24  44  63  89 127 158 209 259 311 372
#     4  10  20  38  61  88 128 163 205 259 298 369
#     4  11  24  42  66  92 123 167 209 255 314 371
#     4  11  23  40  64  92 124 162 204 253 309 367
#     4  11  23  41  64  89 119 160 207 258 310 359
#     4  11  22  42  64  93 128 162 206 261 304 374
#
# _framework density 18.439140999999999
#
# number of rings (size 3 to 8) (size 9 to 14) (size 15 to 20)
#    0.000    1.250    3.750    2.625    0.000    1.000 
#    0.000    4.375    0.000    1.500    0.000    0.000 
#    0.000    0.000    0.000    0.000    0.000    0.000 
#
# Total GULP energy -178374.350300 kJ/mol
# GULP energy per Si atom -5574.198447 kJ/mol
# Density = 1.839717 g / cm^3
# Si number density = 18.439141 Si / 1000 Ang^3
#
#
#
# Elastic Constant Matrix: (Units=GPa)
#
#
# Indices 1 2 3 4 5 6 
#
# 1 99.1714 32.5700 30.7295 0.0000 -5.4274 0.0000
# 2 32.5700 111.5898 30.7000 0.0000 -3.3866 0.0000
# 3 30.7295 30.7000 76.5247 0.0000 3.1470 0.0000
# 4 0.0000 0.0000 0.0000 19.9513 0.0000 -2.7027
# 5 -5.4274 -3.3866 3.1470 0.0000 23.7585 0.0000
# 6 0.0000 0.0000 0.0000 -2.7027 0.0000 -9.3243
#
#
#
# Elastic Compliance Matrix: (Units=1/GPa)
#
#
# Indices 1 2 3 4 5 6 
#
# 1 0.012301 -0.002367 -0.004114 0.000000 0.003018 0.000000
# 2 -0.002367 0.010622 -0.003369 0.000000 0.001420 0.000000
# 3 -0.004114 -0.003369 0.016218 0.000000 -0.003568 0.000000
# 4 0.000000 0.000000 0.000000 0.048228 0.000000 -0.013979
# 5 0.003018 0.001420 -0.003568 0.000000 0.043455 0.000000
# 6 0.000000 0.000000 0.000000 -0.013979 0.000000 -0.103195
#
#
# Mechanical properties :
#
#
# Convention : Reuss Voigt Hill
#
# Bulk Modulus (GPa) = 51.43865 52.80944 52.12404
# Shear Modulus (GPa) = 92.91969 19.76286 56.34128
#
# Velocity S-wave (km/s) = 7.10648 3.27737 5.53368
# Velocity P-wave (km/s) = 9.76182 6.55924 8.31615
#
# Compressibility (1/GPa) = 0.01944064
#
# Stress axis : x y z
#
# Youngs Moduli (GPa) = 81.29526 94.14190 61.65901
#
# Poissons Ratio (x) = 0.22282 0.25367
# Poissons Ratio (y) = 0.19241 0.20775
# Poissons Ratio (z) = 0.33446 0.31720
#
# Static dielectric constant tensor:
#      x y z
#    x 1.628390 0.000000 -0.023630 
#    y 0.000000 1.651350 0.000000 
#    z -0.023630 0.000000 1.641680 
# 
# From -- ./inp_files/245989.got.cif
#   From: 2010.05.17/outbox.cif.g08.bks.cpg/sg12_123_cif.got.tgz:245989.got - 2010.06.03 13:09:07.
