data_PCOD9197671
_publ_section_title
;
Structure prediction by ZEFSAII (Michael W. Deem and Ramdas Pophale) SiO2 
 PCOD9197671
Probable space group: C 2/M
;
_chemical_formula_sum "Si O2"
_cell_formula_units_Z 50
_cell_length_a 26.598992
_cell_length_b 7.687842
_cell_length_c 11.865975
_cell_angle_alpha 90.000000
_cell_angle_beta 66.361318
_cell_angle_gamma 90.000000
_cell_volume 2222.860755
_symmetry_space_group_name_H-M "C 2/M"
_symmetry_group_IT_number 12
_symmetry_cell_setting 'monoclinic'
loop_
_space_group_symop_operation_xyz
x,y,z
-x,y,-z
-x,-y,-z
x,-y,z
1/2+x,1/2+y,z
1/2-x,1/2+y,-z
1/2-x,1/2-y,-z
1/2+x,1/2-y,z
loop_
_atom_site_type_symbol
_atom_site_label
_atom_site_fract_x
_atom_site_fract_y
_atom_site_fract_z
Si Si1 0.930960 0.802419 0.967977
Si Si2 0.736102 0.795224 0.247340
Si Si3 0.000000 0.500000 0.000000
Si Si4 0.157964 0.705960 0.519221
Si Si5 0.850454 0.299191 0.222006
Si Si6 0.437899 0.289860 0.548445
Si Si7 0.858831 0.791160 0.820835
O O1 0.898323 0.800031 0.115390
O O2 0.950092 0.000000 0.925497
O O3 0.976442 0.655104 0.936795
O O4 0.885273 0.748836 0.916523
O O5 0.699136 0.725153 0.385702
O O6 0.794859 0.707124 0.200104
O O7 0.700317 0.773328 0.166810
O O8 0.745590 0.000000 0.254629
O O9 0.168346 0.500000 0.514533
O O10 0.163848 0.771486 0.640914
O O11 0.096530 0.736243 0.529922
O O12 0.869843 0.500000 0.214401
O O13 0.500000 0.226675 0.500000
O O14 0.439016 0.500000 0.550270
O O15 0.401819 0.229288 0.686973
O O16 0.855766 0.000000 0.818651
#
# Coordination Sequence:
#
# PCOD9197671 Si02
#       7
#     8   8   2   8   8   8   8
#     4  11  25  45  68  94 128 170 217 263 320 383
#     4  10  20  35  61  92 125 167 209 259 330 387
#     4  12  26  48  68  94 126 172 214 268 326 370
#     4   9  20  36  55  86 125 164 207 260 318 379
#     4  11  22  39  60  90 129 167 216 267 316 384
#     4   9  18  34  57  86 116 153 204 259 314 375
#     4   9  20  39  60  88 124 162 207 260 319 382
#
# _framework density 22.493535999999999
#
# number of rings (size 3 to 8) (size 9 to 14) (size 15 to 20)
#    0.000    2.080    0.800    1.680    1.120    4.160 
#    0.000    1.600    0.000    0.000    0.000    0.000 
#    0.000    0.000    0.000    0.000    0.000    0.000 
#
# Total GULP energy -139395.207951 kJ/mol
# GULP energy per Si atom -5575.808318 kJ/mol
# Density = 2.244234 g / cm^3
# Si number density = 22.493536 Si / 1000 Ang^3
#
#
#
# Elastic Constant Matrix: (Units=GPa)
#
#
# Indices 1 2 3 4 5 6 
#
# 1 93.9528 18.7382 19.1639 0.0000 14.6066 0.0000
# 2 18.7382 77.3099 12.9063 0.0000 12.3267 0.0000
# 3 19.1639 12.9063 33.5232 0.0000 15.6568 0.0000
# 4 0.0000 0.0000 0.0000 12.1709 0.0000 10.9195
# 5 14.6066 12.3267 15.6568 0.0000 29.6982 0.0000
# 6 0.0000 0.0000 0.0000 10.9195 0.0000 18.1087
#
#
#
# Elastic Compliance Matrix: (Units=1/GPa)
#
#
# Indices 1 2 3 4 5 6 
#
# 1 0.012466 -0.001726 -0.005218 0.000000 -0.002664 0.000000
# 2 -0.001726 0.014409 -0.002871 0.000000 -0.003619 0.000000
# 3 -0.005218 -0.002871 0.042669 0.000000 -0.018737 0.000000
# 4 0.000000 0.000000 0.000000 0.179003 0.000000 -0.107938
# 5 -0.002664 -0.003619 -0.018737 0.000000 0.046363 0.000000
# 6 0.000000 0.000000 0.000000 -0.107938 0.000000 0.120308
#
#
# Mechanical properties :
#
#
# Convention : Reuss Voigt Hill
#
# Bulk Modulus (GPa) = 20.03365 34.04476 27.03920
# Shear Modulus (GPa) = 11.07453 22.26073 16.66763
#
# Velocity S-wave (km/s) = 2.22129 3.14928 2.72508
# Velocity P-wave (km/s) = 3.93758 5.32843 4.68491
#
# Compressibility (1/GPa) = 0.04991602
#
# Stress axis : x y z
#
# Youngs Moduli (GPa) = 80.21618 69.39879 23.43603
#
# Poissons Ratio (x) = 0.11976 0.12228
# Poissons Ratio (y) = 0.13843 0.06729
# Poissons Ratio (z) = 0.41855 0.19925
#
# Static dielectric constant tensor:
#      x y z
#    x 1.829490 0.000000 -0.002300 
#    y 0.000000 1.815750 0.000000 
#    z -0.002300 0.000000 1.858420 
# 
# From -- ./inp_files/180578.got.cif
#   From: 2010.05.17/outbox.cif.g08.bks.cpg/sg12_91_cif.got.tgz:180578.got - 2010.06.03 13:09:07.
