data_PCOD9197043
_publ_section_title
;
Structure prediction by ZEFSAII (Michael W. Deem and Ramdas Pophale) SiO2 
 PCOD9197043
Probable space group: C 2/M
;
_chemical_formula_sum "Si O2"
_cell_formula_units_Z 56
_cell_length_a 20.938862
_cell_length_b 7.794604
_cell_length_c 18.378816
_cell_angle_alpha 90.000000
_cell_angle_beta 62.517120
_cell_angle_gamma 90.000000
_cell_volume 2661.099494
_symmetry_space_group_name_H-M "C 2/M"
_symmetry_group_IT_number 12
_symmetry_cell_setting 'monoclinic'
loop_
_space_group_symop_operation_xyz
x,y,z
-x,y,-z
-x,-y,-z
x,-y,z
1/2+x,1/2+y,z
1/2-x,1/2+y,-z
1/2-x,1/2-y,-z
1/2+x,1/2-y,z
loop_
_atom_site_type_symbol
_atom_site_label
_atom_site_fract_x
_atom_site_fract_y
_atom_site_fract_z
Si Si1 0.555358 0.699769 0.698228
Si Si2 0.169254 0.705550 0.517299
Si Si3 0.081216 0.794863 0.963423
Si Si4 0.846171 0.210005 0.221727
Si Si5 0.894452 0.299116 0.755861
Si Si6 0.315970 0.210074 0.654056
Si Si7 0.168017 0.704553 0.060808
O O1 0.539406 0.500000 0.719220
O O2 0.611676 0.717332 0.602886
O O3 0.595407 0.767075 0.749358
O O4 0.479862 0.785631 0.719690
O O5 0.161020 0.500000 0.523989
O O6 0.250000 0.750000 0.500000
O O7 0.160533 0.765746 0.438645
O O8 0.130516 0.732057 0.870734
O O9 0.077070 0.000000 0.956273
O O10 0.116705 0.762599 0.022453
O O11 0.000000 0.726221 0.000000
O O12 0.766186 0.263401 0.286600
O O13 0.845479 0.000000 0.223459
O O14 0.874436 0.500000 0.764750
O O15 0.865531 0.229000 0.694518
O O16 0.857117 0.224385 0.847747
O O17 0.316759 0.000000 0.651430
O O18 0.162397 0.500000 0.066899
O O19 0.250000 0.750000 0.000000
#
# Coordination Sequence:
#
# PCOD9197043 Si02
#       7
#     8   8   8   8   8   8   8
#     4  11  22  38  61  87 119 154 191 239 294 349
#     4  11  21  37  61  88 117 150 194 242 290 345
#     4  10  20  35  58  86 116 153 198 243 291 351
#     4   9  17  33  57  82 109 150 198 236 278 345
#     4  10  22  40  60  84 115 154 197 238 285 346
#     4   9  18  35  59  81 107 150 198 235 275 342
#     4  11  23  39  61  86 119 157 198 247 297 351
#
# _framework density 21.043934
#
# number of rings (size 3 to 8) (size 9 to 14) (size 15 to 20)
#    0.000    1.857    1.429    3.000    0.000    5.429 
#    0.000    5.714    0.000    0.000    0.000    0.000 
#    0.000    0.000    0.000    0.000    0.000    0.000 
#
# Total GULP energy -156472.352815 kJ/mol
# GULP energy per Si atom -5588.298315 kJ/mol
# Density = 2.099604 g / cm^3
# Si number density = 21.043934 Si / 1000 Ang^3
#
#
#
# Elastic Constant Matrix: (Units=GPa)
#
#
# Indices 1 2 3 4 5 6 
#
# 1 119.0428 -16.4124 35.6050 0.0001 25.4410 0.0001
# 2 -16.4124 21.6584 -7.8089 0.0004 4.6245 0.0013
# 3 35.6050 -7.8089 113.3801 0.0001 26.7799 -0.0002
# 4 0.0001 0.0004 0.0001 16.5810 0.0000 1.6967
# 5 25.4410 4.6245 26.7799 0.0000 41.5146 0.0001
# 6 0.0001 0.0013 -0.0002 1.6967 0.0001 27.5416
#
#
#
# Elastic Compliance Matrix: (Units=1/GPa)
#
#
# Indices 1 2 3 4 5 6 
#
# 1 0.011770 0.010092 -0.001217 0.000000 -0.007552 -0.000001
# 2 0.010092 0.058826 0.004590 -0.000001 -0.015699 -0.000003
# 3 -0.001217 0.004590 0.011164 0.000000 -0.006967 0.000000
# 4 0.000000 -0.000001 0.000000 0.060693 0.000000 -0.003739
# 5 -0.007552 -0.015699 -0.006967 0.000000 0.034959 0.000001
# 6 -0.000001 -0.000003 0.000000 -0.003739 0.000001 0.036539
#
#
# Mechanical properties :
#
#
# Convention : Reuss Voigt Hill
#
# Bulk Modulus (GPa) = 9.20042 30.76098 19.98070
# Shear Modulus (GPa) = 22.39644 33.30727 27.85186
#
# Velocity S-wave (km/s) = 3.26586 3.98269 3.64195
# Velocity P-wave (km/s) = 4.31307 5.98317 5.21541
#
# Compressibility (1/GPa) = 0.10869072
#
# Stress axis : x y z
#
# Youngs Moduli (GPa) = 84.96331 16.99920 89.57490
#
# Poissons Ratio (x) = -0.17156 0.10904
# Poissons Ratio (y) = -0.85749 -0.41117
# Poissons Ratio (z) = 0.10343 -0.07803
#
# Static dielectric constant tensor:
#      x y z
#    x 1.706300 0.000000 0.019210 
#    y 0.000000 1.801630 0.000000 
#    z 0.019210 0.000000 1.782560 
# 
# From -- ./inp_files/275254.got.cif
#   From: 2010.05.17/outbox.cif.g08.bks.cpg/sg12_138_cif.got.tgz:275254.got - 2010.06.03 13:09:07.
