data_PCOD9197801
_publ_section_title
;
Structure prediction by ZEFSAII (Michael W. Deem and Ramdas Pophale) SiO2 
 PCOD9197801
Probable space group: C 2/M
;
_chemical_formula_sum "Si O2"
_cell_formula_units_Z 64
_cell_length_a 15.850371
_cell_length_b 28.336288
_cell_length_c 9.451214
_cell_angle_alpha 90.000000
_cell_angle_beta 102.839312
_cell_angle_gamma 90.000000
_cell_volume 4138.789297
_symmetry_space_group_name_H-M "C 2/M"
_symmetry_group_IT_number 12
_symmetry_cell_setting 'monoclinic'
loop_
_space_group_symop_operation_xyz
x,y,z
-x,y,-z
-x,-y,-z
x,-y,z
1/2+x,1/2+y,z
1/2-x,1/2+y,-z
1/2-x,1/2-y,-z
1/2+x,1/2-y,z
loop_
_atom_site_type_symbol
_atom_site_label
_atom_site_fract_x
_atom_site_fract_y
_atom_site_fract_z
Si Si1 0.225064 0.711171 0.798789
Si Si2 0.352670 0.552843 0.427739
Si Si3 0.010298 0.946971 0.267402
Si Si4 0.869583 0.211031 0.613155
Si Si5 0.598518 0.186795 0.511994
Si Si6 0.743802 0.145825 0.378027
Si Si7 0.009288 0.846072 0.842941
Si Si8 0.702854 0.683444 0.886188
O O1 0.302931 0.720452 0.717079
O O2 0.149354 0.688240 0.679264
O O3 0.193864 0.761030 0.848897
O O4 0.259427 0.680302 0.942033
O O5 0.315933 0.500000 0.407299
O O6 0.411626 0.556190 0.590464
O O7 0.421812 0.557596 0.325635
O O8 0.282024 0.593502 0.400365
O O9 0.016065 0.901188 0.172161
O O10 0.012058 0.000000 0.205525
O O11 0.897119 0.260031 0.551569
O O12 0.815657 0.179821 0.480334
O O13 0.949284 0.182270 0.710138
O O14 0.500000 0.172968 0.500000
O O15 0.655100 0.154550 0.428241
O O16 0.737680 0.161461 0.213132
O O17 0.109091 0.839895 0.840007
O O18 0.000000 0.827787 0.000000
#
# Coordination Sequence:
#
# PCOD9197801 Si02
#       8
#     8   8   8   8   8   8   8   8
#     4  10  20  36  47  68 104 131 166 211 246 291
#     4   9  17  30  51  76  98 126 167 214 248 287
#     4   9  18  31  47  71 103 134 168 205 242 286
#     4  11  20  33  49  73  99 139 172 201 240 300
#     4  11  22  36  51  72  98 130 171 213 254 298
#     4  11  19  33  55  73  95 136 174 203 251 301
#     4  12  22  30  47  74 104 139 173 200 246 296
#     4  11  20  32  49  72 100 134 166 206 245 290
#
# _framework density 15.463459
#
# number of rings (size 3 to 8) (size 9 to 14) (size 15 to 20)
#    0.000    1.500    6.250    2.250    0.000    0.250 
#    0.000    0.625    0.000    0.375    0.000    0.000 
#    0.000    1.000    0.000    0.000    0.000    0.000 
#
# Total GULP energy -178519.102866 kJ/mol
# GULP energy per Si atom -5578.721965 kJ/mol
# Density = 1.542826 g / cm^3
# Si number density = 15.463459 Si / 1000 Ang^3
#
#
#
# Elastic Constant Matrix: (Units=GPa)
#
#
# Indices 1 2 3 4 5 6 
#
# 1 76.9111 15.0842 20.0567 0.0000 7.3180 0.0000
# 2 15.0842 66.5937 2.7507 0.0000 5.1001 0.0000
# 3 20.0567 2.7507 70.2810 0.0000 2.4958 0.0000
# 4 0.0000 0.0000 0.0000 15.1729 0.0000 -0.8766
# 5 7.3180 5.1001 2.4958 0.0000 16.0655 0.0000
# 6 0.0000 0.0000 0.0000 -0.8766 0.0000 19.4967
#
#
#
# Elastic Compliance Matrix: (Units=1/GPa)
#
#
# Indices 1 2 3 4 5 6 
#
# 1 0.015117 -0.002848 -0.004012 0.000000 -0.005358 0.000000
# 2 -0.002848 0.015940 0.000324 0.000000 -0.003813 0.000000
# 3 -0.004012 0.000324 0.015385 0.000000 -0.000665 0.000000
# 4 0.000000 0.000000 0.000000 0.066079 0.000000 0.002971
# 5 -0.005358 -0.003813 -0.000665 0.000000 0.066000 0.000000
# 6 0.000000 0.000000 0.000000 0.002971 0.000000 0.051424
#
#
# Mechanical properties :
#
#
# Convention : Reuss Voigt Hill
#
# Bulk Modulus (GPa) = 29.96741 32.17433 31.07087
# Shear Modulus (GPa) = 19.67426 21.87331 20.77378
#
# Velocity S-wave (km/s) = 3.57081 3.76509 3.66923
# Velocity P-wave (km/s) = 6.03510 6.30500 6.17153
#
# Compressibility (1/GPa) = 0.03336958
#
# Stress axis : x y z
#
# Youngs Moduli (GPa) = 66.15182 62.73447 65.00031
#
# Poissons Ratio (x) = 0.17867 0.26080
# Poissons Ratio (y) = 0.18840 -0.02108
# Poissons Ratio (z) = 0.26542 -0.02034
#
# Static dielectric constant tensor:
#      x y z
#    x 1.501950 0.000000 -0.011590 
#    y 0.000000 1.514840 0.000000 
#    z -0.011590 0.000000 1.531600 
# 
# From -- ./inp_files/66943.got.cif
#   From: 2010.05.17/outbox.cif.g08.bks.cpg/sg12_34_cif.got.tgz:66943.got - 2010.06.03 13:09:07.
