data_PCOD9197312
_publ_section_title
;
Structure prediction by ZEFSAII (Michael W. Deem and Ramdas Pophale) SiO2 
 PCOD9197312
Probable space group: C 2/M
;
_chemical_formula_sum "Si O2"
_cell_formula_units_Z 64
_cell_length_a 19.297817
_cell_length_b 9.064210
_cell_length_c 32.313859
_cell_angle_alpha 90.000000
_cell_angle_beta 37.333915
_cell_angle_gamma 90.000000
_cell_volume 3427.903017
_symmetry_space_group_name_H-M "C 2/M"
_symmetry_group_IT_number 12
_symmetry_cell_setting 'monoclinic'
loop_
_space_group_symop_operation_xyz
x,y,z
-x,y,-z
-x,-y,-z
x,-y,z
1/2+x,1/2+y,z
1/2-x,1/2+y,-z
1/2-x,1/2-y,-z
1/2+x,1/2-y,z
loop_
_atom_site_type_symbol
_atom_site_label
_atom_site_fract_x
_atom_site_fract_y
_atom_site_fract_z
Si Si1 0.364465 0.177535 0.295267
Si Si2 0.728684 0.175229 0.205883
Si Si3 0.710408 0.825391 0.976674
Si Si4 0.325073 0.677711 0.681502
Si Si5 0.625254 0.177076 0.167994
Si Si6 0.698869 0.675913 0.588149
Si Si7 0.584816 0.323159 0.555195
Si Si8 0.488566 0.670234 0.054930
O O1 0.269955 0.225185 0.306654
O O2 0.493912 0.210824 0.219809
O O3 0.341859 0.250716 0.350234
O O4 0.356747 0.000000 0.303564
O O5 0.700660 0.258866 0.261107
O O6 0.650568 0.216907 0.203726
O O7 0.859601 0.200996 0.130003
O O8 0.714572 0.000000 0.219361
O O9 0.786812 0.759485 0.903363
O O10 0.723178 0.000000 0.972669
O O11 0.750000 0.750000 0.000000
O O12 0.579724 0.779392 0.031151
O O13 0.321650 0.500000 0.685275
O O14 0.454514 0.719194 0.607863
O O15 0.643909 0.000000 0.155259
O O16 0.704190 0.500000 0.590074
O O17 0.615839 0.709188 0.588514
O O18 0.822014 0.740145 0.516578
O O19 0.597628 0.500000 0.543304
O O20 0.516166 0.500000 0.053296
O O21 0.500000 0.680316 0.000000
#
# Coordination Sequence:
#
# PCOD9197312 Si02
#       8
#     8   8   8   8   8   8   8   8
#     4  10  22  38  58  83 116 154 190 231 285 347
#     4  10  21  37  61  86 114 152 190 238 292 343
#     4  12  26  41  61  88 119 156 198 245 298 354
#     4  10  22  38  56  84 117 151 192 238 286 341
#     4  10  21  41  62  84 115 155 197 236 289 351
#     4  10  20  35  59  87 113 147 191 237 282 337
#     4   9  19  37  59  82 114 151 189 234 284 335
#     4  10  20  40  64  87 119 154 194 243 297 355
#
# _framework density 18.670304999999999
#
# number of rings (size 3 to 8) (size 9 to 14) (size 15 to 20)
#    0.000    1.875    1.250    2.250    1.750    3.750 
#    0.000    2.500    0.000    0.000    0.000    0.000 
#    0.000    0.000    0.000    0.000    0.000    0.000 
#
# Total GULP energy -178776.337637 kJ/mol
# GULP energy per Si atom -5586.760551 kJ/mol
# Density = 1.862781 g / cm^3
# Si number density = 18.670305 Si / 1000 Ang^3
#
#
#
# Elastic Constant Matrix: (Units=GPa)
#
#
# Indices 1 2 3 4 5 6 
#
# 1 87.5203 32.0715 18.1632 0.0000 -20.8085 -0.0013
# 2 32.0715 33.8487 16.9227 0.0006 -8.0916 -0.0001
# 3 18.1632 16.9227 38.7179 -0.0006 -14.7778 0.0004
# 4 0.0000 0.0006 -0.0006 30.7473 0.0004 8.1777
# 5 -20.8085 -8.0916 -14.7778 0.0004 29.0039 0.0001
# 6 -0.0013 -0.0001 0.0004 8.1777 0.0001 25.3711
#
#
#
# Elastic Compliance Matrix: (Units=1/GPa)
#
#
# Indices 1 2 3 4 5 6 
#
# 1 0.019846 -0.017454 0.002352 0.000000 0.010567 0.000001
# 2 -0.017454 0.053318 -0.017650 -0.000001 -0.006640 0.000000
# 3 0.002352 -0.017650 0.038737 0.000001 0.016500 -0.000001
# 4 0.000000 -0.000001 0.000001 0.035573 0.000000 -0.011466
# 5 0.010567 -0.006640 0.016500 0.000000 0.048614 0.000000
# 6 0.000001 0.000000 -0.000001 -0.011466 0.000000 0.043111
#
#
# Mechanical properties :
#
#
# Convention : Reuss Voigt Hill
#
# Bulk Modulus (GPa) = 21.55375 32.71130 27.13253
# Shear Modulus (GPa) = 15.61682 23.21979 19.41830
#
# Velocity S-wave (km/s) = 2.89529 3.53040 3.22850
# Velocity P-wave (km/s) = 4.76932 5.84610 5.33494
#
# Compressibility (1/GPa) = 0.04639563
#
# Stress axis : x y z
#
# Youngs Moduli (GPa) = 50.38749 18.75555 25.81528
#
# Poissons Ratio (x) = 0.32736 -0.06071
# Poissons Ratio (y) = 0.87945 0.45565
# Poissons Ratio (z) = -0.11850 0.33104
#
# Static dielectric constant tensor:
#      x y z
#    x 1.695290 0.000000 -0.046200 
#    y 0.000000 1.622750 0.000000 
#    z -0.046200 0.000000 1.627970 
# 
# From -- ./inp_files/377983.got.cif
#   From: 2010.05.17/outbox.cif.g08.bks.cpg/sg12_189_cif.got.tgz:377983.got - 2010.06.03 13:09:07.
