data_PCOD9197133
_publ_section_title
;
Structure prediction by ZEFSAII (Michael W. Deem and Ramdas Pophale) SiO2 
 PCOD9197133
Probable space group: C 2/M
;
_chemical_formula_sum "Si O2"
_cell_formula_units_Z 64
_cell_length_a 29.151872
_cell_length_b 8.996370
_cell_length_c 14.544724
_cell_angle_alpha 90.000000
_cell_angle_beta 107.299435
_cell_angle_gamma 90.000000
_cell_volume 3641.959860
_symmetry_space_group_name_H-M "C 2/M"
_symmetry_group_IT_number 12
_symmetry_cell_setting 'monoclinic'
loop_
_space_group_symop_operation_xyz
x,y,z
-x,y,-z
-x,-y,-z
x,-y,z
1/2+x,1/2+y,z
1/2-x,1/2+y,-z
1/2-x,1/2-y,-z
1/2+x,1/2-y,z
loop_
_atom_site_type_symbol
_atom_site_label
_atom_site_fract_x
_atom_site_fract_y
_atom_site_fract_z
Si Si1 0.151915 0.323713 0.235363
Si Si2 0.104145 0.671880 0.711958
Si Si3 0.310285 0.322377 0.126621
Si Si4 0.904706 0.822952 0.642057
Si Si5 0.747983 0.324474 0.598641
Si Si6 0.998379 0.679991 0.607591
Si Si7 0.154436 0.671140 0.551395
Si Si8 0.299127 0.179479 0.921161
O O1 0.140783 0.500000 0.229534
O O2 0.111579 0.236976 0.268058
O O3 0.202216 0.303809 0.319450
O O4 0.164945 0.276930 0.139412
O O5 0.107278 0.500000 0.744196
O O6 0.144949 0.762112 0.788858
O O7 0.049019 0.721931 0.684957
O O8 0.116351 0.673805 0.610711
O O9 0.312564 0.500000 0.123978
O O10 0.256921 0.282820 0.133375
O O11 0.311706 0.254221 0.025182
O O12 0.864984 0.763923 0.545816
O O13 0.954204 0.753884 0.634128
O O14 0.906425 0.000000 0.642251
O O15 0.738650 0.500000 0.586423
O O16 0.750000 0.250000 0.500000
O O17 0.703130 0.242800 0.618289
O O18 0.993540 0.500000 0.608018
O O19 0.000000 0.721104 0.500000
O O20 0.162355 0.500000 0.527558
O O21 0.301233 0.000000 0.930837
#
# Coordination Sequence:
#
# PCOD9197133 Si02
#       8
#     8   8   8   8   8   8   8   8
#     4  10  21  37  56  75 107 152 191 227 271 329
#     4  10  21  36  58  82 107 145 186 228 277 334
#     4  10  20  35  58  88 118 144 176 231 285 328
#     4  12  24  35  52  79 110 144 185 231 279 330
#     4  11  21  32  48  74 107 145 183 221 268 321
#     4  10  20  39  60  78 107 147 191 232 276 331
#     4  11  21  35  52  74 107 147 187 226 270 323
#     4   9  19  37  59  83 112 150 190 224 268 332
#
# _framework density 17.572956999999999
#
# number of rings (size 3 to 8) (size 9 to 14) (size 15 to 20)
#    0.000    1.625    2.500    3.000    0.000    4.250 
#    0.000    0.000    0.000    0.750    0.000    5.250 
#    0.000    0.000    0.000    0.000    0.000    0.000 
#
# Total GULP energy -178653.076628 kJ/mol
# GULP energy per Si atom -5582.908645 kJ/mol
# Density = 1.753296 g / cm^3
# Si number density = 17.572957 Si / 1000 Ang^3
#
#
#
# Elastic Constant Matrix: (Units=GPa)
#
#
# Indices 1 2 3 4 5 6 
#
# 1 130.4382 53.0690 42.1023 0.0000 -12.0937 0.0000
# 2 53.0690 58.1716 29.6007 0.0000 -4.8190 0.0000
# 3 42.1023 29.6007 72.4193 0.0000 -8.1306 0.0000
# 4 0.0000 0.0000 0.0000 21.8425 0.0000 2.7914
# 5 -12.0937 -4.8190 -8.1306 0.0000 26.4476 0.0000
# 6 0.0000 0.0000 0.0000 2.7914 0.0000 28.1059
#
#
#
# Elastic Compliance Matrix: (Units=1/GPa)
#
#
# Indices 1 2 3 4 5 6 
#
# 1 0.013065 -0.010066 -0.003124 0.000000 0.003180 0.000000
# 2 -0.010066 0.029501 -0.006338 0.000000 -0.001176 0.000000
# 3 -0.003124 -0.006338 0.018566 0.000000 0.003124 0.000000
# 4 0.000000 0.000000 0.000000 0.046371 0.000000 -0.004605
# 5 0.003180 -0.001176 0.003124 0.000000 0.040011 0.000000
# 6 0.000000 0.000000 0.000000 -0.004605 0.000000 0.036037
#
#
# Mechanical properties :
#
#
# Convention : Reuss Voigt Hill
#
# Bulk Modulus (GPa) = 45.29895 56.73036 51.01465
# Shear Modulus (GPa) = 21.74225 24.36301 23.05263
#
# Velocity S-wave (km/s) = 3.52128 3.72747 3.62584
# Velocity P-wave (km/s) = 6.50893 7.13290 6.82804
#
# Compressibility (1/GPa) = 0.02207557
#
# Stress axis : x y z
#
# Youngs Moduli (GPa) = 76.54048 33.89684 53.86073
#
# Poissons Ratio (x) = 0.34120 0.16828
# Poissons Ratio (y) = 0.77044 0.34140
# Poissons Ratio (z) = 0.23914 0.21485
#
# Static dielectric constant tensor:
#      x y z
#    x 1.658930 0.000000 -0.022660 
#    y 0.000000 1.585190 0.000000 
#    z -0.022660 0.000000 1.589690 
# 
# From -- ./inp_files/244192.got.cif
#   From: 2010.05.17/outbox.cif.g08.bks.cpg/sg12_123_cif.got.tgz:244192.got - 2010.06.03 13:09:07.
