data_PCOD9197322
_publ_section_title
;
Structure prediction by ZEFSAII (Michael W. Deem and Ramdas Pophale) SiO2 
 PCOD9197322
Probable space group: C 2/M
;
_chemical_formula_sum "Si O2"
_cell_formula_units_Z 56
_cell_length_a 29.547129
_cell_length_b 9.130878
_cell_length_c 11.627916
_cell_angle_alpha 90.000000
_cell_angle_beta 111.269099
_cell_angle_gamma 90.000000
_cell_volume 2923.431812
_symmetry_space_group_name_H-M "C 2/M"
_symmetry_group_IT_number 12
_symmetry_cell_setting 'monoclinic'
loop_
_space_group_symop_operation_xyz
x,y,z
-x,y,-z
-x,-y,-z
x,-y,z
1/2+x,1/2+y,z
1/2-x,1/2+y,-z
1/2-x,1/2-y,-z
1/2+x,1/2-y,z
loop_
_atom_site_type_symbol
_atom_site_label
_atom_site_fract_x
_atom_site_fract_y
_atom_site_fract_z
Si Si1 0.104854 0.174256 0.828101
Si Si2 0.442276 0.172084 0.432178
Si Si3 0.275623 0.826357 0.356932
Si Si4 0.509911 0.325624 0.876680
Si Si5 0.705669 0.175368 0.892754
Si Si6 0.421036 0.172974 0.674002
Si Si7 0.175530 0.826808 0.381362
O O1 0.080778 0.227798 0.686533
O O2 0.064562 0.207897 0.887654
O O3 0.154987 0.259185 0.889693
O O4 0.113329 0.000000 0.833843
O O5 0.500000 0.196546 0.500000
O O6 0.418391 0.197885 0.534245
O O7 0.435371 0.000000 0.395198
O O8 0.289851 0.792029 0.239776
O O9 0.218489 0.800001 0.329117
O O10 0.304393 0.735519 0.479186
O O11 0.284787 0.000000 0.385377
O O12 0.502644 0.500000 0.853144
O O13 0.471180 0.240082 0.764461
O O14 0.500000 0.290955 0.000000
O O15 0.707210 0.000000 0.907459
O O16 0.750000 0.250000 0.000000
O O17 0.375039 0.248379 0.690749
O O18 0.420595 0.000000 0.692957
O O19 0.167882 0.000000 0.382651
#
# Coordination Sequence:
#
# PCOD9197322 Si02
#       7
#     8   8   8   8   8   8   8
#     4  11  23  39  62  90 118 150 194 245 294 345
#     4  10  20  36  58  85 120 157 190 232 289 346
#     4   9  20  39  59  83 115 153 191 234 290 347
#     4  10  23  42  60  80 113 155 194 234 283 342
#     4  11  24  42  63  85 116 155 198 243 291 347
#     4  11  22  36  57  86 118 152 192 234 283 344
#     4  10  20  35  59  87 117 150 188 236 288 343
#
# _framework density 19.155570999999998
#
# number of rings (size 3 to 8) (size 9 to 14) (size 15 to 20)
#    0.000    1.714    1.429    2.571    0.000    8.571 
#    0.000    5.714    0.000    0.000    0.000    0.000 
#    0.000    0.000    0.000    0.000    0.000    0.000 
#
# Total GULP energy -156505.787319 kJ/mol
# GULP energy per Si atom -5589.492404 kJ/mol
# Density = 1.911197 g / cm^3
# Si number density = 19.155571 Si / 1000 Ang^3
#
#
#
# Elastic Constant Matrix: (Units=GPa)
#
#
# Indices 1 2 3 4 5 6 
#
# 1 150.8511 69.0744 47.6503 0.0000 2.5179 0.0000
# 2 69.0744 56.6832 41.3825 0.0000 -5.5225 0.0000
# 3 47.6503 41.3825 54.7010 0.0000 -4.3483 0.0000
# 4 0.0000 0.0000 0.0000 24.8939 0.0000 4.5464
# 5 2.5179 -5.5225 -4.3483 0.0000 22.6390 0.0000
# 6 0.0000 0.0000 0.0000 4.5464 0.0000 34.4294
#
#
#
# Elastic Compliance Matrix: (Units=1/GPa)
#
#
# Indices 1 2 3 4 5 6 
#
# 1 0.015995 -0.021403 0.001729 0.000000 -0.006668 0.000000
# 2 -0.021403 0.068396 -0.032074 0.000000 0.012904 0.000000
# 3 0.001729 -0.032074 0.041029 0.000000 -0.000136 0.000000
# 4 0.000000 0.000000 0.000000 0.041163 0.000000 -0.005436
# 5 -0.006668 0.012904 -0.000136 0.000000 0.048035 0.000000
# 6 0.000000 0.000000 0.000000 -0.005436 0.000000 0.029763
#
#
# Mechanical properties :
#
#
# Convention : Reuss Voigt Hill
#
# Bulk Modulus (GPa) = 45.61081 64.27218 54.94149
# Shear Modulus (GPa) = 14.07721 23.33433 18.70577
#
# Velocity S-wave (km/s) = 2.71382 3.49399 3.12832
# Velocity P-wave (km/s) = 5.80364 7.06419 6.46471
#
# Compressibility (1/GPa) = 0.02192463
#
# Stress axis : x y z
#
# Youngs Moduli (GPa) = 62.52137 14.62069 24.37301
#
# Poissons Ratio (x) = 0.31292 -0.04213
# Poissons Ratio (y) = 1.33812 0.78173
# Poissons Ratio (z) = -0.10807 0.46894
#
# Static dielectric constant tensor:
#      x y z
#    x 1.681990 0.000000 -0.006310 
#    y 0.000000 1.635930 0.000000 
#    z -0.006310 0.000000 1.633920 
# 
# From -- ./inp_files/181123.got.cif
#   From: 2010.05.17/outbox.cif.g08.bks.cpg/sg12_91_cif.got.tgz:181123.got - 2010.06.03 13:09:07.
