data_PCOD9197977
_publ_section_title
;
Structure prediction by ZEFSAII (Michael W. Deem and Ramdas Pophale) SiO2 
 PCOD9197977
Probable space group: C 2/M
;
_chemical_formula_sum "Si O2"
_cell_formula_units_Z 64
_cell_length_a 15.755138
_cell_length_b 21.565562
_cell_length_c 32.600095
_cell_angle_alpha 90.000000
_cell_angle_beta 161.078505
_cell_angle_gamma 90.000000
_cell_volume 3591.796692
_symmetry_space_group_name_H-M "C 2/M"
_symmetry_group_IT_number 12
_symmetry_cell_setting 'monoclinic'
loop_
_space_group_symop_operation_xyz
x,y,z
-x,y,-z
-x,-y,-z
x,-y,z
1/2+x,1/2+y,z
1/2-x,1/2+y,-z
1/2-x,1/2-y,-z
1/2+x,1/2-y,z
loop_
_atom_site_type_symbol
_atom_site_label
_atom_site_fract_x
_atom_site_fract_y
_atom_site_fract_z
Si Si1 0.548657 0.308998 0.407547
Si Si2 0.104437 0.182977 0.933292
Si Si3 0.339679 0.359363 0.728282
Si Si4 0.183671 0.775010 0.122140
Si Si5 0.826753 0.571869 0.499356
Si Si6 0.977723 0.071423 0.262997
Si Si7 0.216160 0.231132 0.633322
Si Si8 0.868685 0.342556 0.848972
O O1 0.750000 0.250000 0.500000
O O2 0.693726 0.374396 0.466005
O O3 0.375234 0.308402 0.369282
O O4 0.342389 0.306574 0.275879
O O5 0.966033 0.167665 0.827167
O O6 0.903453 0.182892 0.878925
O O7 0.250000 0.250000 0.000000
O O8 0.366444 0.142212 0.054089
O O9 0.528683 0.387629 0.780586
O O10 0.200541 0.301736 0.642349
O O11 0.131917 0.413151 0.642042
O O12 0.488343 0.778467 0.248362
O O13 0.106315 0.705411 0.101691
O O14 0.000000 0.791040 0.000000
O O15 0.766600 0.500000 0.481991
O O16 0.730975 0.581580 0.408320
O O17 0.749341 0.094400 0.188150
O O18 0.964612 0.000000 0.246372
O O19 0.000000 0.221440 0.500000
#
# Coordination Sequence:
#
# PCOD9197977 Si02
#       8
#     8   8   8   8   8   8   8   8
#     4  11  21  35  58  87 120 152 197 248 304 361
#     4  10  23  36  54  78 113 159 193 243 295 349
#     4  12  21  35  56  81 123 160 195 234 301 362
#     4  11  21  36  55  78 116 153 194 237 302 356
#     4  10  22  38  59  85 122 163 199 240 301 369
#     4  10  21  36  57  87 120 159 196 238 291 364
#     4  12  22  31  55  90 116 147 193 251 297 350
#     4  10  20  36  55  79 116 156 192 239 290 355
#
# _framework density 17.818380999999999
#
# number of rings (size 3 to 8) (size 9 to 14) (size 15 to 20)
#    0.000    1.250    2.500    6.000    1.750    1.000 
#    0.000    1.875    0.000    0.375    0.000    0.000 
#    0.000    7.000    0.000    0.000    0.000    0.000 
#
# Total GULP energy -178375.027356 kJ/mol
# GULP energy per Si atom -5574.219605 kJ/mol
# Density = 1.777783 g / cm^3
# Si number density = 17.818381 Si / 1000 Ang^3
#
#
#
# Elastic Constant Matrix: (Units=GPa)
#
#
# Indices 1 2 3 4 5 6 
#
# 1 115.2437 49.5688 45.6676 -0.0094 5.3113 0.0038
# 2 49.5688 69.2588 20.5799 0.0037 -3.1243 -0.0078
# 3 45.6676 20.5799 58.8298 -0.0008 11.2183 -0.0307
# 4 -0.0094 0.0037 -0.0008 15.7623 -0.0125 -0.5575
# 5 5.3113 -3.1243 11.2183 -0.0125 35.0335 0.0001
# 6 0.0038 -0.0078 -0.0307 -0.5575 0.0001 19.9946
#
#
#
# Elastic Compliance Matrix: (Units=1/GPa)
#
#
# Indices 1 2 3 4 5 6 
#
# 1 0.016233 -0.008811 -0.009478 0.000010 -0.000212 -0.000021
# 2 -0.008811 0.021298 -0.001308 -0.000007 0.003654 0.000008
# 3 -0.009478 -0.001308 0.026159 -0.000008 -0.007056 0.000041
# 4 0.000010 -0.000007 -0.000008 0.063505 0.000023 0.001771
# 5 -0.000212 0.003654 -0.007056 0.000023 0.031162 -0.000009
# 6 -0.000021 0.000008 0.000041 0.001771 -0.000009 0.050063
#
#
# Mechanical properties :
#
#
# Convention : Reuss Voigt Hill
#
# Bulk Modulus (GPa) = 40.82321 52.77387 46.79854
# Shear Modulus (GPa) = 19.54817 22.65915 21.10366
#
# Velocity S-wave (km/s) = 3.31581 3.56992 3.44521
# Velocity P-wave (km/s) = 6.13351 6.83187 6.49209
#
# Compressibility (1/GPa) = 0.02449587
#
# Stress axis : x y z
#
# Youngs Moduli (GPa) = 61.60369 46.95276 38.22795
#
# Poissons Ratio (x) = 0.41370 0.36234
# Poissons Ratio (y) = 0.54279 0.04999
# Poissons Ratio (z) = 0.58390 0.06139
#
# Static dielectric constant tensor:
#      x y z
#    x 1.655180 0.000000 0.029940 
#    y 0.000000 1.621620 -0.000010 
#    z 0.029940 -0.000010 1.686540 
# 
# From -- ./inp_files/377115.got.cif
#   From: 2010.05.17/outbox.cif.g08.bks.cpg/sg12_189_cif.got.tgz:377115.got - 2010.06.03 13:09:07.
