data_PCOD9197335
_publ_section_title
;
Structure prediction by ZEFSAII (Michael W. Deem and Ramdas Pophale) SiO2 
 PCOD9197335
Probable space group: C 2/M
;
_chemical_formula_sum "Si O2"
_cell_formula_units_Z 40
_cell_length_a 25.252742
_cell_length_b 9.840946
_cell_length_c 10.496866
_cell_angle_alpha 90.000000
_cell_angle_beta 129.638183
_cell_angle_gamma 90.000000
_cell_volume 2008.840972
_symmetry_space_group_name_H-M "C 2/M"
_symmetry_group_IT_number 12
_symmetry_cell_setting 'monoclinic'
loop_
_space_group_symop_operation_xyz
x,y,z
-x,y,-z
-x,-y,-z
x,-y,z
1/2+x,1/2+y,z
1/2-x,1/2+y,-z
1/2-x,1/2-y,-z
1/2+x,1/2-y,z
loop_
_atom_site_type_symbol
_atom_site_label
_atom_site_fract_x
_atom_site_fract_y
_atom_site_fract_z
Si Si1 0.445148 0.658277 0.301075
Si Si2 0.963057 0.152571 0.806646
Si Si3 0.243375 0.853289 0.305191
Si Si4 0.656261 0.151036 0.302337
Si Si5 0.812937 0.660462 0.149861
O O1 0.500000 0.674868 0.500000
O O2 0.420844 0.500000 0.267824
O O3 0.484453 0.678708 0.227760
O O4 0.383054 0.763299 0.222099
O O5 0.903638 0.262715 0.725148
O O6 0.934132 0.000000 0.741620
O O7 0.000000 0.153825 0.000000
O O8 0.284147 0.860113 0.500239
O O9 0.187834 0.734927 0.233076
O O10 0.298825 0.834644 0.279827
O O11 0.208558 0.000000 0.229402
O O12 0.634075 0.000000 0.231915
O O13 0.811632 0.500000 0.110585
O O14 0.750000 0.750000 0.000000
#
# Coordination Sequence:
#
# PCOD9197335 Si02
#       5
#     8   8   8   8   8
#     4  10  22  41  64  89 119 160 207 249 295 360
#     4  10  22  38  57  82 117 157 191 234 297 354
#     4   9  20  38  58  82 116 155 189 232 294 355
#     4  10  20  35  59  88 114 146 194 243 285 341
#     4  11  24  40  61  88 122 160 200 248 303 357
#
# _framework density 19.911978999999999
#
# number of rings (size 3 to 8) (size 9 to 14) (size 15 to 20)
#    0.000    2.000    0.000    2.400    2.800    4.000 
#    0.000    0.000    0.000    0.000    0.000    0.000 
#    0.000    0.000    0.000    0.000    0.000    0.000 
#
# Total GULP energy -111629.650707 kJ/mol
# GULP energy per Si atom -5581.482535 kJ/mol
# Density = 1.986666 g / cm^3
# Si number density = 19.911979 Si / 1000 Ang^3
#
#
#
# Elastic Constant Matrix: (Units=GPa)
#
#
# Indices 1 2 3 4 5 6 
#
# 1 136.5306 114.1066 24.8253 0.0000 -1.9437 0.0000
# 2 114.1066 207.3674 35.8227 0.0000 25.0964 0.0000
# 3 24.8253 35.8227 41.1627 0.0000 -1.1877 0.0000
# 4 0.0000 0.0000 0.0000 17.5950 0.0000 7.9777
# 5 -1.9437 25.0964 -1.1877 0.0000 29.0548 0.0000
# 6 0.0000 0.0000 0.0000 7.9777 0.0000 42.0081
#
#
#
# Elastic Compliance Matrix: (Units=1/GPa)
#
#
# Indices 1 2 3 4 5 6 
#
# 1 0.015598 -0.009564 -0.000816 0.000000 0.009271 0.000000
# 2 -0.009564 0.012415 -0.005370 0.000000 -0.011582 0.000000
# 3 -0.000816 -0.005370 0.029627 0.000000 0.005795 0.000000
# 4 0.000000 0.000000 0.000000 0.062189 0.000000 -0.011810
# 5 0.009271 -0.011582 0.005795 0.000000 0.045279 0.000000
# 6 0.000000 0.000000 0.000000 -0.011810 0.000000 0.026048
#
#
# Mechanical properties :
#
#
# Convention : Reuss Voigt Hill
#
# Bulk Modulus (GPa) = 38.25798 81.61888 59.93843
# Shear Modulus (GPa) = 21.61046 31.75199 26.68123
#
# Velocity S-wave (km/s) = 3.29796 3.99760 3.66452
# Velocity P-wave (km/s) = 5.81011 7.89852 6.93339
#
# Compressibility (1/GPa) = 0.02613834
#
# Stress axis : x y z
#
# Youngs Moduli (GPa) = 64.11093 80.55083 33.75312
#
# Poissons Ratio (x) = 0.77039 0.02756
# Poissons Ratio (y) = 0.61316 0.18126
# Poissons Ratio (z) = 0.05234 0.43257
#
# Static dielectric constant tensor:
#      x y z
#    x 1.662860 0.000000 0.019060 
#    y 0.000000 1.735770 0.000000 
#    z 0.019060 0.000000 1.622760 
# 
# From -- ./inp_files/162399.got.cif
#   From: 2010.05.17/outbox.cif.g08.bks.cpg/sg12_82_cif.got.tgz:162399.got - 2010.06.03 13:09:07.
