data_PCOD9197738
_publ_section_title
;
Structure prediction by ZEFSAII (Michael W. Deem and Ramdas Pophale) SiO2 
 PCOD9197738
Probable space group: C 2/M
;
_chemical_formula_sum "Si O2"
_cell_formula_units_Z 52
_cell_length_a 8.425155
_cell_length_b 24.229674
_cell_length_c 15.413979
_cell_angle_alpha 90.000000
_cell_angle_beta 56.750080
_cell_angle_gamma 90.000000
_cell_volume 2631.452520
_symmetry_space_group_name_H-M "C 2/M"
_symmetry_group_IT_number 12
_symmetry_cell_setting 'monoclinic'
loop_
_space_group_symop_operation_xyz
x,y,z
-x,y,-z
-x,-y,-z
x,-y,z
1/2+x,1/2+y,z
1/2-x,1/2+y,-z
1/2-x,1/2-y,-z
1/2+x,1/2-y,z
loop_
_atom_site_type_symbol
_atom_site_label
_atom_site_fract_x
_atom_site_fract_y
_atom_site_fract_z
Si Si1 0.373425 0.186237 0.780149
Si Si2 0.063719 0.000000 0.725946
Si Si3 0.184119 0.383782 0.593164
Si Si4 0.540165 0.690743 0.183575
Si Si5 0.660400 0.500000 0.028003
Si Si6 0.495305 0.000000 0.606205
Si Si7 0.487745 0.386667 0.361818
Si Si8 0.210420 0.121302 0.981475
O O1 0.530746 0.161475 0.668414
O O2 0.414309 0.246566 0.805891
O O3 0.169983 0.187623 0.794189
O O4 0.352765 0.145823 0.868551
O O5 0.036756 0.946133 0.675328
O O6 0.931194 0.000000 0.849319
O O7 0.276754 0.000000 0.698495
O O8 0.091234 0.444045 0.610368
O O9 0.294574 0.371313 0.470571
O O10 0.344309 0.387531 0.618876
O O11 0.537437 0.655942 0.272111
O O12 0.682160 0.661485 0.072423
O O13 0.764470 0.558558 0.987733
O O14 0.500000 0.500000 0.000000
O O15 0.500000 0.000000 0.500000
O O16 0.000000 0.119691 0.000000
#
# Coordination Sequence:
#
# PCOD9197738 Si02
#       8
#     8   4   8   8   4   4   8   8
#     4  11  24  40  65  93 126 167 216 268 314 378
#     4  12  21  38  68  93 126 172 209 257 314 382
#     4  11  25  41  61  95 132 165 210 264 313 377
#     4  11  22  41  65  91 124 170 217 259 320 376
#     4  10  20  35  62  99 127 160 199 259 316 374
#     4  12  23  37  65  98 123 165 209 256 310 378
#     4  11  23  42  64  90 132 171 209 259 320 372
#     4   9  20  37  62  95 126 163 207 260 318 380
#
# _framework density 19.760950000000001
#
# number of rings (size 3 to 8) (size 9 to 14) (size 15 to 20)
#    0.000    1.231    3.077    2.769    4.308    1.846 
#    0.000    2.308    0.000    0.923    0.000    0.000 
#    0.000    0.000    0.000    0.000    0.000    0.000 
#
# Total GULP energy -145342.567886 kJ/mol
# GULP energy per Si atom -5590.098765 kJ/mol
# Density = 1.971597 g / cm^3
# Si number density = 19.760950 Si / 1000 Ang^3
#
#
#
# Elastic Constant Matrix: (Units=GPa)
#
#
# Indices 1 2 3 4 5 6 
#
# 1 41.3670 13.3412 12.5898 0.0000 11.2227 0.0000
# 2 13.3412 135.1764 50.2937 0.0000 14.7685 0.0000
# 3 12.5898 50.2937 98.9605 0.0000 29.5556 0.0000
# 4 0.0000 0.0000 0.0000 140.2083 0.0000 43.4097
# 5 11.2227 14.7685 29.5556 0.0000 24.3970 0.0000
# 6 0.0000 0.0000 0.0000 43.4097 0.0000 50.5008
#
#
#
# Elastic Compliance Matrix: (Units=1/GPa)
#
#
# Indices 1 2 3 4 5 6 
#
# 1 0.027985 -0.001803 0.001371 0.000000 -0.013442 0.000000
# 2 -0.001803 0.009239 -0.004769 0.000000 0.001014 0.000000
# 3 0.001371 -0.004769 0.018303 0.000000 -0.019916 0.000000
# 4 0.000000 0.000000 0.000000 0.009719 0.000000 -0.008354
# 5 -0.013442 0.001014 -0.019916 0.000000 0.070686 0.000000
# 6 0.000000 0.000000 0.000000 -0.008354 0.000000 0.026983
#
#
# Mechanical properties :
#
#
# Convention : Reuss Voigt Hill
#
# Bulk Modulus (GPa) = 22.16114 47.55038 34.85576
# Shear Modulus (GPa) = 26.54510 56.30648 41.42579
#
# Velocity S-wave (km/s) = 3.66910 5.34375 4.58355
# Velocity P-wave (km/s) = 5.40265 7.88602 6.75936
#
# Compressibility (1/GPa) = 0.04512403
#
# Stress axis : x y z
#
# Youngs Moduli (GPa) = 35.73326 108.23327 54.63718
#
# Poissons Ratio (x) = 0.19519 -0.07491
# Poissons Ratio (y) = 0.06444 0.26057
# Poissons Ratio (z) = -0.04899 0.51617
#
# Static dielectric constant tensor:
#      x y z
#    x 1.683780 0.000000 -0.009240 
#    y 0.000000 1.694110 0.000000 
#    z -0.009240 0.000000 1.715900 
# 
# From -- ./inp_files/258454.got.cif
#   From: 2010.05.17/outbox.cif.g08.bks.cpg/sg12_130_cif.got.tgz:258454.got - 2010.06.03 13:09:07.
