data_PCOD9197699
_publ_section_title
;
Structure prediction by ZEFSAII (Michael W. Deem and Ramdas Pophale) SiO2 
 PCOD9197699
Probable space group: C 2/M
;
_chemical_formula_sum "Si O2"
_cell_formula_units_Z 40
_cell_length_a 10.487650
_cell_length_b 23.767761
_cell_length_c 11.671433
_cell_angle_alpha 90.000000
_cell_angle_beta 144.931186
_cell_angle_gamma 90.000000
_cell_volume 1671.575173
_symmetry_space_group_name_H-M "C 2/M"
_symmetry_group_IT_number 12
_symmetry_cell_setting 'monoclinic'
loop_
_space_group_symop_operation_xyz
x,y,z
-x,y,-z
-x,-y,-z
x,-y,z
1/2+x,1/2+y,z
1/2-x,1/2+y,-z
1/2-x,1/2-y,-z
1/2+x,1/2-y,z
loop_
_atom_site_type_symbol
_atom_site_label
_atom_site_fract_x
_atom_site_fract_y
_atom_site_fract_z
Si Si1 0.256604 0.774477 0.374764
Si Si2 0.171573 0.938230 0.825104
Si Si3 0.239221 0.064336 0.143317
Si Si4 0.761605 0.338905 0.718813
Si Si5 0.294643 0.888861 0.499588
O O1 0.500000 0.782073 0.500000
O O2 0.250000 0.750000 0.500000
O O3 0.148022 0.725445 0.216090
O O4 0.184622 0.838550 0.343813
O O5 0.262661 0.884022 0.822350
O O6 0.903099 0.933292 0.631867
O O7 0.229651 0.000000 0.817544
O O8 0.249743 0.936769 0.013346
O O9 0.461522 0.091360 0.355594
O O10 0.235918 0.000000 0.183675
O O11 0.000000 0.089717 0.000000
O O12 0.500000 0.331286 0.500000
O O13 0.845875 0.366210 0.664752
#
# Coordination Sequence:
#
# PCOD9197699 Si02
#       5
#     8   8   8   8   8
#     4   9  18  34  59  89 116 159 206 253 307 365
#     4  10  21  37  62  93 124 161 205 259 318 377
#     4  10  23  39  54  85 129 162 207 262 304 371
#     4   8  17  35  58  89 120 152 199 253 310 371
#     4  10  20  35  62  87 117 163 204 247 314 375
#
# _framework density 23.929523
#
# number of rings (size 3 to 8) (size 9 to 14) (size 15 to 20)
#    0.000    2.600    0.000    1.800    2.800    5.200 
#    0.000    5.000    0.000   39.600    0.000    0.000 
#    0.000    0.000    0.000    0.000    0.000    0.000 
#
# Total GULP energy -111419.275245 kJ/mol
# GULP energy per Si atom -5570.963762 kJ/mol
# Density = 2.387506 g / cm^3
# Si number density = 23.929523 Si / 1000 Ang^3
#
#
#
# Elastic Constant Matrix: (Units=GPa)
#
#
# Indices 1 2 3 4 5 6 
#
# 1 110.2644 51.0027 30.2655 0.0000 -4.8720 0.0000
# 2 51.0027 150.1382 39.2001 0.0000 -0.3836 0.0000
# 3 30.2655 39.2001 92.4586 0.0000 11.8925 0.0000
# 4 0.0000 0.0000 0.0000 -92.4806 0.0000 -70.1314
# 5 -4.8720 -0.3836 11.8925 0.0000 38.8336 0.0000
# 6 0.0000 0.0000 0.0000 -70.1314 0.0000 -26.6241
#
#
#
# Elastic Compliance Matrix: (Units=1/GPa)
#
#
# Indices 1 2 3 4 5 6 
#
# 1 0.011358 -0.003157 -0.002664 0.000000 0.002210 0.000000
# 2 -0.003157 0.008412 -0.002595 0.000000 0.000482 0.000000
# 3 -0.002664 -0.002595 0.013360 0.000000 -0.004451 0.000000
# 4 0.000000 0.000000 0.000000 0.010840 0.000000 -0.028553
# 5 0.002210 0.000482 -0.004451 0.000000 0.027396 0.000000
# 6 0.000000 0.000000 0.000000 -0.028553 0.000000 0.037652
#
#
# Mechanical properties :
#
#
# Convention : Reuss Voigt Hill
#
# Bulk Modulus (GPa) = 61.35422 65.97753 63.66587
# Shear Modulus (GPa) = 38.08589 -0.56134 18.76228
#
# Velocity S-wave (km/s) = 3.99380 -0.48486 2.80315
# Velocity P-wave (km/s) = 6.85291 5.22666 6.09428
#
# Compressibility (1/GPa) = 0.01629880
#
# Stress axis : x y z
#
# Youngs Moduli (GPa) = 88.04154 118.88034 74.84899
#
# Poissons Ratio (x) = 0.37535 0.19937
# Poissons Ratio (y) = 0.27798 0.19422
# Poissons Ratio (z) = 0.23451 0.30847
#
# Static dielectric constant tensor:
#      x y z
#    x 1.964140 0.000000 0.030910 
#    y 0.000000 2.014500 0.000000 
#    z 0.030910 0.000000 1.808080 
# 
# From -- ./inp_files/208710.got.cif
#   From: 2010.05.17/outbox.cif.g08.bks.cpg/sg12_105_cif.got.tgz:208710.got - 2010.06.03 13:09:07.
