data_PCOD9197696
_publ_section_title
;
Structure prediction by ZEFSAII (Michael W. Deem and Ramdas Pophale) SiO2 
 PCOD9197696
Probable space group: C 2/M
;
_chemical_formula_sum "Si O2"
_cell_formula_units_Z 48
_cell_length_a 12.917524
_cell_length_b 29.447503
_cell_length_c 11.511052
_cell_angle_alpha 90.000000
_cell_angle_beta 150.423383
_cell_angle_gamma 90.000000
_cell_volume 2161.257229
_symmetry_space_group_name_H-M "C 2/M"
_symmetry_group_IT_number 12
_symmetry_cell_setting 'monoclinic'
loop_
_space_group_symop_operation_xyz
x,y,z
-x,y,-z
-x,-y,-z
x,-y,z
1/2+x,1/2+y,z
1/2-x,1/2+y,-z
1/2-x,1/2-y,-z
1/2+x,1/2-y,z
loop_
_atom_site_type_symbol
_atom_site_label
_atom_site_fract_x
_atom_site_fract_y
_atom_site_fract_z
Si Si1 0.000000 0.151883 0.500000
Si Si2 0.849241 0.000000 0.236493
Si Si3 0.898870 0.000000 0.768094
Si Si4 0.500000 0.198531 0.500000
Si Si5 0.429673 0.400138 0.800705
Si Si6 0.316877 0.774549 0.728239
Si Si7 0.277087 0.094982 0.946075
Si Si8 0.420527 0.161898 0.645447
O O1 0.150702 0.184912 0.576681
O O2 0.138086 0.121964 0.718515
O O3 0.705631 0.955309 0.088160
O O4 0.000000 0.000000 0.500000
O O5 0.980418 0.000000 0.241037
O O6 0.803887 0.948776 0.674272
O O7 0.000000 0.000000 0.000000
O O8 0.689652 0.229715 0.638691
O O9 0.564849 0.168513 0.672715
O O10 0.637025 0.407370 0.925855
O O11 0.292127 0.359983 0.611755
O O12 0.500000 0.390578 0.000000
O O13 0.412821 0.788247 0.697826
O O14 0.500000 0.779411 0.000000
O O15 0.480365 0.124895 0.171448
#
# Coordination Sequence:
#
# PCOD9197696 Si02
#       8
#     4   4   4   4   8   8   8   8
#     4  11  20  41  64  93 126 171 208 261 316 387
#     4  10  20  35  62 103 138 175 216 270 317 375
#     4   8  18  37  60  91 129 179 218 257 320 381
#     4  11  28  44  62  96 124 158 222 282 328 387
#     4  10  21  39  64  92 132 172 215 266 316 381
#     4  11  24  44  67  91 124 166 214 270 339 391
#     4  11  22  38  67  93 137 172 213 258 317 383
#     4  12  24  42  67  96 125 171 220 261 330 396
#
# _framework density 22.209295999999998
#
# number of rings (size 3 to 8) (size 9 to 14) (size 15 to 20)
#    0.000    1.333    4.167    1.500    0.000    3.333 
#    0.000    0.000    0.000   10.000    0.000    0.000 
#    0.000    0.000    0.000    0.000    0.000    0.000 
#
# Total GULP energy -133810.856783 kJ/mol
# GULP energy per Si atom -5575.452366 kJ/mol
# Density = 2.215875 g / cm^3
# Si number density = 22.209296 Si / 1000 Ang^3
#
#
#
# Elastic Constant Matrix: (Units=GPa)
#
#
# Indices 1 2 3 4 5 6 
#
# 1 58.7201 -6.1406 9.8808 0.0000 -22.9924 0.0000
# 2 -6.1406 99.0898 29.5390 0.0000 1.5019 0.0000
# 3 9.8808 29.5390 86.6267 0.0000 -18.7259 0.0000
# 4 0.0000 0.0000 0.0000 27.6718 0.0000 -4.6477
# 5 -22.9924 1.5019 -18.7259 0.0000 29.5927 0.0000
# 6 0.0000 0.0000 0.0000 -4.6477 0.0000 36.1867
#
#
#
# Elastic Compliance Matrix: (Units=1/GPa)
#
#
# Indices 1 2 3 4 5 6 
#
# 1 0.024719 0.000877 0.001186 0.000000 0.019911 0.000000
# 2 0.000877 0.011581 -0.004667 0.000000 -0.002860 0.000000
# 3 0.001186 -0.004667 0.015350 0.000000 0.010872 0.000000
# 4 0.000000 0.000000 0.000000 0.036935 0.000000 0.004744
# 5 0.019911 -0.002860 0.010872 0.000000 0.056287 0.000000
# 6 0.000000 0.000000 0.000000 0.004744 0.000000 0.028244
#
#
# Mechanical properties :
#
#
# Convention : Reuss Voigt Hill
#
# Bulk Modulus (GPa) = 21.53329 34.55500 28.04414
# Shear Modulus (GPa) = 25.79918 32.76738 29.28328
#
# Velocity S-wave (km/s) = 3.41198 3.84525 3.63507
# Velocity P-wave (km/s) = 5.02382 5.94198 5.50209
#
# Compressibility (1/GPa) = 0.04643972
#
# Stress axis : x y z
#
# Youngs Moduli (GPa) = 40.45548 86.34960 65.14625
#
# Poissons Ratio (x) = -0.07569 -0.07725
# Poissons Ratio (y) = -0.03546 0.30405
# Poissons Ratio (z) = -0.04797 0.40301
#
# Static dielectric constant tensor:
#      x y z
#    x 1.471300 0.000000 -0.082650 
#    y 0.000000 1.849620 0.000000 
#    z -0.082650 0.000000 1.743090 
# 
# From -- ./inp_files/150369.got.cif
#   From: 2010.05.17/outbox.cif.g08.bks.cpg/sg12_76_cif.got.tgz:150369.got - 2010.06.03 13:09:07.
