data_PCOD9197635
_publ_section_title
;
Structure prediction by ZEFSAII (Michael W. Deem and Ramdas Pophale) SiO2 
 PCOD9197635
Probable space group: C 2/M
;
_chemical_formula_sum "Si O2"
_cell_formula_units_Z 44
_cell_length_a 9.258585
_cell_length_b 20.369957
_cell_length_c 15.139125
_cell_angle_alpha 90.000000
_cell_angle_beta 113.824927
_cell_angle_gamma 90.000000
_cell_volume 2611.885128
_symmetry_space_group_name_H-M "C 2/M"
_symmetry_group_IT_number 12
_symmetry_cell_setting 'monoclinic'
loop_
_space_group_symop_operation_xyz
x,y,z
-x,y,-z
-x,-y,-z
x,-y,z
1/2+x,1/2+y,z
1/2-x,1/2+y,-z
1/2-x,1/2-y,-z
1/2+x,1/2-y,z
loop_
_atom_site_type_symbol
_atom_site_label
_atom_site_fract_x
_atom_site_fract_y
_atom_site_fract_z
Si Si1 0.473402 0.425592 0.593766
Si Si2 0.340779 0.619480 0.198234
Si Si3 0.097936 0.500000 0.117351
Si Si4 0.097667 0.114015 0.111403
Si Si5 0.833133 0.261234 0.927393
Si Si6 0.340089 0.000000 0.206508
Si Si7 0.676034 0.000000 0.584456
O O1 0.500000 0.403275 0.500000
O O2 0.542080 0.500000 0.614943
O O3 0.575747 0.383728 0.686497
O O4 0.291089 0.439284 0.580220
O O5 0.209552 0.563781 0.151047
O O6 0.480986 0.605789 0.164190
O O7 0.262962 0.688899 0.156070
O O8 0.990051 0.500000 0.178835
O O9 0.000000 0.500000 0.000000
O O10 0.142870 0.190521 0.111838
O O11 0.242495 0.065249 0.157626
O O12 0.000000 0.096181 0.000000
O O13 0.750000 0.250000 0.000000
O O14 0.000000 0.290342 0.000000
O O15 0.349789 0.000000 0.316010
O O16 0.500000 0.000000 0.500000
#
# Coordination Sequence:
#
# PCOD9197635 Si02
#       7
#     8   8   4   8   8   4   4
#     4   9  19  38  61  85 117 155 200 241 311 358
#     4  12  21  40  60  83 123 162 199 241 301 362
#     4  12  26  33  53  91 128 155 197 252 289 352
#     4  11  21  39  60  82 121 161 193 241 299 360
#     4  11  23  39  59  86 118 167 204 238 292 360
#     4  12  24  36  58  94 120 151 201 252 308 344
#     4  10  20  35  61  88 118 146 195 252 305 363
#
# _framework density 16.846069
#
# number of rings (size 3 to 8) (size 9 to 14) (size 15 to 20)
#    0.545    0.545    6.364    2.455    5.091    0.000 
#    0.000    0.000    0.000    2.182    0.000    0.000 
#    0.000    0.000    0.000    0.000    0.000    0.000 
#
# Total GULP energy -122614.920032 kJ/mol
# GULP energy per Si atom -5573.405456 kJ/mol
# Density = 1.680773 g / cm^3
# Si number density = 16.846069 Si / 1000 Ang^3
#
#
#
# Elastic Constant Matrix: (Units=GPa)
#
#
# Indices 1 2 3 4 5 6 
#
# 1 129.9559 42.0018 58.7278 0.0000 -11.9653 0.0000
# 2 42.0018 72.7232 51.7536 0.0000 5.3488 0.0000
# 3 58.7278 51.7536 154.2249 0.0000 -7.7232 0.0000
# 4 0.0000 0.0000 0.0000 18.3965 0.0000 -1.3690
# 5 -11.9653 5.3488 -7.7232 0.0000 34.4168 0.0000
# 6 0.0000 0.0000 0.0000 -1.3690 0.0000 23.4252
#
#
#
# Elastic Compliance Matrix: (Units=1/GPa)
#
#
# Indices 1 2 3 4 5 6 
#
# 1 0.010630 -0.004848 -0.002223 0.000000 0.003950 0.000000
# 2 -0.004848 0.020901 -0.005476 0.000000 -0.006163 0.000000
# 3 -0.002223 -0.005476 0.009277 0.000000 0.002160 0.000000
# 4 0.000000 0.000000 0.000000 0.054595 0.000000 0.003191
# 5 0.003950 -0.006163 0.002160 0.000000 0.031871 0.000000
# 6 0.000000 0.000000 0.000000 0.003191 0.000000 0.042875
#
#
# Mechanical properties :
#
#
# Convention : Reuss Voigt Hill
#
# Bulk Modulus (GPa) = 63.64240 73.54117 68.59179
# Shear Modulus (GPa) = 24.93975 28.87576 26.90775
#
# Velocity S-wave (km/s) = 3.85183 4.14465 4.00092
# Velocity P-wave (km/s) = 7.59230 8.16418 7.88342
#
# Compressibility (1/GPa) = 0.01571279
#
# Stress axis : x y z
#
# Youngs Moduli (GPa) = 94.07194 47.84386 107.79864
#
# Poissons Ratio (x) = 0.23194 0.23966
# Poissons Ratio (y) = 0.45605 0.59036
# Poissons Ratio (z) = 0.20915 0.26202
#
# Static dielectric constant tensor:
#      x y z
#    x 1.540500 0.000000 0.064280 
#    y 0.000000 1.552410 0.000000 
#    z 0.064280 0.000000 1.403190 
# 
# From -- ./inp_files/197295.got.cif
#   From: 2010.05.17/outbox.cif.g08.bks.cpg/sg12_99_cif.got.tgz:197295.got - 2010.06.03 13:09:07.
