data_PCOD9197219
_publ_section_title
;
Structure prediction by ZEFSAII (Michael W. Deem and Ramdas Pophale) SiO2 
 PCOD9197219
Probable space group: C 2/M
;
_chemical_formula_sum "Si O2"
_cell_formula_units_Z 58
_cell_length_a 19.232254
_cell_length_b 14.590974
_cell_length_c 26.928933
_cell_angle_alpha 90.000000
_cell_angle_beta 156.752134
_cell_angle_gamma 90.000000
_cell_volume 2982.712153
_symmetry_space_group_name_H-M "C 2/M"
_symmetry_group_IT_number 12
_symmetry_cell_setting 'monoclinic'
loop_
_space_group_symop_operation_xyz
x,y,z
-x,y,-z
-x,-y,-z
x,-y,z
1/2+x,1/2+y,z
1/2-x,1/2+y,-z
1/2-x,1/2-y,-z
1/2+x,1/2-y,z
loop_
_atom_site_type_symbol
_atom_site_label
_atom_site_fract_x
_atom_site_fract_y
_atom_site_fract_z
Si Si1 0.000000 0.500000 0.500000
Si Si2 0.603699 0.606795 0.947530
Si Si3 0.450631 0.246599 0.342470
Si Si4 0.065766 0.892556 0.753443
Si Si5 0.203843 0.107188 0.122231
Si Si6 0.728521 0.840217 0.593424
Si Si7 0.676257 0.240325 0.247703
Si Si8 0.148207 0.609632 0.981839
O O1 0.112702 0.419023 0.543808
O O2 0.554056 0.500000 0.911052
O O3 0.428901 0.666745 0.835856
O O4 0.717939 0.617970 0.072214
O O5 0.719577 0.633316 0.976362
O O6 0.473155 0.330296 0.319508
O O7 0.337760 0.170194 0.239221
O O8 0.625852 0.201425 0.479142
O O9 0.336382 0.274361 0.315540
O O10 0.913633 0.878591 0.694759
O O11 0.074660 0.000000 0.746795
O O12 0.250802 0.865077 0.901058
O O13 0.228551 0.000000 0.151530
O O14 0.000000 0.130219 0.000000
O O15 0.762701 0.760596 0.656389
O O16 0.532912 0.161301 0.146164
O O17 0.125140 0.500000 0.966343
#
# Coordination Sequence:
#
# PCOD9197219 Si02
#       8
#     2   8   8   8   8   8   8   8
#     4  12  24  44  76 100 124 170 230 276 322 390
#     4  10  20  35  58  92 125 161 211 270 338 387
#     4  12  26  41  62  98 135 172 221 268 330 399
#     4  11  25  45  69  94 134 179 223 271 330 390
#     4  10  21  35  57  90 129 167 203 265 342 394
#     4  12  26  44  69 100 133 173 223 274 336 393
#     4  12  23  39  67  93 130 171 219 274 324 391
#     4  10  23  41  66  96 125 172 225 277 327 386
#
# _framework density 19.44539
#
# number of rings (size 3 to 8) (size 9 to 14) (size 15 to 20)
#    0.000    0.966    4.828    1.655    3.862    0.552 
#    0.000    2.069    0.000    1.655    0.000    0.000 
#    0.000    0.000    0.000    0.000    0.000    0.000 
#
# Total GULP energy -161873.438195 kJ/mol
# GULP energy per Si atom -5581.842696 kJ/mol
# Density = 1.940113 g / cm^3
# Si number density = 19.445390 Si / 1000 Ang^3
#
#
#
# Elastic Constant Matrix: (Units=GPa)
#
#
# Indices 1 2 3 4 5 6 
#
# 1 27.6435 15.8003 11.7519 -0.0105 -8.9606 -0.0017
# 2 15.8003 68.4852 42.1433 -0.0117 -8.6813 -0.0019
# 3 11.7519 42.1433 92.6290 -0.0094 -18.9138 0.0008
# 4 -0.0105 -0.0117 -0.0094 1.3636 0.0034 -2.0285
# 5 -8.9606 -8.6813 -18.9138 0.0034 26.4026 0.0027
# 6 -0.0017 -0.0019 0.0008 -2.0285 0.0027 30.7161
#
#
#
# Elastic Compliance Matrix: (Units=1/GPa)
#
#
# Indices 1 2 3 4 5 6 
#
# 1 0.045380 -0.009600 0.001301 0.000272 0.013177 0.000019
# 2 -0.009600 0.022310 -0.009488 0.000067 -0.002719 0.000006
# 3 0.001301 -0.009488 0.016868 0.000021 0.009405 0.000000
# 4 0.000272 0.000067 0.000021 0.813237 0.000019 0.053706
# 5 0.013177 -0.002719 0.009405 0.000019 0.048191 -0.000003
# 6 0.000019 0.000006 0.000000 0.053706 -0.000003 0.036103
#
#
# Mechanical properties :
#
#
# Convention : Reuss Voigt Hill
#
# Bulk Modulus (GPa) = 20.41455 36.46098 28.43777
# Shear Modulus (GPa) = 4.83563 19.63394 12.23479
#
# Velocity S-wave (km/s) = 1.57866 3.18102 2.51108
# Velocity P-wave (km/s) = 3.72077 5.68181 4.80245
#
# Compressibility (1/GPa) = 0.04898466
#
# Stress axis : x y z
#
# Youngs Moduli (GPa) = 22.03606 44.82255 59.28454
#
# Poissons Ratio (x) = 0.43029 -0.07711
# Poissons Ratio (y) = 0.21154 0.56247
# Poissons Ratio (z) = -0.02866 0.42526
#
# Static dielectric constant tensor:
#      x y z
#    x 1.692760 0.000000 -0.012580 
#    y 0.000000 1.665180 0.000000 
#    z -0.012580 0.000000 1.690710 
# 
# From -- ./inp_files/366587.got.cif
#   From: 2010.05.17/outbox.cif.g08.bks.cpg/sg12_184_cif.got.tgz:366587.got - 2010.06.03 13:09:07.
