data_PCOD9197096
_publ_section_title
;
Structure prediction by ZEFSAII (Michael W. Deem and Ramdas Pophale) SiO2 
 PCOD9197096
Probable space group: C 2/M
;
_chemical_formula_sum "Si O2"
_cell_formula_units_Z 64
_cell_length_a 18.679238
_cell_length_b 8.953726
_cell_length_c 33.020076
_cell_angle_alpha 90.000000
_cell_angle_beta 143.772510
_cell_angle_gamma 90.000000
_cell_volume 3263.797411
_symmetry_space_group_name_H-M "C 2/M"
_symmetry_group_IT_number 12
_symmetry_cell_setting 'monoclinic'
loop_
_space_group_symop_operation_xyz
x,y,z
-x,y,-z
-x,-y,-z
x,-y,z
1/2+x,1/2+y,z
1/2-x,1/2+y,-z
1/2-x,1/2-y,-z
1/2+x,1/2-y,z
loop_
_atom_site_type_symbol
_atom_site_label
_atom_site_fract_x
_atom_site_fract_y
_atom_site_fract_z
Si Si1 0.481198 0.823050 0.782559
Si Si2 0.265568 0.678089 0.633013
Si Si3 0.447728 0.671456 0.850590
Si Si4 0.064831 0.174586 0.592853
Si Si5 0.846069 0.173834 0.200571
Si Si6 0.345723 0.173241 0.284365
Si Si7 0.054786 0.674515 0.067378
Si Si8 0.723502 0.674932 0.531131
O O1 0.365188 0.743519 0.709183
O O2 0.492462 0.770821 0.833898
O O3 0.594177 0.765667 0.808151
O O4 0.466860 0.000000 0.773436
O O5 0.270414 0.500000 0.634935
O O6 0.136804 0.734208 0.591672
O O7 0.286042 0.743066 0.597480
O O8 0.485390 0.500000 0.862469
O O9 0.300765 0.676068 0.781794
O O10 0.484446 0.734090 0.911090
O O11 0.106524 0.239064 0.655062
O O12 0.920262 0.186011 0.525767
O O13 0.098055 0.000000 0.604040
O O14 0.884488 0.246454 0.260722
O O15 0.700628 0.181255 0.131807
O O16 0.882787 0.000000 0.215529
O O17 0.384334 0.000000 0.302974
O O18 0.020822 0.500000 0.056934
O O19 0.000000 0.728595 0.000000
O O20 0.756824 0.500000 0.545286
O O21 0.750000 0.750000 0.500000
#
# Coordination Sequence:
#
# PCOD9197096 Si02
#       8
#     8   8   8   8   8   8   8   8
#     4  12  24  39  61  88 122 159 200 250 304 359
#     4  12  25  42  64  89 118 156 202 249 305 367
#     4  10  20  36  59  90 123 155 197 245 293 348
#     4  11  23  40  63  88 118 155 200 248 302 361
#     4  10  21  37  59  87 124 159 197 247 299 352
#     4  10  20  35  58  87 118 154 198 245 295 355
#     4   9  19  38  64  92 123 162 203 242 290 350
#     4  11  26  45  63  87 120 157 200 251 305 363
#
# _framework density 19.609059999999999
#
# number of rings (size 3 to 8) (size 9 to 14) (size 15 to 20)
#    0.000    1.375    1.250    4.500    1.750    5.250 
#    0.000    0.625    0.000    0.000    0.000    0.000 
#    0.000    0.000    0.000    0.000    0.000    0.000 
#
# Total GULP energy -178969.038813 kJ/mol
# GULP energy per Si atom -5592.782463 kJ/mol
# Density = 1.956443 g / cm^3
# Si number density = 19.609060 Si / 1000 Ang^3
#
#
#
# Elastic Constant Matrix: (Units=GPa)
#
#
# Indices 1 2 3 4 5 6 
#
# 1 101.6824 65.6412 30.1578 0.0000 -35.9145 0.0001
# 2 65.6412 165.9863 36.5556 -0.0001 -25.9684 0.0003
# 3 30.1578 36.5556 59.7161 0.0000 -37.2415 0.0000
# 4 0.0000 -0.0001 0.0000 23.0295 0.0000 -6.3968
# 5 -35.9145 -25.9684 -37.2415 0.0000 33.2634 0.0000
# 6 0.0001 0.0003 0.0000 -6.3968 0.0000 38.1404
#
#
#
# Elastic Compliance Matrix: (Units=1/GPa)
#
#
# Indices 1 2 3 4 5 6 
#
# 1 0.022192 -0.006501 0.015078 0.000000 0.035767 0.000000
# 2 -0.006501 0.008917 -0.007328 0.000000 -0.008263 0.000000
# 3 0.015078 -0.007328 0.066944 0.000000 0.085509 0.000000
# 4 0.000000 0.000000 0.000000 0.045544 0.000000 0.007639
# 5 0.035767 -0.008263 0.085509 0.000000 0.157965 0.000000
# 6 0.000000 0.000000 0.000000 0.007639 0.000000 0.027500
#
#
# Mechanical properties :
#
#
# Convention : Reuss Voigt Hill
#
# Bulk Modulus (GPa) = 9.94525 65.78821 37.86673
# Shear Modulus (GPa) = 13.88567 31.88866 22.88716
#
# Velocity S-wave (km/s) = 2.66395 4.03702 3.42010
# Velocity P-wave (km/s) = 3.81378 7.43994 5.91176
#
# Compressibility (1/GPa) = 0.10055048
#
# Stress axis : x y z
#
# Youngs Moduli (GPa) = 45.06031 112.14805 14.93778
#
# Poissons Ratio (x) = 0.72910 -0.22523
# Poissons Ratio (y) = 0.29295 0.10947
# Poissons Ratio (z) = -0.67941 0.82185
#
# Static dielectric constant tensor:
#      x y z
#    x 1.681960 0.000000 0.014460 
#    y 0.000000 1.659990 0.000000 
#    z 0.014460 0.000000 1.680670 
# 
# From -- ./inp_files/378534.got.cif
#   From: 2010.05.17/outbox.cif.g08.bks.cpg/sg12_190_cif.got.tgz:378534.got - 2010.06.03 13:09:07.
