data_PCOD9197245
_publ_section_title
;
Structure prediction by ZEFSAII (Michael W. Deem and Ramdas Pophale) SiO2 
 PCOD9197245
Probable space group: C 2/M
;
_chemical_formula_sum "Si O2"
_cell_formula_units_Z 58
_cell_length_a 20.925631
_cell_length_b 17.886877
_cell_length_c 8.099792
_cell_angle_alpha 90.000000
_cell_angle_beta 54.538947
_cell_angle_gamma 90.000000
_cell_volume 2469.354292
_symmetry_space_group_name_H-M "C 2/M"
_symmetry_group_IT_number 12
_symmetry_cell_setting 'monoclinic'
loop_
_space_group_symop_operation_xyz
x,y,z
-x,y,-z
-x,-y,-z
x,-y,z
1/2+x,1/2+y,z
1/2-x,1/2+y,-z
1/2-x,1/2-y,-z
1/2+x,1/2-y,z
loop_
_atom_site_type_symbol
_atom_site_label
_atom_site_fract_x
_atom_site_fract_y
_atom_site_fract_z
Si Si1 0.623480 0.868273 0.148639
Si Si2 0.266357 0.417063 0.777196
Si Si3 0.966821 0.409241 0.227506
Si Si4 0.969360 0.854803 0.324734
Si Si5 0.154095 0.086386 0.702656
Si Si6 0.121370 0.800158 0.236069
Si Si7 0.500000 0.500000 0.500000
Si Si8 0.808641 0.586718 0.610849
O O1 0.531705 0.880391 0.258766
O O2 0.642705 0.781859 0.147995
O O3 0.656873 0.909896 0.258315
O O4 0.673828 0.902056 0.922867
O O5 0.284218 0.500000 0.815340
O O6 0.299852 0.413200 0.542830
O O7 0.308803 0.356762 0.828733
O O8 0.965342 0.500000 0.240373
O O9 0.879291 0.380714 0.395352
O O10 0.000000 0.387390 0.000000
O O11 0.922677 0.865909 0.225834
O O12 0.924523 0.798801 0.517773
O O13 0.059961 0.832502 0.194908
O O14 0.967457 0.934355 0.423253
O O15 0.220882 0.118394 0.724120
O O16 0.132745 0.000000 0.778479
O O17 0.798434 0.500000 0.576850
#
# Coordination Sequence:
#
# PCOD9197245 Si02
#       8
#     8   8   8   8   8   8   2   8
#     4  12  22  36  56  81 119 155 184 227 290 356
#     4  10  20  35  59  83 110 148 195 241 276 326
#     4  10  21  37  59  83 109 147 200 247 279 322
#     4   9  17  30  55  86 111 145 183 246 280 332
#     4   9  17  33  57  87 114 137 186 244 287 324
#     4   9  21  32  55  81 119 143 190 233 289 335
#     4   8  12  24  52  84 104 130 190 232 284 302
#     4  10  21  34  55  85 116 151 188 232 283 344
#
# _framework density 23.487922000000001
#
# number of rings (size 3 to 8) (size 9 to 14) (size 15 to 20)
#    0.000    2.345    0.690    2.897    9.655    3.310 
#    0.000    2.759    6.069    0.000    0.000    2.897 
#    0.000    0.000    0.000    0.000    0.000    0.000 
#
# Total GULP energy -161795.133730 kJ/mol
# GULP energy per Si atom -5579.142542 kJ/mol
# Density = 2.343446 g / cm^3
# Si number density = 23.487922 Si / 1000 Ang^3
#
#
#
# Elastic Constant Matrix: (Units=GPa)
#
#
# Indices 1 2 3 4 5 6 
#
# 1 163.0860 2.5975 8.9462 0.0000 1.1129 0.0000
# 2 2.5975 61.8641 -2.0648 0.0000 -0.8476 0.0000
# 3 8.9462 -2.0648 50.3207 0.0000 -2.5007 0.0000
# 4 0.0000 0.0000 0.0000 11.8820 0.0000 -9.9721
# 5 1.1129 -0.8476 -2.5007 0.0000 31.7821 0.0000
# 6 0.0000 0.0000 0.0000 -9.9721 0.0000 14.6552
#
#
#
# Elastic Compliance Matrix: (Units=1/GPa)
#
#
# Indices 1 2 3 4 5 6 
#
# 1 0.006201 -0.000302 -0.001130 0.000000 -0.000314 0.000000
# 2 -0.000302 0.016209 0.000744 0.000000 0.000501 0.000000
# 3 -0.001130 0.000744 0.020186 0.000000 0.001648 0.000000
# 4 0.000000 0.000000 0.000000 0.196211 0.000000 0.133511
# 5 -0.000314 0.000501 0.001648 0.000000 0.031618 0.000000
# 6 0.000000 0.000000 0.000000 0.133511 0.000000 0.159082
#
#
# Mechanical properties :
#
#
# Convention : Reuss Voigt Hill
#
# Bulk Modulus (GPa) = 24.26158 32.69207 28.47682
# Shear Modulus (GPa) = 11.24545 29.38331 20.31438
#
# Velocity S-wave (km/s) = 2.19047 3.54078 2.94409
# Velocity P-wave (km/s) = 4.09260 5.53760 4.86900
#
# Compressibility (1/GPa) = 0.04121743
#
# Stress axis : x y z
#
# Youngs Moduli (GPa) = 161.27199 61.69464 49.53952
#
# Poissons Ratio (x) = 0.01866 0.05600
# Poissons Ratio (y) = 0.04877 -0.03685
# Poissons Ratio (z) = 0.18230 -0.04589
#
# Static dielectric constant tensor:
#      x y z
#    x 1.928560 0.000000 -0.008160 
#    y 0.000000 1.836140 0.000000 
#    z -0.008160 0.000000 1.950820 
# 
# From -- ./inp_files/88419.got.cif
#   From: 2010.05.17/outbox.cif.g08.bks.cpg/sg12_45_cif.got.tgz:88419.got - 2010.06.03 13:09:07.
