data_PCOD9197309
_publ_section_title
;
Structure prediction by ZEFSAII (Michael W. Deem and Ramdas Pophale) SiO2 
 PCOD9197309
Probable space group: C 2/M
;
_chemical_formula_sum "Si O2"
_cell_formula_units_Z 56
_cell_length_a 30.229620
_cell_length_b 7.919758
_cell_length_c 20.155809
_cell_angle_alpha 90.000000
_cell_angle_beta 32.909294
_cell_angle_gamma 90.000000
_cell_volume 2621.760659
_symmetry_space_group_name_H-M "C 2/M"
_symmetry_group_IT_number 12
_symmetry_cell_setting 'monoclinic'
loop_
_space_group_symop_operation_xyz
x,y,z
-x,y,-z
-x,-y,-z
x,-y,z
1/2+x,1/2+y,z
1/2-x,1/2+y,-z
1/2-x,1/2-y,-z
1/2+x,1/2-y,z
loop_
_atom_site_type_symbol
_atom_site_label
_atom_site_fract_x
_atom_site_fract_y
_atom_site_fract_z
Si Si1 0.601986 0.697498 0.537940
Si Si2 0.431718 0.199011 0.135293
Si Si3 0.788733 0.296542 0.798165
Si Si4 0.971046 0.701537 0.230840
Si Si5 0.359294 0.295729 0.929008
Si Si6 0.768073 0.804542 0.273375
Si Si7 0.434066 0.702593 0.696463
O O1 0.615299 0.500000 0.506623
O O2 0.571243 0.715989 0.652046
O O3 0.685913 0.790551 0.419334
O O4 0.526763 0.763465 0.587533
O O5 0.437793 0.266700 0.202475
O O6 0.343630 0.217932 0.213757
O O7 0.450089 0.000000 0.119357
O O8 0.500000 0.272090 0.000000
O O9 0.786401 0.500000 0.799807
O O10 0.755696 0.234629 0.769159
O O11 0.880327 0.246161 0.700818
O O12 0.726307 0.235837 0.933838
O O13 0.958894 0.500000 0.251841
O O14 0.067021 0.740701 0.116057
O O15 0.357651 0.500000 0.929231
O O16 0.384529 0.234484 0.823975
O O17 0.791080 0.000000 0.236225
O O18 0.438645 0.500000 0.695549
#
# Coordination Sequence:
#
# PCOD9197309 Si02
#       7
#     8   8   8   8   8   8   8
#     4  10  22  41  60  80 110 147 187 230 277 329
#     4  10  22  40  61  87 117 147 180 220 272 332
#     4  10  21  35  53  80 114 149 185 230 279 325
#     4  10  20  35  59  87 112 143 184 229 275 324
#     4   9  18  34  54  81 116 149 183 223 274 333
#     4  11  24  39  57  83 112 146 189 232 275 325
#     4   9  19  34  55  81 107 143 189 230 273 330
#
# _framework density 21.359691000000002
#
# number of rings (size 3 to 8) (size 9 to 14) (size 15 to 20)
#    0.000    2.143    0.000    3.429    0.000    7.143 
#    0.000    2.857    0.000    0.000    0.000    0.000 
#    0.000    0.000    0.000    0.000    0.000    0.000 
#
# Total GULP energy -156401.250809 kJ/mol
# GULP energy per Si atom -5585.758957 kJ/mol
# Density = 2.131108 g / cm^3
# Si number density = 21.359691 Si / 1000 Ang^3
#
#
#
# Elastic Constant Matrix: (Units=GPa)
#
#
# Indices 1 2 3 4 5 6 
#
# 1 119.1448 -19.3217 20.4048 -0.0012 -24.0898 -0.0035
# 2 -19.3217 17.9268 -15.0960 0.0023 3.6105 -0.0036
# 3 20.4048 -15.0960 77.2736 -0.0092 -22.1777 -0.0015
# 4 -0.0012 0.0023 -0.0092 9.3837 -0.0031 -5.0946
# 5 -24.0898 3.6105 -22.1777 -0.0031 20.5633 -0.0018
# 6 -0.0035 -0.0036 -0.0015 -5.0946 -0.0018 24.5033
#
#
#
# Elastic Compliance Matrix: (Units=1/GPa)
#
#
# Indices 1 2 3 4 5 6 
#
# 1 0.013767 0.014984 0.004585 0.000013 0.018441 0.000009
# 2 0.014984 0.083240 0.019043 0.000020 0.023476 0.000021
# 3 0.004585 0.019043 0.023220 0.000035 0.027070 0.000014
# 4 0.000013 0.000020 0.000035 0.120128 0.000071 0.024977
# 5 0.018441 0.023476 0.027070 0.000071 0.095308 0.000029
# 6 0.000009 0.000021 0.000014 0.024977 0.000029 0.046004
#
#
# Mechanical properties :
#
#
# Convention : Reuss Voigt Hill
#
# Bulk Modulus (GPa) = 5.06458 20.70216 12.88337
# Shear Modulus (GPa) = 13.50408 26.11395 19.80902
#
# Velocity S-wave (km/s) = 2.51713 3.50034 3.04863
# Velocity P-wave (km/s) = 3.29001 5.10389 4.29382
#
# Compressibility (1/GPa) = 0.19744986
#
# Stress axis : x y z
#
# Youngs Moduli (GPa) = 72.63957 12.01345 43.06699
#
# Poissons Ratio (x) = -0.18002 -0.19745
# Poissons Ratio (y) = -1.08847 -0.82010
# Poissons Ratio (z) = -0.33304 -0.22877
#
# Static dielectric constant tensor:
#      x y z
#    x 1.774210 0.000000 0.030730 
#    y 0.000000 1.754970 0.000010 
#    z 0.030730 0.000010 1.754280 
# 
# From -- ./inp_files/329503.got.cif
#   From: 2010.05.17/outbox.cif.g08.bks.cpg/sg12_165_cif.got.tgz:329503.got - 2010.06.03 13:09:07.
