data_PCOD9197726
_publ_section_title
;
Structure prediction by ZEFSAII (Michael W. Deem and Ramdas Pophale) SiO2 
 PCOD9197726
Probable space group: C 2/M
;
_chemical_formula_sum "Si O2"
_cell_formula_units_Z 58
_cell_length_a 12.620469
_cell_length_b 26.808302
_cell_length_c 18.760151
_cell_angle_alpha 90.000000
_cell_angle_beta 25.552927
_cell_angle_gamma 90.000000
_cell_volume 2737.824300
_symmetry_space_group_name_H-M "C 2/M"
_symmetry_group_IT_number 12
_symmetry_cell_setting 'monoclinic'
loop_
_space_group_symop_operation_xyz
x,y,z
-x,y,-z
-x,-y,-z
x,-y,z
1/2+x,1/2+y,z
1/2-x,1/2+y,-z
1/2-x,1/2-y,-z
1/2+x,1/2-y,z
loop_
_atom_site_type_symbol
_atom_site_label
_atom_site_fract_x
_atom_site_fract_y
_atom_site_fract_z
Si Si1 0.000000 0.500000 0.500000
Si Si2 0.033634 0.412114 0.367254
Si Si3 0.311123 0.202556 0.182299
Si Si4 0.330875 0.555774 0.662279
Si Si5 0.967551 0.881517 0.709823
Si Si6 0.658682 0.054421 0.132588
Si Si7 0.265261 0.146529 0.002400
Si Si8 0.132185 0.813765 0.842294
O O1 0.089885 0.455418 0.389557
O O2 0.072301 0.435112 0.264997
O O3 0.191259 0.361203 0.277195
O O4 0.746952 0.397667 0.549140
O O5 0.244198 0.259468 0.237625
O O6 0.073797 0.171642 0.302647
O O7 0.500000 0.202909 0.000000
O O8 0.468114 0.171524 0.146504
O O9 0.500000 0.581853 0.500000
O O10 0.433624 0.500000 0.610758
O O11 0.336064 0.581190 0.734897
O O12 0.068607 0.552391 0.784617
O O13 0.824375 0.878959 0.870700
O O14 0.784444 0.000000 0.052985
O O15 0.779950 0.104819 0.031008
O O16 0.075233 0.188285 0.093112
O O17 0.000000 0.817475 0.000000
#
# Coordination Sequence:
#
# PCOD9197726 Si02
#       8
#     2   8   8   8   8   8   8   8
#     4  12  28  48  70  94 142 186 214 274 326 400
#     4  12  25  45  67  95 133 176 225 263 329 393
#     4   9  21  41  68  98 131 170 218 278 343 384
#     4  10  20  35  62  94 129 171 214 273 339 392
#     4  11  23  40  67  99 134 170 217 281 336 395
#     4  11  22  40  65 100 132 167 222 273 328 398
#     4  11  22  42  66  97 134 173 219 274 330 399
#     4  11  23  43  68  95 130 181 227 270 321 398
#
# _framework density 21.184705999999998
#
# number of rings (size 3 to 8) (size 9 to 14) (size 15 to 20)
#    0.000    1.241    4.828    1.241    0.966    1.103 
#    3.724    2.414   10.621    0.000    0.000    0.000 
#    0.000    0.000    0.000    0.000    0.000    0.000 
#
# Total GULP energy -161526.364310 kJ/mol
# GULP energy per Si atom -5569.874631 kJ/mol
# Density = 2.113649 g / cm^3
# Si number density = 21.184706 Si / 1000 Ang^3
#
#
#
# Elastic Constant Matrix: (Units=GPa)
#
#
# Indices 1 2 3 4 5 6 
#
# 1 63.1449 16.2247 23.7394 -0.0820 20.4364 0.0586
# 2 16.2247 145.9675 24.3730 0.0147 9.8358 -0.0180
# 3 23.7394 24.3730 26.7795 0.0936 12.3436 -0.1282
# 4 -0.0820 0.0147 0.0936 45.0704 -0.0837 6.3209
# 5 20.4364 9.8358 12.3436 -0.0837 35.8504 0.0683
# 6 0.0586 -0.0180 -0.1282 6.3209 0.0683 13.3801
#
#
#
# Elastic Compliance Matrix: (Units=1/GPa)
#
#
# Indices 1 2 3 4 5 6 
#
# 1 0.025699 0.001027 -0.020012 0.000118 -0.008040 -0.000318
# 2 0.001027 0.008124 -0.008329 0.000029 0.000054 -0.000087
# 3 -0.020012 -0.008329 0.066990 -0.000319 -0.009375 0.000917
# 4 0.000118 0.000029 -0.000319 0.023764 0.000112 -0.011230
# 5 -0.008040 0.000054 -0.009375 0.000112 0.035691 -0.000289
# 6 -0.000318 -0.000087 0.000917 -0.011230 -0.000289 0.080054
#
#
# Mechanical properties :
#
#
# Convention : Reuss Voigt Hill
#
# Bulk Modulus (GPa) = 21.65291 40.50733 31.08012
# Shear Modulus (GPa) = 16.11113 30.29716 23.20415
#
# Velocity S-wave (km/s) = 2.76072 3.78583 3.31316
# Velocity P-wave (km/s) = 4.51722 6.18648 5.41654
#
# Compressibility (1/GPa) = 0.04618318
#
# Stress axis : x y z
#
# Youngs Moduli (GPa) = 38.91227 123.09401 14.92771
#
# Poissons Ratio (x) = -0.12638 0.29873
# Poissons Ratio (y) = -0.03995 0.12434
# Poissons Ratio (z) = 0.77871 1.02530
#
# Static dielectric constant tensor:
#      x y z
#    x 1.789790 0.000030 -0.007670 
#    y 0.000030 1.828740 0.000030 
#    z -0.007670 0.000030 1.776100 
# 
# From -- ./inp_files/266031.got.cif
#   From: 2010.05.17/outbox.cif.g08.bks.cpg/sg12_134_cif.got.tgz:266031.got - 2010.06.03 13:09:07.
