data_PCOD9197371
_publ_section_title
;
Structure prediction by ZEFSAII (Michael W. Deem and Ramdas Pophale) SiO2 
 PCOD9197371
Probable space group: C 2/M
;
_chemical_formula_sum "Si O2"
_cell_formula_units_Z 64
_cell_length_a 31.026614
_cell_length_b 9.237817
_cell_length_c 11.891672
_cell_angle_alpha 90.000000
_cell_angle_beta 93.628366
_cell_angle_gamma 90.000000
_cell_volume 3401.537404
_symmetry_space_group_name_H-M "C 2/M"
_symmetry_group_IT_number 12
_symmetry_cell_setting 'monoclinic'
loop_
_space_group_symop_operation_xyz
x,y,z
-x,y,-z
-x,-y,-z
x,-y,z
1/2+x,1/2+y,z
1/2-x,1/2+y,-z
1/2-x,1/2-y,-z
1/2+x,1/2-y,z
loop_
_atom_site_type_symbol
_atom_site_label
_atom_site_fract_x
_atom_site_fract_y
_atom_site_fract_z
Si Si1 0.271705 0.828594 0.838460
Si Si2 0.429880 0.170615 0.800962
Si Si3 0.286403 0.174488 0.580006
Si Si4 0.043959 0.830097 0.567603
Si Si5 0.183289 0.829210 0.947314
Si Si6 0.597614 0.829897 0.956708
Si Si7 0.615685 0.173621 0.441604
Si Si8 0.520653 0.669260 0.824707
O O1 0.281119 0.789939 0.711375
O O2 0.221359 0.808181 0.862497
O O3 0.281804 0.000000 0.855702
O O4 0.298415 0.737076 0.933464
O O5 0.404170 0.209908 0.684169
O O6 0.473005 0.263923 0.820219
O O7 0.441678 0.000000 0.795658
O O8 0.401391 0.187715 0.908021
O O9 0.250000 0.250000 0.500000
O O10 0.334323 0.217383 0.547685
O O11 0.282685 0.000000 0.570302
O O12 0.085222 0.746323 0.528538
O O13 0.037352 0.817723 0.699365
O O14 0.000000 0.776525 0.500000
O O15 0.048537 0.000000 0.539343
O O16 0.139045 0.748490 0.911647
O O17 0.175572 0.000000 0.957935
O O18 0.553638 0.757211 0.907218
O O19 0.597652 0.000000 0.930922
O O20 0.613849 0.000000 0.452815
O O21 0.519923 0.500000 0.855336
#
# Coordination Sequence:
#
# PCOD9197371 Si02
#       8
#     8   8   8   8   8   8   8   8
#     4   9  19  38  61  82 114 153 188 233 291 345
#     4  10  21  38  59  82 111 149 190 232 284 345
#     4  10  22  40  59  84 118 154 193 239 291 343
#     4  10  21  39  59  82 114 150 188 234 290 341
#     4  10  20  35  59  89 114 145 191 237 283 339
#     4  11  23  38  56  81 118 156 188 228 286 345
#     4  10  21  37  61  88 112 146 195 241 282 340
#     4  11  23  38  57  82 114 149 189 238 285 336
#
# _framework density 18.815021999999999
#
# number of rings (size 3 to 8) (size 9 to 14) (size 15 to 20)
#    0.000    1.875    1.250    2.250    0.000    8.250 
#    0.000    5.000    0.000    0.000    0.000    0.000 
#    0.000    0.000    0.000    0.000    0.000    0.000 
#
# Total GULP energy -178791.342634 kJ/mol
# GULP energy per Si atom -5587.229457 kJ/mol
# Density = 1.877220 g / cm^3
# Si number density = 18.815022 Si / 1000 Ang^3
#
#
#
# Elastic Constant Matrix: (Units=GPa)
#
#
# Indices 1 2 3 4 5 6 
#
# 1 129.9693 51.9411 18.1568 0.0000 -9.5395 0.0000
# 2 51.9411 55.7282 15.9586 0.0000 -8.3730 0.0000
# 3 18.1568 15.9586 35.5842 0.0000 -13.8572 0.0000
# 4 0.0000 0.0000 0.0000 25.8738 0.0000 2.3570
# 5 -9.5395 -8.3730 -13.8572 0.0000 22.6104 0.0000
# 6 0.0000 0.0000 0.0000 2.3570 0.0000 36.1028
#
#
#
# Elastic Compliance Matrix: (Units=1/GPa)
#
#
# Indices 1 2 3 4 5 6 
#
# 1 0.012316 -0.011089 -0.001165 0.000000 0.000376 0.000000
# 2 -0.011089 0.030688 -0.007225 0.000000 0.002257 0.000000
# 3 -0.001165 -0.007225 0.040329 0.000000 0.021549 0.000000
# 4 0.000000 0.000000 0.000000 0.038880 0.000000 -0.002538
# 5 0.000376 0.002257 0.021549 0.000000 0.058429 0.000000
# 6 0.000000 0.000000 0.000000 -0.002538 0.000000 0.027864
#
#
# Mechanical properties :
#
#
# Convention : Reuss Voigt Hill
#
# Bulk Modulus (GPa) = 22.53560 43.71052 33.12306
# Shear Modulus (GPa) = 19.06532 25.93241 22.49886
#
# Velocity S-wave (km/s) = 3.18670 3.71655 3.46177
# Velocity P-wave (km/s) = 5.05406 6.45749 5.79839
#
# Compressibility (1/GPa) = 0.04437423
#
# Stress axis : x y z
#
# Youngs Moduli (GPa) = 81.19454 32.58595 24.79628
#
# Poissons Ratio (x) = 0.36135 0.02888
# Poissons Ratio (y) = 0.90038 0.17916
# Poissons Ratio (z) = 0.09457 0.23545
#
# Static dielectric constant tensor:
#      x y z
#    x 1.635250 0.000000 -0.005650 
#    y 0.000000 1.629650 0.000000 
#    z -0.005650 0.000000 1.638920 
# 
# From -- ./inp_files/187496.got.cif
#   From: 2010.05.17/outbox.cif.g08.bks.cpg/sg12_94_cif.got.tgz:187496.got - 2010.06.03 13:09:07.
