data_PCOD9197748
_publ_section_title
;
Structure prediction by ZEFSAII (Michael W. Deem and Ramdas Pophale) SiO2 
 PCOD9197748
Probable space group: C 2/M
;
_chemical_formula_sum "Si O2"
_cell_formula_units_Z 56
_cell_length_a 11.565413
_cell_length_b 16.329422
_cell_length_c 18.615154
_cell_angle_alpha 90.000000
_cell_angle_beta 125.336008
_cell_angle_gamma 90.000000
_cell_volume 2867.930318
_symmetry_space_group_name_H-M "C 2/M"
_symmetry_group_IT_number 12
_symmetry_cell_setting 'monoclinic'
loop_
_space_group_symop_operation_xyz
x,y,z
-x,y,-z
-x,-y,-z
x,-y,z
1/2+x,1/2+y,z
1/2-x,1/2+y,-z
1/2-x,1/2-y,-z
1/2+x,1/2-y,z
loop_
_atom_site_type_symbol
_atom_site_label
_atom_site_fract_x
_atom_site_fract_y
_atom_site_fract_z
Si Si1 0.430416 0.091805 0.345386
Si Si2 0.428936 0.902940 0.896897
Si Si3 0.976115 0.646651 0.216497
Si Si4 0.245450 0.653321 0.487361
Si Si5 0.336860 0.405006 0.674193
Si Si6 0.121373 0.175449 0.763764
Si Si7 0.307185 0.400620 0.356663
O O1 0.408655 0.088156 0.252018
O O2 0.579528 0.133002 0.416506
O O3 0.295095 0.135214 0.331565
O O4 0.445058 0.000000 0.379876
O O5 0.533905 0.869851 0.871834
O O6 0.278070 0.855550 0.841236
O O7 0.402727 0.000000 0.873172
O O8 0.500000 0.894769 0.000000
O O9 0.144158 0.628983 0.287121
O O10 0.917110 0.733316 0.224122
O O11 0.250000 0.750000 0.500000
O O12 0.303462 0.609617 0.578869
O O13 0.330920 0.622386 0.448162
O O14 0.334642 0.500000 0.690118
O O15 0.490581 0.373787 0.750313
O O16 0.112387 0.151858 0.675328
O O17 0.320392 0.500000 0.351070
#
# Coordination Sequence:
#
# PCOD9197748 Si02
#       7
#     8   8   8   8   8   8   8
#     4  10  21  37  59  81 117 161 203 240 292 366
#     4  10  22  43  69  92 119 159 198 234 289 366
#     4  10  20  35  63  89 119 147 194 243 296 343
#     4  11  22  36  54  82 116 157 210 262 297 338
#     4  11  22  36  55  82 117 158 198 246 302 352
#     4  11  23  37  62  90 121 148 195 252 301 352
#     4  10  21  41  61  81 119 167 210 249 296 358
#
# _framework density 19.526274999999998
#
# number of rings (size 3 to 8) (size 9 to 14) (size 15 to 20)
#    0.000    1.571    0.000    7.714    6.000    2.286 
#    2.571    1.429    0.000    0.000    0.000    4.000 
#    0.000    0.000    0.000    0.000    0.000    0.000 
#
# Total GULP energy -156065.134456 kJ/mol
# GULP energy per Si atom -5573.754802 kJ/mol
# Density = 1.948183 g / cm^3
# Si number density = 19.526275 Si / 1000 Ang^3
#
#
#
# Elastic Constant Matrix: (Units=GPa)
#
#
# Indices 1 2 3 4 5 6 
#
# 1 111.9563 36.7547 41.0944 0.0000 -7.8152 0.0000
# 2 36.7547 121.6998 15.4654 0.0000 -1.2256 0.0000
# 3 41.0944 15.4654 71.6577 0.0000 -17.4607 0.0000
# 4 0.0000 0.0000 0.0000 20.7649 0.0000 -4.5076
# 5 -7.8152 -1.2256 -17.4607 0.0000 24.8764 0.0000
# 6 0.0000 0.0000 0.0000 -4.5076 0.0000 26.6983
#
#
#
# Elastic Compliance Matrix: (Units=1/GPa)
#
#
# Indices 1 2 3 4 5 6 
#
# 1 0.012241 -0.002863 -0.006634 0.000000 -0.000952 0.000000
# 2 -0.002863 0.009141 -0.000531 0.000000 -0.000822 0.000000
# 3 -0.006634 -0.000531 0.020942 0.000000 0.012589 0.000000
# 4 0.000000 0.000000 0.000000 0.049990 0.000000 0.008440
# 5 -0.000952 -0.000822 0.012589 0.000000 0.048695 0.000000
# 6 0.000000 0.000000 0.000000 0.008440 0.000000 0.038881
#
#
# Mechanical properties :
#
#
# Convention : Reuss Voigt Hill
#
# Bulk Modulus (GPa) = 44.90959 54.66032 49.78495
# Shear Modulus (GPa) = 24.11178 28.60122 26.35650
#
# Velocity S-wave (km/s) = 3.51784 3.83136 3.67794
# Velocity P-wave (km/s) = 6.28886 6.90119 6.60213
#
# Compressibility (1/GPa) = 0.02226696
#
# Stress axis : x y z
#
# Youngs Moduli (GPa) = 81.69532 109.39829 47.75182
#
# Poissons Ratio (x) = 0.31325 0.31677
# Poissons Ratio (y) = 0.23392 0.02536
# Poissons Ratio (z) = 0.54194 0.05809
#
# Static dielectric constant tensor:
#      x y z
#    x 1.729250 0.000000 -0.023080 
#    y 0.000000 1.592660 0.000000 
#    z -0.023080 0.000000 1.731710 
# 
# From -- ./inp_files/263425.got.cif
#   From: 2010.05.17/outbox.cif.g08.bks.cpg/sg12_132_cif.got.tgz:263425.got - 2010.06.03 13:09:07.
