data_PCOD9197774
_publ_section_title
;
Structure prediction by ZEFSAII (Michael W. Deem and Ramdas Pophale) SiO2 
 PCOD9197774
Probable space group: C 2/M
;
_chemical_formula_sum "Si O2"
_cell_formula_units_Z 64
_cell_length_a 14.867603
_cell_length_b 32.069278
_cell_length_c 8.183262
_cell_angle_alpha 90.000000
_cell_angle_beta 56.247024
_cell_angle_gamma 90.000000
_cell_volume 3244.052714
_symmetry_space_group_name_H-M "C 2/M"
_symmetry_group_IT_number 12
_symmetry_cell_setting 'monoclinic'
loop_
_space_group_symop_operation_xyz
x,y,z
-x,y,-z
-x,-y,-z
x,-y,z
1/2+x,1/2+y,z
1/2-x,1/2+y,-z
1/2-x,1/2-y,-z
1/2+x,1/2-y,z
loop_
_atom_site_type_symbol
_atom_site_label
_atom_site_fract_x
_atom_site_fract_y
_atom_site_fract_z
Si Si1 0.763699 0.047597 0.411141
Si Si2 0.794661 0.817529 0.494968
Si Si3 0.271118 0.707148 0.882880
Si Si4 0.552420 0.601182 0.623683
Si Si5 0.607829 0.882296 0.678819
Si Si6 0.124594 0.178724 0.909263
Si Si7 0.635772 0.124641 0.032246
Si Si8 0.830219 0.091203 0.040994
O O1 0.857746 0.066223 0.431602
O O2 0.663004 0.078944 0.532801
O O3 0.808703 0.052984 0.181622
O O4 0.738032 0.000000 0.474121
O O5 0.797340 0.792443 0.663639
O O6 0.883943 0.854662 0.428594
O O7 0.678750 0.840201 0.586406
O O8 0.822554 0.795539 0.293917
O O9 0.250000 0.750000 0.000000
O O10 0.361617 0.688829 0.913656
O O11 0.175204 0.672905 0.994444
O O12 0.500000 0.598285 0.500000
O O13 0.450462 0.594004 0.846480
O O14 0.481314 0.878303 0.765898
O O15 0.620442 0.889265 0.860981
O O16 0.175595 0.132818 0.841701
O O17 0.000000 0.178575 0.000000
O O18 0.733287 0.097911 0.010945
#
# Coordination Sequence:
#
# PCOD9197774 Si02
#       8
#     8   8   8   8   8   8   8   8
#     4  11  23  37  56  88 126 155 196 261 312 355
#     4  10  20  35  64  87 117 163 208 246 299 377
#     4  10  23  40  57  91 129 151 198 266 316 366
#     4  11  20  35  61  88 116 158 205 245 300 373
#     4   9  18  40  60  86 108 159 213 247 294 365
#     4  11  19  36  61  86 117 163 202 245 300 379
#     4   9  20  38  66  80 110 156 210 251 289 370
#     4  11  19  35  58  89 117 155 203 244 300 369
#
# _framework density 19.72841
#
# number of rings (size 3 to 8) (size 9 to 14) (size 15 to 20)
#    0.000    1.750    3.750    3.375    0.000    2.250 
#    4.500    4.375    2.750    0.000    0.000    0.000 
#    0.000    0.000    0.000    0.000    0.000    0.000 
#
# Total GULP energy -178288.719296 kJ/mol
# GULP energy per Si atom -5571.522478 kJ/mol
# Density = 1.968351 g / cm^3
# Si number density = 19.728410 Si / 1000 Ang^3
#
#
#
# Elastic Constant Matrix: (Units=GPa)
#
#
# Indices 1 2 3 4 5 6 
#
# 1 54.2755 -0.4582 8.3183 0.0000 -20.2546 0.0000
# 2 -0.4582 53.4293 -3.4732 0.0000 1.8035 0.0000
# 3 8.3183 -3.4732 68.9283 0.0000 -0.8380 0.0000
# 4 0.0000 0.0000 0.0000 17.5647 0.0000 5.0514
# 5 -20.2546 1.8035 -0.8380 0.0000 37.2176 0.0000
# 6 0.0000 0.0000 0.0000 5.0514 0.0000 12.7258
#
#
#
# Elastic Compliance Matrix: (Units=1/GPa)
#
#
# Indices 1 2 3 4 5 6 
#
# 1 0.023618 -0.000406 -0.002715 0.000000 0.012812 0.000000
# 2 -0.000406 0.018814 0.000984 0.000000 -0.001111 0.000000
# 3 -0.002715 0.000984 0.014871 0.000000 -0.001190 0.000000
# 4 0.000000 0.000000 0.000000 0.064269 0.000000 -0.025511
# 5 0.012812 -0.001111 -0.001190 0.000000 0.033869 0.000000
# 6 0.000000 0.000000 0.000000 -0.025511 0.000000 0.088707
#
#
# Mechanical properties :
#
#
# Convention : Reuss Voigt Hill
#
# Bulk Modulus (GPa) = 18.85810 20.60077 19.72944
# Shear Modulus (GPa) = 18.78993 24.98470 21.88732
#
# Velocity S-wave (km/s) = 3.08949 3.56256 3.33443
# Velocity P-wave (km/s) = 4.72295 5.23329 4.98465
#
# Compressibility (1/GPa) = 0.05302761
#
# Stress axis : x y z
#
# Youngs Moduli (GPa) = 42.33971 53.15120 67.24698
#
# Poissons Ratio (x) = 0.02160 0.18258
# Poissons Ratio (y) = 0.01721 -0.06614
# Poissons Ratio (z) = 0.11495 -0.05228
#
# Static dielectric constant tensor:
#      x y z
#    x 1.720690 0.000000 0.039780 
#    y 0.000000 1.761940 0.000000 
#    z 0.039780 0.000000 1.779910 
# 
# From -- ./inp_files/68586.got.cif
#   From: 2010.05.17/outbox.cif.g08.bks.cpg/sg12_35_cif.got.tgz:68586.got - 2010.06.03 13:09:07.
