data_PCOD9197346
_publ_section_title
;
Structure prediction by ZEFSAII (Michael W. Deem and Ramdas Pophale) SiO2 
 PCOD9197346
Probable space group: C 2/M
;
_chemical_formula_sum "Si O2"
_cell_formula_units_Z 56
_cell_length_a 19.171022
_cell_length_b 8.241142
_cell_length_c 16.079642
_cell_angle_alpha 90.000000
_cell_angle_beta 86.242480
_cell_angle_gamma 90.000000
_cell_volume 2534.979454
_symmetry_space_group_name_H-M "C 2/M"
_symmetry_group_IT_number 12
_symmetry_cell_setting 'monoclinic'
loop_
_space_group_symop_operation_xyz
x,y,z
-x,y,-z
-x,-y,-z
x,-y,z
1/2+x,1/2+y,z
1/2-x,1/2+y,-z
1/2-x,1/2-y,-z
1/2+x,1/2-y,z
loop_
_atom_site_type_symbol
_atom_site_label
_atom_site_fract_x
_atom_site_fract_y
_atom_site_fract_z
Si Si1 0.827620 0.685305 0.007206
Si Si2 0.983223 0.310696 0.751484
Si Si3 0.346739 0.315610 0.833743
Si Si4 0.391652 0.803161 0.371346
Si Si5 0.321394 0.804835 0.538534
Si Si6 0.455491 0.689326 0.085096
Si Si7 0.750274 0.305430 0.707930
O O1 0.827571 0.500000 0.034404
O O2 0.724493 0.726821 0.208506
O O3 0.750000 0.750000 0.000000
O O4 0.859126 0.702448 0.912105
O O5 0.966498 0.500000 0.738339
O O6 0.911996 0.213296 0.768181
O O7 0.035822 0.252083 0.675748
O O8 0.024209 0.289453 0.835443
O O9 0.345511 0.500000 0.863837
O O10 0.380152 0.750205 0.468245
O O11 0.325593 0.743423 0.321507
O O12 0.389803 0.000000 0.369199
O O13 0.250000 0.750000 0.500000
O O14 0.307827 0.751809 0.633851
O O15 0.325032 0.000000 0.541135
O O16 0.470818 0.500000 0.100440
O O17 0.375164 0.712877 0.065939
O O18 0.500000 0.738330 0.000000
O O19 0.752447 0.500000 0.716020
#
# Coordination Sequence:
#
# PCOD9197346 Si02
#       7
#     8   8   8   8   8   8   8
#     4  12  26  44  66  90 119 152 194 242 291 345
#     4  11  23  39  61  87 117 154 198 244 293 349
#     4  12  25  42  60  83 119 157 195 241 296 348
#     4   9  19  36  59  88 119 151 192 241 292 347
#     4   8  15  31  55  83 115 150 189 236 288 345
#     4  11  23  41  64  88 118 156 196 237 288 346
#     4  10  20  35  59  88 117 153 196 240 292 349
#
# _framework density 22.090910000000001
#
# number of rings (size 3 to 8) (size 9 to 14) (size 15 to 20)
#    0.000    1.571    1.429    3.857    2.000    2.286 
#    0.000    0.714    0.000    4.286    0.000    0.000 
#    0.000    0.000    0.000    0.000    0.000    0.000 
#
# Total GULP energy -156449.241531 kJ/mol
# GULP energy per Si atom -5587.472912 kJ/mol
# Density = 2.204063 g / cm^3
# Si number density = 22.090910 Si / 1000 Ang^3
#
#
#
# Elastic Constant Matrix: (Units=GPa)
#
#
# Indices 1 2 3 4 5 6 
#
# 1 56.9844 -5.4254 -6.6102 0.0000 -5.2709 0.0000
# 2 -5.4254 37.3385 1.1591 0.0000 -3.5408 0.0000
# 3 -6.6102 1.1591 48.7009 0.0000 -22.1490 0.0000
# 4 0.0000 0.0000 0.0000 17.4899 0.0000 -6.5273
# 5 -5.2709 -3.5408 -22.1490 0.0000 39.6468 0.0000
# 6 0.0000 0.0000 0.0000 -6.5273 0.0000 22.8504
#
#
#
# Elastic Compliance Matrix: (Units=1/GPa)
#
#
# Indices 1 2 3 4 5 6 
#
# 1 0.018953 0.003130 0.005056 0.000000 0.005624 0.000000
# 2 0.003130 0.027541 0.001444 0.000000 0.003683 0.000000
# 3 0.005056 0.001444 0.028890 0.000000 0.016941 0.000000
# 4 0.000000 0.000000 0.000000 0.063998 0.000000 0.018281
# 5 0.005624 0.003683 0.016941 0.000000 0.035763 0.000000
# 6 0.000000 0.000000 0.000000 0.018281 0.000000 0.048985
#
#
# Mechanical properties :
#
#
# Convention : Reuss Voigt Hill
#
# Bulk Modulus (GPa) = 10.56574 13.47451 12.02013
# Shear Modulus (GPa) = 21.14890 26.25744 23.70317
#
# Velocity S-wave (km/s) = 3.09748 3.45136 3.27920
# Velocity P-wave (km/s) = 4.19353 4.68992 4.44865
#
# Compressibility (1/GPa) = 0.09464548
#
# Stress axis : x y z
#
# Youngs Moduli (GPa) = 52.76111 36.30913 34.61404
#
# Poissons Ratio (x) = -0.11366 -0.17500
# Poissons Ratio (y) = -0.16516 -0.04999
# Poissons Ratio (z) = -0.26675 -0.05244
#
# Static dielectric constant tensor:
#      x y z
#    x 1.779220 0.000000 -0.039700 
#    y 0.000000 1.763360 0.000000 
#    z -0.039700 0.000000 1.893270 
# 
# From -- ./inp_files/326550.got.cif
#   From: 2010.05.17/outbox.cif.g08.bks.cpg/sg12_164_cif.got.tgz:326550.got - 2010.06.03 13:09:07.
