data_PCOD9197564
_publ_section_title
;
Structure prediction by ZEFSAII (Michael W. Deem and Ramdas Pophale) SiO2 
 PCOD9197564
Probable space group: C 2/M
;
_chemical_formula_sum "Si O2"
_cell_formula_units_Z 48
_cell_length_a 14.828854
_cell_length_b 18.445951
_cell_length_c 11.563443
_cell_angle_alpha 90.000000
_cell_angle_beta 120.705351
_cell_angle_gamma 90.000000
_cell_volume 2719.540693
_symmetry_space_group_name_H-M "C 2/M"
_symmetry_group_IT_number 12
_symmetry_cell_setting 'monoclinic'
loop_
_space_group_symop_operation_xyz
x,y,z
-x,y,-z
-x,-y,-z
x,-y,z
1/2+x,1/2+y,z
1/2-x,1/2+y,-z
1/2-x,1/2-y,-z
1/2+x,1/2-y,z
loop_
_atom_site_type_symbol
_atom_site_label
_atom_site_fract_x
_atom_site_fract_y
_atom_site_fract_z
Si Si1 0.858164 0.324412 0.649216
Si Si2 0.790726 0.174305 0.080465
Si Si3 0.749237 0.177807 0.659133
Si Si4 0.379230 0.085030 0.885831
Si Si5 0.125263 0.084744 0.081720
Si Si6 0.943917 0.253949 0.345535
O O1 0.803873 0.255928 0.676962
O O2 0.788256 0.345350 0.492634
O O3 0.868396 0.388196 0.747205
O O4 0.968778 0.295194 0.672518
O O5 0.697898 0.133435 0.086860
O O6 0.884645 0.194088 0.230497
O O7 0.750000 0.250000 0.000000
O O8 0.830740 0.124963 0.002181
O O9 0.825473 0.123537 0.774290
O O10 0.646151 0.191380 0.669181
O O11 0.354740 0.000000 0.882607
O O12 0.500000 0.096870 0.000000
O O13 0.152614 0.000000 0.097856
O O14 0.000000 0.091979 0.000000
O O15 0.000000 0.225932 0.500000
#
# Coordination Sequence:
#
# PCOD9197564 Si02
#       6
#     8   8   8   8   8   8
#     4  10  20  37  62  87 118 148 197 238 289 343
#     4  12  21  38  65  88 114 153 196 242 288 337
#     4  10  20  38  60  89 113 153 194 244 285 338
#     4  11  24  39  57  86 123 157 190 233 290 349
#     4  11  24  40  58  85 120 155 193 236 288 346
#     4  10  20  35  60  91 115 143 193 248 288 335
#
# _framework density 17.650039
#
# number of rings (size 3 to 8) (size 9 to 14) (size 15 to 20)
#    0.000    1.333    3.333    2.500    0.000    2.000 
#    0.000    0.000    0.000    4.000    0.000    0.000 
#    0.000    0.000    0.000    0.000    0.000    0.000 
#
# Total GULP energy -134061.140832 kJ/mol
# GULP energy per Si atom -5585.880868 kJ/mol
# Density = 1.760987 g / cm^3
# Si number density = 17.650039 Si / 1000 Ang^3
#
#
#
# Elastic Constant Matrix: (Units=GPa)
#
#
# Indices 1 2 3 4 5 6 
#
# 1 98.6998 53.6498 41.0647 0.0000 -6.2874 0.0000
# 2 53.6498 103.1818 92.8770 0.0000 1.2392 0.0000
# 3 41.0647 92.8770 140.9748 0.0000 5.1612 0.0000
# 4 0.0000 0.0000 0.0000 -3.1212 0.0000 3.4260
# 5 -6.2874 1.2392 5.1612 0.0000 26.4183 0.0000
# 6 0.0000 0.0000 0.0000 3.4260 0.0000 29.0337
#
#
#
# Elastic Compliance Matrix: (Units=1/GPa)
#
#
# Indices 1 2 3 4 5 6 
#
# 1 0.014638 -0.009086 0.001590 0.000000 0.003599 0.000000
# 2 -0.009086 0.029555 -0.016815 0.000000 -0.000264 0.000000
# 3 0.001590 -0.016815 0.017793 0.000000 -0.002309 0.000000
# 4 0.000000 0.000000 0.000000 -0.283652 0.000000 0.033471
# 5 0.003599 -0.000264 -0.002309 0.000000 0.039173 0.000000
# 6 0.000000 0.000000 0.000000 0.033471 0.000000 0.030493
#
#
# Mechanical properties :
#
#
# Convention : Reuss Voigt Hill
#
# Bulk Modulus (GPa) = 74.82503 79.78217 77.30360
# Shear Modulus (GPa) = -50.54327 20.81715 -14.86306
#
# Velocity S-wave (km/s) = -5.35710 3.43802 -2.90504
# Velocity P-wave (km/s) = 2.05452 7.81411 5.71321
#
# Compressibility (1/GPa) = 0.01336451
#
# Stress axis : x y z
#
# Youngs Moduli (GPa) = 68.31481 33.83576 56.20250
#
# Poissons Ratio (x) = 0.30742 -0.08937
# Poissons Ratio (y) = 0.62069 0.94504
# Poissons Ratio (z) = -0.10863 0.56894
#
# Static dielectric constant tensor:
#      x y z
#    x 1.593900 0.000000 0.002980 
#    y 0.000000 1.560680 0.000000 
#    z 0.002980 0.000000 1.613660 
# 
# From -- ./inp_files/142759.got.cif
#   From: 2010.05.17/outbox.cif.g08.bks.cpg/sg12_72_cif.got.tgz:142759.got - 2010.06.03 13:09:07.
