data_PCOD9197244
_publ_section_title
;
Structure prediction by ZEFSAII (Michael W. Deem and Ramdas Pophale) SiO2 
 PCOD9197244
Probable space group: C 2/M
;
_chemical_formula_sum "Si O2"
_cell_formula_units_Z 48
_cell_length_a 14.933854
_cell_length_b 17.505046
_cell_length_c 15.181021
_cell_angle_alpha 90.000000
_cell_angle_beta 139.012275
_cell_angle_gamma 90.000000
_cell_volume 2602.986997
_symmetry_space_group_name_H-M "C 2/M"
_symmetry_group_IT_number 12
_symmetry_cell_setting 'monoclinic'
loop_
_space_group_symop_operation_xyz
x,y,z
-x,y,-z
-x,-y,-z
x,-y,z
1/2+x,1/2+y,z
1/2-x,1/2+y,-z
1/2-x,1/2-y,-z
1/2+x,1/2-y,z
loop_
_atom_site_type_symbol
_atom_site_label
_atom_site_fract_x
_atom_site_fract_y
_atom_site_fract_z
Si Si1 0.901445 0.090492 0.537958
Si Si2 0.157209 0.806103 0.148623
Si Si3 0.192964 0.854203 0.706751
Si Si4 0.735260 0.661881 0.016527
Si Si5 0.606605 0.085600 0.011818
Si Si6 0.563210 0.590902 0.236174
O O1 0.793918 0.114633 0.383081
O O2 0.034148 0.141572 0.614661
O O3 0.871364 0.101425 0.618532
O O4 0.932427 0.000000 0.548727
O O5 0.236452 0.728167 0.230802
O O6 0.232734 0.842304 0.120037
O O7 0.143909 0.863118 0.220967
O O8 0.000000 0.792459 0.000000
O O9 0.259598 0.909863 0.828397
O O10 0.750000 0.750000 0.000000
O O11 0.857333 0.622872 0.053668
O O12 0.591111 0.625142 0.878701
O O13 0.560444 0.000000 0.960650
O O14 0.500000 0.123080 0.000000
O O15 0.555855 0.500000 0.212290
#
# Coordination Sequence:
#
# PCOD9197244 Si02
#       6
#     8   8   8   8   8   8
#     4  10  20  35  59  83 109 146 187 231 277 323
#     4  10  22  35  56  83 113 148 181 228 280 327
#     4  11  19  34  54  81 114 140 184 227 277 329
#     4  11  20  34  55  79 112 149 176 225 280 323
#     4  11  22  34  54  82 112 145 181 223 280 340
#     4  10  21  37  57  83 111 145 191 231 272 330
#
# _framework density 18.440353000000002
#
# number of rings (size 3 to 8) (size 9 to 14) (size 15 to 20)
#    0.000    1.500    3.333    3.000    2.333    4.333 
#    0.000    0.000    0.000    0.000    0.000    2.333 
#    0.000    0.000    0.000    0.000    0.000    0.000 
#
# Total GULP energy -133728.577420 kJ/mol
# GULP energy per Si atom -5572.024059 kJ/mol
# Density = 1.839838 g / cm^3
# Si number density = 18.440353 Si / 1000 Ang^3
#
#
#
# Elastic Constant Matrix: (Units=GPa)
#
#
# Indices 1 2 3 4 5 6 
#
# 1 161.3738 64.5410 32.8758 0.0000 -37.0692 0.0000
# 2 64.5410 109.0968 28.1907 0.0000 -23.0066 0.0000
# 3 32.8758 28.1907 56.1387 0.0000 -29.0006 0.0000
# 4 0.0000 0.0000 0.0000 15.7042 0.0000 -14.9318
# 5 -37.0692 -23.0066 -29.0006 0.0000 35.0460 0.0000
# 6 0.0000 0.0000 0.0000 -14.9318 0.0000 -0.7393
#
#
#
# Elastic Compliance Matrix: (Units=1/GPa)
#
#
# Indices 1 2 3 4 5 6 
#
# 1 0.009535 -0.004130 0.000523 0.000000 0.007808 0.000000
# 2 -0.004130 0.012731 -0.003343 0.000000 0.001223 0.000000
# 3 0.000523 -0.003343 0.032029 0.000000 0.024863 0.000000
# 4 0.000000 0.000000 0.000000 0.003152 0.000000 -0.063656
# 5 0.007808 0.001223 0.024863 0.000000 0.058170 0.000000
# 6 0.000000 0.000000 0.000000 -0.063656 0.000000 -0.066949
#
#
# Mechanical properties :
#
#
# Convention : Reuss Voigt Hill
#
# Bulk Modulus (GPa) = 24.75427 64.20271 44.47849
# Shear Modulus (GPa) = 65.76095 23.40229 44.58162
#
# Velocity S-wave (km/s) = 5.97820 3.56628 4.92226
# Velocity P-wave (km/s) = 7.81696 7.20068 7.51514
#
# Compressibility (1/GPa) = 0.04039707
#
# Stress axis : x y z
#
# Youngs Moduli (GPa) = 104.87216 78.54833 31.22143
#
# Poissons Ratio (x) = 0.32438 -0.01633
# Poissons Ratio (y) = 0.43310 0.10436
# Poissons Ratio (z) = -0.05485 0.26256
#
# Static dielectric constant tensor:
#      x y z
#    x 1.690900 0.000000 0.026580 
#    y 0.000000 1.631920 0.000000 
#    z 0.026580 0.000000 1.712850 
# 
# From -- ./inp_files/216512.got.cif
#   From: 2010.05.17/outbox.cif.g08.bks.cpg/sg12_109_cif.got.tgz:216512.got - 2010.06.03 13:09:07.
