data_PCOD9197955
_publ_section_title
;
Structure prediction by ZEFSAII (Michael W. Deem and Ramdas Pophale) SiO2 
 PCOD9197955
Probable space group: C 2/M
;
_chemical_formula_sum "Si O2"
_cell_formula_units_Z 32
_cell_length_a 29.079490
_cell_length_b 8.539212
_cell_length_c 16.499911
_cell_angle_alpha 90.000000
_cell_angle_beta 153.928345
_cell_angle_gamma 90.000000
_cell_volume 1800.694230
_symmetry_space_group_name_H-M "C 2/M"
_symmetry_group_IT_number 12
_symmetry_cell_setting 'monoclinic'
loop_
_space_group_symop_operation_xyz
x,y,z
-x,y,-z
-x,-y,-z
x,-y,z
1/2+x,1/2+y,z
1/2-x,1/2+y,-z
1/2-x,1/2-y,-z
1/2+x,1/2-y,z
loop_
_atom_site_type_symbol
_atom_site_label
_atom_site_fract_x
_atom_site_fract_y
_atom_site_fract_z
Si Si1 0.600699 0.189137 0.709321
Si Si2 0.329212 0.688872 0.012065
Si Si3 0.852656 0.687142 0.707109
Si Si4 0.577100 0.311329 0.011724
O O1 0.500000 0.243385 0.500000
O O2 0.604305 0.248889 0.806968
O O3 0.599654 0.000000 0.709134
O O4 0.709441 0.239422 0.839116
O O5 0.331202 0.500000 0.017038
O O6 0.372884 0.738841 0.994295
O O7 0.854344 0.500000 0.708047
O O8 0.750000 0.750000 0.500000
O O9 0.860154 0.745334 0.811823
O O10 0.958268 0.751901 0.832547
O O11 0.577392 0.500000 0.016688
#
# Coordination Sequence:
#
# PCOD9197955 Si02
#       4
#     8   8   8   8
#     4   9  18  33  52  75 104 138 175 213 254 303
#     4   9  19  34  52  76 105 136 171 214 260 305
#     4  11  22  37  56  79 106 138 177 218 266 318
#     4  10  20  36  55  78 109 141 177 220 264 312
#
# _framework density 17.770924999999998
#
# number of rings (size 3 to 8) (size 9 to 14) (size 15 to 20)
#    0.000    2.250    0.000    4.500    0.000    4.500 
#    0.000    2.500    0.000    0.000    0.000    0.000 
#    0.000    0.000    0.000    0.000    0.000    0.000 
#
# Total GULP energy -89303.128495 kJ/mol
# GULP energy per Si atom -5581.445531 kJ/mol
# Density = 1.773048 g / cm^3
# Si number density = 17.770925 Si / 1000 Ang^3
#
#
#
# Elastic Constant Matrix: (Units=GPa)
#
#
# Indices 1 2 3 4 5 6 
#
# 1 174.7675 35.0688 87.4540 0.0000 -23.7541 0.0000
# 2 35.0688 59.3517 33.6872 0.0000 -3.9007 0.0000
# 3 87.4540 33.6872 181.6265 0.0000 -18.6016 0.0000
# 4 0.0000 0.0000 0.0000 29.9473 0.0000 -5.0232
# 5 -23.7541 -3.9007 -18.6016 0.0000 9.2108 0.0000
# 6 0.0000 0.0000 0.0000 -5.0232 0.0000 27.3129
#
#
#
# Elastic Compliance Matrix: (Units=1/GPa)
#
#
# Indices 1 2 3 4 5 6 
#
# 1 0.010349 -0.003497 -0.002210 0.000000 0.020746 0.000000
# 2 -0.003497 0.020023 -0.002629 0.000000 -0.005849 0.000000
# 3 -0.002210 -0.002629 0.008018 0.000000 0.009381 0.000000
# 4 0.000000 0.000000 0.000000 0.034455 0.000000 0.006337
# 5 0.020746 -0.005849 0.009381 0.000000 0.178539 0.000000
# 6 0.000000 0.000000 0.000000 0.006337 0.000000 0.037778
#
#
# Mechanical properties :
#
#
# Convention : Reuss Voigt Hill
#
# Bulk Modulus (GPa) = 46.04363 80.90730 63.47546
# Shear Modulus (GPa) = 15.97067 30.59656 23.28362
#
# Velocity S-wave (km/s) = 3.00108 4.15386 3.62361
# Velocity P-wave (km/s) = 6.16234 8.28449 7.30093
#
# Compressibility (1/GPa) = 0.02171853
#
# Stress axis : x y z
#
# Youngs Moduli (GPa) = 96.62562 49.94303 124.71709
#
# Poissons Ratio (x) = 0.17466 0.27560
# Poissons Ratio (y) = 0.33793 0.32785
# Poissons Ratio (z) = 0.21352 0.13129
#
# Static dielectric constant tensor:
#      x y z
#    x 1.595170 0.000000 0.008180 
#    y 0.000000 1.602280 0.000000 
#    z 0.008180 0.000000 1.582300 
# 
# From -- ./inp_files/138359.got.cif
#   From: 2010.05.17/outbox.cif.g08.bks.cpg/sg12_70_cif.got.tgz:138359.got - 2010.06.03 13:09:07.
