data_PCOD9197725
_publ_section_title
;
Structure prediction by ZEFSAII (Michael W. Deem and Ramdas Pophale) SiO2 
 PCOD9197725
Probable space group: C 2/M
;
_chemical_formula_sum "Si O2"
_cell_formula_units_Z 60
_cell_length_a 11.622696
_cell_length_b 20.513094
_cell_length_c 11.139342
_cell_angle_alpha 90.000000
_cell_angle_beta 87.446980
_cell_angle_gamma 90.000000
_cell_volume 2653.177495
_symmetry_space_group_name_H-M "C 2/M"
_symmetry_group_IT_number 12
_symmetry_cell_setting 'monoclinic'
loop_
_space_group_symop_operation_xyz
x,y,z
-x,y,-z
-x,-y,-z
x,-y,z
1/2+x,1/2+y,z
1/2-x,1/2+y,-z
1/2-x,1/2-y,-z
1/2+x,1/2-y,z
loop_
_atom_site_type_symbol
_atom_site_label
_atom_site_fract_x
_atom_site_fract_y
_atom_site_fract_z
Si Si1 0.706263 0.388466 0.411673
Si Si2 0.138148 0.425658 0.386121
Si Si3 0.574173 0.074892 0.740382
Si Si4 0.939625 0.000000 0.677369
Si Si5 0.230420 0.358272 0.172795
Si Si6 0.003524 0.881049 0.858945
Si Si7 0.110716 0.324743 0.935905
Si Si8 0.319685 0.280881 0.766086
O O1 0.776615 0.387114 0.531444
O O2 0.794645 0.417538 0.307486
O O3 0.606031 0.441670 0.414212
O O4 0.680126 0.316904 0.362135
O O5 0.138529 0.500000 0.431378
O O6 0.189672 0.420490 0.249671
O O7 0.006790 0.405154 0.367142
O O8 0.556721 0.118895 0.856426
O O9 0.550032 0.000000 0.767040
O O10 0.973010 0.058026 0.774727
O O11 0.367490 0.356999 0.174445
O O12 0.167074 0.296380 0.238221
O O13 0.189071 0.354094 0.037921
O O14 0.913598 0.822807 0.834578
O O15 0.000000 0.898423 0.000000
O O16 0.198414 0.287662 0.844217
O O17 0.000000 0.289512 0.000000
#
# Coordination Sequence:
#
# PCOD9197725 Si02
#       8
#     8   8   8   4   8   8   8   8
#     4  10  20  41  68  91 124 172 218 267 315 382
#     4  11  23  40  62  96 130 168 210 269 329 383
#     4  10  20  35  62  94 128 163 211 255 319 386
#     4  10  21  42  64  94 122 169 229 269 309 382
#     4  12  26  40  63  97 133 170 212 270 328 390
#     4  11  24  42  66  96 131 177 220 263 323 394
#     4  11  22  39  62  93 130 169 201 263 328 379
#     4  10  25  42  65  93 126 172 222 260 314 390
#
# _framework density 22.614393
#
# number of rings (size 3 to 8) (size 9 to 14) (size 15 to 20)
#    0.000    1.333    4.000    1.000    2.800    2.400 
#    0.000    3.333    0.000    1.600    0.000    0.000 
#    0.000    0.000    0.000    0.000    0.000    0.000 
#
# Total GULP energy -167061.358880 kJ/mol
# GULP energy per Si atom -5568.711963 kJ/mol
# Density = 2.256292 g / cm^3
# Si number density = 22.614393 Si / 1000 Ang^3
#
#
#
# Elastic Constant Matrix: (Units=GPa)
#
#
# Indices 1 2 3 4 5 6 
#
# 1 99.5869 22.1601 4.7492 0.0000 7.3935 0.0000
# 2 22.1601 99.2469 33.4213 0.0000 16.7949 0.0000
# 3 4.7492 33.4213 59.5152 0.0000 38.2452 0.0000
# 4 0.0000 0.0000 0.0000 20.7723 0.0000 9.3758
# 5 7.3935 16.7949 38.2452 0.0000 46.9866 0.0000
# 6 0.0000 0.0000 0.0000 9.3758 0.0000 20.2061
#
#
#
# Elastic Compliance Matrix: (Units=1/GPa)
#
#
# Indices 1 2 3 4 5 6 
#
# 1 0.010737 -0.002755 0.002397 0.000000 -0.002656 0.000000
# 2 -0.002755 0.013286 -0.009368 0.000000 0.003310 0.000000
# 3 0.002397 -0.009368 0.041855 0.000000 -0.031097 0.000000
# 4 0.000000 0.000000 0.000000 0.060894 0.000000 -0.028255
# 5 -0.002656 0.003310 -0.031097 0.000000 0.045829 0.000000
# 6 0.000000 0.000000 0.000000 -0.028255 0.000000 0.062601
#
#
# Mechanical properties :
#
#
# Convention : Reuss Voigt Hill
#
# Bulk Modulus (GPa) = 21.53934 42.11225 31.82580
# Shear Modulus (GPa) = 18.50964 30.79423 24.65193
#
# Velocity S-wave (km/s) = 2.86403 3.69414 3.30525
# Velocity P-wave (km/s) = 4.52572 6.07107 5.35444
#
# Compressibility (1/GPa) = 0.04642668
#
# Stress axis : x y z
#
# Youngs Moduli (GPa) = 93.13200 75.26984 23.89199
#
# Poissons Ratio (x) = 0.20739 -0.05727
# Poissons Ratio (y) = 0.25660 0.22381
# Poissons Ratio (z) = -0.22325 0.70509
#
# Static dielectric constant tensor:
#      x y z
#    x 1.931870 0.000000 -0.035450 
#    y 0.000000 1.840210 0.000000 
#    z -0.035450 0.000000 1.862560 
# 
# From -- ./inp_files/133945.got.cif
#   From: 2010.05.17/outbox.cif.g08.bks.cpg/sg12_67_cif.got.tgz:133945.got - 2010.06.03 13:09:07.
