data_PCOD9197857
_publ_section_title
;
Structure prediction by ZEFSAII (Michael W. Deem and Ramdas Pophale) SiO2 
 PCOD9197857
Probable space group: C 2/M
;
_chemical_formula_sum "Si O2"
_cell_formula_units_Z 56
_cell_length_a 19.846651
_cell_length_b 8.620422
_cell_length_c 20.611475
_cell_angle_alpha 90.000000
_cell_angle_beta 123.890696
_cell_angle_gamma 90.000000
_cell_volume 2927.229229
_symmetry_space_group_name_H-M "C 2/M"
_symmetry_group_IT_number 12
_symmetry_cell_setting 'monoclinic'
loop_
_space_group_symop_operation_xyz
x,y,z
-x,y,-z
-x,-y,-z
x,-y,z
1/2+x,1/2+y,z
1/2-x,1/2+y,-z
1/2-x,1/2-y,-z
1/2+x,1/2-y,z
loop_
_atom_site_type_symbol
_atom_site_label
_atom_site_fract_x
_atom_site_fract_y
_atom_site_fract_z
Si Si1 0.689338 0.185715 0.022456
Si Si2 0.585247 0.186499 0.512722
Si Si3 0.173767 0.813591 0.811670
Si Si4 0.836942 0.185085 0.568992
Si Si5 0.376008 0.689330 0.736490
Si Si6 0.444138 0.312611 0.133319
Si Si7 0.796093 0.313223 0.308680
O O1 0.736346 0.230989 0.113416
O O2 0.687234 0.000000 0.018252
O O3 0.750000 0.250000 0.000000
O O4 0.602473 0.251571 0.955249
O O5 0.500000 0.224800 0.500000
O O6 0.599172 0.263460 0.450984
O O7 0.655638 0.234546 0.600795
O O8 0.589677 0.000000 0.507116
O O9 0.107721 0.764249 0.830424
O O10 0.162766 0.746804 0.734549
O O11 0.170018 0.000000 0.806755
O O12 0.750000 0.250000 0.500000
O O13 0.861944 0.238209 0.654343
O O14 0.830926 0.000000 0.567806
O O15 0.376969 0.500000 0.737265
O O16 0.463238 0.740164 0.809705
O O17 0.297222 0.739132 0.734730
O O18 0.441882 0.500000 0.130456
O O19 0.797482 0.500000 0.308030
#
# Coordination Sequence:
#
# PCOD9197857 Si02
#       7
#     8   8   8   8   8   8   8
#     4   9  17  32  53  78 108 139 172 215 263 313
#     4  10  22  39  56  79 114 146 181 232 278 318
#     4   9  19  33  52  78 107 135 169 217 267 311
#     4  11  21  37  60  81 108 146 187 227 272 329
#     4   9  19  36  55  76 106 141 178 222 268 316
#     4   9  18  34  56  79 104 136 176 223 264 310
#     4  10  20  36  54  74 106 145 178 215 267 322
#
# _framework density 19.130718999999999
#
# number of rings (size 3 to 8) (size 9 to 14) (size 15 to 20)
#    0.000    2.429    1.429    1.714    2.000    3.714 
#    0.000    2.857    0.000    4.286    0.000    0.000 
#    0.000    0.000    0.000    0.000    0.000    0.000 
#
# Total GULP energy -156162.214419 kJ/mol
# GULP energy per Si atom -5577.221944 kJ/mol
# Density = 1.908718 g / cm^3
# Si number density = 19.130719 Si / 1000 Ang^3
#
#
#
# Elastic Constant Matrix: (Units=GPa)
#
#
# Indices 1 2 3 4 5 6 
#
# 1 52.1688 8.1806 -4.1637 0.0000 14.3247 0.0000
# 2 8.1806 8.1820 2.9132 0.0000 3.9771 0.0000
# 3 -4.1637 2.9132 30.7348 0.0000 17.8518 0.0000
# 4 0.0000 0.0000 0.0000 24.3169 0.0000 -4.1511
# 5 14.3247 3.9771 17.8518 0.0000 38.4642 0.0000
# 6 0.0000 0.0000 0.0000 -4.1511 0.0000 20.7218
#
#
#
# Elastic Compliance Matrix: (Units=1/GPa)
#
#
# Indices 1 2 3 4 5 6 
#
# 1 0.028664 -0.026784 0.015078 0.000000 -0.014904 0.000000
# 2 -0.026784 0.154559 -0.020248 0.000000 0.003391 0.000000
# 3 0.015078 -0.020248 0.052769 0.000000 -0.028013 0.000000
# 4 0.000000 0.000000 0.000000 0.042580 0.000000 0.008530
# 5 -0.014904 0.003391 -0.028013 0.000000 0.044199 0.000000
# 6 0.000000 0.000000 0.000000 0.008530 0.000000 0.049967
#
#
# Mechanical properties :
#
#
# Convention : Reuss Voigt Hill
#
# Bulk Modulus (GPa) = 5.81102 11.66063 8.73583
# Shear Modulus (GPa) = 10.12133 22.31095 16.21614
#
# Velocity S-wave (km/s) = 2.30263 3.41873 2.91460
# Velocity P-wave (km/s) = 3.18019 4.65747 3.98783
#
# Compressibility (1/GPa) = 0.17208685
#
# Stress axis : x y z
#
# Youngs Moduli (GPa) = 34.88663 6.47001 18.95055
#
# Poissons Ratio (x) = 0.17329 -0.28575
# Poissons Ratio (y) = 0.93439 0.38370
# Poissons Ratio (z) = -0.52604 0.13100
#
# Static dielectric constant tensor:
#      x y z
#    x 1.657780 0.000000 0.026990 
#    y 0.000000 1.654010 0.000000 
#    z 0.026990 0.000000 1.672050 
# 
# From -- ./inp_files/280991.got.cif
#   From: 2010.05.17/outbox.cif.g08.bks.cpg/sg12_141_cif.got.tgz:280991.got - 2010.06.03 13:09:07.
