data_PCOD9197266
_publ_section_title
;
Structure prediction by ZEFSAII (Michael W. Deem and Ramdas Pophale) SiO2 
 PCOD9197266
Probable space group: C 2/M
;
_chemical_formula_sum "Si O2"
_cell_formula_units_Z 44
_cell_length_a 12.346360
_cell_length_b 13.809683
_cell_length_c 25.710764
_cell_angle_alpha 90.000000
_cell_angle_beta 30.981085
_cell_angle_gamma 90.000000
_cell_volume 2256.515190
_symmetry_space_group_name_H-M "C 2/M"
_symmetry_group_IT_number 12
_symmetry_cell_setting 'monoclinic'
loop_
_space_group_symop_operation_xyz
x,y,z
-x,y,-z
-x,-y,-z
x,-y,z
1/2+x,1/2+y,z
1/2-x,1/2+y,-z
1/2-x,1/2-y,-z
1/2+x,1/2-y,z
loop_
_atom_site_type_symbol
_atom_site_label
_atom_site_fract_x
_atom_site_fract_y
_atom_site_fract_z
Si Si1 0.277546 0.697422 0.350948
Si Si2 0.831970 0.384028 0.497425
Si Si3 0.672197 0.888269 0.618276
Si Si4 0.885605 0.113425 0.866141
Si Si5 0.500000 0.760859 0.000000
Si Si6 0.319696 0.609174 0.154691
O O1 0.067015 0.654074 0.412338
O O2 0.249082 0.811857 0.371877
O O3 0.472199 0.665447 0.236006
O O4 0.303021 0.654979 0.398818
O O5 0.839167 0.500000 0.497065
O O6 0.763619 0.359637 0.466925
O O7 0.417790 0.882081 0.726161
O O8 0.731886 0.000000 0.603261
O O9 0.017911 0.117586 0.864729
O O10 0.854924 0.000000 0.865665
O O11 0.667323 0.170399 0.959800
O O12 0.625056 0.690849 0.909434
O O13 0.337867 0.500000 0.125057
#
# Coordination Sequence:
#
# PCOD9197266 Si02
#       6
#     8   8   8   8   4   8
#     4  11  19  34  58  85 109 143 184 223 268 318
#     4  10  20  35  59  85 109 145 187 220 261 329
#     4  10  20  36  56  81 111 145 185 224 268 321
#     4  11  22  37  57  82 115 142 177 229 278 323
#     4  12  22  38  58  84 106 144 186 226 278 324
#     4  10  21  38  58  80 106 146 187 225 267 324
#
# _framework density 19.499092999999998
#
# number of rings (size 3 to 8) (size 9 to 14) (size 15 to 20)
#    0.000    1.455    3.636    3.818    0.000    0.000 
#    0.000    1.818    0.000    6.545    0.000    0.000 
#    0.000    0.000    0.000    0.000    0.000    0.000 
#
# Total GULP energy -122921.210025 kJ/mol
# GULP energy per Si atom -5587.327728 kJ/mol
# Density = 1.945471 g / cm^3
# Si number density = 19.499093 Si / 1000 Ang^3
#
#
#
# Elastic Constant Matrix: (Units=GPa)
#
#
# Indices 1 2 3 4 5 6 
#
# 1 29.3842 24.5409 0.9015 0.0001 0.3759 -0.0003
# 2 24.5409 100.5660 1.5922 0.0001 15.8964 0.0006
# 3 0.9015 1.5922 30.7404 0.0014 3.5241 -0.0013
# 4 0.0001 0.0001 0.0014 28.3014 -0.0004 2.1309
# 5 0.3759 15.8964 3.5241 -0.0004 25.9711 0.0005
# 6 -0.0003 0.0006 -0.0013 2.1309 0.0005 28.3419
#
#
#
# Elastic Compliance Matrix: (Units=1/GPa)
#
#
# Indices 1 2 3 4 5 6 
#
# 1 0.043784 -0.011727 -0.001449 0.000000 0.006741 0.000001
# 2 -0.011727 0.014151 0.000594 0.000000 -0.008572 0.000000
# 3 -0.001449 0.000594 0.033096 -0.000002 -0.004833 0.000002
# 4 0.000000 0.000000 -0.000002 0.035535 0.000001 -0.002672
# 5 0.006741 -0.008572 -0.004833 0.000001 0.044310 -0.000001
# 6 0.000001 0.000000 0.000002 -0.002672 -0.000001 0.035484
#
#
# Mechanical properties :
#
#
# Convention : Reuss Voigt Hill
#
# Bulk Modulus (GPa) = 15.18234 23.86221 19.52227
# Shear Modulus (GPa) = 19.72525 25.43326 22.57926
#
# Velocity S-wave (km/s) = 3.18401 3.61547 3.40658
# Velocity P-wave (km/s) = 4.61740 5.44913 5.05041
#
# Compressibility (1/GPa) = 0.06586601
#
# Stress axis : x y z
#
# Youngs Moduli (GPa) = 22.83919 70.66565 30.21487
#
# Poissons Ratio (x) = 0.82871 0.04379
# Poissons Ratio (y) = 0.26784 -0.01794
# Poissons Ratio (z) = 0.03310 -0.04195
#
# Static dielectric constant tensor:
#      x y z
#    x 1.658720 0.000000 -0.001110 
#    y 0.000000 1.700070 0.000000 
#    z -0.001110 0.000000 1.669830 
# 
# From -- ./inp_files/203393.got.cif
#   From: 2010.05.17/outbox.cif.g08.bks.cpg/sg12_102_cif.got.tgz:203393.got - 2010.06.03 13:09:07.
