data_PCOD9197626
_publ_section_title
;
Structure prediction by ZEFSAII (Michael W. Deem and Ramdas Pophale) SiO2 
 PCOD9197626
Probable space group: C 2/M
;
_chemical_formula_sum "Si O2"
_cell_formula_units_Z 58
_cell_length_a 18.395465
_cell_length_b 10.369962
_cell_length_c 30.424002
_cell_angle_alpha 90.000000
_cell_angle_beta 28.721221
_cell_angle_gamma 90.000000
_cell_volume 2788.954034
_symmetry_space_group_name_H-M "C 2/M"
_symmetry_group_IT_number 12
_symmetry_cell_setting 'monoclinic'
loop_
_space_group_symop_operation_xyz
x,y,z
-x,y,-z
-x,-y,-z
x,-y,z
1/2+x,1/2+y,z
1/2-x,1/2+y,-z
1/2-x,1/2-y,-z
1/2+x,1/2-y,z
loop_
_atom_site_type_symbol
_atom_site_label
_atom_site_fract_x
_atom_site_fract_y
_atom_site_fract_z
Si Si1 0.388437 0.651948 0.600996
Si Si2 0.096924 0.350323 0.534444
Si Si3 0.055261 0.355373 0.789605
Si Si4 0.809267 0.353802 0.802179
Si Si5 0.350732 0.147640 0.388302
Si Si6 0.729112 0.352246 0.943906
Si Si7 0.000000 0.500000 0.000000
Si Si8 0.565854 0.196441 0.884609
O O1 0.500000 0.656776 0.500000
O O2 0.389337 0.500000 0.615570
O O3 0.454230 0.759335 0.599109
O O4 0.213470 0.688702 0.684878
O O5 0.087358 0.500000 0.523914
O O6 0.234480 0.263686 0.442367
O O7 0.123070 0.356525 0.572891
O O8 0.033698 0.500000 0.782813
O O9 0.082748 0.361621 0.827274
O O10 0.892103 0.289905 0.869067
O O11 0.809800 0.500000 0.785096
O O12 0.722996 0.350493 0.894261
O O13 0.721224 0.266662 0.814814
O O14 0.984144 0.321727 0.718382
O O15 0.301765 0.000000 0.401392
O O16 0.730123 0.500000 0.959026
O O17 0.580676 0.287256 0.041089
O O18 0.028787 0.608454 0.946114
#
# Coordination Sequence:
#
# PCOD9197626 Si02
#       8
#     8   8   8   8   8   8   2   8
#     4  10  22  39  62  86 113 156 206 250 295 356
#     4  10  20  36  56  84 120 152 192 244 305 357
#     4  10  22  38  60  88 118 155 201 247 296 352
#     4  10  20  35  61  86 112 148 198 249 290 340
#     4   9  19  35  57  86 115 152 195 244 295 358
#     4  10  21  37  60  88 114 152 198 252 292 340
#     4  12  24  36  58  84 118 168 184 238 292 372
#     4  12  21  40  58  85 123 157 196 238 298 362
#
# _framework density 20.796327999999999
#
# number of rings (size 3 to 8) (size 9 to 14) (size 15 to 20)
#    0.000    1.793    2.069    2.069    1.931    1.931 
#    1.241    0.690    1.517    0.000    0.000    0.000 
#    0.000    0.000    0.000    0.000    0.000    0.000 
#
# Total GULP energy -161437.808819 kJ/mol
# GULP energy per Si atom -5566.820994 kJ/mol
# Density = 2.074899 g / cm^3
# Si number density = 20.796328 Si / 1000 Ang^3
#
#
#
# Elastic Constant Matrix: (Units=GPa)
#
#
# Indices 1 2 3 4 5 6 
#
# 1 53.6944 27.8060 3.8325 0.0000 -4.0163 0.0000
# 2 27.8060 97.9603 32.8117 -0.0001 -19.8428 0.0000
# 3 3.8325 32.8117 97.3739 -0.0002 -6.2766 0.0001
# 4 0.0000 -0.0001 -0.0002 8.4643 0.0000 -0.2725
# 5 -4.0163 -19.8428 -6.2766 0.0000 44.3532 0.0000
# 6 0.0000 0.0000 0.0001 -0.2725 0.0000 19.2373
#
#
#
# Elastic Compliance Matrix: (Units=1/GPa)
#
#
# Indices 1 2 3 4 5 6 
#
# 1 0.022033 -0.006905 0.001402 0.000000 -0.000896 0.000000
# 2 -0.006905 0.014703 -0.004338 0.000000 0.005339 0.000000
# 3 0.001402 -0.004338 0.011666 0.000000 -0.000163 0.000000
# 4 0.000000 0.000000 0.000000 0.118197 0.000000 0.001674
# 5 -0.000896 0.005339 -0.000163 0.000000 0.024830 0.000000
# 6 0.000000 0.000000 0.000000 0.001674 0.000000 0.052006
#
#
# Mechanical properties :
#
#
# Convention : Reuss Voigt Hill
#
# Bulk Modulus (GPa) = 34.82117 41.99213 38.40665
# Shear Modulus (GPa) = 18.33581 26.71619 22.52600
#
# Velocity S-wave (km/s) = 2.97254 3.58810 3.29473
# Velocity P-wave (km/s) = 5.34430 6.11571 5.74297
#
# Compressibility (1/GPa) = 0.02871816
#
# Stress axis : x y z
#
# Youngs Moduli (GPa) = 45.38726 68.01469 85.71988
#
# Poissons Ratio (x) = 0.46964 -0.12016
# Poissons Ratio (y) = 0.31340 0.37189
# Poissons Ratio (z) = -0.06363 0.29508
#
# Static dielectric constant tensor:
#      x y z
#    x 1.786740 0.000000 -0.024200 
#    y 0.000000 1.736770 0.000000 
#    z -0.024200 0.000000 1.795530 
# 
# From -- ./inp_files/378887.got.cif
#   From: 2010.05.17/outbox.cif.g08.bks.cpg/sg12_190_cif.got.tgz:378887.got - 2010.06.03 13:09:07.
