data_PCOD9197638
_publ_section_title
;
Structure prediction by ZEFSAII (Michael W. Deem and Ramdas Pophale) SiO2 
 PCOD9197638
Probable space group: C 2/M
;
_chemical_formula_sum "Si O2"
_cell_formula_units_Z 40
_cell_length_a 12.232759
_cell_length_b 27.387119
_cell_length_c 8.218936
_cell_angle_alpha 90.000000
_cell_angle_beta 36.919325
_cell_angle_gamma 90.000000
_cell_volume 1654.004574
_symmetry_space_group_name_H-M "C 2/M"
_symmetry_group_IT_number 12
_symmetry_cell_setting 'monoclinic'
loop_
_space_group_symop_operation_xyz
x,y,z
-x,y,-z
-x,-y,-z
x,-y,z
1/2+x,1/2+y,z
1/2-x,1/2+y,-z
1/2-x,1/2-y,-z
1/2+x,1/2-y,z
loop_
_atom_site_type_symbol
_atom_site_label
_atom_site_fract_x
_atom_site_fract_y
_atom_site_fract_z
Si Si1 0.799513 0.089066 0.220225
Si Si2 0.702397 0.188208 0.212306
Si Si3 0.291701 0.443079 0.897373
Si Si4 0.204607 0.703588 0.822439
Si Si5 0.693699 0.394334 0.434285
O O1 0.825165 0.145052 0.132790
O O2 0.719538 0.091754 0.496185
O O3 0.704135 0.064785 0.178668
O O4 0.000000 0.065331 0.000000
O O5 0.500000 0.172624 0.500000
O O6 0.734851 0.240206 0.259749
O O7 0.717782 0.192309 0.999349
O O8 0.308437 0.500000 0.843061
O O9 0.492450 0.418244 0.674091
O O10 0.207348 0.416185 0.842080
O O11 0.316195 0.663741 0.586284
O O12 0.000000 0.699491 0.000000
#
# Coordination Sequence:
#
# PCOD9197638 Si02
#       5
#     8   8   8   8   8
#     4  10  21  37  61  92 126 164 204 253 310 368
#     4  11  24  39  61  90 128 167 208 254 305 369
#     4  10  21  38  63  95 125 159 212 263 310 365
#     4  11  24  40  61  91 128 167 207 252 308 375
#     4  10  20  35  61  88 125 159 201 252 307 360
#
# _framework density 24.183729
#
# number of rings (size 3 to 8) (size 9 to 14) (size 15 to 20)
#    0.000    1.600    2.000    3.000    2.800    9.200 
#    0.000    0.000    0.000    3.000    0.000    0.000 
#    0.000    0.000    0.000    0.000    0.000    0.000 
#
# Total GULP energy -111778.633059 kJ/mol
# GULP energy per Si atom -5588.931653 kJ/mol
# Density = 2.412869 g / cm^3
# Si number density = 24.183729 Si / 1000 Ang^3
#
#
#
# Elastic Constant Matrix: (Units=GPa)
#
#
# Indices 1 2 3 4 5 6 
#
# 1 117.9502 20.4259 37.1498 0.0000 38.9983 0.0000
# 2 20.4259 120.2966 7.8861 0.0000 12.8778 0.0000
# 3 37.1498 7.8861 65.4183 0.0000 30.3822 0.0000
# 4 0.0000 0.0000 0.0000 9.4573 0.0000 -25.6791
# 5 38.9983 12.8778 30.3822 0.0000 59.5809 0.0000
# 6 0.0000 0.0000 0.0000 -25.6791 0.0000 -115.5829
#
#
#
# Elastic Compliance Matrix: (Units=1/GPa)
#
#
# Indices 1 2 3 4 5 6 
#
# 1 0.011720 -0.001151 -0.004022 0.000000 -0.005372 0.000000
# 2 -0.001151 0.008625 0.000170 0.000000 -0.001197 0.000000
# 3 -0.004022 0.000170 0.021416 0.000000 -0.008325 0.000000
# 4 0.000000 0.000000 0.000000 0.065953 0.000000 -0.014653
# 5 -0.005372 -0.001197 -0.008325 0.000000 0.024804 0.000000
# 6 0.000000 0.000000 0.000000 -0.014653 0.000000 -0.005396
#
#
# Mechanical properties :
#
#
# Convention : Reuss Voigt Hill
#
# Bulk Modulus (GPa) = 31.49107 48.28762 39.88935
# Shear Modulus (GPa) = 33.84925 6.57128 20.21027
#
# Velocity S-wave (km/s) = 3.74528 1.65019 2.89398
# Velocity P-wave (km/s) = 5.63495 4.86222 5.26279
#
# Compressibility (1/GPa) = 0.03175503
#
# Stress axis : x y z
#
# Youngs Moduli (GPa) = 85.32107 115.93777 46.69366
#
# Poissons Ratio (x) = 0.13349 0.18781
# Poissons Ratio (y) = 0.09824 -0.00795
# Poissons Ratio (z) = 0.34319 -0.01973
#
# Static dielectric constant tensor:
#      x y z
#    x 1.961430 0.000000 0.009030 
#    y 0.000000 1.896040 0.000000 
#    z 0.009030 0.000000 2.045240 
# 
# From -- ./inp_files/66195.got.cif
#   From: 2010.05.17/outbox.cif.g08.bks.cpg/sg12_34_cif.got.tgz:66195.got - 2010.06.03 13:09:07.
