data_PCOD9197114
_publ_section_title
;
Structure prediction by ZEFSAII (Michael W. Deem and Ramdas Pophale) SiO2 
 PCOD9197114
Probable space group: C 2/M
;
_chemical_formula_sum "Si O2"
_cell_formula_units_Z 56
_cell_length_a 8.784287
_cell_length_b 23.117980
_cell_length_c 14.968282
_cell_angle_alpha 90.000000
_cell_angle_beta 88.310947
_cell_angle_gamma 90.000000
_cell_volume 3038.362724
_symmetry_space_group_name_H-M "C 2/M"
_symmetry_group_IT_number 12
_symmetry_cell_setting 'monoclinic'
loop_
_space_group_symop_operation_xyz
x,y,z
-x,y,-z
-x,-y,-z
x,-y,z
1/2+x,1/2+y,z
1/2-x,1/2+y,-z
1/2-x,1/2-y,-z
1/2+x,1/2-y,z
loop_
_atom_site_type_symbol
_atom_site_label
_atom_site_fract_x
_atom_site_fract_y
_atom_site_fract_z
Si Si1 0.727395 0.000000 0.058931
Si Si2 0.105204 0.622247 0.781804
Si Si3 0.375875 0.375831 0.079847
Si Si4 0.100502 0.787612 0.413316
Si Si5 0.924097 0.185929 0.786399
Si Si6 0.617663 0.000000 0.862820
Si Si7 0.911452 0.299786 0.910451
Si Si8 0.949479 0.665999 0.410472
O O1 0.806264 0.059972 0.085660
O O2 0.557068 0.000000 0.100786
O O3 0.717134 0.000000 0.951161
O O4 0.255382 0.660407 0.792039
O O5 0.143675 0.556936 0.804891
O O6 0.046571 0.631497 0.682115
O O7 0.988325 0.647067 0.856232
O O8 0.458343 0.356605 0.168653
O O9 0.253058 0.325428 0.062180
O O10 0.500000 0.375648 0.000000
O O11 0.038574 0.808090 0.318611
O O12 0.277323 0.806736 0.419005
O O13 0.000000 0.807363 0.500000
O O14 0.070532 0.718810 0.406762
O O15 0.918636 0.245882 0.842253
O O16 0.000000 0.286329 0.000000
O O17 0.000000 0.633252 0.500000
#
# Coordination Sequence:
#
# PCOD9197114 Si02
#       8
#     4   8   8   8   8   4   8   8
#     4  11  23  42  64  82 114 159 207 258 283 337
#     4  11  23  40  61  88 117 161 199 241 298 350
#     4  12  25  39  60  87 118 157 206 246 291 344
#     4  10  20  35  58  87 124 156 192 238 294 356
#     4  11  24  38  58  92 122 156 192 246 299 359
#     4  11  22  42  63  84 114 158 210 245 291 347
#     4  12  23  38  59  83 126 159 194 237 299 360
#     4  10  20  36  60  89 120 154 195 240 297 353
#
# _framework density 18.430979000000001
#
# number of rings (size 3 to 8) (size 9 to 14) (size 15 to 20)
#    0.000    1.000    2.857    5.786    2.000    3.429 
#    0.000    0.357    0.000    0.000    0.000    2.500 
#    0.000    0.000    0.000    0.000    0.000    0.000 
#
# Total GULP energy -156410.760300 kJ/mol
# GULP energy per Si atom -5586.098582 kJ/mol
# Density = 1.838903 g / cm^3
# Si number density = 18.430979 Si / 1000 Ang^3
#
#
#
# Elastic Constant Matrix: (Units=GPa)
#
#
# Indices 1 2 3 4 5 6 
#
# 1 40.0171 4.8539 21.9654 0.0000 11.1813 0.0000
# 2 4.8539 76.3945 33.7850 0.0000 11.3895 0.0000
# 3 21.9654 33.7850 122.3864 0.0000 25.7072 0.0000
# 4 0.0000 0.0000 0.0000 -0.8359 0.0000 -19.8869
# 5 11.1813 11.3895 25.7072 0.0000 36.8293 0.0000
# 6 0.0000 0.0000 0.0000 -19.8869 0.0000 21.2278
#
#
#
# Elastic Compliance Matrix: (Units=1/GPa)
#
#
# Indices 1 2 3 4 5 6 
#
# 1 0.028872 0.000915 -0.004141 0.000000 -0.006158 0.000000
# 2 0.000915 0.015071 -0.003852 0.000000 -0.002250 0.000000
# 3 -0.004141 -0.003852 0.011089 0.000000 -0.005292 0.000000
# 4 0.000000 0.000000 0.000000 -0.051370 0.000000 -0.048125
# 5 -0.006158 -0.002250 -0.005292 0.000000 0.033411 0.000000
# 6 0.000000 0.000000 0.000000 -0.048125 0.000000 0.002023
#
#
# Mechanical properties :
#
#
# Convention : Reuss Voigt Hill
#
# Bulk Modulus (GPa) = 24.46443 40.00074 32.23258
# Shear Modulus (GPa) = 74.76431 23.32381 49.04406
#
# Velocity S-wave (km/s) = 6.37593 3.56120 5.16404
# Velocity P-wave (km/s) = 8.21619 6.21769 7.28579
#
# Compressibility (1/GPa) = 0.04087567
#
# Stress axis : x y z
#
# Youngs Moduli (GPa) = 34.63572 66.35383 90.18014
#
# Poissons Ratio (x) = -0.06071 0.37343
# Poissons Ratio (y) = -0.03169 0.34737
# Poissons Ratio (z) = 0.14342 0.25559
#
# Static dielectric constant tensor:
#      x y z
#    x 1.684640 0.000000 -0.019040 
#    y 0.000000 1.621810 0.000000 
#    z -0.019040 0.000000 1.688730 
# 
# From -- ./inp_files/197589.got.cif
#   From: 2010.05.17/outbox.cif.g08.bks.cpg/sg12_99_cif.got.tgz:197589.got - 2010.06.03 13:09:07.
