data_PCOD9197047
_publ_section_title
;
Structure prediction by ZEFSAII (Michael W. Deem and Ramdas Pophale) SiO2 
 PCOD9197047
Probable space group: C 2/M
;
_chemical_formula_sum "Si O2"
_cell_formula_units_Z 64
_cell_length_a 29.052318
_cell_length_b 8.925183
_cell_length_c 12.926991
_cell_angle_alpha 90.000000
_cell_angle_beta 77.713794
_cell_angle_gamma 90.000000
_cell_volume 3275.163392
_symmetry_space_group_name_H-M "C 2/M"
_symmetry_group_IT_number 12
_symmetry_cell_setting 'monoclinic'
loop_
_space_group_symop_operation_xyz
x,y,z
-x,y,-z
-x,-y,-z
x,-y,z
1/2+x,1/2+y,z
1/2-x,1/2+y,-z
1/2-x,1/2-y,-z
1/2+x,1/2-y,z
loop_
_atom_site_type_symbol
_atom_site_label
_atom_site_fract_x
_atom_site_fract_y
_atom_site_fract_z
Si Si1 0.067506 0.671777 0.890791
Si Si2 0.935622 0.823292 0.680051
Si Si3 0.300875 0.677634 0.461024
Si Si4 0.390430 0.822252 0.502171
Si Si5 0.323752 0.827160 0.235855
Si Si6 0.542410 0.675257 0.697616
Si Si7 0.291922 0.320733 0.046001
Si Si8 0.101130 0.821246 0.077374
O O1 0.051443 0.500000 0.900966
O O2 0.121940 0.674368 0.826118
O O3 0.040587 0.764603 0.815735
O O4 0.070187 0.741520 0.003740
O O5 0.916890 0.730007 0.592778
O O6 0.912402 0.776762 0.800079
O O7 0.991556 0.809364 0.668920
O O8 0.925186 0.000000 0.667307
O O9 0.298897 0.500000 0.472186
O O10 0.250000 0.750000 0.500000
O O11 0.339356 0.745920 0.520261
O O12 0.317800 0.726702 0.339220
O O13 0.420442 0.765596 0.389245
O O14 0.385721 0.000000 0.499412
O O15 0.293918 0.758016 0.156594
O O16 0.310697 0.000000 0.263681
O O17 0.555604 0.500000 0.692340
O O18 0.286350 0.500000 0.058164
O O19 0.250000 0.250000 0.000000
O O20 0.343528 0.292545 0.970840
O O21 0.093382 0.000000 0.071857
#
# Coordination Sequence:
#
# PCOD9197047 Si02
#       8
#     8   8   8   8   8   8   8   8
#     4  10  20  35  60  89 121 156 198 250 304 365
#     4  10  23  42  62  88 122 165 211 258 311 372
#     4  12  25  42  65  92 123 159 202 252 307 365
#     4  12  25  42  63  90 125 163 206 257 312 371
#     4  10  20  37  59  85 118 155 197 248 302 361
#     4  11  22  38  64  91 119 160 211 258 310 373
#     4  10  20  35  58  86 116 156 203 252 307 368
#     4   9  20  39  60  83 118 159 203 250 306 369
#
# _framework density 19.541008999999999
#
# number of rings (size 3 to 8) (size 9 to 14) (size 15 to 20)
#    0.000    1.500    1.250    4.125    0.000    6.000 
#    0.000    6.250    0.000    0.000    0.000    0.000 
#    0.000    0.000    0.000    0.000    0.000    0.000 
#
# Total GULP energy -178928.808640 kJ/mol
# GULP energy per Si atom -5591.525270 kJ/mol
# Density = 1.949653 g / cm^3
# Si number density = 19.541009 Si / 1000 Ang^3
#
#
#
# Elastic Constant Matrix: (Units=GPa)
#
#
# Indices 1 2 3 4 5 6 
#
# 1 65.4298 55.5966 30.9586 0.0000 17.2908 0.0000
# 2 55.5966 142.5942 46.0402 0.0000 15.7184 0.0000
# 3 30.9586 46.0402 87.4650 0.0000 16.7278 0.0000
# 4 0.0000 0.0000 0.0000 32.6285 0.0000 5.8317
# 5 17.2908 15.7184 16.7278 0.0000 34.7027 0.0000
# 6 0.0000 0.0000 0.0000 5.8317 0.0000 25.7096
#
#
#
# Elastic Compliance Matrix: (Units=1/GPa)
#
#
# Indices 1 2 3 4 5 6 
#
# 1 0.025790 -0.008124 -0.003413 0.000000 -0.007525 0.000000
# 2 -0.008124 0.011118 -0.003071 0.000000 0.000492 0.000000
# 3 -0.003413 -0.003071 0.015054 0.000000 -0.004165 0.000000
# 4 0.000000 0.000000 0.000000 0.031943 0.000000 -0.007246
# 5 -0.007525 0.000492 -0.004165 0.000000 0.034350 0.000000
# 6 0.000000 0.000000 0.000000 -0.007246 0.000000 0.040539
#
#
# Mechanical properties :
#
#
# Convention : Reuss Voigt Hill
#
# Bulk Modulus (GPa) = 43.96292 62.29777 53.13034
# Shear Modulus (GPa) = 25.56337 29.46775 27.51556
#
# Velocity S-wave (km/s) = 3.62082 3.88750 3.75653
# Velocity P-wave (km/s) = 6.32669 7.21803 6.78701
#
# Compressibility (1/GPa) = 0.02274644
#
# Stress axis : x y z
#
# Youngs Moduli (GPa) = 38.77453 89.94765 66.42667
#
# Poissons Ratio (x) = 0.73073 0.22672
# Poissons Ratio (y) = 0.31500 0.20398
# Poissons Ratio (z) = 0.13234 0.27621
#
# Static dielectric constant tensor:
#      x y z
#    x 1.683280 0.000000 -0.013710 
#    y 0.000000 1.657080 0.000000 
#    z -0.013710 0.000000 1.675170 
# 
# From -- ./inp_files/187489.got.cif
#   From: 2010.05.17/outbox.cif.g08.bks.cpg/sg12_94_cif.got.tgz:187489.got - 2010.06.03 13:09:07.
