data_PCOD9197028
_publ_section_title
;
Structure prediction by ZEFSAII (Michael W. Deem and Ramdas Pophale) SiO2 
 PCOD9197028
Probable space group: C 2/M
;
_chemical_formula_sum "Si O2"
_cell_formula_units_Z 56
_cell_length_a 12.897870
_cell_length_b 19.054779
_cell_length_c 12.261341
_cell_angle_alpha 90.000000
_cell_angle_beta 114.456701
_cell_angle_gamma 90.000000
_cell_volume 2743.040442
_symmetry_space_group_name_H-M "C 2/M"
_symmetry_group_IT_number 12
_symmetry_cell_setting 'monoclinic'
loop_
_space_group_symop_operation_xyz
x,y,z
-x,y,-z
-x,-y,-z
x,-y,z
1/2+x,1/2+y,z
1/2-x,1/2+y,-z
1/2-x,1/2-y,-z
1/2+x,1/2-y,z
loop_
_atom_site_type_symbol
_atom_site_label
_atom_site_fract_x
_atom_site_fract_y
_atom_site_fract_z
Si Si1 0.662362 0.690553 0.827740
Si Si2 0.034607 0.417635 0.777770
Si Si3 0.509447 0.584282 0.134627
Si Si4 0.354214 0.843195 0.542060
Si Si5 0.593612 0.191390 0.966295
Si Si6 0.264762 0.917462 0.292753
Si Si7 0.624233 0.692896 0.556081
O O1 0.583163 0.627424 0.837163
O O2 0.624693 0.758820 0.879059
O O3 0.651028 0.705322 0.694733
O O4 0.792684 0.676240 0.917049
O O5 0.008306 0.500000 0.772500
O O6 0.035469 0.377800 0.892123
O O7 0.162270 0.409519 0.785092
O O8 0.948556 0.379401 0.657676
O O9 0.498848 0.500000 0.148380
O O10 0.636065 0.608850 0.224757
O O11 0.500000 0.594896 0.000000
O O12 0.333758 0.882101 0.419617
O O13 0.385982 0.763789 0.521217
O O14 0.233323 0.845041 0.552156
O O15 0.500000 0.228851 0.000000
O O16 0.258086 0.000000 0.312962
O O17 0.500000 0.657057 0.500000
#
# Coordination Sequence:
#
# PCOD9197028 Si02
#       7
#     8   8   8   8   8   8   8
#     4  11  23  40  62  88 120 158 201 251 304 361
#     4  11  23  40  63  91 124 161 203 252 305 362
#     4  10  21  38  61  88 118 156 202 250 302 358
#     4  11  22  38  61  87 119 156 197 247 303 360
#     4  11  24  40  60  88 121 158 202 250 303 361
#     4  10  20  35  58  86 114 148 192 242 296 354
#     4  11  23  38  60  88 118 155 201 249 300 357
#
# _framework density 20.415302000000001
#
# number of rings (size 3 to 8) (size 9 to 14) (size 15 to 20)
#    0.000    1.286    0.000    6.429    0.000    8.857 
#    0.000    2.857    0.000    3.857    0.000    0.000 
#    0.000    0.000    0.000    0.000    0.000    0.000 
#
# Total GULP energy -156546.470758 kJ/mol
# GULP energy per Si atom -5590.945384 kJ/mol
# Density = 2.036884 g / cm^3
# Si number density = 20.415302 Si / 1000 Ang^3
#
#
#
# Elastic Constant Matrix: (Units=GPa)
#
#
# Indices 1 2 3 4 5 6 
#
# 1 85.6225 18.5600 3.4389 0.0000 5.7843 0.0000
# 2 18.5600 65.8438 19.3498 0.0000 8.9016 0.0000
# 3 3.4389 19.3498 89.2846 0.0000 5.1047 0.0000
# 4 0.0000 0.0000 0.0000 16.0594 0.0000 -0.0100
# 5 5.7843 8.9016 5.1047 0.0000 33.3666 0.0000
# 6 0.0000 0.0000 0.0000 -0.0100 0.0000 24.8912
#
#
#
# Elastic Compliance Matrix: (Units=1/GPa)
#
#
# Indices 1 2 3 4 5 6 
#
# 1 0.012501 -0.003448 0.000340 0.000000 -0.001299 0.000000
# 2 -0.003448 0.017670 -0.003492 0.000000 -0.003582 0.000000
# 3 0.000340 -0.003492 0.011999 0.000000 -0.000963 0.000000
# 4 0.000000 0.000000 0.000000 0.062269 0.000000 0.000025
# 5 -0.001299 -0.003582 -0.000963 0.000000 0.031298 0.000000
# 6 0.000000 0.000000 0.000000 0.000025 0.000000 0.040175
#
#
# Mechanical properties :
#
#
# Convention : Reuss Voigt Hill
#
# Bulk Modulus (GPa) = 34.51860 35.93869 35.22865
# Shear Modulus (GPa) = 25.15503 28.15693 26.65598
#
# Velocity S-wave (km/s) = 3.51403 3.71780 3.61735
# Velocity P-wave (km/s) = 5.78009 6.00594 5.89410
#
# Compressibility (1/GPa) = 0.02896989
#
# Stress axis : x y z
#
# Youngs Moduli (GPa) = 79.99560 56.59376 83.34130
#
# Poissons Ratio (x) = 0.19513 -0.02834
# Poissons Ratio (y) = 0.27582 0.29101
# Poissons Ratio (z) = -0.02720 0.19761
#
# Static dielectric constant tensor:
#      x y z
#    x 1.732500 0.000000 0.013430 
#    y 0.000000 1.728340 0.000000 
#    z 0.013430 0.000000 1.685250 
# 
# From -- ./inp_files/133866.got.cif
#   From: 2010.05.17/outbox.cif.g08.bks.cpg/sg12_67_cif.got.tgz:133866.got - 2010.06.03 13:09:07.
