data_PCOD9197443
_publ_section_title
;
Structure prediction by ZEFSAII (Michael W. Deem and Ramdas Pophale) SiO2 
 PCOD9197443
Probable space group: C 2/M
;
_chemical_formula_sum "Si O2"
_cell_formula_units_Z 60
_cell_length_a 12.896650
_cell_length_b 16.179709
_cell_length_c 13.438995
_cell_angle_alpha 90.000000
_cell_angle_beta 111.188015
_cell_angle_gamma 90.000000
_cell_volume 2614.667142
_symmetry_space_group_name_H-M "C 2/M"
_symmetry_group_IT_number 12
_symmetry_cell_setting 'monoclinic'
loop_
_space_group_symop_operation_xyz
x,y,z
-x,y,-z
-x,-y,-z
x,-y,z
1/2+x,1/2+y,z
1/2-x,1/2+y,-z
1/2-x,1/2-y,-z
1/2+x,1/2-y,z
loop_
_atom_site_type_symbol
_atom_site_label
_atom_site_fract_x
_atom_site_fract_y
_atom_site_fract_z
Si Si1 0.178370 0.824803 0.332070
Si Si2 0.424567 0.805612 0.386608
Si Si3 0.617786 0.681824 0.086070
Si Si4 0.880150 0.630074 0.662656
Si Si5 0.308526 0.500000 0.390657
Si Si6 0.600261 0.878624 0.102601
Si Si7 0.822697 0.909892 0.070544
Si Si8 0.052577 0.133117 0.692184
O O1 0.309318 0.839344 0.389669
O O2 0.153565 0.846163 0.207612
O O3 0.157490 0.726620 0.344101
O O4 0.081708 0.869007 0.361995
O O5 0.500000 0.768561 0.500000
O O6 0.506940 0.870102 0.362323
O O7 0.403612 0.727111 0.308105
O O8 0.608282 0.779875 0.092855
O O9 0.500000 0.650882 0.000000
O O10 0.698623 0.653550 0.026008
O O11 0.778039 0.572365 0.598380
O O12 0.911221 0.603108 0.785640
O O13 0.385896 0.571987 0.361264
O O14 0.714952 0.912932 0.102361
O O15 0.500000 0.907720 0.000000
O O16 0.917064 0.887561 0.183106
O O17 0.844602 0.000000 0.034078
#
# Coordination Sequence:
#
# PCOD9197443 Si02
#       8
#     8   8   8   8   4   8   8   8
#     4  10  21  42  65  98 133 175 234 278 327 406
#     4  11  25  45  72 100 132 177 232 292 346 403
#     4  10  20  35  59  91 125 173 217 264 323 397
#     4  10  22  40  69  95 135 177 220 282 349 403
#     4  12  20  46  67 101 129 178 213 280 358 409
#     4  10  21  35  56  89 125 172 228 265 316 399
#     4  12  22  37  58  92 137 176 211 275 343 394
#     4  11  21  39  71  95 137 173 224 278 341 404
#
# _framework density 22.947471
#
# number of rings (size 3 to 8) (size 9 to 14) (size 15 to 20)
#    0.000    1.333    4.667    1.200    3.733    2.667 
#    1.200    1.333    0.000    0.000    0.000    0.000 
#    0.000    0.000    0.000    0.000    0.000    0.000 
#
# Total GULP energy -167124.721817 kJ/mol
# GULP energy per Si atom -5570.824061 kJ/mol
# Density = 2.289524 g / cm^3
# Si number density = 22.947471 Si / 1000 Ang^3
#
#
#
# Elastic Constant Matrix: (Units=GPa)
#
#
# Indices 1 2 3 4 5 6 
#
# 1 177.5103 35.3396 16.3518 0.0000 6.6205 0.0000
# 2 35.3396 46.9252 4.3810 0.0000 -6.1739 0.0000
# 3 16.3518 4.3810 44.5517 0.0000 6.0595 0.0000
# 4 0.0000 0.0000 0.0000 -7.3951 0.0000 8.9128
# 5 6.6205 -6.1739 6.0595 0.0000 32.8067 0.0000
# 6 0.0000 0.0000 0.0000 8.9128 0.0000 130.3595
#
#
#
# Elastic Compliance Matrix: (Units=1/GPa)
#
#
# Indices 1 2 3 4 5 6 
#
# 1 0.006933 -0.005333 -0.001737 0.000000 -0.002082 0.000000
# 2 -0.005333 0.026294 -0.001485 0.000000 0.006299 0.000000
# 3 -0.001737 -0.001485 0.023818 0.000000 -0.004328 0.000000
# 4 0.000000 0.000000 0.000000 -0.124929 0.000000 0.008542
# 5 -0.002082 0.006299 -0.004328 0.000000 0.032886 0.000000
# 6 0.000000 0.000000 0.000000 0.008542 0.000000 0.007087
#
#
# Mechanical properties :
#
#
# Convention : Reuss Voigt Hill
#
# Bulk Modulus (GPa) = 25.04054 42.34799 33.69427
# Shear Modulus (GPa) = 1991.49796 45.34855 1018.42325
#
# Velocity S-wave (km/s) = 29.49127 4.45026 21.08957
# Velocity P-wave (km/s) = 34.21377 6.70080 24.65241
#
# Compressibility (1/GPa) = 0.03993523
#
# Stress axis : x y z
#
# Youngs Moduli (GPa) = 144.24133 38.03136 41.98499
#
# Poissons Ratio (x) = 0.20282 0.07293
# Poissons Ratio (y) = 0.76922 0.06235
# Poissons Ratio (z) = 0.25055 0.05648
#
# Static dielectric constant tensor:
#      x y z
#    x 1.904220 0.000000 0.022320 
#    y 0.000000 1.850360 0.000000 
#    z 0.022320 0.000000 1.899710 
# 
# From -- ./inp_files/206723.got.cif
#   From: 2010.05.17/outbox.cif.g08.bks.cpg/sg12_104_cif.got.tgz:206723.got - 2010.06.03 13:09:07.
