data_PCOD9197285
_publ_section_title
;
Structure prediction by ZEFSAII (Michael W. Deem and Ramdas Pophale) SiO2 
 PCOD9197285
Probable space group: C 2/M
;
_chemical_formula_sum "Si O2"
_cell_formula_units_Z 48
_cell_length_a 23.490850
_cell_length_b 9.319757
_cell_length_c 10.043901
_cell_angle_alpha 90.000000
_cell_angle_beta 84.319564
_cell_angle_gamma 90.000000
_cell_volume 2188.103471
_symmetry_space_group_name_H-M "C 2/M"
_symmetry_group_IT_number 12
_symmetry_cell_setting 'monoclinic'
loop_
_space_group_symop_operation_xyz
x,y,z
-x,y,-z
-x,-y,-z
x,-y,z
1/2+x,1/2+y,z
1/2-x,1/2+y,-z
1/2-x,1/2-y,-z
1/2+x,1/2-y,z
loop_
_atom_site_type_symbol
_atom_site_label
_atom_site_fract_x
_atom_site_fract_y
_atom_site_fract_z
Si Si1 0.544205 0.665500 0.166936
Si Si2 0.941181 0.667567 0.286612
Si Si3 0.651740 0.834026 0.054786
Si Si4 0.703190 0.834007 0.339972
Si Si5 0.094298 0.833564 0.455235
Si Si6 0.808825 0.333415 0.234995
O O1 0.535182 0.500000 0.134122
O O2 0.485949 0.755290 0.179293
O O3 0.595820 0.735620 0.073280
O O4 0.566192 0.671839 0.315619
O O5 0.955733 0.500000 0.295674
O O6 0.941741 0.747256 0.428137
O O7 0.875371 0.679991 0.256470
O O8 0.682719 0.827132 0.190005
O O9 0.633840 0.000000 0.037925
O O10 0.692034 0.796209 0.921749
O O11 0.655926 0.742337 0.428419
O O12 0.765739 0.765198 0.326518
O O13 0.702377 0.000000 0.383124
O O14 0.099135 0.000000 0.493586
O O15 0.791603 0.500000 0.255923
#
# Coordination Sequence:
#
# PCOD9197285 Si02
#       6
#     8   8   8   8   8   8
#     4  10  21  37  58  83 109 140 180 226 274 319
#     4  11  23  37  55  80 111 147 183 220 267 323
#     4   9  19  37  59  82 109 142 181 223 268 320
#     4  10  20  35  59  86 108 138 182 227 269 317
#     4  10  21  38  59  81 108 142 180 225 274 321
#     4  10  22  38  55  79 113 149 180 217 270 324
#
# _framework density 21.936805
#
# number of rings (size 3 to 8) (size 9 to 14) (size 15 to 20)
#    0.000    2.000    0.000    3.000    0.000    8.000 
#    0.000    3.333    0.000    0.000    0.000    0.000 
#    0.000    0.000    0.000    0.000    0.000    0.000 
#
# Total GULP energy -134277.731425 kJ/mol
# GULP energy per Si atom -5594.905476 kJ/mol
# Density = 2.188688 g / cm^3
# Si number density = 21.936805 Si / 1000 Ang^3
#
#
#
# Elastic Constant Matrix: (Units=GPa)
#
#
# Indices 1 2 3 4 5 6 
#
# 1 91.2086 70.1374 16.3096 0.0000 -23.4264 0.0000
# 2 70.1374 143.4057 22.5679 0.0000 -29.4479 0.0000
# 3 16.3096 22.5679 45.2002 0.0000 -3.3255 0.0000
# 4 0.0000 0.0000 0.0000 20.3626 0.0000 -10.9382
# 5 -23.4264 -29.4479 -3.3255 0.0000 38.1327 0.0000
# 6 0.0000 0.0000 0.0000 -10.9382 0.0000 35.5270
#
#
#
# Elastic Compliance Matrix: (Units=1/GPa)
#
#
# Indices 1 2 3 4 5 6 
#
# 1 0.018656 -0.007628 -0.002530 0.000000 0.005350 0.000000
# 2 -0.007628 0.012066 -0.002950 0.000000 0.004375 0.000000
# 3 -0.002530 -0.002950 0.024384 0.000000 -0.001706 0.000000
# 4 0.000000 0.000000 0.000000 0.058841 0.000000 0.018116
# 5 0.005350 0.004375 -0.001706 0.000000 0.032741 0.000000
# 6 0.000000 0.000000 0.000000 0.018116 0.000000 0.033725
#
#
# Mechanical properties :
#
#
# Convention : Reuss Voigt Hill
#
# Bulk Modulus (GPa) = 34.61274 55.31603 44.96438
# Shear Modulus (GPa) = 23.12038 30.19110 26.65574
#
# Velocity S-wave (km/s) = 3.24999 3.71384 3.48963
# Velocity P-wave (km/s) = 5.46771 6.60765 6.06452
#
# Compressibility (1/GPa) = 0.02889110
#
# Stress axis : x y z
#
# Youngs Moduli (GPa) = 53.60281 82.87436 41.01022
#
# Poissons Ratio (x) = 0.63213 0.10374
# Poissons Ratio (y) = 0.40886 0.12100
# Poissons Ratio (z) = 0.13559 0.24452
#
# Static dielectric constant tensor:
#      x y z
#    x 1.801950 0.000000 0.061950 
#    y 0.000000 1.746480 0.000000 
#    z 0.061950 0.000000 1.823940 
# 
# From -- ./inp_files/172072.got.cif
#   From: 2010.05.17/outbox.cif.g08.bks.cpg/sg12_87_cif.got.tgz:172072.got - 2010.06.03 13:09:07.
