data_PCOD9197580
_publ_section_title
;
Structure prediction by ZEFSAII (Michael W. Deem and Ramdas Pophale) SiO2 
 PCOD9197580
Probable space group: C 2/M
;
_chemical_formula_sum "Si O2"
_cell_formula_units_Z 56
_cell_length_a 9.355994
_cell_length_b 17.636852
_cell_length_c 19.311730
_cell_angle_alpha 90.000000
_cell_angle_beta 121.101877
_cell_angle_gamma 90.000000
_cell_volume 2728.555884
_symmetry_space_group_name_H-M "C 2/M"
_symmetry_group_IT_number 12
_symmetry_cell_setting 'monoclinic'
loop_
_space_group_symop_operation_xyz
x,y,z
-x,y,-z
-x,-y,-z
x,-y,z
1/2+x,1/2+y,z
1/2-x,1/2+y,-z
1/2-x,1/2-y,-z
1/2+x,1/2-y,z
loop_
_atom_site_type_symbol
_atom_site_label
_atom_site_fract_x
_atom_site_fract_y
_atom_site_fract_z
Si Si1 0.113180 0.091753 0.310812
Si Si2 0.829083 0.909463 0.996168
Si Si3 0.022506 0.591770 0.584168
Si Si4 0.130502 0.413348 0.315991
Si Si5 0.330135 0.333845 0.145978
Si Si6 0.013471 0.913332 0.428892
Si Si7 0.011914 0.671969 0.850619
O O1 0.300563 0.110537 0.335243
O O2 0.965284 0.128100 0.230865
O O3 0.115190 0.119200 0.391164
O O4 0.093373 0.000000 0.305774
O O5 0.661950 0.878315 0.918628
O O6 0.829462 0.000000 0.993393
O O7 0.822112 0.882645 0.073862
O O8 0.000000 0.882730 0.000000
O O9 0.017289 0.500000 0.576807
O O10 0.000000 0.620594 0.500000
O O11 0.890612 0.613423 0.609868
O O12 0.064810 0.500000 0.294689
O O13 0.327264 0.417325 0.352548
O O14 0.046573 0.362124 0.237386
O O15 0.150301 0.326636 0.139189
O O16 0.406891 0.253632 0.142280
O O17 0.000000 0.875684 0.500000
O O18 0.078555 0.000000 0.456998
#
# Coordination Sequence:
#
# PCOD9197580 Si02
#       7
#     8   8   8   8   8   8   8
#     4  10  20  35  60  91 123 163 211 261 315 372
#     4  11  26  47  74 103 129 159 200 251 308 371
#     4   9  18  32  55  90 127 162 205 263 322 371
#     4  10  20  35  60  91 123 163 211 261 315 372
#     4  12  26  44  66  93 130 171 211 255 310 373
#     4   9  16  30  55  88 121 154 205 267 318 367
#     4  12  26  44  66  93 130 171 211 255 310 373
#
# _framework density 20.523676999999999
#
# number of rings (size 3 to 8) (size 9 to 14) (size 15 to 20)
#    0.000    1.571    1.429    3.429    4.000    5.714 
#    0.000    0.000    0.000    5.143    0.000    0.000 
#    0.000    0.000    0.000    0.000    0.000    0.000 
#
# Total GULP energy -156225.609470 kJ/mol
# GULP energy per Si atom -5579.486053 kJ/mol
# Density = 2.047696 g / cm^3
# Si number density = 20.523677 Si / 1000 Ang^3
#
#
#
# Elastic Constant Matrix: (Units=GPa)
#
#
# Indices 1 2 3 4 5 6 
#
# 1 144.3741 33.3781 38.2236 0.0000 2.3259 0.0000
# 2 33.3781 53.8068 27.7099 0.0000 3.9892 0.0000
# 3 38.2236 27.7099 101.4122 0.0000 1.2990 0.0000
# 4 0.0000 0.0000 0.0000 -144.4674 0.0000 -30.2572
# 5 2.3259 3.9892 1.2990 0.0000 36.0394 0.0000
# 6 0.0000 0.0000 0.0000 -30.2572 0.0000 15.9209
#
#
#
# Elastic Compliance Matrix: (Units=1/GPa)
#
#
# Indices 1 2 3 4 5 6 
#
# 1 0.008432 -0.004182 -0.002035 0.000000 -0.000008 0.000000
# 2 -0.004182 0.023875 -0.004919 0.000000 -0.002196 0.000000
# 3 -0.002035 -0.004919 0.011969 0.000000 0.000244 0.000000
# 4 0.000000 0.000000 0.000000 -0.004951 0.000000 -0.009410
# 5 -0.000008 -0.002196 0.000244 0.000000 0.027982 0.000000
# 6 0.000000 0.000000 0.000000 -0.009410 0.000000 0.044928
#
#
# Mechanical properties :
#
#
# Convention : Reuss Voigt Hill
#
# Bulk Modulus (GPa) = 45.44819 55.35739 50.40279
# Shear Modulus (GPa) = 35.25015 -5.14932 15.05042
#
# Velocity S-wave (km/s) = 4.14881 -1.58569 2.71093
# Velocity P-wave (km/s) = 6.71882 4.86605 5.86605
#
# Compressibility (1/GPa) = 0.02200308
#
# Stress axis : x y z
#
# Youngs Moduli (GPa) = 118.59138 41.88404 83.54931
#
# Poissons Ratio (x) = 0.17516 0.17006
# Poissons Ratio (y) = 0.49595 0.41101
# Poissons Ratio (z) = 0.24139 0.20604
#
# Static dielectric constant tensor:
#      x y z
#    x 1.735520 0.000000 -0.011230 
#    y 0.000000 1.715890 0.000000 
#    z -0.011230 0.000000 1.723860 
# 
# From -- ./inp_files/257128.got.cif
#   From: 2010.05.17/outbox.cif.g08.bks.cpg/sg12_129_cif.got.tgz:257128.got - 2010.06.03 13:09:07.
