data_PCOD9197352
_publ_section_title
;
Structure prediction by ZEFSAII (Michael W. Deem and Ramdas Pophale) SiO2 
 PCOD9197352
Probable space group: C 2/M
;
_chemical_formula_sum "Si O2"
_cell_formula_units_Z 64
_cell_length_a 11.720305
_cell_length_b 14.681672
_cell_length_c 26.522198
_cell_angle_alpha 90.000000
_cell_angle_beta 141.173921
_cell_angle_gamma 90.000000
_cell_volume 2861.295555
_symmetry_space_group_name_H-M "C 2/M"
_symmetry_group_IT_number 12
_symmetry_cell_setting 'monoclinic'
loop_
_space_group_symop_operation_xyz
x,y,z
-x,y,-z
-x,-y,-z
x,-y,z
1/2+x,1/2+y,z
1/2-x,1/2+y,-z
1/2-x,1/2-y,-z
1/2+x,1/2-y,z
loop_
_atom_site_type_symbol
_atom_site_label
_atom_site_fract_x
_atom_site_fract_y
_atom_site_fract_z
Si Si1 0.498938 0.398077 0.069574
Si Si2 0.669259 0.899734 0.291824
Si Si3 0.045555 0.679374 0.459827
Si Si4 0.558567 0.651118 0.388379
Si Si5 0.838500 0.804671 0.684418
Si Si6 0.894756 0.396635 0.103093
Si Si7 0.903656 0.291226 0.912943
Si Si8 0.567952 0.396073 0.837090
O O1 0.576037 0.500000 0.089948
O O2 0.636711 0.314079 0.113490
O O3 0.413364 0.393314 0.096430
O O4 0.324988 0.386284 0.972595
O O5 0.669645 0.805317 0.322995
O O6 0.515758 0.889433 0.195222
O O7 0.876787 0.900349 0.342032
O O8 0.637466 0.000000 0.304869
O O9 0.231134 0.622009 0.527729
O O10 0.058312 0.754388 0.420113
O O11 0.000000 0.722051 0.500000
O O12 0.848914 0.637858 0.382152
O O13 0.547612 0.664282 0.324692
O O14 0.914756 0.827798 0.765306
O O15 0.923742 0.500000 0.094198
O O16 0.970058 0.326524 0.088282
O O17 0.739088 0.359377 0.865076
O O18 0.000000 0.292297 0.000000
O O19 0.527433 0.500000 0.809176
#
# Coordination Sequence:
#
# PCOD9197352 Si02
#       8
#     8   8   8   8   8   8   8   8
#     4  10  23  42  58  79 116 158 197 246 296 351
#     4  10  21  36  58  87 120 156 195 242 291 347
#     4   8  16  33  59  85 114 156 194 228 281 345
#     4   9  17  33  58  87 119 153 192 235 284 339
#     4  10  20  35  59  88 119 155 193 239 292 347
#     4  10  20  36  57  81 115 155 199 246 296 345
#     4  12  23  34  60  85 109 144 197 249 297 347
#     4  11  24  41  61  85 116 154 200 246 296 349
#
# _framework density 22.36749
#
# number of rings (size 3 to 8) (size 9 to 14) (size 15 to 20)
#    0.000    2.000    1.250    2.250    1.750    3.250 
#    0.000    1.250    0.000   42.750    0.000    0.000 
#    0.000    0.000    0.000    0.000    0.000    0.000 
#
# Total GULP energy -178267.531377 kJ/mol
# GULP energy per Si atom -5570.860356 kJ/mol
# Density = 2.231658 g / cm^3
# Si number density = 22.367490 Si / 1000 Ang^3
#
#
#
# Elastic Constant Matrix: (Units=GPa)
#
#
# Indices 1 2 3 4 5 6 
#
# 1 32.4682 9.3263 -11.1022 0.0000 -2.3276 0.0000
# 2 9.3263 94.6781 -0.4425 0.0000 -0.3109 0.0000
# 3 -11.1022 -0.4425 65.4033 -0.0001 -1.6449 0.0000
# 4 0.0000 0.0000 -0.0001 358.5828 0.0000 -170.3103
# 5 -2.3276 -0.3109 -1.6449 0.0000 16.6614 0.0000
# 6 0.0000 0.0000 0.0000 -170.3103 0.0000 109.0419
#
#
#
# Elastic Compliance Matrix: (Units=1/GPa)
#
#
# Indices 1 2 3 4 5 6 
#
# 1 0.034152 -0.003319 0.005908 0.000000 0.005292 0.000000
# 2 -0.003319 0.010886 -0.000498 0.000000 -0.000310 0.000000
# 3 0.005908 -0.000498 0.016350 0.000000 0.002430 0.000000
# 4 0.000000 0.000000 0.000000 0.010802 0.000000 0.016871
# 5 0.005292 -0.000310 0.002430 0.000000 0.060992 0.000000
# 6 0.000000 0.000000 0.000000 0.016871 0.000000 0.035521
#
#
# Mechanical properties :
#
#
# Convention : Reuss Voigt Hill
#
# Bulk Modulus (GPa) = 15.25068 20.90143 18.07606
# Shear Modulus (GPa) = 26.82722 109.84177 68.33449
#
# Velocity S-wave (km/s) = 3.46697 7.01530 5.53328
# Velocity P-wave (km/s) = 4.78117 8.65933 6.99441
#
# Compressibility (1/GPa) = 0.06557085
#
# Stress axis : x y z
#
# Youngs Moduli (GPa) = 29.28059 91.86346 61.16069
#
# Poissons Ratio (x) = 0.30491 -0.36134
# Poissons Ratio (y) = 0.09719 0.03043
# Poissons Ratio (z) = -0.17299 0.04571
#
# Static dielectric constant tensor:
#      x y z
#    x 2.101350 0.000000 0.131980 
#    y 0.000000 1.819180 0.000000 
#    z 0.131980 0.000000 1.943670 
# 
# From -- ./inp_files/358467.got.cif
#   From: 2010.05.17/outbox.cif.g08.bks.cpg/sg12_180_cif.got.tgz:358467.got - 2010.06.03 13:09:07.
