data_PCOD9197665
_publ_section_title
;
Structure prediction by ZEFSAII (Michael W. Deem and Ramdas Pophale) SiO2 
 PCOD9197665
Probable space group: C 2/M
;
_chemical_formula_sum "Si O2"
_cell_formula_units_Z 64
_cell_length_a 14.058018
_cell_length_b 13.495254
_cell_length_c 13.551339
_cell_angle_alpha 90.000000
_cell_angle_beta 80.809506
_cell_angle_gamma 90.000000
_cell_volume 2537.909545
_symmetry_space_group_name_H-M "C 2/M"
_symmetry_group_IT_number 12
_symmetry_cell_setting 'monoclinic'
loop_
_space_group_symop_operation_xyz
x,y,z
-x,y,-z
-x,-y,-z
x,-y,z
1/2+x,1/2+y,z
1/2-x,1/2+y,-z
1/2-x,1/2-y,-z
1/2+x,1/2-y,z
loop_
_atom_site_type_symbol
_atom_site_label
_atom_site_fract_x
_atom_site_fract_y
_atom_site_fract_z
Si Si1 0.788666 0.111773 0.440685
Si Si2 0.257402 0.618952 0.873754
Si Si3 0.972765 0.821923 0.326644
Si Si4 0.623745 0.119116 0.072202
Si Si5 0.029149 0.811379 0.103902
Si Si6 0.698831 0.889577 0.262278
Si Si7 0.516124 0.106862 0.615590
Si Si8 0.190108 0.879300 0.346364
O O1 0.746776 0.160338 0.348569
O O2 0.772337 0.150969 0.552449
O O3 0.902416 0.111241 0.402237
O O4 0.747764 0.000000 0.448054
O O5 0.257455 0.500000 0.878267
O O6 0.361927 0.652980 0.894013
O O7 0.248345 0.646576 0.760706
O O8 0.174068 0.649598 0.962242
O O9 0.969410 0.843955 0.210118
O O10 0.940937 0.709440 0.354936
O O11 0.083176 0.835950 0.343119
O O12 0.533780 0.190995 0.104013
O O13 0.696454 0.145320 0.150450
O O14 0.604534 0.000000 0.078465
O O15 0.000000 0.845495 0.000000
O O16 0.587057 0.896124 0.312605
O O17 0.741529 0.000000 0.248641
O O18 0.500000 0.112817 0.500000
O O19 0.564478 0.000000 0.628610
O O20 0.180230 0.000000 0.350323
#
# Coordination Sequence:
#
# PCOD9197665 Si02
#       8
#     8   8   8   8   8   8   8   8
#     4  10  20  35  61  92 120 148 189 239 289 350
#     4   9  20  38  62  86 114 155 191 235 294 350
#     4  11  21  36  56  83 119 156 195 231 292 350
#     4  10  20  40  65  84 112 153 197 239 291 345
#     4  11  24  38  57  86 118 151 194 246 290 341
#     4   9  19  36  59  86 113 148 192 240 286 334
#     4  10  20  37  60  81 110 154 199 238 286 340
#     4   9  18  35  57  86 123 154 185 231 294 356
#
# _framework density 25.217606
#
# number of rings (size 3 to 8) (size 9 to 14) (size 15 to 20)
#    0.000    2.125    1.250    1.875    1.750    2.000 
#    0.000    3.750    0.000    3.000    0.000    0.875 
#    0.000    0.000    0.000    0.000    0.000    0.000 
#
# Total GULP energy -178936.219402 kJ/mol
# GULP energy per Si atom -5591.756856 kJ/mol
# Density = 2.516021 g / cm^3
# Si number density = 25.217606 Si / 1000 Ang^3
#
#
#
# Elastic Constant Matrix: (Units=GPa)
#
#
# Indices 1 2 3 4 5 6 
#
# 1 42.8488 6.0465 37.2973 0.0000 -4.3372 0.0000
# 2 6.0465 81.1684 29.5473 0.0000 0.7703 0.0000
# 3 37.2973 29.5473 218.7955 0.0000 10.7179 0.0000
# 4 0.0000 0.0000 0.0000 33.8383 0.0000 -0.2468
# 5 -4.3372 0.7703 10.7179 0.0000 42.6715 0.0000
# 6 0.0000 0.0000 0.0000 -0.2468 0.0000 14.7802
#
#
#
# Elastic Compliance Matrix: (Units=1/GPa)
#
#
# Indices 1 2 3 4 5 6 
#
# 1 0.028107 -0.000332 -0.004948 0.000000 0.004106 0.000000
# 2 -0.000332 0.012963 -0.001702 0.000000 0.000160 0.000000
# 3 -0.004948 -0.001702 0.005737 0.000000 -0.001913 0.000000
# 4 0.000000 0.000000 0.000000 0.029556 0.000000 0.000494
# 5 0.004106 0.000160 -0.001913 0.000000 0.024330 0.000000
# 6 0.000000 0.000000 0.000000 0.000494 0.000000 0.067666
#
#
# Mechanical properties :
#
#
# Convention : Reuss Voigt Hill
#
# Bulk Modulus (GPa) = 30.44620 54.28831 42.36726
# Shear Modulus (GPa) = 25.87059 36.25276 31.06168
#
# Velocity S-wave (km/s) = 3.20643 3.79568 3.51343
# Velocity P-wave (km/s) = 5.08015 6.38625 5.77027
#
# Compressibility (1/GPa) = 0.03284482
#
# Stress axis : x y z
#
# Youngs Moduli (GPa) = 35.57849 77.14395 174.29411
#
# Poissons Ratio (x) = 0.02559 0.86234
# Poissons Ratio (y) = 0.01180 0.29662
# Poissons Ratio (z) = 0.17603 0.13129
#
# Static dielectric constant tensor:
#      x y z
#    x 1.964380 0.000000 0.027690 
#    y 0.000000 2.026540 0.000000 
#    z 0.027690 0.000000 1.979370 
# 
# From -- ./inp_files/156612.got.cif
#   From: 2010.05.17/outbox.cif.g08.bks.cpg/sg12_79_cif.got.tgz:156612.got - 2010.06.03 13:09:07.
