data_PCOD9197869
_publ_section_title
;
Structure prediction by ZEFSAII (Michael W. Deem and Ramdas Pophale) SiO2 
 PCOD9197869
Probable space group: C 2/M
;
_chemical_formula_sum "Si O2"
_cell_formula_units_Z 48
_cell_length_a 14.592019
_cell_length_b 8.565911
_cell_length_c 29.535904
_cell_angle_alpha 90.000000
_cell_angle_beta 137.632338
_cell_angle_gamma 90.000000
_cell_volume 2487.856457
_symmetry_space_group_name_H-M "C 2/M"
_symmetry_group_IT_number 12
_symmetry_cell_setting 'monoclinic'
loop_
_space_group_symop_operation_xyz
x,y,z
-x,y,-z
-x,-y,-z
x,-y,z
1/2+x,1/2+y,z
1/2-x,1/2+y,-z
1/2-x,1/2-y,-z
1/2+x,1/2-y,z
loop_
_atom_site_type_symbol
_atom_site_label
_atom_site_fract_x
_atom_site_fract_y
_atom_site_fract_z
Si Si1 0.409488 0.813524 0.654534
Si Si2 0.089498 0.313393 0.891854
Si Si3 0.889690 0.688711 0.996781
Si Si4 0.894818 0.186875 0.744115
Si Si5 0.168845 0.687807 0.514437
Si Si6 0.084037 0.689932 0.630399
O O1 0.456645 0.748485 0.719713
O O2 0.257685 0.751992 0.588004
O O3 0.506705 0.763780 0.648481
O O4 0.406941 0.000000 0.654256
O O5 0.083988 0.500000 0.887601
O O6 0.240345 0.256796 0.933562
O O7 0.978816 0.243853 0.817742
O O8 0.069190 0.265744 0.936978
O O9 0.880312 0.500000 0.992065
O O10 0.000000 0.738554 0.000000
O O11 0.738455 0.245076 0.687578
O O12 0.893671 0.000000 0.743023
O O13 0.172883 0.500000 0.517688
O O14 0.250000 0.750000 0.500000
O O15 0.013481 0.735933 0.447233
O O16 0.087088 0.500000 0.630688
#
# Coordination Sequence:
#
# PCOD9197869 Si02
#       6
#     8   8   8   8   8   8
#     4  10  20  36  54  77 107 140 181 230 280 328
#     4  10  21  37  56  83 116 143 173 218 265 313
#     4   9  19  38  63  87 111 142 179 216 257 310
#     4  11  22  37  55  77 107 146 184 219 265 321
#     4   9  16  31  53  76 102 138 183 231 278 324
#     4   8  18  35  54  74 103 142 182 223 271 327
#
# _framework density 19.293717999999998
#
# number of rings (size 3 to 8) (size 9 to 14) (size 15 to 20)
#    0.000    2.500    0.000    3.000    0.000    3.000 
#    0.000   16.667    0.000    0.000    0.000    0.000 
#    0.000    0.000    0.000    0.000    0.000    0.000 
#
# Total GULP energy -133925.569562 kJ/mol
# GULP energy per Si atom -5580.232065 kJ/mol
# Density = 1.924980 g / cm^3
# Si number density = 19.293718 Si / 1000 Ang^3
#
#
#
# Elastic Constant Matrix: (Units=GPa)
#
#
# Indices 1 2 3 4 5 6 
#
# 1 94.1809 19.2360 41.6847 0.0000 -2.7903 0.0000
# 2 19.2360 36.8687 29.5107 0.0000 -1.1043 0.0000
# 3 41.6847 29.5107 130.5533 0.0000 -5.6045 0.0000
# 4 0.0000 0.0000 0.0000 36.7945 0.0000 -0.2151
# 5 -2.7903 -1.1043 -5.6045 0.0000 13.4498 0.0000
# 6 0.0000 0.0000 0.0000 -0.2151 0.0000 16.7279
#
#
#
# Elastic Compliance Matrix: (Units=1/GPa)
#
#
# Indices 1 2 3 4 5 6 
#
# 1 0.012887 -0.004193 -0.003123 0.000000 0.001028 0.000000
# 2 -0.004193 0.034482 -0.006487 0.000000 -0.000742 0.000000
# 3 -0.003123 -0.006487 0.010256 0.000000 0.003093 0.000000
# 4 0.000000 0.000000 0.000000 0.027180 0.000000 0.000349
# 5 0.001028 -0.000742 0.003093 0.000000 0.075792 0.000000
# 6 0.000000 0.000000 0.000000 0.000349 0.000000 0.059785
#
#
# Mechanical properties :
#
#
# Convention : Reuss Voigt Hill
#
# Bulk Modulus (GPa) = 33.31368 49.16286 41.23827
# Shear Modulus (GPa) = 19.38032 24.80586 22.09309
#
# Velocity S-wave (km/s) = 3.17280 3.58955 3.38759
# Velocity P-wave (km/s) = 5.54313 6.53578 6.05982
#
# Compressibility (1/GPa) = 0.03001770
#
# Stress axis : x y z
#
# Youngs Moduli (GPa) = 77.59809 29.00105 97.50453
#
# Poissons Ratio (x) = 0.12161 0.30447
# Poissons Ratio (y) = 0.32540 0.63254
# Poissons Ratio (z) = 0.24231 0.18814
#
# Static dielectric constant tensor:
#      x y z
#    x 1.685100 0.000000 0.001170 
#    y 0.000000 1.653670 0.000000 
#    z 0.001170 0.000000 1.660980 
# 
# From -- ./inp_files/360316.got.cif
#   From: 2010.05.17/outbox.cif.g08.bks.cpg/sg12_181_cif.got.tgz:360316.got - 2010.06.03 13:09:07.
