data_PCOD9197140
_publ_section_title
;
Structure prediction by ZEFSAII (Michael W. Deem and Ramdas Pophale) SiO2 
 PCOD9197140
Probable space group: C 2/M
;
_chemical_formula_sum "Si O2"
_cell_formula_units_Z 56
_cell_length_a 30.544082
_cell_length_b 13.906356
_cell_length_c 9.071401
_cell_angle_alpha 90.000000
_cell_angle_beta 137.169239
_cell_angle_gamma 90.000000
_cell_volume 2619.499918
_symmetry_space_group_name_H-M "C 2/M"
_symmetry_group_IT_number 12
_symmetry_cell_setting 'monoclinic'
loop_
_space_group_symop_operation_xyz
x,y,z
-x,y,-z
-x,-y,-z
x,-y,z
1/2+x,1/2+y,z
1/2-x,1/2+y,-z
1/2-x,1/2-y,-z
1/2+x,1/2-y,z
loop_
_atom_site_type_symbol
_atom_site_label
_atom_site_fract_x
_atom_site_fract_y
_atom_site_fract_z
Si Si1 0.826973 0.229212 0.679631
Si Si2 0.929255 0.891370 0.746467
Si Si3 0.241417 0.887606 0.973604
Si Si4 0.938224 0.606967 0.246911
Si Si5 0.024860 0.302892 0.228644
Si Si6 0.152143 0.606742 0.504133
Si Si7 0.829589 0.256161 0.027258
O O1 0.750000 0.250000 0.500000
O O2 0.869489 0.144879 0.703519
O O3 0.846457 0.319801 0.627199
O O4 0.840870 0.224252 0.887948
O O5 0.943221 0.802484 0.669339
O O6 0.915192 0.000000 0.657728
O O7 0.000000 0.897442 0.000000
O O8 0.294627 0.877357 0.237099
O O9 0.266439 0.823514 0.898984
O O10 0.234237 0.000000 0.922649
O O11 0.179630 0.834485 0.889129
O O12 0.913772 0.500000 0.147641
O O13 0.886099 0.670185 0.201385
O O14 0.000000 0.596935 0.500000
O O15 0.963912 0.667924 0.173347
O O16 0.080637 0.380793 0.390910
O O17 0.000000 0.306036 0.000000
O O18 0.162976 0.500000 0.474046
#
# Coordination Sequence:
#
# PCOD9197140 Si02
#       7
#     8   8   8   8   8   8   8
#     4  11  22  37  59  92 125 156 201 262 311 355
#     4   9  19  37  60  85 117 162 204 241 298 369
#     4  10  22  40  60  81 113 162 203 241 301 363
#     4  11  23  39  62  90 120 156 198 245 304 363
#     4  10  20  35  58  88 119 152 194 247 297 354
#     4  10  20  36  58  83 118 157 196 240 301 367
#     4  11  22  38  62  85 119 157 200 253 299 361
#
# _framework density 21.378126000000002
#
# number of rings (size 3 to 8) (size 9 to 14) (size 15 to 20)
#    0.000    1.714    1.429    4.286    0.000    6.857 
#    0.000    0.714    0.000    0.857    0.000    0.000 
#    0.000    0.000    0.000    0.000    0.000    0.000 
#
# Total GULP energy -155997.931216 kJ/mol
# GULP energy per Si atom -5571.354686 kJ/mol
# Density = 2.132947 g / cm^3
# Si number density = 21.378126 Si / 1000 Ang^3
#
#
#
# Elastic Constant Matrix: (Units=GPa)
#
#
# Indices 1 2 3 4 5 6 
#
# 1 81.4113 15.3183 3.8093 0.0000 13.6142 0.0000
# 2 15.3183 130.6963 -0.0512 0.0000 3.4119 0.0000
# 3 3.8093 -0.0512 32.8497 0.0000 11.9633 0.0000
# 4 0.0000 0.0000 0.0000 3.8835 0.0000 -17.5368
# 5 13.6142 3.4119 11.9633 0.0000 37.0635 0.0000
# 6 0.0000 0.0000 0.0000 -17.5368 0.0000 -19.3491
#
#
#
# Elastic Compliance Matrix: (Units=1/GPa)
#
#
# Indices 1 2 3 4 5 6 
#
# 1 0.013354 -0.001439 0.000212 0.000000 -0.004841 0.000000
# 2 -0.001439 0.007827 0.000282 0.000000 -0.000283 0.000000
# 3 0.000212 0.000282 0.034512 0.000000 -0.011244 0.000000
# 4 0.000000 0.000000 0.000000 0.050562 0.000000 -0.045826
# 5 -0.004841 -0.000283 -0.011244 0.000000 0.032414 0.000000
# 6 0.000000 0.000000 0.000000 -0.045826 0.000000 -0.010148
#
#
# Mechanical properties :
#
#
# Convention : Reuss Voigt Hill
#
# Bulk Modulus (GPa) = 18.58565 31.45669 25.02117
# Shear Modulus (GPa) = 33.70532 19.37832 26.54182
#
# Velocity S-wave (km/s) = 3.97498 3.01401 3.52737
# Velocity P-wave (km/s) = 5.45710 5.18254 5.32159
#
# Compressibility (1/GPa) = 0.05380494
#
# Stress axis : x y z
#
# Youngs Moduli (GPa) = 74.88595 127.75563 28.97524
#
# Poissons Ratio (x) = 0.18380 -0.00615
# Poissons Ratio (y) = 0.10773 -0.00818
# Poissons Ratio (z) = -0.01590 -0.03605
#
# Static dielectric constant tensor:
#      x y z
#    x 1.929240 0.000000 0.058390 
#    y 0.000000 1.803360 0.000000 
#    z 0.058390 0.000000 1.855180 
# 
# From -- ./inp_files/111721.got.cif
#   From: 2010.05.17/outbox.cif.g08.bks.cpg/sg12_56_cif.got.tgz:111721.got - 2010.06.03 13:09:07.
