data_PCOD9197652
_publ_section_title
;
Structure prediction by ZEFSAII (Michael W. Deem and Ramdas Pophale) SiO2 
 PCOD9197652
Probable space group: C 2/M
;
_chemical_formula_sum "Si O2"
_cell_formula_units_Z 48
_cell_length_a 23.658573
_cell_length_b 7.613403
_cell_length_c 12.374996
_cell_angle_alpha 90.000000
_cell_angle_beta 67.812631
_cell_angle_gamma 90.000000
_cell_volume 2063.962383
_symmetry_space_group_name_H-M "C 2/M"
_symmetry_group_IT_number 12
_symmetry_cell_setting 'monoclinic'
loop_
_space_group_symop_operation_xyz
x,y,z
-x,y,-z
-x,-y,-z
x,-y,z
1/2+x,1/2+y,z
1/2-x,1/2+y,-z
1/2-x,1/2-y,-z
1/2+x,1/2-y,z
loop_
_atom_site_type_symbol
_atom_site_label
_atom_site_fract_x
_atom_site_fract_y
_atom_site_fract_z
Si Si1 0.193982 0.297042 0.768875
Si Si2 0.150972 0.715410 0.033755
Si Si3 0.987454 0.286557 0.886442
Si Si4 0.898011 0.286440 0.342409
Si Si5 0.931609 0.797716 0.556637
Si Si6 0.314978 0.202149 0.764234
O O1 0.174153 0.500000 0.787031
O O2 0.159118 0.225865 0.689656
O O3 0.266899 0.288947 0.718102
O O4 0.173302 0.223163 0.900301
O O5 0.153764 0.500000 0.033762
O O6 0.187165 0.778619 0.113141
O O7 0.080304 0.766994 0.097484
O O8 0.988292 0.500000 0.887259
O O9 0.041131 0.233571 0.767281
O O10 0.000000 0.228337 0.000000
O O11 0.896962 0.500000 0.353567
O O12 0.902329 0.213569 0.459145
O O13 0.884004 0.711612 0.672422
O O14 0.000000 0.721016 0.500000
O O15 0.937742 0.000000 0.586243
O O16 0.296736 0.000000 0.781403
#
# Coordination Sequence:
#
# PCOD9197652 Si02
#       6
#     8   8   8   8   8   8
#     4  10  20  36  58  87 122 156 191 233 289 346
#     4   9  17  31  54  86 120 152 189 236 286 340
#     4   9  14  26  52  86 116 142 180 231 283 334
#     4  10  20  35  61  91 118 152 194 239 284 338
#     4  11  25  44  63  83 113 151 190 237 294 349
#     4  11  23  38  59  86 116 154 199 241 282 335
#
# _framework density 23.256238
#
# number of rings (size 3 to 8) (size 9 to 14) (size 15 to 20)
#    0.000    2.000    1.667    2.500    0.000    4.000 
#    0.000    0.833    0.000    1.500    0.000    0.000 
#    0.000    0.000    0.000    0.000    0.000    0.000 
#
# Total GULP energy -134147.946400 kJ/mol
# GULP energy per Si atom -5589.497767 kJ/mol
# Density = 2.320331 g / cm^3
# Si number density = 23.256238 Si / 1000 Ang^3
#
#
#
# Elastic Constant Matrix: (Units=GPa)
#
#
# Indices 1 2 3 4 5 6 
#
# 1 131.2625 -2.5201 27.1548 0.0000 11.0183 0.0000
# 2 -2.5201 51.3119 -4.7024 0.0000 0.3945 0.0000
# 3 27.1548 -4.7024 83.1758 0.0000 14.0446 0.0000
# 4 0.0000 0.0000 0.0000 -39.5433 0.0000 13.9543
# 5 11.0183 0.3945 14.0446 0.0000 36.6724 0.0000
# 6 0.0000 0.0000 0.0000 13.9543 0.0000 8.9469
#
#
#
# Elastic Compliance Matrix: (Units=1/GPa)
#
#
# Indices 1 2 3 4 5 6 
#
# 1 0.008253 0.000195 -0.002421 0.000000 -0.001555 0.000000
# 2 0.000195 0.019611 0.001166 0.000000 -0.000716 0.000000
# 3 -0.002421 0.001166 0.013640 0.000000 -0.004509 0.000000
# 4 0.000000 0.000000 0.000000 -0.016311 0.000000 0.025440
# 5 -0.001555 -0.000716 -0.004509 0.000000 0.029470 0.000000
# 6 0.000000 0.000000 0.000000 0.025440 0.000000 0.072092
#
#
# Mechanical properties :
#
#
# Convention : Reuss Voigt Hill
#
# Bulk Modulus (GPa) = 25.39037 33.95720 29.67378
# Shear Modulus (GPa) = 35.21050 17.60305 26.40678
#
# Velocity S-wave (km/s) = 3.89527 2.75420 3.37333
# Velocity P-wave (km/s) = 5.58320 4.97465 5.28769
#
# Compressibility (1/GPa) = 0.03938501
#
# Stress axis : x y z
#
# Youngs Moduli (GPa) = 121.16201 50.99283 73.31164
#
# Poissons Ratio (x) = -0.00997 0.17748
# Poissons Ratio (y) = -0.02368 -0.08547
# Poissons Ratio (z) = 0.29333 -0.05945
#
# Static dielectric constant tensor:
#      x y z
#    x 1.879490 0.000000 -0.003990 
#    y 0.000000 1.881580 0.000000 
#    z -0.003990 0.000000 1.848300 
# 
# From -- ./inp_files/172942.got.cif
#   From: 2010.05.17/outbox.cif.g08.bks.cpg/sg12_87_cif.got.tgz:172942.got - 2010.06.03 13:09:07.
