data_PCOD9197693
_publ_section_title
;
Structure prediction by ZEFSAII (Michael W. Deem and Ramdas Pophale) SiO2 
 PCOD9197693
Probable space group: C 2/M
;
_chemical_formula_sum "Si O2"
_cell_formula_units_Z 48
_cell_length_a 9.500247
_cell_length_b 17.253078
_cell_length_c 15.608699
_cell_angle_alpha 90.000000
_cell_angle_beta 114.974505
_cell_angle_gamma 90.000000
_cell_volume 2319.177349
_symmetry_space_group_name_H-M "C 2/M"
_symmetry_group_IT_number 12
_symmetry_cell_setting 'monoclinic'
loop_
_space_group_symop_operation_xyz
x,y,z
-x,y,-z
-x,-y,-z
x,-y,z
1/2+x,1/2+y,z
1/2-x,1/2+y,-z
1/2-x,1/2-y,-z
1/2+x,1/2-y,z
loop_
_atom_site_type_symbol
_atom_site_label
_atom_site_fract_x
_atom_site_fract_y
_atom_site_fract_z
Si Si1 0.459384 0.817429 0.085136
Si Si2 0.316521 0.088294 0.304580
Si Si3 0.465280 0.583328 0.390627
Si Si4 0.379184 0.872935 0.713389
Si Si5 0.868581 0.843570 0.905204
Si Si6 0.309531 0.713351 0.604970
O O1 0.550705 0.870727 0.174673
O O2 0.280780 0.819070 0.073756
O O3 0.538036 0.731790 0.105916
O O4 0.500000 0.844867 0.000000
O O5 0.491268 0.092872 0.314959
O O6 0.203352 0.112137 0.195432
O O7 0.302478 0.152654 0.375552
O O8 0.285598 0.000000 0.322362
O O9 0.500000 0.587808 0.500000
O O10 0.525497 0.500000 0.374847
O O11 0.283073 0.585442 0.331512
O O12 0.540635 0.659500 0.370431
O O13 0.347752 0.784986 0.675276
O O14 0.000000 0.883210 0.000000
O O15 0.250000 0.750000 0.500000
#
# Coordination Sequence:
#
# PCOD9197693 Si02
#       6
#     8   8   8   8   8   8
#     4  10  20  35  61  98 125 160 214 266 310 371
#     4  11  25  43  64  97 133 168 211 265 326 382
#     4  11  24  42  63  91 126 164 206 259 321 378
#     4  11  23  41  69  92 128 169 213 263 317 375
#     4  10  20  36  61  92 130 167 207 261 317 378
#     4  12  24  43  65  93 124 167 219 267 312 378
#
# _framework density 20.696995000000001
#
# number of rings (size 3 to 8) (size 9 to 14) (size 15 to 20)
#    0.000    1.167    3.333    4.000    2.333    1.667 
#    0.000    0.833    0.000   12.500    0.000    0.000 
#    0.000    0.667    0.000    0.000    0.000    0.000 
#
# Total GULP energy -133950.885584 kJ/mol
# GULP energy per Si atom -5581.286899 kJ/mol
# Density = 2.064989 g / cm^3
# Si number density = 20.696995 Si / 1000 Ang^3
#
#
#
# Elastic Constant Matrix: (Units=GPa)
#
#
# Indices 1 2 3 4 5 6 
#
# 1 118.1424 45.3444 32.7609 0.0000 0.7512 0.0000
# 2 45.3444 116.8804 23.5163 0.0000 -13.3139 0.0000
# 3 32.7609 23.5163 71.9717 0.0000 -6.3451 0.0000
# 4 0.0000 0.0000 0.0000 13.4772 0.0000 -21.3873
# 5 0.7512 -13.3139 -6.3451 0.0000 33.3480 0.0000
# 6 0.0000 0.0000 0.0000 -21.3873 0.0000 -122.3646
#
#
#
# Elastic Compliance Matrix: (Units=1/GPa)
#
#
# Indices 1 2 3 4 5 6 
#
# 1 0.011038 -0.003760 -0.004017 0.000000 -0.002514 0.000000
# 2 -0.003760 0.010774 -0.001446 0.000000 0.004111 0.000000
# 3 -0.004017 -0.001446 0.016428 0.000000 0.002639 0.000000
# 4 0.000000 0.000000 0.000000 0.058088 0.000000 -0.010153
# 5 -0.002514 0.004111 0.002639 0.000000 0.032187 0.000000
# 6 0.000000 0.000000 0.000000 -0.010153 0.000000 -0.006398
#
#
# Mechanical properties :
#
#
# Convention : Reuss Voigt Hill
#
# Bulk Modulus (GPa) = 50.52508 56.69308 53.60908
# Shear Modulus (GPa) = 33.97641 -1.41636 16.28003
#
# Velocity S-wave (km/s) = 4.05608 -0.82814 2.80766
# Velocity P-wave (km/s) = 6.81179 5.15141 6.03893
#
# Compressibility (1/GPa) = 0.01979215
#
# Stress axis : x y z
#
# Youngs Moduli (GPa) = 90.59995 92.81773 60.87117
#
# Poissons Ratio (x) = 0.34901 0.24453
# Poissons Ratio (y) = 0.34067 0.08803
# Poissons Ratio (z) = 0.36396 0.13424
#
# Static dielectric constant tensor:
#      x y z
#    x 1.737650 0.000000 -0.014260 
#    y 0.000000 1.716160 0.000000 
#    z -0.014260 0.000000 1.750860 
# 
# From -- ./inp_files/256727.got.cif
#   From: 2010.05.17/outbox.cif.g08.bks.cpg/sg12_129_cif.got.tgz:256727.got - 2010.06.03 13:09:07.
