data_PCOD9197065
_publ_section_title
;
Structure prediction by ZEFSAII (Michael W. Deem and Ramdas Pophale) SiO2 
 PCOD9197065
Probable space group: C 2/M
;
_chemical_formula_sum "Si O2"
_cell_formula_units_Z 64
_cell_length_a 17.952339
_cell_length_b 14.394344
_cell_length_c 21.046792
_cell_angle_alpha 90.000000
_cell_angle_beta 147.575331
_cell_angle_gamma 90.000000
_cell_volume 2916.203051
_symmetry_space_group_name_H-M "C 2/M"
_symmetry_group_IT_number 12
_symmetry_cell_setting 'monoclinic'
loop_
_space_group_symop_operation_xyz
x,y,z
-x,y,-z
-x,-y,-z
x,-y,z
1/2+x,1/2+y,z
1/2-x,1/2+y,-z
1/2-x,1/2-y,-z
1/2+x,1/2-y,z
loop_
_atom_site_type_symbol
_atom_site_label
_atom_site_fract_x
_atom_site_fract_y
_atom_site_fract_z
Si Si1 0.676553 0.276646 0.081622
Si Si2 0.338517 0.108342 0.091112
Si Si3 0.397126 0.895004 0.534852
Si Si4 0.322384 0.393205 0.158877
Si Si5 0.575724 0.603257 0.270111
Si Si6 0.873967 0.207078 0.821780
Si Si7 0.864572 0.609993 0.657418
Si Si8 0.868960 0.214829 0.437604
O O1 0.756188 0.329458 0.082634
O O2 0.752368 0.180823 0.154021
O O3 0.672698 0.335452 0.144047
O O4 0.521985 0.249485 0.947532
O O5 0.500684 0.136476 0.203718
O O6 0.336808 0.000000 0.110558
O O7 0.264618 0.112432 0.969720
O O8 0.417348 0.874782 0.623518
O O9 0.433582 0.808744 0.516053
O O10 0.230373 0.898859 0.407087
O O11 0.450430 0.000000 0.557712
O O12 0.324530 0.500000 0.183223
O O13 0.473026 0.353382 0.247329
O O14 0.516903 0.500000 0.222789
O O15 0.582782 0.640587 0.204629
O O16 0.745870 0.261927 0.698754
O O17 0.837162 0.500000 0.644442
O O18 0.725853 0.664126 0.577567
O O19 0.000000 0.163989 0.500000
#
# Coordination Sequence:
#
# PCOD9197065 Si02
#       8
#     8   8   8   8   8   8   8   8
#     4  11  22  36  59  83 119 157 184 237 284 344
#     4  10  21  35  60  91 115 146 190 238 292 341
#     4   9  20  38  60  85 113 148 193 239 286 336
#     4  10  20  35  58  87 111 146 195 235 282 336
#     4   9  18  35  57  82 113 147 184 237 288 339
#     4  10  23  38  52  85 120 153 193 225 293 345
#     4  10  22  40  61  86 115 150 195 244 284 333
#     4  11  24  39  59  85 117 157 194 235 289 343
#
# _framework density 21.946345999999998
#
# number of rings (size 3 to 8) (size 9 to 14) (size 15 to 20)
#    0.000    2.000    1.250    1.500    5.250    2.000 
#    0.000    3.125    0.000    0.000    0.000    0.000 
#    0.000    0.000    0.000    0.000    0.000    0.000 
#
# Total GULP energy -178459.012003 kJ/mol
# GULP energy per Si atom -5576.844125 kJ/mol
# Density = 2.189640 g / cm^3
# Si number density = 21.946346 Si / 1000 Ang^3
#
#
#
# Elastic Constant Matrix: (Units=GPa)
#
#
# Indices 1 2 3 4 5 6 
#
# 1 44.5033 12.5433 15.3054 0.0000 4.6937 0.0000
# 2 12.5433 59.2693 2.9187 -0.0002 5.7652 -0.0001
# 3 15.3054 2.9187 26.8174 -0.0008 5.6151 -0.0002
# 4 0.0000 -0.0002 -0.0008 -2.0769 -0.0001 -3.8243
# 5 4.6937 5.7652 5.6151 -0.0001 36.6132 0.0000
# 6 0.0000 -0.0001 -0.0002 -3.8243 0.0000 11.9243
#
#
#
# Elastic Compliance Matrix: (Units=1/GPa)
#
#
# Indices 1 2 3 4 5 6 
#
# 1 0.029627 -0.005427 -0.016223 0.000004 -0.000456 0.000001
# 2 -0.005427 0.018176 0.001625 -0.000002 -0.002415 0.000000
# 3 -0.016223 0.001625 0.047515 -0.000012 -0.005463 -0.000003
# 4 0.000004 -0.000002 -0.000012 -0.302716 0.000001 -0.097086
# 5 -0.000456 -0.002415 -0.005463 0.000001 0.028589 0.000000
# 6 0.000001 0.000000 -0.000003 -0.097086 0.000000 0.052725
#
#
# Mechanical properties :
#
#
# Convention : Reuss Voigt Hill
#
# Bulk Modulus (GPa) = 18.09368 21.34720 19.72044
# Shear Modulus (GPa) = -73.95244 15.94696 -29.00274
#
# Velocity S-wave (km/s) = -5.81120 2.69854 -3.63923
# Velocity P-wave (km/s) = 6.06336 4.41108 2.94166
#
# Compressibility (1/GPa) = 0.05526792
#
# Stress axis : x y z
#
# Youngs Moduli (GPa) = 33.75283 55.01893 21.04595
#
# Poissons Ratio (x) = 0.29858 0.34143
# Poissons Ratio (y) = 0.18317 -0.03420
# Poissons Ratio (z) = 0.54757 -0.08940
#
# Static dielectric constant tensor:
#      x y z
#    x 1.853640 0.000000 -0.002400 
#    y 0.000000 1.856780 0.000000 
#    z -0.002400 0.000000 1.840070 
# 
# From -- ./inp_files/344064.got.cif
#   From: 2010.05.17/outbox.cif.g08.bks.cpg/sg12_173_cif.got.tgz:344064.got - 2010.06.03 13:09:07.
