data_PCOD9197720
_publ_section_title
;
Structure prediction by ZEFSAII (Michael W. Deem and Ramdas Pophale) SiO2 
 PCOD9197720
Probable space group: C 2/M
;
_chemical_formula_sum "Si O2"
_cell_formula_units_Z 42
_cell_length_a 8.989121
_cell_length_b 23.816720
_cell_length_c 15.415587
_cell_angle_alpha 90.000000
_cell_angle_beta 138.939625
_cell_angle_gamma 90.000000
_cell_volume 2167.844113
_symmetry_space_group_name_H-M "C 2/M"
_symmetry_group_IT_number 12
_symmetry_cell_setting 'monoclinic'
loop_
_space_group_symop_operation_xyz
x,y,z
-x,y,-z
-x,-y,-z
x,-y,z
1/2+x,1/2+y,z
1/2-x,1/2+y,-z
1/2-x,1/2-y,-z
1/2+x,1/2-y,z
loop_
_atom_site_type_symbol
_atom_site_label
_atom_site_fract_x
_atom_site_fract_y
_atom_site_fract_z
Si Si1 0.342801 0.644131 0.167047
Si Si2 0.149623 0.338661 0.642101
Si Si3 0.956775 0.375879 0.125651
Si Si4 0.540078 0.060443 0.333531
Si Si5 0.000000 0.000000 0.500000
Si Si6 0.257096 0.776664 0.139994
O O1 0.610690 0.638632 0.287338
O O2 0.293518 0.710946 0.142734
O O3 0.197768 0.620638 0.183374
O O4 0.234103 0.618133 0.032122
O O5 0.013981 0.391022 0.622677
O O6 0.199904 0.295982 0.742700
O O7 0.000000 0.312691 0.500000
O O8 0.942464 0.419150 0.198031
O O9 0.919389 0.314273 0.150956
O O10 0.438190 0.000000 0.314484
O O11 0.805136 0.047900 0.436491
O O12 0.000000 0.790767 0.000000
#
# Coordination Sequence:
#
# PCOD9197720 Si02
#       6
#     8   8   8   8   2   8
#     4  11  21  35  62  93 127 165 208 254 304 366
#     4  11  25  38  59  95 129 163 215 260 305 370
#     4  10  20  35  62  94 116 160 216 257 299 366
#     4   9  22  42  65  86 115 165 206 256 327 375
#     4   8  20  44  70  80 116 170 206 248 334 398
#     4  11  19  39  63  89 128 178 207 243 311 373
#
# _framework density 19.374088
#
# number of rings (size 3 to 8) (size 9 to 14) (size 15 to 20)
#    0.571    1.143    3.810    1.714    2.667    1.143 
#    0.000    4.762    0.000    0.000    0.000    0.000 
#    0.000    0.000    0.000    0.000    0.000    0.000 
#
# Total GULP energy -116927.016799 kJ/mol
# GULP energy per Si atom -5567.953181 kJ/mol
# Density = 1.932999 g / cm^3
# Si number density = 19.374088 Si / 1000 Ang^3
#
#
#
# Elastic Constant Matrix: (Units=GPa)
#
#
# Indices 1 2 3 4 5 6 
#
# 1 68.9834 -5.6943 48.9512 0.0000 10.6774 0.0000
# 2 -5.6943 44.7522 7.0981 0.0000 0.0439 0.0000
# 3 48.9512 7.0981 114.3337 0.0000 0.1330 0.0000
# 4 0.0000 0.0000 0.0000 13.4062 0.0000 13.9304
# 5 10.6774 0.0439 0.1330 0.0000 36.6445 0.0000
# 6 0.0000 0.0000 0.0000 13.9304 0.0000 20.3318
#
#
#
# Elastic Compliance Matrix: (Units=1/GPa)
#
#
# Indices 1 2 3 4 5 6 
#
# 1 0.023136 0.004565 -0.010181 0.000000 -0.006710 0.000000
# 2 0.004565 0.023468 -0.003410 0.000000 -0.001346 0.000000
# 3 -0.010181 -0.003410 0.013314 0.000000 0.002922 0.000000
# 4 0.000000 0.000000 0.000000 0.258948 0.000000 -0.177419
# 5 -0.006710 -0.001346 0.002922 0.000000 0.029235 0.000000
# 6 0.000000 0.000000 0.000000 -0.177419 0.000000 0.170744
#
#
# Mechanical properties :
#
#
# Convention : Reuss Voigt Hill
#
# Bulk Modulus (GPa) = 23.88550 36.53105 30.20827
# Shear Modulus (GPa) = 9.07683 25.92412 17.50047
#
# Velocity S-wave (km/s) = 2.16684 3.66195 3.00874
# Velocity P-wave (km/s) = 4.31458 6.06435 5.26270
#
# Compressibility (1/GPa) = 0.04186641
#
# Stress axis : x y z
#
# Youngs Moduli (GPa) = 43.22194 42.61058 75.11064
#
# Poissons Ratio (x) = -0.19453 0.76472
# Poissons Ratio (y) = -0.19732 0.25613
# Poissons Ratio (z) = 0.44006 0.14530
#
# Static dielectric constant tensor:
#      x y z
#    x 1.695360 0.000000 -0.008270 
#    y 0.000000 1.657940 0.000000 
#    z -0.008270 0.000000 1.682230 
# 
# From -- ./inp_files/200040.got.cif
#   From: 2010.05.17/outbox.cif.g08.bks.cpg/sg12_101_cif.got.tgz:200040.got - 2010.06.03 13:09:07.
