data_PCOD9197436
_publ_section_title
;
Structure prediction by ZEFSAII (Michael W. Deem and Ramdas Pophale) SiO2 
 PCOD9197436
Probable space group: C 2/M
;
_chemical_formula_sum "Si O2"
_cell_formula_units_Z 56
_cell_length_a 21.411461
_cell_length_b 17.379633
_cell_length_c 9.225138
_cell_angle_alpha 90.000000
_cell_angle_beta 58.464805
_cell_angle_gamma 90.000000
_cell_volume 2925.916782
_symmetry_space_group_name_H-M "C 2/M"
_symmetry_group_IT_number 12
_symmetry_cell_setting 'monoclinic'
loop_
_space_group_symop_operation_xyz
x,y,z
-x,y,-z
-x,-y,-z
x,-y,z
1/2+x,1/2+y,z
1/2-x,1/2+y,-z
1/2-x,1/2-y,-z
1/2+x,1/2-y,z
loop_
_atom_site_type_symbol
_atom_site_label
_atom_site_fract_x
_atom_site_fract_y
_atom_site_fract_z
Si Si1 0.838118 0.592261 0.901878
Si Si2 0.549358 0.681002 0.225762
Si Si3 0.929424 0.311854 0.018490
Si Si4 0.417360 0.188307 0.580868
Si Si5 0.174254 0.910830 0.158767
Si Si6 0.899255 0.090555 0.433519
Si Si7 0.661618 0.742045 0.610063
O O1 0.842904 0.500000 0.895726
O O2 0.861071 0.629318 0.721557
O O3 0.891477 0.631251 0.952782
O O4 0.756692 0.617679 0.046619
O O5 0.571957 0.736218 0.331670
O O6 0.621353 0.631609 0.112357
O O7 0.481698 0.624995 0.340613
O O8 0.536865 0.738998 0.109513
O O9 0.871915 0.280599 0.205569
O O10 0.000000 0.352276 0.000000
O O11 0.500000 0.153782 0.500000
O O12 0.383300 0.217282 0.469968
O O13 0.140152 0.904610 0.361503
O O14 0.175355 0.000000 0.120863
O O15 0.857806 0.151282 0.380637
O O16 0.899952 0.000000 0.391441
O O17 0.750000 0.750000 0.500000
#
# Coordination Sequence:
#
# PCOD9197436 Si02
#       7
#     8   8   8   8   8   8   8
#     4  10  24  42  63  92 119 159 217 275 321 365
#     4  11  20  37  63  92 122 162 212 252 303 381
#     4  11  23  40  62  87 127 164 207 260 318 385
#     4  11  21  41  67  88 122 161 219 265 305 386
#     4  10  20  35  59  91 123 155 203 263 312 360
#     4  11  21  38  63  95 129 166 207 254 307 375
#     4  12  24  40  61  96 127 174 209 252 320 381
#
# _framework density 19.139301
#
# number of rings (size 3 to 8) (size 9 to 14) (size 15 to 20)
#    0.000    1.143    4.286    2.571    2.000    2.857 
#    0.000    3.571    0.000    0.000    0.000    0.000 
#    0.000    0.000    0.000    0.000    0.000    0.000 
#
# Total GULP energy -156175.214704 kJ/mol
# GULP energy per Si atom -5577.686239 kJ/mol
# Density = 1.909574 g / cm^3
# Si number density = 19.139301 Si / 1000 Ang^3
#
#
#
# Elastic Constant Matrix: (Units=GPa)
#
#
# Indices 1 2 3 4 5 6 
#
# 1 79.4732 24.2407 26.8859 0.0000 -22.4448 0.0000
# 2 24.2407 86.8503 36.8196 0.0000 -9.5154 0.0000
# 3 26.8859 36.8196 84.3439 0.0000 -10.2164 0.0000
# 4 0.0000 0.0000 0.0000 8.9666 0.0000 -12.9870
# 5 -22.4448 -9.5154 -10.2164 0.0000 39.4772 0.0000
# 6 0.0000 0.0000 0.0000 -12.9870 0.0000 24.5661
#
#
#
# Elastic Compliance Matrix: (Units=1/GPa)
#
#
# Indices 1 2 3 4 5 6 
#
# 1 0.016706 -0.002375 -0.003311 0.000000 0.008069 0.000000
# 2 -0.002375 0.014601 -0.005527 0.000000 0.000739 0.000000
# 3 -0.003311 -0.005527 0.015419 0.000000 0.000775 0.000000
# 4 0.000000 0.000000 0.000000 0.475983 0.000000 0.251632
# 5 0.008069 0.000739 0.000775 0.000000 0.030297 0.000000
# 6 0.000000 0.000000 0.000000 0.251632 0.000000 0.173734
#
#
# Mechanical properties :
#
#
# Convention : Reuss Voigt Hill
#
# Bulk Modulus (GPa) = 41.15457 47.39556 44.27507
# Shear Modulus (GPa) = 6.60269 25.45005 16.02637
#
# Velocity S-wave (km/s) = 1.85938 3.65050 2.89685
# Velocity P-wave (km/s) = 5.11459 6.52575 5.86278
#
# Compressibility (1/GPa) = 0.02429864
#
# Stress axis : x y z
#
# Youngs Moduli (GPa) = 59.85757 68.48736 64.85664
#
# Poissons Ratio (x) = 0.16266 0.21475
# Poissons Ratio (y) = 0.14217 0.35849
# Poissons Ratio (z) = 0.19820 0.37856
#
# Static dielectric constant tensor:
#      x y z
#    x 1.715190 0.000000 -0.021060 
#    y 0.000000 1.666620 0.000000 
#    z -0.021060 0.000000 1.703750 
# 
# From -- ./inp_files/87855.got.cif
#   From: 2010.05.17/outbox.cif.g08.bks.cpg/sg12_44_cif.got.tgz:87855.got - 2010.06.03 13:09:07.
