data_PCOD9197879
_publ_section_title
;
Structure prediction by ZEFSAII (Michael W. Deem and Ramdas Pophale) SiO2 
 PCOD9197879
Probable space group: C 2/M
;
_chemical_formula_sum "Si O2"
_cell_formula_units_Z 44
_cell_length_a 26.169507
_cell_length_b 15.768192
_cell_length_c 10.973233
_cell_angle_alpha 90.000000
_cell_angle_beta 149.616123
_cell_angle_gamma 90.000000
_cell_volume 2290.251453
_symmetry_space_group_name_H-M "C 2/M"
_symmetry_group_IT_number 12
_symmetry_cell_setting 'monoclinic'
loop_
_space_group_symop_operation_xyz
x,y,z
-x,y,-z
-x,-y,-z
x,-y,z
1/2+x,1/2+y,z
1/2-x,1/2+y,-z
1/2-x,1/2-y,-z
1/2+x,1/2-y,z
loop_
_atom_site_type_symbol
_atom_site_label
_atom_site_fract_x
_atom_site_fract_y
_atom_site_fract_z
Si Si1 0.473014 0.177201 0.572598
Si Si2 0.722822 0.830378 0.692495
Si Si3 0.051276 0.500000 0.802813
Si Si4 0.565600 0.303845 0.950966
Si Si5 0.631725 0.000000 0.391974
Si Si6 0.775972 0.500000 0.667456
Si Si7 0.357268 0.331632 0.619347
O O1 0.500000 0.220464 0.500000
O O2 0.352353 0.173678 0.346425
O O3 0.522940 0.084783 0.674074
O O4 0.522764 0.221201 0.793980
O O5 0.687011 0.914707 0.549715
O O6 0.697251 0.744689 0.564485
O O7 0.843814 0.836356 0.948290
O O8 0.974957 0.500000 0.760959
O O9 0.165396 0.500000 0.084549
O O10 0.462178 0.354252 0.765777
O O11 0.613958 0.297658 0.186118
O O12 0.640046 0.000000 0.265224
O O13 0.710222 0.415336 0.514961
#
# Coordination Sequence:
#
# PCOD9197879 Si02
#       7
#     8   8   4   8   4   4   8
#     4  10  22  38  58  82 109 150 199 235 277 330
#     4  10  20  37  56  84 117 145 188 236 280 338
#     4  10  22  36  55  83 114 145 186 242 285 327
#     4  10  20  36  54  79 114 149 179 231 281 322
#     4  10  21  32  55  86 116 149 181 219 285 349
#     4  12  21  35  57  86 117 154 180 221 291 346
#     4  10  22  34  56  86 117 147 187 227 278 354
#
# _framework density 19.211863999999998
#
# number of rings (size 3 to 8) (size 9 to 14) (size 15 to 20)
#    0.000    1.818    1.818    2.182    2.545    2.909 
#    0.000    0.000    0.000    0.000    0.000   14.000 
#    0.000    0.000    0.000    0.000    0.000    0.000 
#
# Total GULP energy -122543.395658 kJ/mol
# GULP energy per Si atom -5570.154348 kJ/mol
# Density = 1.916814 g / cm^3
# Si number density = 19.211864 Si / 1000 Ang^3
#
#
#
# Elastic Constant Matrix: (Units=GPa)
#
#
# Indices 1 2 3 4 5 6 
#
# 1 84.5444 9.1436 40.3114 0.0000 3.5918 0.0000
# 2 9.1436 78.9606 19.3411 0.0000 -15.4007 0.0000
# 3 40.3114 19.3411 74.3560 0.0000 16.1355 0.0000
# 4 0.0000 0.0000 0.0000 -36.3355 0.0000 -9.5349
# 5 3.5918 -15.4007 16.1355 0.0000 20.3946 0.0000
# 6 0.0000 0.0000 0.0000 -9.5349 0.0000 10.3419
#
#
#
# Elastic Compliance Matrix: (Units=1/GPa)
#
#
# Indices 1 2 3 4 5 6 
#
# 1 0.016648 0.002381 -0.011347 0.000000 0.007844 0.000000
# 2 0.002381 0.019874 -0.011622 0.000000 0.023783 0.000000
# 3 -0.011347 -0.011622 0.029088 0.000000 -0.029791 0.000000
# 4 0.000000 0.000000 0.000000 -0.022160 0.000000 -0.020431
# 5 0.007844 0.023783 -0.029791 0.000000 0.089180 0.000000
# 6 0.000000 0.000000 0.000000 -0.020431 0.000000 0.077858
#
#
# Mechanical properties :
#
#
# Convention : Reuss Voigt Hill
#
# Bulk Modulus (GPa) = 40.92363 41.71703 41.32033
# Shear Modulus (GPa) = 19.24506 10.15118 14.69812
#
# Velocity S-wave (km/s) = 3.16844 2.30115 2.76896
# Velocity P-wave (km/s) = 5.89346 5.36859 5.63713
#
# Compressibility (1/GPa) = 0.02443576
#
# Stress axis : x y z
#
# Youngs Moduli (GPa) = 60.06882 50.31682 34.37832
#
# Poissons Ratio (x) = -0.11983 0.39009
# Poissons Ratio (y) = -0.14305 0.39953
# Poissons Ratio (z) = 0.68159 0.58476
#
# Static dielectric constant tensor:
#      x y z
#    x 1.711490 0.000000 0.022950 
#    y 0.000000 1.658990 0.000000 
#    z 0.022950 0.000000 1.680950 
# 
# From -- ./inp_files/183418.got.cif
#   From: 2010.05.17/outbox.cif.g08.bks.cpg/sg12_92_cif.got.tgz:183418.got - 2010.06.03 13:09:07.
