data_PCOD9197472
_publ_section_title
;
Structure prediction by ZEFSAII (Michael W. Deem and Ramdas Pophale) SiO2 
 PCOD9197472
Probable space group: C 2/M
;
_chemical_formula_sum "Si O2"
_cell_formula_units_Z 56
_cell_length_a 18.910013
_cell_length_b 19.756026
_cell_length_c 9.787905
_cell_angle_alpha 90.000000
_cell_angle_beta 137.012611
_cell_angle_gamma 90.000000
_cell_volume 2493.227809
_symmetry_space_group_name_H-M "C 2/M"
_symmetry_group_IT_number 12
_symmetry_cell_setting 'monoclinic'
loop_
_space_group_symop_operation_xyz
x,y,z
-x,y,-z
-x,-y,-z
x,-y,z
1/2+x,1/2+y,z
1/2-x,1/2+y,-z
1/2-x,1/2-y,-z
1/2+x,1/2-y,z
loop_
_atom_site_type_symbol
_atom_site_label
_atom_site_fract_x
_atom_site_fract_y
_atom_site_fract_z
Si Si1 0.552071 0.422183 0.426588
Si Si2 0.269796 0.924457 0.112707
Si Si3 0.232879 0.194859 0.362875
Si Si4 0.775399 0.577705 0.631387
Si Si5 0.933192 0.134666 0.026921
Si Si6 0.923665 0.644305 0.507692
Si Si7 0.410962 0.082745 0.068474
O O1 0.500000 0.412842 0.500000
O O2 0.524001 0.500000 0.341810
O O3 0.675894 0.420056 0.591979
O O4 0.510816 0.365672 0.263334
O O5 0.169228 0.896640 0.047205
O O6 0.364711 0.918753 0.353411
O O7 0.319717 0.894288 0.045590
O O8 0.242578 0.000000 0.036197
O O9 0.250000 0.250000 0.500000
O O10 0.246649 0.123468 0.462009
O O11 0.122354 0.196671 0.130840
O O12 0.331804 0.196835 0.404362
O O13 0.790054 0.500000 0.608865
O O14 0.872975 0.598606 0.862238
O O15 0.000000 0.099325 0.000000
O O16 0.000000 0.671485 0.500000
O O17 0.987220 0.619239 0.728747
O O18 0.421741 0.000000 0.092977
#
# Coordination Sequence:
#
# PCOD9197472 Si02
#       7
#     8   8   8   8   8   8   8
#     4  10  20  35  59  94 136 176 214 261 318 382
#     4   9  17  29  54  89 125 160 201 259 313 371
#     4  11  25  45  63  89 128 162 210 273 328 381
#     4  10  21  37  58  89 126 164 206 260 319 385
#     4  11  21  37  59  87 121 169 215 260 314 390
#     4   9  19  37  61  84 115 158 211 260 311 382
#     4   9  17  33  56  88 126 163 205 252 315 376
#
# _framework density 22.460844000000002
#
# number of rings (size 3 to 8) (size 9 to 14) (size 15 to 20)
#    0.000    2.143    1.429    1.714    0.000    9.143 
#    2.571    2.143    0.000    5.143    0.000    0.000 
#    0.000    0.000    0.000    0.000    0.000    0.000 
#
# Total GULP energy -156049.423537 kJ/mol
# GULP energy per Si atom -5573.193698 kJ/mol
# Density = 2.240972 g / cm^3
# Si number density = 22.460844 Si / 1000 Ang^3
#
#
#
# Elastic Constant Matrix: (Units=GPa)
#
#
# Indices 1 2 3 4 5 6 
#
# 1 99.2516 -2.2111 8.2858 0.0000 6.6077 0.0000
# 2 -2.2111 18.7917 14.1831 0.0000 -2.5578 0.0000
# 3 8.2858 14.1831 123.9441 0.0000 7.8856 0.0000
# 4 0.0000 0.0000 0.0000 20.2037 0.0000 -8.7497
# 5 6.6077 -2.5578 7.8856 0.0000 34.5983 0.0000
# 6 0.0000 0.0000 0.0000 -8.7497 0.0000 8.1945
#
#
#
# Elastic Compliance Matrix: (Units=1/GPa)
#
#
# Indices 1 2 3 4 5 6 
#
# 1 0.010285 0.001555 -0.000759 0.000000 -0.001676 0.000000
# 2 0.001555 0.059697 -0.007303 0.000000 0.005781 0.000000
# 3 -0.000759 -0.007303 0.009112 0.000000 -0.002472 0.000000
# 4 0.000000 0.000000 0.000000 0.092070 0.000000 0.098308
# 5 -0.001676 0.005781 -0.002472 0.000000 0.030214 0.000000
# 6 0.000000 0.000000 0.000000 0.098308 0.000000 0.227002
#
#
# Mechanical properties :
#
#
# Convention : Reuss Voigt Hill
#
# Bulk Modulus (GPa) = 15.13329 31.38922 23.26126
# Shear Modulus (GPa) = 10.78934 27.38127 19.08531
#
# Velocity S-wave (km/s) = 2.19409 3.49530 2.91815
# Velocity P-wave (km/s) = 3.62919 5.50408 4.66186
#
# Compressibility (1/GPa) = 0.06607948
#
# Stress axis : x y z
#
# Youngs Moduli (GPa) = 97.22903 16.75134 109.74757
#
# Poissons Ratio (x) = -0.02604 0.08328
# Poissons Ratio (y) = -0.15116 0.80148
# Poissons Ratio (z) = 0.07378 0.12233
#
# Static dielectric constant tensor:
#      x y z
#    x 1.903220 0.000000 0.016380 
#    y 0.000000 1.861730 0.000000 
#    z 0.016380 0.000000 1.864140 
# 
# From -- ./inp_files/79156.got.cif
#   From: 2010.05.17/outbox.cif.g08.bks.cpg/sg12_40_cif.got.tgz:79156.got - 2010.06.03 13:09:07.
