data_PCOD9197537
_publ_section_title
;
Structure prediction by ZEFSAII (Michael W. Deem and Ramdas Pophale) SiO2 
 PCOD9197537
Probable space group: C 2/M
;
_chemical_formula_sum "Si O2"
_cell_formula_units_Z 64
_cell_length_a 20.870927
_cell_length_b 8.889718
_cell_length_c 22.014026
_cell_angle_alpha 90.000000
_cell_angle_beta 118.262105
_cell_angle_gamma 90.000000
_cell_volume 3597.509327
_symmetry_space_group_name_H-M "C 2/M"
_symmetry_group_IT_number 12
_symmetry_cell_setting 'monoclinic'
loop_
_space_group_symop_operation_xyz
x,y,z
-x,y,-z
-x,-y,-z
x,-y,z
1/2+x,1/2+y,z
1/2-x,1/2+y,-z
1/2-x,1/2-y,-z
1/2+x,1/2-y,z
loop_
_atom_site_type_symbol
_atom_site_label
_atom_site_fract_x
_atom_site_fract_y
_atom_site_fract_z
Si Si1 0.595781 0.178475 0.291088
Si Si2 0.471256 0.319626 0.554373
Si Si3 0.335557 0.681005 0.159670
Si Si4 0.665979 0.820095 0.080631
Si Si5 0.085528 0.820556 0.158582
Si Si6 0.328473 0.819406 0.548668
Si Si7 0.084194 0.818880 0.929007
Si Si8 0.448500 0.179222 0.297063
O O1 0.609745 0.268308 0.236152
O O2 0.648196 0.214115 0.371206
O O3 0.514630 0.210859 0.279662
O O4 0.600603 0.000000 0.281018
O O5 0.500000 0.282306 0.500000
O O6 0.465607 0.500000 0.556958
O O7 0.392973 0.247718 0.535772
O O8 0.527585 0.257620 0.629824
O O9 0.341741 0.500000 0.168704
O O10 0.251066 0.721058 0.116699
O O11 0.376194 0.725338 0.115699
O O12 0.375848 0.757770 0.234170
O O13 0.631242 0.757002 0.126435
O O14 0.660467 0.000000 0.076989
O O15 0.623506 0.753452 0.004093
O O16 0.000652 0.777655 0.112383
O O17 0.090979 0.000000 0.155681
O O18 0.250000 0.750000 0.500000
O O19 0.327481 0.000000 0.541344
O O20 0.088704 0.000000 0.936352
O O21 0.445213 0.000000 0.304300
#
# Coordination Sequence:
#
# PCOD9197537 Si02
#       8
#     8   8   8   8   8   8   8   8
#     4   9  19  36  58  85 114 146 188 234 280 334
#     4  10  21  38  61  88 119 157 195 235 287 342
#     4  10  21  39  59  82 113 150 190 233 284 340
#     4  11  24  38  55  82 116 151 185 233 290 339
#     4  11  22  37  59  83 111 148 189 234 284 336
#     4  10  21  38  61  90 121 154 194 240 288 342
#     4  10  21  38  60  83 108 144 192 237 280 339
#     4  10  20  35  60  89 115 148 190 239 285 335
#
# _framework density 17.790085000000001
#
# number of rings (size 3 to 8) (size 9 to 14) (size 15 to 20)
#    0.000    1.875    1.250    3.375    0.000    7.500 
#    2.250    0.000    0.000    0.000    0.000    0.000 
#    0.000    0.000    0.000    0.000    0.000    0.000 
#
# Total GULP energy -178739.802249 kJ/mol
# GULP energy per Si atom -5585.618820 kJ/mol
# Density = 1.774959 g / cm^3
# Si number density = 17.790085 Si / 1000 Ang^3
#
#
#
# Elastic Constant Matrix: (Units=GPa)
#
#
# Indices 1 2 3 4 5 6 
#
# 1 47.4972 17.6489 18.7482 0.0000 -7.5316 0.0000
# 2 17.6489 29.0327 28.6403 0.0000 -4.7466 0.0000
# 3 18.7482 28.6403 87.0055 0.0000 -7.0278 0.0000
# 4 0.0000 0.0000 0.0000 36.5494 0.0000 -0.6517
# 5 -7.5316 -4.7466 -7.0278 0.0000 28.2447 0.0000
# 6 0.0000 0.0000 0.0000 -0.6517 0.0000 29.5831
#
#
#
# Elastic Compliance Matrix: (Units=1/GPa)
#
#
# Indices 1 2 3 4 5 6 
#
# 1 0.027803 -0.015698 -0.000447 0.000000 0.004664 0.000000
# 2 -0.015698 0.060433 -0.016357 0.000000 0.001900 0.000000
# 3 -0.000447 -0.016357 0.017086 0.000000 0.001383 0.000000
# 4 0.000000 0.000000 0.000000 0.027371 0.000000 0.000603
# 5 0.004664 0.001900 0.001383 0.000000 0.037312 0.000000
# 6 0.000000 0.000000 0.000000 0.000603 0.000000 0.033816
#
#
# Mechanical properties :
#
#
# Convention : Reuss Voigt Hill
#
# Bulk Modulus (GPa) = 24.80262 32.62336 28.71299
# Shear Modulus (GPa) = 17.71384 25.44199 21.57792
#
# Velocity S-wave (km/s) = 3.15892 3.78580 3.48648
# Velocity P-wave (km/s) = 5.22275 6.12270 5.69054
#
# Compressibility (1/GPa) = 0.04031832
#
# Stress axis : x y z
#
# Youngs Moduli (GPa) = 35.96749 16.54714 58.52745
#
# Poissons Ratio (x) = 0.25975 0.02615
# Poissons Ratio (y) = 0.56461 0.95735
# Poissons Ratio (z) = 0.01607 0.27067
#
# Static dielectric constant tensor:
#      x y z
#    x 1.587210 0.000000 0.003830 
#    y 0.000000 1.595230 0.000000 
#    z 0.003830 0.000000 1.581300 
# 
# From -- ./inp_files/319762.got.cif
#   From: 2010.05.17/outbox.cif.g08.bks.cpg/sg12_160_cif.got.tgz:319762.got - 2010.06.03 13:09:07.
