data_PCOD9197256
_publ_section_title
;
Structure prediction by ZEFSAII (Michael W. Deem and Ramdas Pophale) SiO2 
 PCOD9197256
Probable space group: C 2/M
;
_chemical_formula_sum "Si O2"
_cell_formula_units_Z 64
_cell_length_a 10.249538
_cell_length_b 26.406486
_cell_length_c 24.714122
_cell_angle_alpha 90.000000
_cell_angle_beta 31.724233
_cell_angle_gamma 90.000000
_cell_volume 3517.277603
_symmetry_space_group_name_H-M "C 2/M"
_symmetry_group_IT_number 12
_symmetry_cell_setting 'monoclinic'
loop_
_space_group_symop_operation_xyz
x,y,z
-x,y,-z
-x,-y,-z
x,-y,z
1/2+x,1/2+y,z
1/2-x,1/2+y,-z
1/2-x,1/2-y,-z
1/2+x,1/2-y,z
loop_
_atom_site_type_symbol
_atom_site_label
_atom_site_fract_x
_atom_site_fract_y
_atom_site_fract_z
Si Si1 0.920953 0.664322 0.668472
Si Si2 0.265150 0.727212 0.740767
Si Si3 0.235388 0.333530 0.452555
Si Si4 0.933184 0.555224 0.260458
Si Si5 0.433648 0.945686 0.660538
Si Si6 0.130596 0.943994 0.581647
Si Si7 0.888384 0.661344 0.804768
Si Si8 0.015759 0.755302 0.933466
O O1 0.760844 0.715214 0.719883
O O2 0.800652 0.608766 0.700753
O O3 0.994186 0.664844 0.706026
O O4 0.145407 0.667303 0.546698
O O5 0.532253 0.702820 0.636733
O O6 0.205409 0.728565 0.825571
O O7 0.058924 0.694637 0.783343
O O8 0.307407 0.391389 0.410289
O O9 0.000000 0.317637 0.500000
O O10 0.015635 0.500000 0.211223
O O11 0.645788 0.561440 0.345055
O O12 0.960396 0.554428 0.315864
O O13 0.090784 0.603129 0.185622
O O14 0.664648 0.945566 0.538005
O O15 0.299974 0.000000 0.700065
O O16 0.145722 0.000000 0.603779
O O17 0.618928 0.687072 0.899201
O O18 0.000000 0.735827 0.000000
O O19 0.750000 0.750000 0.000000
#
# Coordination Sequence:
#
# PCOD9197256 Si02
#       8
#     8   8   8   8   8   8   8   8
#     4   9  21  33  49  77 110 152 183 221 270 325
#     4  11  22  37  54  80 115 146 189 232 279 348
#     4  11  23  34  48  74 115 161 194 226 273 330
#     4   9  15  27  49  78 110 140 178 230 283 326
#     4   8  14  26  44  69 100 139 186 227 260 307
#     4   9  16  28  45  68 102 148 198 234 265 310
#     4  10  20  35  59  84 113 143 188 233 285 343
#     4  11  23  41  64  86 109 143 185 241 298 344
#
# _framework density 18.195889999999999
#
# number of rings (size 3 to 8) (size 9 to 14) (size 15 to 20)
#    0.000    2.250    2.500    0.750    3.500    2.250 
#    0.000    0.000    0.000    0.375    0.000    0.000 
#    0.000    3.500    0.000    0.125    0.000    0.000 
#
# Total GULP energy -178165.586888 kJ/mol
# GULP energy per Si atom -5567.674590 kJ/mol
# Density = 1.815448 g / cm^3
# Si number density = 18.195890 Si / 1000 Ang^3
#
#
#
# Elastic Constant Matrix: (Units=GPa)
#
#
# Indices 1 2 3 4 5 6 
#
# 1 52.5696 34.4739 24.3650 -0.0023 -2.6372 0.0048
# 2 34.4739 146.7229 30.7186 -0.0005 -8.0423 0.0021
# 3 24.3650 30.7186 57.7652 -0.0024 11.1232 0.0036
# 4 -0.0023 -0.0005 -0.0024 16.1694 0.0029 -2.4845
# 5 -2.6372 -8.0423 11.1232 0.0029 30.3319 -0.0029
# 6 0.0048 0.0021 0.0036 -2.4845 -0.0029 19.9187
#
#
#
# Elastic Compliance Matrix: (Units=1/GPa)
#
#
# Indices 1 2 3 4 5 6 
#
# 1 0.026458 -0.003833 -0.010081 0.000001 0.004981 -0.000003
# 2 -0.003833 0.008654 -0.003618 -0.000001 0.003288 0.000001
# 3 -0.010081 -0.003618 0.025653 0.000004 -0.011243 -0.000003
# 4 0.000001 -0.000001 0.000004 0.063054 -0.000007 0.007865
# 5 0.004981 0.003288 -0.011243 -0.000007 0.038397 0.000005
# 6 -0.000003 0.000001 -0.000003 0.007865 0.000005 0.051185
#
#
# Mechanical properties :
#
#
# Convention : Reuss Voigt Hill
#
# Bulk Modulus (GPa) = 38.90985 48.46364 43.68675
# Shear Modulus (GPa) = 19.45291 24.45067 21.95179
#
# Velocity S-wave (km/s) = 3.27323 3.66969 3.47712
# Velocity P-wave (km/s) = 5.97626 6.68190 6.33890
#
# Compressibility (1/GPa) = 0.02570043
#
# Stress axis : x y z
#
# Youngs Moduli (GPa) = 37.79572 115.55346 38.98243
#
# Poissons Ratio (x) = 0.44292 0.39296
# Poissons Ratio (y) = 0.14487 0.14106
# Poissons Ratio (z) = 0.38100 0.41813
#
# Static dielectric constant tensor:
#      x y z
#    x 1.631530 0.000000 0.016910 
#    y 0.000000 1.716500 0.000000 
#    z 0.016910 0.000000 1.607480 
# 
# From -- ./inp_files/359117.got.cif
#   From: 2010.05.17/outbox.cif.g08.bks.cpg/sg12_180_cif.got.tgz:359117.got - 2010.06.03 13:09:07.
