data_PCOD9197510
_publ_section_title
;
Structure prediction by ZEFSAII (Michael W. Deem and Ramdas Pophale) SiO2 
 PCOD9197510
Probable space group: C 2/M
;
_chemical_formula_sum "Si O2"
_cell_formula_units_Z 60
_cell_length_a 20.470934
_cell_length_b 7.720939
_cell_length_c 17.908460
_cell_angle_alpha 90.000000
_cell_angle_beta 77.581546
_cell_angle_gamma 90.000000
_cell_volume 2764.293188
_symmetry_space_group_name_H-M "C 2/M"
_symmetry_group_IT_number 12
_symmetry_cell_setting 'monoclinic'
loop_
_space_group_symop_operation_xyz
x,y,z
-x,y,-z
-x,-y,-z
x,-y,z
1/2+x,1/2+y,z
1/2-x,1/2+y,-z
1/2-x,1/2-y,-z
1/2+x,1/2-y,z
loop_
_atom_site_type_symbol
_atom_site_label
_atom_site_fract_x
_atom_site_fract_y
_atom_site_fract_z
Si Si1 0.391837 0.203249 0.916270
Si Si2 0.258066 0.206118 0.878414
Si Si3 0.231395 0.708283 0.588852
Si Si4 0.500000 0.250777 0.000000
Si Si5 0.048240 0.793905 0.256521
Si Si6 0.886423 0.793435 0.123894
Si Si7 0.321119 0.291132 0.702161
Si Si8 0.896070 0.293275 0.292963
O O1 0.316381 0.270725 0.919515
O O2 0.437735 0.308672 0.962486
O O3 0.427812 0.210998 0.826990
O O4 0.391261 0.000000 0.940012
O O5 0.181673 0.267940 0.899541
O O6 0.283456 0.239319 0.787713
O O7 0.255898 0.000000 0.889794
O O8 0.230990 0.500000 0.594230
O O9 0.250000 0.750000 0.500000
O O10 0.284406 0.774253 0.637421
O O11 0.158647 0.770331 0.634333
O O12 0.548880 0.190710 0.921104
O O13 0.101979 0.737609 0.305361
O O14 0.971884 0.755117 0.292656
O O15 0.054966 0.000000 0.244137
O O16 0.878909 0.772881 0.214310
O O17 0.898553 0.000000 0.108485
O O18 0.319252 0.500000 0.700186
O O19 0.891926 0.500000 0.290255
#
# Coordination Sequence:
#
# PCOD9197510 Si02
#       8
#     8   8   8   4   8   8   8   8
#     4  10  21  37  55  80 114 151 194 241 293 346
#     4   9  19  36  58  81 108 149 198 242 286 343
#     4  10  22  39  61  91 122 153 190 236 286 340
#     4  12  24  34  56  84 120 156 198 242 298 342
#     4  10  20  35  60  87 114 151 193 236 288 344
#     4  11  23  38  57  82 114 153 198 244 292 344
#     4   9  18  36  59  86 117 150 190 236 284 340
#     4  11  22  38  61  87 118 153 192 237 287 347
#
# _framework density 21.705368
#
# number of rings (size 3 to 8) (size 9 to 14) (size 15 to 20)
#    0.000    1.867    2.667    1.200    0.000    3.733 
#    0.000    0.667    0.000    4.000    0.000    0.000 
#    0.000    0.000    0.000    0.000    0.000    0.000 
#
# Total GULP energy -167344.942670 kJ/mol
# GULP energy per Si atom -5578.164756 kJ/mol
# Density = 2.165597 g / cm^3
# Si number density = 21.705368 Si / 1000 Ang^3
#
#
#
# Elastic Constant Matrix: (Units=GPa)
#
#
# Indices 1 2 3 4 5 6 
#
# 1 210.5825 16.5155 53.2467 0.0000 -1.2100 0.0000
# 2 16.5155 65.8495 1.9776 0.0000 2.3149 0.0000
# 3 53.2467 1.9776 74.8395 0.0000 -9.9989 0.0000
# 4 0.0000 0.0000 0.0000 8.0455 0.0000 -0.2773
# 5 -1.2100 2.3149 -9.9989 0.0000 32.6742 0.0000
# 6 0.0000 0.0000 0.0000 -0.2773 0.0000 8.1203
#
#
#
# Elastic Compliance Matrix: (Units=1/GPa)
#
#
# Indices 1 2 3 4 5 6 
#
# 1 0.005941 -0.001325 -0.004327 0.000000 -0.001010 0.000000
# 2 -0.001325 0.015543 0.000394 0.000000 -0.001030 0.000000
# 3 -0.004327 0.000394 0.017104 0.000000 0.005046 0.000000
# 4 0.000000 0.000000 0.000000 0.124439 0.000000 0.004250
# 5 -0.001010 -0.001030 0.005046 0.000000 0.032185 0.000000
# 6 0.000000 0.000000 0.000000 0.004250 0.000000 0.123293
#
#
# Mechanical properties :
#
#
# Convention : Reuss Voigt Hill
#
# Bulk Modulus (GPa) = 35.62107 54.97235 45.29671
# Shear Modulus (GPa) = 14.77640 28.40345 21.58993
#
# Velocity S-wave (km/s) = 2.61199 3.62137 3.15728
# Velocity P-wave (km/s) = 5.05405 6.54732 5.84854
#
# Compressibility (1/GPa) = 0.02807327
#
# Stress axis : x y z
#
# Youngs Moduli (GPa) = 168.32602 64.33887 58.46557
#
# Poissons Ratio (x) = 0.08522 0.25297
# Poissons Ratio (y) = 0.22296 -0.02304
# Poissons Ratio (z) = 0.72831 -0.02536
#
# Static dielectric constant tensor:
#      x y z
#    x 1.827570 0.000000 0.007770 
#    y 0.000000 1.870430 0.000000 
#    z 0.007770 0.000000 1.756470 
# 
# From -- ./inp_files/281198.got.cif
#   From: 2010.05.17/outbox.cif.g08.bks.cpg/sg12_141_cif.got.tgz:281198.got - 2010.06.03 13:09:07.
