data_PCOD9197896
_publ_section_title
;
Structure prediction by ZEFSAII (Michael W. Deem and Ramdas Pophale) SiO2 
 PCOD9197896
Probable space group: C 2/M
;
_chemical_formula_sum "Si O2"
_cell_formula_units_Z 64
_cell_length_a 28.014530
_cell_length_b 13.762745
_cell_length_c 9.287948
_cell_angle_alpha 90.000000
_cell_angle_beta 100.296036
_cell_angle_gamma 90.000000
_cell_volume 3523.367912
_symmetry_space_group_name_H-M "C 2/M"
_symmetry_group_IT_number 12
_symmetry_cell_setting 'monoclinic'
loop_
_space_group_symop_operation_xyz
x,y,z
-x,y,-z
-x,-y,-z
x,-y,z
1/2+x,1/2+y,z
1/2-x,1/2+y,-z
1/2-x,1/2-y,-z
1/2+x,1/2-y,z
loop_
_atom_site_type_symbol
_atom_site_label
_atom_site_fract_x
_atom_site_fract_y
_atom_site_fract_z
Si Si1 0.376907 0.111743 0.669992
Si Si2 0.554072 0.112385 0.568877
Si Si3 0.869384 0.817095 0.773771
Si Si4 0.835751 0.117835 0.441594
Si Si5 0.947459 0.888147 0.022430
Si Si6 0.300733 0.768308 0.949477
Si Si7 0.772948 0.613797 0.663892
Si Si8 0.113153 0.237868 0.786231
O O1 0.413056 0.115297 0.556451
O O2 0.387446 0.204034 0.777343
O O3 0.320790 0.132660 0.594005
O O4 0.378348 0.000000 0.728669
O O5 0.500000 0.147109 0.500000
O O6 0.581355 0.177500 0.699205
O O7 0.550074 0.000000 0.614008
O O8 0.856979 0.852392 0.607833
O O9 0.822031 0.814408 0.852152
O O10 0.910736 0.880313 0.868754
O O11 0.779538 0.153943 0.404921
O O12 0.864034 0.171041 0.327633
O O13 0.838389 0.000000 0.427185
O O14 0.922026 0.826029 0.132657
O O15 0.952729 0.000000 0.071236
O O16 0.000000 0.851920 0.000000
O O17 0.289634 0.854751 0.832098
O O18 0.250000 0.750000 0.000000
O O19 0.342884 0.778335 0.090944
O O20 0.765769 0.500000 0.656818
#
# Coordination Sequence:
#
# PCOD9197896 Si02
#       8
#     8   8   8   8   8   8   8   8
#     4   9  18  35  58  83 112 148 188 235 293 343
#     4  10  22  39  60  87 119 150 192 252 306 346
#     4  10  21  36  58  85 113 152 192 240 287 342
#     4  11  21  35  57  88 118 149 193 240 288 347
#     4  10  23  42  60  81 116 157 194 237 291 346
#     4  10  20  36  54  82 117 155 191 228 285 350
#     4   9  19  34  55  81 115 152 188 234 286 344
#     4  11  22  37  62  87 116 155 196 241 294 355
#
# _framework density 18.164439000000002
#
# number of rings (size 3 to 8) (size 9 to 14) (size 15 to 20)
#    0.000    2.000    2.500    0.750    1.750    3.500 
#    0.000    2.500    0.000    3.750    0.000    0.000 
#    0.000    0.000    0.000    0.000    0.000    0.000 
#
# Total GULP energy -178255.269483 kJ/mol
# GULP energy per Si atom -5570.477171 kJ/mol
# Density = 1.812310 g / cm^3
# Si number density = 18.164439 Si / 1000 Ang^3
#
#
#
# Elastic Constant Matrix: (Units=GPa)
#
#
# Indices 1 2 3 4 5 6 
#
# 1 153.3157 26.2030 57.5804 0.0000 -6.2419 0.0000
# 2 26.2030 48.9878 11.7024 0.0000 5.4661 0.0000
# 3 57.5804 11.7024 88.8610 0.0000 0.8387 0.0000
# 4 0.0000 0.0000 0.0000 23.5836 0.0000 4.9806
# 5 -6.2419 5.4661 0.8387 0.0000 19.6797 0.0000
# 6 0.0000 0.0000 0.0000 4.9806 0.0000 17.3331
#
#
#
# Elastic Compliance Matrix: (Units=1/GPa)
#
#
# Indices 1 2 3 4 5 6 
#
# 1 0.009564 -0.004257 -0.005679 0.000000 0.004458 0.000000
# 2 -0.004257 0.023639 -0.000280 0.000000 -0.007904 0.000000
# 3 -0.005679 -0.000280 0.014993 0.000000 -0.002362 0.000000
# 4 0.000000 0.000000 0.000000 0.045142 0.000000 -0.012971
# 5 0.004458 -0.007904 -0.002362 0.000000 0.054524 0.000000
# 6 0.000000 0.000000 0.000000 -0.012971 0.000000 0.061420
#
#
# Mechanical properties :
#
#
# Convention : Reuss Voigt Hill
#
# Bulk Modulus (GPa) = 36.01777 53.57069 44.79423
# Shear Modulus (GPa) = 20.92329 25.16453 23.04391
#
# Velocity S-wave (km/s) = 3.39762 3.72610 3.56564
# Velocity P-wave (km/s) = 5.93831 6.93310 6.45490
#
# Compressibility (1/GPa) = 0.02776407
#
# Stress axis : x y z
#
# Youngs Moduli (GPa) = 104.55501 42.30306 66.69928
#
# Poissons Ratio (x) = 0.18007 0.37879
# Poissons Ratio (y) = 0.44505 0.01869
# Poissons Ratio (z) = 0.59377 0.01186
#
# Static dielectric constant tensor:
#      x y z
#    x 1.658420 0.000000 -0.021350 
#    y 0.000000 1.640450 0.000000 
#    z -0.021350 0.000000 1.615020 
# 
# From -- ./inp_files/104607.got.cif
#   From: 2010.05.17/outbox.cif.g08.bks.cpg/sg12_53_cif.got.tgz:104607.got - 2010.06.03 13:09:07.
