data_PCOD9197247
_publ_section_title
;
Structure prediction by ZEFSAII (Michael W. Deem and Ramdas Pophale) SiO2 
 PCOD9197247
Probable space group: C 2/M
;
_chemical_formula_sum "Si O2"
_cell_formula_units_Z 52
_cell_length_a 9.744119
_cell_length_b 19.594400
_cell_length_c 29.931139
_cell_angle_alpha 90.000000
_cell_angle_beta 27.847975
_cell_angle_gamma 90.000000
_cell_volume 2669.518331
_symmetry_space_group_name_H-M "C 2/M"
_symmetry_group_IT_number 12
_symmetry_cell_setting 'monoclinic'
loop_
_space_group_symop_operation_xyz
x,y,z
-x,y,-z
-x,-y,-z
x,-y,z
1/2+x,1/2+y,z
1/2-x,1/2+y,-z
1/2-x,1/2-y,-z
1/2+x,1/2-y,z
loop_
_atom_site_type_symbol
_atom_site_label
_atom_site_fract_x
_atom_site_fract_y
_atom_site_fract_z
Si Si1 0.651621 0.000000 0.027406
Si Si2 0.832288 0.203693 0.834634
Si Si3 0.815695 0.251525 0.429249
Si Si4 0.635029 0.865486 0.282031
Si Si5 0.000000 0.761069 0.000000
Si Si6 0.988908 0.000000 0.836231
Si Si7 0.634636 0.843635 0.732012
Si Si8 0.512720 0.123763 0.130761
O O1 0.659543 0.065274 0.058316
O O2 0.325488 0.000000 0.098744
O O3 0.888105 0.000000 0.918308
O O4 0.535852 0.212545 0.947402
O O5 0.779477 0.149686 0.810887
O O6 0.078148 0.183753 0.800135
O O7 0.921458 0.277313 0.791091
O O8 0.500000 0.238448 0.500000
O O9 0.750000 0.250000 0.500000
O O10 0.944680 0.324044 0.373975
O O11 0.049673 0.191663 0.352040
O O12 0.428810 0.874467 0.298138
O O13 0.808742 0.936382 0.236252
O O14 0.273023 0.811292 0.927679
O O15 0.558460 0.890318 0.796647
#
# Coordination Sequence:
#
# PCOD9197247 Si02
#       8
#     4   8   8   8   4   4   8   8
#     4  11  26  42  61  87 120 190 232 254 291 371
#     4  10  20  35  59  83 120 160 207 260 320 374
#     4  11  22  40  71 102 129 156 199 266 330 399
#     4  11  23  41  63  91 127 165 209 255 321 381
#     4  10  22  31  56  85 118 158 200 282 320 356
#     4  11  26  43  65  84 130 180 222 263 299 366
#     4  10  22  38  60  98 127 157 196 266 335 364
#     4  11  23  38  56  86 125 166 219 259 308 372
#
# _framework density 19.47917
#
# number of rings (size 3 to 8) (size 9 to 14) (size 15 to 20)
#    0.000    1.385    3.077    3.231    8.615    0.923 
#    0.000    0.385    0.000    0.000    0.000    2.692 
#    0.000    0.000    0.000    0.000    0.000    0.000 
#
# Total GULP energy -144735.885641 kJ/mol
# GULP energy per Si atom -5566.764832 kJ/mol
# Density = 1.943483 g / cm^3
# Si number density = 19.479170 Si / 1000 Ang^3
#
#
#
# Elastic Constant Matrix: (Units=GPa)
#
#
# Indices 1 2 3 4 5 6 
#
# 1 126.1285 26.1380 40.2547 -0.0256 7.6178 0.0267
# 2 26.1380 44.2366 3.8085 0.0823 7.0031 -0.0290
# 3 40.2547 3.8085 67.2078 0.0621 4.7781 -0.0356
# 4 -0.0256 0.0823 0.0621 16.2201 -0.0770 0.4682
# 5 7.6178 7.0031 4.7781 -0.0770 30.0043 -0.0030
# 6 0.0267 -0.0290 -0.0356 0.4682 -0.0030 25.9006
#
#
#
# Elastic Compliance Matrix: (Units=1/GPa)
#
#
# Indices 1 2 3 4 5 6 
#
# 1 0.011230 -0.006020 -0.006355 0.000071 -0.000434 -0.000028
# 2 -0.006020 0.026761 0.002453 -0.000180 -0.005109 0.000042
# 3 -0.006355 0.002453 0.018684 -0.000104 -0.001935 0.000037
# 4 0.000071 -0.000180 -0.000104 0.061687 0.000199 -0.001116
# 5 -0.000434 -0.005109 -0.001935 0.000199 0.034940 -0.000008
# 6 -0.000028 0.000042 0.000037 -0.001116 -0.000008 0.038629
#
#
# Mechanical properties :
#
#
# Convention : Reuss Voigt Hill
#
# Bulk Modulus (GPa) = 27.15090 41.99727 34.57408
# Shear Modulus (GPa) = 22.31628 25.58311 23.94970
#
# Velocity S-wave (km/s) = 3.38842 3.62796 3.51023
# Velocity P-wave (km/s) = 5.41084 6.25750 5.84951
#
# Compressibility (1/GPa) = 0.03683119
#
# Stress axis : x y z
#
# Youngs Moduli (GPa) = 89.04485 37.36823 53.52167
#
# Poissons Ratio (x) = 0.22496 0.34011
# Poissons Ratio (y) = 0.53605 -0.13127
# Poissons Ratio (z) = 0.56584 -0.09165
#
# Static dielectric constant tensor:
#      x y z
#    x 1.780310 0.000060 0.020500 
#    y 0.000060 1.718440 -0.000060 
#    z 0.020500 -0.000060 1.713390 
# 
# From -- ./inp_files/373107.got.cif
#   From: 2010.05.17/outbox.cif.g08.bks.cpg/sg12_187_cif.got.tgz:373107.got - 2010.06.03 13:09:07.
