data_PCOD9197980
_publ_section_title
;
Structure prediction by ZEFSAII (Michael W. Deem and Ramdas Pophale) SiO2 
 PCOD9197980
Probable space group: C 2/M
;
_chemical_formula_sum "Si O2"
_cell_formula_units_Z 48
_cell_length_a 16.985242
_cell_length_b 13.020799
_cell_length_c 13.185765
_cell_angle_alpha 90.000000
_cell_angle_beta 110.204965
_cell_angle_gamma 90.000000
_cell_volume 2736.729697
_symmetry_space_group_name_H-M "C 2/M"
_symmetry_group_IT_number 12
_symmetry_cell_setting 'monoclinic'
loop_
_space_group_symop_operation_xyz
x,y,z
-x,y,-z
-x,-y,-z
x,-y,z
1/2+x,1/2+y,z
1/2-x,1/2+y,-z
1/2-x,1/2-y,-z
1/2+x,1/2-y,z
loop_
_atom_site_type_symbol
_atom_site_label
_atom_site_fract_x
_atom_site_fract_y
_atom_site_fract_z
Si Si1 0.906212 0.710975 0.465122
Si Si2 0.184018 0.725548 0.884133
Si Si3 0.412445 0.271863 0.697003
Si Si4 0.013895 0.622328 0.886595
Si Si5 0.419219 0.378460 0.295391
Si Si6 0.250800 0.619363 0.716720
O O1 0.889572 0.731875 0.575050
O O2 0.910887 0.814369 0.397157
O O3 0.832447 0.643926 0.385365
O O4 0.000000 0.664482 0.500000
O O5 0.147704 0.826614 0.810896
O O6 0.228874 0.657895 0.818880
O O7 0.104636 0.664315 0.893466
O O8 0.250000 0.750000 0.000000
O O9 0.448470 0.183280 0.786465
O O10 0.489426 0.350717 0.710377
O O11 0.331011 0.321468 0.709768
O O12 0.008032 0.500000 0.868273
O O13 0.000000 0.643386 0.000000
O O14 0.408831 0.500000 0.303691
O O15 0.268772 0.500000 0.723230
#
# Coordination Sequence:
#
# PCOD9197980 Si02
#       6
#     8   8   8   8   8   8
#     4   9  20  36  54  78 109 142 178 219 260 314
#     4  10  21  37  55  79 111 140 176 223 266 319
#     4  10  20  36  55  80 111 140 177 221 265 316
#     4  10  21  38  59  79 104 142 183 223 267 315
#     4   9  19  35  56  80 106 142 182 219 261 309
#     4  11  22  35  54  80 109 140 174 218 271 320
#
# _framework density 17.539183000000001
#
# number of rings (size 3 to 8) (size 9 to 14) (size 15 to 20)
#    0.000    2.167    0.000    3.500    0.000    6.000 
#    0.000    5.000    0.000    5.500    0.000    0.000 
#    0.000    0.000    0.000    0.000    0.000    0.000 
#
# Total GULP energy -133939.306726 kJ/mol
# GULP energy per Si atom -5580.804447 kJ/mol
# Density = 1.749926 g / cm^3
# Si number density = 17.539183 Si / 1000 Ang^3
#
#
#
# Elastic Constant Matrix: (Units=GPa)
#
#
# Indices 1 2 3 4 5 6 
#
# 1 126.5726 44.7765 77.1129 0.0000 -11.3140 0.0000
# 2 44.7765 68.4351 54.2871 0.0000 -4.3313 0.0000
# 3 77.1129 54.2871 165.5807 0.0000 1.6830 0.0000
# 4 0.0000 0.0000 0.0000 9.4376 0.0000 -1.9262
# 5 -11.3140 -4.3313 1.6830 0.0000 37.2409 0.0000
# 6 0.0000 0.0000 0.0000 -1.9262 0.0000 14.5679
#
#
#
# Elastic Compliance Matrix: (Units=1/GPa)
#
#
# Indices 1 2 3 4 5 6 
#
# 1 0.012451 -0.004460 -0.004372 0.000000 0.003462 0.000000
# 2 -0.004460 0.021599 -0.005019 0.000000 0.001384 0.000000
# 3 -0.004372 -0.005019 0.009745 0.000000 -0.002352 0.000000
# 4 0.000000 0.000000 0.000000 0.108898 0.000000 0.014398
# 5 0.003462 0.001384 -0.002352 0.000000 0.028171 0.000000
# 6 0.000000 0.000000 0.000000 0.014398 0.000000 0.070548
#
#
# Mechanical properties :
#
#
# Convention : Reuss Voigt Hill
#
# Bulk Modulus (GPa) = 62.13174 79.21571 70.67372
# Shear Modulus (GPa) = 17.57619 24.54340 21.05979
#
# Velocity S-wave (km/s) = 3.16905 3.74484 3.46891
# Velocity P-wave (km/s) = 6.99227 7.99759 7.51177
#
# Compressibility (1/GPa) = 0.01609483
#
# Stress axis : x y z
#
# Youngs Moduli (GPa) = 80.31439 46.29856 102.62129
#
# Poissons Ratio (x) = 0.20648 0.44863
# Poissons Ratio (y) = 0.35818 0.51501
# Poissons Ratio (z) = 0.35111 0.23235
#
# Static dielectric constant tensor:
#      x y z
#    x 1.583410 0.000000 0.002250 
#    y 0.000000 1.565840 0.000000 
#    z 0.002250 0.000000 1.585470 
# 
# From -- ./inp_files/154178.got.cif
#   From: 2010.05.17/outbox.cif.g08.bks.cpg/sg12_78_cif.got.tgz:154178.got - 2010.06.03 13:09:07.
