data_PCOD9197715
_publ_section_title
;
Structure prediction by ZEFSAII (Michael W. Deem and Ramdas Pophale) SiO2 
 PCOD9197715
Probable space group: C 2/M
;
_chemical_formula_sum "Si O2"
_cell_formula_units_Z 46
_cell_length_a 15.380291
_cell_length_b 10.754936
_cell_length_c 15.822780
_cell_angle_alpha 90.000000
_cell_angle_beta 107.533026
_cell_angle_gamma 90.000000
_cell_volume 2495.718884
_symmetry_space_group_name_H-M "C 2/M"
_symmetry_group_IT_number 12
_symmetry_cell_setting 'monoclinic'
loop_
_space_group_symop_operation_xyz
x,y,z
-x,y,-z
-x,-y,-z
x,-y,z
1/2+x,1/2+y,z
1/2-x,1/2+y,-z
1/2-x,1/2-y,-z
1/2+x,1/2-y,z
loop_
_atom_site_type_symbol
_atom_site_label
_atom_site_fract_x
_atom_site_fract_y
_atom_site_fract_z
Si Si1 0.601479 0.738380 0.294938
Si Si2 0.303358 0.000000 0.106887
Si Si3 0.386846 0.747508 0.194848
Si Si4 0.784855 0.143709 0.323030
Si Si5 0.139857 0.000000 0.194321
Si Si6 0.000000 0.000000 0.000000
Si Si7 0.335029 0.500000 0.075661
Si Si8 0.095750 0.148526 0.482484
O O1 0.495557 0.753965 0.240105
O O2 0.675902 0.841399 0.291322
O O3 0.636182 0.618545 0.253893
O O4 0.605394 0.716192 0.396412
O O5 0.357561 0.127392 0.138574
O O6 0.226750 0.000000 0.158386
O O7 0.262515 0.000000 0.999964
O O8 0.334891 0.729675 0.268897
O O9 0.355477 0.624840 0.134084
O O10 0.824751 0.175149 0.427047
O O11 0.810590 0.000000 0.313054
O O12 0.050485 0.000000 0.109348
O O13 0.902373 0.000000 0.016520
O O14 0.000000 0.179315 0.500000
O O15 0.094627 0.000000 0.465401
#
# Coordination Sequence:
#
# PCOD9197715 Si02
#       8
#     8   4   8   8   4   2   4   8
#     4  12  22  39  64  90 127 165 212 257 320 371
#     4  11  26  43  61  96 133 162 204 267 325 375
#     4  12  23  42  69  93 129 166 212 259 319 376
#     4  11  24  40  61  93 128 168 209 260 319 376
#     4  11  21  38  62  90 113 168 210 261 296 384
#     4  10  20  36  60  96 116 144 220 260 304 348
#     4  11  23  42  70  93 123 168 215 262 311 377
#     4  10  20  35  62  92 122 163 218 265 301 369
#
# _framework density 18.431563000000001
#
# number of rings (size 3 to 8) (size 9 to 14) (size 15 to 20)
#    0.000    0.870    6.957    1.043    1.217    0.000 
#    0.000    0.000    0.000    3.130    0.000    0.000 
#    0.000    0.000    0.000    0.000    0.000    0.000 
#
# Total GULP energy -128089.526714 kJ/mol
# GULP energy per Si atom -5569.109857 kJ/mol
# Density = 1.838961 g / cm^3
# Si number density = 18.431563 Si / 1000 Ang^3
#
#
#
# Elastic Constant Matrix: (Units=GPa)
#
#
# Indices 1 2 3 4 5 6 
#
# 1 92.0542 17.0137 30.1977 0.0000 16.9821 0.0000
# 2 17.0137 80.8006 42.4111 0.0000 19.4317 0.0000
# 3 30.1977 42.4111 106.2629 0.0000 15.1364 0.0000
# 4 0.0000 0.0000 0.0000 19.1411 0.0000 0.5032
# 5 16.9821 19.4317 15.1364 0.0000 32.2548 0.0000
# 6 0.0000 0.0000 0.0000 0.5032 0.0000 20.1572
#
#
#
# Elastic Compliance Matrix: (Units=1/GPa)
#
#
# Indices 1 2 3 4 5 6 
#
# 1 0.012800 0.000150 -0.002920 0.000000 -0.005460 0.000000
# 2 0.000150 0.017268 -0.005831 0.000000 -0.007746 0.000000
# 3 -0.002920 -0.005831 0.012697 0.000000 -0.000908 0.000000
# 4 0.000000 0.000000 0.000000 0.052278 0.000000 -0.001305
# 5 -0.005460 -0.007746 -0.000908 0.000000 0.038970 0.000000
# 6 0.000000 0.000000 0.000000 -0.001305 0.000000 0.049643
#
#
# Mechanical properties :
#
#
# Convention : Reuss Voigt Hill
#
# Bulk Modulus (GPa) = 39.11789 50.92919 45.02354
# Shear Modulus (GPa) = 23.88011 26.94364 25.41187
#
# Velocity S-wave (km/s) = 3.60336 3.82752 3.71713
# Velocity P-wave (km/s) = 6.21142 6.87203 6.55005
#
# Compressibility (1/GPa) = 0.02556375
#
# Stress axis : x y z
#
# Youngs Moduli (GPa) = 78.12225 57.91052 78.75803
#
# Poissons Ratio (x) = -0.00870 0.22997
# Poissons Ratio (y) = -0.01174 0.45926
# Poissons Ratio (z) = 0.22811 0.33769
#
# Static dielectric constant tensor:
#      x y z
#    x 1.620230 0.000000 0.017270 
#    y 0.000000 1.628210 0.000000 
#    z 0.017270 0.000000 1.641780 
# 
# From -- ./inp_files/213562.got.cif
#   From: 2010.05.17/outbox.cif.g08.bks.cpg/sg12_107_cif.got.tgz:213562.got - 2010.06.03 13:09:07.
