data_PCOD9197258
_publ_section_title
;
Structure prediction by ZEFSAII (Michael W. Deem and Ramdas Pophale) SiO2 
 PCOD9197258
Probable space group: C 2/M
;
_chemical_formula_sum "Si O2"
_cell_formula_units_Z 50
_cell_length_a 30.482503
_cell_length_b 8.755282
_cell_length_c 12.912782
_cell_angle_alpha 90.000000
_cell_angle_beta 126.861893
_cell_angle_gamma 90.000000
_cell_volume 2757.249516
_symmetry_space_group_name_H-M "C 2/M"
_symmetry_group_IT_number 12
_symmetry_cell_setting 'monoclinic'
loop_
_space_group_symop_operation_xyz
x,y,z
-x,y,-z
-x,-y,-z
x,-y,z
1/2+x,1/2+y,z
1/2-x,1/2+y,-z
1/2-x,1/2-y,-z
1/2+x,1/2-y,z
loop_
_atom_site_type_symbol
_atom_site_label
_atom_site_fract_x
_atom_site_fract_y
_atom_site_fract_z
Si Si1 0.894484 0.333053 0.267223
Si Si2 0.119933 0.815136 0.165127
Si Si3 0.434660 0.686030 0.694378
Si Si4 0.238502 0.683443 0.369818
Si Si5 0.500000 0.000000 0.500000
Si Si6 0.940104 0.183950 0.130875
Si Si7 0.846719 0.816008 0.398605
O O1 0.870022 0.500000 0.209275
O O2 0.904601 0.243332 0.176012
O O3 0.858954 0.248965 0.303232
O O4 0.954216 0.369586 0.401276
O O5 0.089841 0.769011 0.229052
O O6 0.180326 0.745353 0.249430
O O7 0.124087 0.000000 0.172250
O O8 0.085209 0.769982 0.015259
O O9 0.435207 0.500000 0.693505
O O10 0.497044 0.739626 0.769941
O O11 0.394368 0.737158 0.545721
O O12 0.237703 0.500000 0.375168
O O13 0.250000 0.750000 0.500000
O O14 0.288466 0.728611 0.365196
O O15 0.941342 0.000000 0.134821
O O16 0.848768 0.000000 0.398211
#
# Coordination Sequence:
#
# PCOD9197258 Si02
#       7
#     8   8   8   8   2   8   8
#     4  10  21  36  54  80 117 150 184 232 287 333
#     4  10  20  37  58  85 118 149 192 236 284 339
#     4   9  17  32  56  85 114 147 186 232 281 335
#     4  11  22  38  59  85 114 148 191 240 287 333
#     4   8  20  36  54  80 118 156 178 232 286 336
#     4  10  20  35  59  84 114 156 193 229 277 349
#     4  10  20  36  60  84 110 146 195 239 275 337
#
# _framework density 18.134014000000001
#
# number of rings (size 3 to 8) (size 9 to 14) (size 15 to 20)
#    0.480    1.600    1.600    2.400    0.000    3.840 
#    0.000    4.800    0.000    1.920    0.000    0.000 
#    0.000    0.000    0.000    0.000    0.000    0.000 
#
# Total GULP energy -139196.335796 kJ/mol
# GULP energy per Si atom -5567.853432 kJ/mol
# Density = 1.809274 g / cm^3
# Si number density = 18.134014 Si / 1000 Ang^3
#
#
#
# Elastic Constant Matrix: (Units=GPa)
#
#
# Indices 1 2 3 4 5 6 
#
# 1 146.3109 29.1774 74.6382 0.0000 -15.5063 0.0000
# 2 29.1774 14.7126 17.3717 0.0000 -2.5902 0.0000
# 3 74.6382 17.3717 64.0322 0.0000 -14.2852 0.0000
# 4 0.0000 0.0000 0.0000 21.1934 0.0000 4.7177
# 5 -15.5063 -2.5902 -14.2852 0.0000 28.8194 0.0000
# 6 0.0000 0.0000 0.0000 4.7177 0.0000 24.4706
#
#
#
# Elastic Compliance Matrix: (Units=1/GPa)
#
#
# Indices 1 2 3 4 5 6 
#
# 1 0.019479 -0.017392 -0.017986 0.000000 0.000002 0.000000
# 2 -0.017392 0.116180 -0.012373 0.000000 -0.005049 0.000000
# 3 -0.017986 -0.012373 0.042199 0.000000 0.010127 0.000000
# 4 0.000000 0.000000 0.000000 0.049300 0.000000 -0.009505
# 5 0.000002 -0.005049 0.010127 0.000000 0.039266 0.000000
# 6 0.000000 0.000000 0.000000 -0.009505 0.000000 0.042698
#
#
# Mechanical properties :
#
#
# Convention : Reuss Voigt Hill
#
# Bulk Modulus (GPa) = 12.14247 51.93668 32.03958
# Shear Modulus (GPa) = 11.57205 21.82125 16.69665
#
# Velocity S-wave (km/s) = 2.52888 3.47267 3.03766
# Velocity P-wave (km/s) = 3.90353 6.69193 5.47811
#
# Compressibility (1/GPa) = 0.08235553
#
# Stress axis : x y z
#
# Youngs Moduli (GPa) = 51.33816 8.60730 23.69750
#
# Poissons Ratio (x) = 0.14970 0.42623
# Poissons Ratio (y) = 0.89288 0.29321
# Poissons Ratio (z) = 0.92338 0.10650
#
# Static dielectric constant tensor:
#      x y z
#    x 1.604440 0.000000 0.003450 
#    y 0.000000 1.627360 0.000000 
#    z 0.003450 0.000000 1.602910 
# 
# From -- ./inp_files/186898.got.cif
#   From: 2010.05.17/outbox.cif.g08.bks.cpg/sg12_94_cif.got.tgz:186898.got - 2010.06.03 13:09:07.
