data_PCOD9197139
_publ_section_title
;
Structure prediction by ZEFSAII (Michael W. Deem and Ramdas Pophale) SiO2 
 PCOD9197139
Probable space group: C 2/M
;
_chemical_formula_sum "Si O2"
_cell_formula_units_Z 64
_cell_length_a 17.012005
_cell_length_b 16.562644
_cell_length_c 24.481007
_cell_angle_alpha 90.000000
_cell_angle_beta 150.122760
_cell_angle_gamma 90.000000
_cell_volume 3436.123563
_symmetry_space_group_name_H-M "C 2/M"
_symmetry_group_IT_number 12
_symmetry_cell_setting 'monoclinic'
loop_
_space_group_symop_operation_xyz
x,y,z
-x,y,-z
-x,-y,-z
x,-y,z
1/2+x,1/2+y,z
1/2-x,1/2+y,-z
1/2-x,1/2-y,-z
1/2+x,1/2-y,z
loop_
_atom_site_type_symbol
_atom_site_label
_atom_site_fract_x
_atom_site_fract_y
_atom_site_fract_z
Si Si1 0.631832 0.593542 0.728190
Si Si2 0.063413 0.175608 0.304815
Si Si3 0.434534 0.237997 0.120782
Si Si4 0.059777 0.672937 0.702539
Si Si5 0.043229 0.406754 0.255448
Si Si6 0.621692 0.232112 0.123168
Si Si7 0.909392 0.402219 0.503165
Si Si8 0.401916 0.597881 0.492484
O O1 0.664886 0.500000 0.738367
O O2 0.552289 0.609088 0.738675
O O3 0.786618 0.647194 0.815136
O O4 0.497396 0.620993 0.603835
O O5 0.237192 0.139564 0.401741
O O6 0.996518 0.205677 0.206938
O O7 0.042944 0.251816 0.334469
O O8 0.470443 0.148248 0.164732
O O9 0.529712 0.252360 0.122842
O O10 0.250000 0.250000 0.000000
O O11 0.236426 0.705937 0.802861
O O12 0.049718 0.606695 0.744225
O O13 0.999571 0.636960 0.609259
O O14 0.049353 0.500000 0.243598
O O15 0.221628 0.377691 0.376688
O O16 0.500000 0.229258 0.000000
O O17 0.896034 0.500000 0.501750
O O18 0.000000 0.387351 0.500000
O O19 0.500000 0.627878 0.500000
O O20 0.400686 0.500000 0.491262
#
# Coordination Sequence:
#
# PCOD9197139 Si02
#       8
#     8   8   8   8   8   8   8   8
#     4  10  20  35  58  88 119 148 181 227 284 341
#     4  10  21  38  58  82 115 152 188 226 280 340
#     4  11  23  41  61  82 112 149 190 234 280 335
#     4  10  21  38  59  82 113 150 191 231 278 333
#     4  10  20  36  61  88 113 146 190 238 280 323
#     4  11  23  40  60  81 110 150 191 233 279 333
#     4  11  22  36  57  86 118 150 187 233 282 334
#     4   9  17  30  50  81 118 148 177 221 276 330
#
# _framework density 18.625640000000001
#
# number of rings (size 3 to 8) (size 9 to 14) (size 15 to 20)
#    0.000    1.750    0.000    5.625    0.000    5.750 
#    0.000    8.750    0.000    8.250    0.000    0.000 
#    0.000    0.000    0.000    0.000    0.000    0.000 
#
# Total GULP energy -178658.104696 kJ/mol
# GULP energy per Si atom -5583.065772 kJ/mol
# Density = 1.858325 g / cm^3
# Si number density = 18.625640 Si / 1000 Ang^3
#
#
#
# Elastic Constant Matrix: (Units=GPa)
#
#
# Indices 1 2 3 4 5 6 
#
# 1 141.2256 40.0444 70.9803 -0.0004 6.7764 0.0002
# 2 40.0444 60.0546 74.2584 0.0009 -0.3515 0.0003
# 3 70.9803 74.2584 154.8160 0.0002 5.6915 0.0011
# 4 -0.0004 0.0009 0.0002 18.8775 0.0000 -12.9417
# 5 6.7764 -0.3515 5.6915 0.0000 37.9753 0.0003
# 6 0.0002 0.0003 0.0011 -12.9417 0.0003 30.6054
#
#
#
# Elastic Compliance Matrix: (Units=1/GPa)
#
#
# Indices 1 2 3 4 5 6 
#
# 1 0.009384 -0.002459 -0.003077 0.000001 -0.001236 0.000000
# 2 -0.002459 0.041993 -0.019151 -0.000002 0.003698 -0.000001
# 3 -0.003077 -0.019151 0.017137 0.000001 -0.002196 0.000000
# 4 0.000001 -0.000002 0.000001 0.074599 0.000000 0.031544
# 5 -0.001236 0.003698 -0.002196 0.000000 0.026917 0.000000
# 6 0.000000 -0.000001 0.000000 0.031544 0.000000 0.046013
#
#
# Mechanical properties :
#
#
# Convention : Reuss Voigt Hill
#
# Bulk Modulus (GPa) = 52.24872 80.74026 66.49449
# Shear Modulus (GPa) = 18.39610 28.87919 23.63764
#
# Velocity S-wave (km/s) = 3.14614 3.94192 3.56630
# Velocity P-wave (km/s) = 6.42733 8.01008 7.26195
#
# Compressibility (1/GPa) = 0.01913923
#
# Stress axis : x y z
#
# Youngs Moduli (GPa) = 106.56154 23.81344 58.35438
#
# Poissons Ratio (x) = 0.05857 0.17958
# Poissons Ratio (y) = 0.26208 1.11752
# Poissons Ratio (z) = 0.32793 0.45604
#
# Static dielectric constant tensor:
#      x y z
#    x 1.648320 0.000000 -0.003330 
#    y 0.000000 1.663360 0.000000 
#    z -0.003330 0.000000 1.621370 
# 
# From -- ./inp_files/340841.got.cif
#   From: 2010.05.17/outbox.cif.g08.bks.cpg/sg12_171_cif.got.tgz:340841.got - 2010.06.03 13:09:07.
