data_PCOD9197927
_publ_section_title
;
Structure prediction by ZEFSAII (Michael W. Deem and Ramdas Pophale) SiO2 
 PCOD9197927
Probable space group: C 2/M
;
_chemical_formula_sum "Si O2"
_cell_formula_units_Z 56
_cell_length_a 19.528389
_cell_length_b 7.767835
_cell_length_c 19.540791
_cell_angle_alpha 90.000000
_cell_angle_beta 120.388891
_cell_angle_gamma 90.000000
_cell_volume 2556.959960
_symmetry_space_group_name_H-M "C 2/M"
_symmetry_group_IT_number 12
_symmetry_cell_setting 'monoclinic'
loop_
_space_group_symop_operation_xyz
x,y,z
-x,y,-z
-x,-y,-z
x,-y,z
1/2+x,1/2+y,z
1/2-x,1/2+y,-z
1/2-x,1/2-y,-z
1/2+x,1/2-y,z
loop_
_atom_site_type_symbol
_atom_site_label
_atom_site_fract_x
_atom_site_fract_y
_atom_site_fract_z
Si Si1 0.423535 0.289269 0.503627
Si Si2 0.324123 0.796794 0.084155
Si Si3 0.318681 0.209124 0.238064
Si Si4 0.006855 0.204296 0.675924
Si Si5 0.503076 0.707325 0.828410
Si Si6 0.250143 0.794635 0.580414
Si Si7 0.667792 0.297700 0.245309
O O1 0.500000 0.232553 0.500000
O O2 0.422909 0.500000 0.502128
O O3 0.441488 0.230489 0.590240
O O4 0.336643 0.232814 0.437217
O O5 0.314855 0.727626 0.157127
O O6 0.410267 0.745723 0.098038
O O7 0.325161 0.000000 0.091399
O O8 0.250000 0.750000 0.000000
O O9 0.404633 0.267186 0.308402
O O10 0.243361 0.274869 0.242804
O O11 0.318762 0.000000 0.239105
O O12 0.005315 0.276855 0.751450
O O13 0.994830 0.000000 0.675278
O O14 0.497729 0.500000 0.823454
O O15 0.419771 0.771744 0.816774
O O16 0.250000 0.750000 0.500000
O O17 0.315315 0.719538 0.664855
O O18 0.255133 0.000000 0.588837
O O19 0.666614 0.500000 0.228341
#
# Coordination Sequence:
#
# PCOD9197927 Si02
#       7
#     8   8   8   8   8   8   8
#     4   9  17  29  46  69  96 129 172 218 260 302
#     4  10  20  36  58  83 109 136 169 208 253 308
#     4   9  19  34  53  78 106 135 168 211 262 311
#     4   9  16  29  49  70  94 129 174 215 251 301
#     4   9  18  33  54  76 100 135 173 208 251 305
#     4  11  22  35  52  74 103 140 180 223 268 312
#     4  10  20  36  55  76 105 138 174 216 261 311
#
# _framework density 21.901008000000001
#
# number of rings (size 3 to 8) (size 9 to 14) (size 15 to 20)
#    0.000    2.429    0.000    2.571    0.000    5.143 
#    0.000    5.000    0.000    8.143    0.000    0.000 
#    0.000    0.000    0.000    0.000    0.000    0.000 
#
# Total GULP energy -156257.363114 kJ/mol
# GULP energy per Si atom -5580.620111 kJ/mol
# Density = 2.185116 g / cm^3
# Si number density = 21.901008 Si / 1000 Ang^3
#
#
#
# Elastic Constant Matrix: (Units=GPa)
#
#
# Indices 1 2 3 4 5 6 
#
# 1 98.3094 -3.8294 20.8055 0.0000 30.0744 0.0000
# 2 -3.8294 34.3844 -7.1655 0.0000 1.6545 0.0000
# 3 20.8055 -7.1655 79.2013 0.0000 33.6937 0.0000
# 4 0.0000 0.0000 0.0000 17.4084 0.0000 3.1135
# 5 30.0744 1.6545 33.6937 0.0000 38.4282 0.0000
# 6 0.0000 0.0000 0.0000 3.1135 0.0000 17.5644
#
#
#
# Elastic Compliance Matrix: (Units=1/GPa)
#
#
# Indices 1 2 3 4 5 6 
#
# 1 0.013695 0.002541 0.001975 0.000000 -0.012559 0.000000
# 2 0.002541 0.030942 0.005653 0.000000 -0.008278 0.000000
# 3 0.001975 0.005653 0.021340 0.000000 -0.020500 0.000000
# 4 0.000000 0.000000 0.000000 0.059324 0.000000 -0.010516
# 5 -0.012559 -0.008278 -0.020500 0.000000 0.054182 0.000000
# 6 0.000000 0.000000 0.000000 -0.010516 0.000000 0.058797
#
#
# Mechanical properties :
#
#
# Convention : Reuss Voigt Hill
#
# Bulk Modulus (GPa) = 11.58521 25.72400 18.65461
# Shear Modulus (GPa) = 20.26642 28.15250 24.20946
#
# Velocity S-wave (km/s) = 3.04528 3.58920 3.32837
# Velocity P-wave (km/s) = 4.20313 5.38029 4.82772
#
# Compressibility (1/GPa) = 0.08631695
#
# Stress axis : x y z
#
# Youngs Moduli (GPa) = 73.01941 32.31808 46.86105
#
# Poissons Ratio (x) = -0.08213 -0.09256
# Poissons Ratio (y) = -0.18556 -0.26493
# Poissons Ratio (z) = -0.14423 -0.18271
#
# Static dielectric constant tensor:
#      x y z
#    x 1.877540 0.000000 0.010410 
#    y 0.000000 1.804600 0.000000 
#    z 0.010410 0.000000 1.887750 
# 
# From -- ./inp_files/314396.got.cif
#   From: 2010.05.17/outbox.cif.g08.bks.cpg/sg12_158_cif.got.tgz:314396.got - 2010.06.03 13:09:07.
