data_PCOD9197527
_publ_section_title
;
Structure prediction by ZEFSAII (Michael W. Deem and Ramdas Pophale) SiO2 
 PCOD9197527
Probable space group: C 2/M
;
_chemical_formula_sum "Si O2"
_cell_formula_units_Z 52
_cell_length_a 19.654776
_cell_length_b 11.990330
_cell_length_c 20.429272
_cell_angle_alpha 90.000000
_cell_angle_beta 34.219723
_cell_angle_gamma 90.000000
_cell_volume 2707.526809
_symmetry_space_group_name_H-M "C 2/M"
_symmetry_group_IT_number 12
_symmetry_cell_setting 'monoclinic'
loop_
_space_group_symop_operation_xyz
x,y,z
-x,y,-z
-x,-y,-z
x,-y,z
1/2+x,1/2+y,z
1/2-x,1/2+y,-z
1/2-x,1/2-y,-z
1/2+x,1/2-y,z
loop_
_atom_site_type_symbol
_atom_site_label
_atom_site_fract_x
_atom_site_fract_y
_atom_site_fract_z
Si Si1 0.926796 0.130078 0.695944
Si Si2 0.425880 0.132632 0.865732
Si Si3 0.872101 0.780574 0.364300
Si Si4 0.730381 0.868969 0.355013
Si Si5 0.000000 0.768754 0.500000
Si Si6 0.270896 0.716582 0.078322
Si Si7 0.376653 0.373005 0.116890
O O1 0.815337 0.195338 0.816728
O O2 0.040820 0.160186 0.652187
O O3 0.947482 0.163004 0.603564
O O4 0.904691 0.000000 0.717573
O O5 0.545077 0.182081 0.734065
O O6 0.309801 0.152819 0.910935
O O7 0.438164 0.000000 0.870774
O O8 0.384905 0.216347 0.956997
O O9 0.750000 0.750000 0.500000
O O10 0.817960 0.851172 0.347034
O O11 0.603248 0.805482 0.453124
O O12 0.802118 0.823119 0.235016
O O13 0.705052 0.000000 0.367696
O O14 0.305237 0.629193 0.106532
O O15 0.403952 0.500000 0.116558
O O16 0.500000 0.313285 0.000000
#
# Coordination Sequence:
#
# PCOD9197527 Si02
#       7
#     8   8   8   8   4   8   8
#     4  11  23  40  64  88 122 168 206 248 309 366
#     4  10  22  38  62  91 121 161 206 255 308 362
#     4  11  23  42  61  90 125 161 205 256 302 369
#     4  11  23  40  63  91 122 157 202 256 311 362
#     4  12  22  42  60  92 126 156 210 256 302 364
#     4  10  20  39  61  87 124 155 205 260 300 368
#     4  10  20  35  60  88 117 155 195 248 310 360
#
# _framework density 19.205718999999998
#
# number of rings (size 3 to 8) (size 9 to 14) (size 15 to 20)
#    0.000    1.385    3.077    2.769    0.000    1.231 
#    0.000    4.615    0.000    1.846    0.000    0.000 
#    0.000    0.000    0.000    0.000    0.000    0.000 
#
# Total GULP energy -144836.780486 kJ/mol
# GULP energy per Si atom -5570.645403 kJ/mol
# Density = 1.916201 g / cm^3
# Si number density = 19.205719 Si / 1000 Ang^3
#
#
#
# Elastic Constant Matrix: (Units=GPa)
#
#
# Indices 1 2 3 4 5 6 
#
# 1 73.3992 -2.9941 -6.3921 0.0000 9.7072 0.0000
# 2 -2.9941 64.7867 13.2805 0.0000 -4.4240 0.0000
# 3 -6.3921 13.2805 88.7604 0.0000 0.1441 0.0000
# 4 0.0000 0.0000 0.0000 -34.9538 0.0000 -29.1503
# 5 9.7072 -4.4240 0.1441 0.0000 33.3255 0.0000
# 6 0.0000 0.0000 0.0000 -29.1503 0.0000 0.1139
#
#
#
# Elastic Compliance Matrix: (Units=1/GPa)
#
#
# Indices 1 2 3 4 5 6 
#
# 1 0.014266 0.000170 0.001009 0.000000 -0.004137 0.000000
# 2 0.000170 0.016077 -0.002397 0.000000 0.002095 0.000000
# 3 0.001009 -0.002397 0.011699 0.000000 -0.000663 0.000000
# 4 0.000000 0.000000 0.000000 -0.000133 0.000000 -0.034145
# 5 -0.004137 0.002095 -0.000663 0.000000 0.031493 0.000000
# 6 0.000000 0.000000 0.000000 -0.034145 0.000000 0.040943
#
#
# Mechanical properties :
#
#
# Convention : Reuss Voigt Hill
#
# Bulk Modulus (GPa) = 25.24864 26.08166 25.66515
# Shear Modulus (GPa) = 38.46667 14.56727 26.51697
#
# Velocity S-wave (km/s) = 4.48021 2.75705 3.71978
# Velocity P-wave (km/s) = 6.31965 4.87286 5.64281
#
# Compressibility (1/GPa) = 0.03960609
#
# Stress axis : x y z
#
# Youngs Moduli (GPa) = 70.09646 62.19876 85.48037
#
# Poissons Ratio (x) = -0.01058 -0.08622
# Poissons Ratio (y) = -0.01192 0.20487
# Poissons Ratio (z) = -0.07070 0.14907
#
# Static dielectric constant tensor:
#      x y z
#    x 1.757810 0.000000 -0.009860 
#    y 0.000000 1.646270 0.000000 
#    z -0.009860 0.000000 1.747420 
# 
# From -- ./inp_files/321518.got.cif
#   From: 2010.05.17/outbox.cif.g08.bks.cpg/sg12_161_cif.got.tgz:321518.got - 2010.06.03 13:09:07.
