data_PCOD9197938
_publ_section_title
;
Structure prediction by ZEFSAII (Michael W. Deem and Ramdas Pophale) SiO2 
 PCOD9197938
Probable space group: C 2/M
;
_chemical_formula_sum "Si O2"
_cell_formula_units_Z 56
_cell_length_a 14.907024
_cell_length_b 8.021283
_cell_length_c 24.040320
_cell_angle_alpha 90.000000
_cell_angle_beta 115.514121
_cell_angle_gamma 90.000000
_cell_volume 2594.252316
_symmetry_space_group_name_H-M "C 2/M"
_symmetry_group_IT_number 12
_symmetry_cell_setting 'monoclinic'
loop_
_space_group_symop_operation_xyz
x,y,z
-x,y,-z
-x,-y,-z
x,-y,z
1/2+x,1/2+y,z
1/2-x,1/2+y,-z
1/2-x,1/2-y,-z
1/2+x,1/2-y,z
loop_
_atom_site_type_symbol
_atom_site_label
_atom_site_fract_x
_atom_site_fract_y
_atom_site_fract_z
Si Si1 0.585212 0.295883 0.723271
Si Si2 0.161729 0.701172 0.049370
Si Si3 0.928488 0.195613 0.405554
Si Si4 0.112930 0.199100 0.920121
Si Si5 0.854968 0.693943 0.501833
Si Si6 0.705413 0.199088 0.179400
Si Si7 0.956895 0.201214 0.786403
O O1 0.584796 0.500000 0.721095
O O2 0.589953 0.237558 0.661338
O O3 0.681784 0.243304 0.784061
O O4 0.490914 0.243387 0.734626
O O5 0.156276 0.500000 0.047320
O O6 0.275290 0.755279 0.065345
O O7 0.148979 0.763104 0.109185
O O8 0.095322 0.758629 0.979985
O O9 0.866034 0.280166 0.438232
O O10 0.046741 0.214222 0.448658
O O11 0.903745 0.000000 0.400728
O O12 0.034379 0.263678 0.854317
O O13 0.113858 0.000000 0.915067
O O14 0.867757 0.500000 0.517716
O O15 0.750000 0.750000 0.500000
O O16 0.648820 0.241718 0.220398
O O17 0.709350 0.000000 0.174388
O O18 0.959506 0.000000 0.787768
#
# Coordination Sequence:
#
# PCOD9197938 Si02
#       7
#     8   8   8   8   8   8   8
#     4   9  19  38  60  79 111 152 185 220 271 331
#     4   9  17  31  52  73  98 134 176 223 276 333
#     4  10  20  37  62  91 119 154 193 232 282 335
#     4   9  17  31  52  73  98 134 176 223 276 333
#     4  11  22  39  62  90 124 157 190 233 276 326
#     4  10  20  36  55  77 105 142 183 225 276 331
#     4  10  20  36  55  77 105 142 183 225 276 331
#
# _framework density 21.586181
#
# number of rings (size 3 to 8) (size 9 to 14) (size 15 to 20)
#    0.000    2.286    1.429    2.571    0.000    2.857 
#    0.000    9.286    0.000    0.000    0.000    0.000 
#    0.000    0.000    0.000    0.000    0.000    0.000 
#
# Total GULP energy -156251.932483 kJ/mol
# GULP energy per Si atom -5580.426160 kJ/mol
# Density = 2.153705 g / cm^3
# Si number density = 21.586181 Si / 1000 Ang^3
#
#
#
# Elastic Constant Matrix: (Units=GPa)
#
#
# Indices 1 2 3 4 5 6 
#
# 1 95.1201 -8.5249 19.7607 0.0000 -26.2855 0.0000
# 2 -8.5249 13.8806 -5.4192 0.0000 1.2506 0.0000
# 3 19.7607 -5.4192 92.3395 0.0000 -30.1970 0.0000
# 4 0.0000 0.0000 0.0000 16.8196 0.0000 -7.5264
# 5 -26.2855 1.2506 -30.1970 0.0000 23.9999 0.0000
# 6 0.0000 0.0000 0.0000 -7.5264 0.0000 20.9267
#
#
#
# Elastic Compliance Matrix: (Units=1/GPa)
#
#
# Indices 1 2 3 4 5 6 
#
# 1 0.017173 0.010268 0.004933 0.000000 0.024481 0.000000
# 2 0.010268 0.079976 0.008174 0.000000 0.017363 0.000000
# 3 0.004933 0.008174 0.020188 0.000000 0.030378 0.000000
# 4 0.000000 0.000000 0.000000 0.070858 0.000000 0.025484
# 5 0.024481 0.017363 0.030378 0.000000 0.105796 0.000000
# 6 0.000000 0.000000 0.000000 0.025484 0.000000 0.056951
#
#
# Mechanical properties :
#
#
# Convention : Reuss Voigt Hill
#
# Bulk Modulus (GPa) = 6.09430 23.66371 14.87900
# Shear Modulus (GPa) = 13.93191 25.38414 19.65803
#
# Velocity S-wave (km/s) = 2.54325 3.43292 3.02102
# Velocity P-wave (km/s) = 3.38430 5.16716 4.36767
#
# Compressibility (1/GPa) = 0.16408771
#
# Stress axis : x y z
#
# Youngs Moduli (GPa) = 58.22943 12.50373 49.53500
#
# Poissons Ratio (x) = -0.12838 -0.24437
# Poissons Ratio (y) = -0.59787 -0.40492
# Poissons Ratio (z) = -0.28726 -0.10221
#
# Static dielectric constant tensor:
#      x y z
#    x 1.797100 0.000000 -0.011930 
#    y 0.000000 1.766230 0.000000 
#    z -0.011930 0.000000 1.811310 
# 
# From -- ./inp_files/338201.got.cif
#   From: 2010.05.17/outbox.cif.g08.bks.cpg/sg12_170_cif.got.tgz:338201.got - 2010.06.03 13:09:07.
