data_PCOD9197978
_publ_section_title
;
Structure prediction by ZEFSAII (Michael W. Deem and Ramdas Pophale) SiO2 
 PCOD9197978
Probable space group: C 2/M
;
_chemical_formula_sum "Si O2"
_cell_formula_units_Z 48
_cell_length_a 9.233265
_cell_length_b 11.674426
_cell_length_c 22.118189
_cell_angle_alpha 90.000000
_cell_angle_beta 112.828359
_cell_angle_gamma 90.000000
_cell_volume 2197.437012
_symmetry_space_group_name_H-M "C 2/M"
_symmetry_group_IT_number 12
_symmetry_cell_setting 'monoclinic'
loop_
_space_group_symop_operation_xyz
x,y,z
-x,y,-z
-x,-y,-z
x,-y,z
1/2+x,1/2+y,z
1/2-x,1/2+y,-z
1/2-x,1/2-y,-z
1/2+x,1/2-y,z
loop_
_atom_site_type_symbol
_atom_site_label
_atom_site_fract_x
_atom_site_fract_y
_atom_site_fract_z
Si Si1 0.765147 0.866715 0.379583
Si Si2 0.272358 0.378387 0.788767
Si Si3 0.003164 0.370161 0.097266
Si Si4 0.523724 0.867106 0.575737
Si Si5 0.147881 0.834043 0.062042
Si Si6 0.041522 0.284406 0.240900
O O1 0.641810 0.856133 0.415395
O O2 0.655738 0.852960 0.302753
O O3 0.876633 0.751781 0.396116
O O4 0.830114 0.000000 0.391885
O O5 0.196577 0.500000 0.764731
O O6 0.340780 0.381201 0.867619
O O7 0.134418 0.286784 0.763457
O O8 0.399772 0.343871 0.760767
O O9 0.039014 0.500000 0.093742
O O10 0.816338 0.350183 0.059132
O O11 0.034359 0.336739 0.172182
O O12 0.109395 0.296897 0.070405
O O13 0.500000 0.867787 0.500000
O O14 0.583156 0.000000 0.600748
O O15 0.000000 0.877167 0.000000
#
# Coordination Sequence:
#
# PCOD9197978 Si02
#       6
#     8   8   8   8   8   8
#     4  11  22  37  62  90 117 155 199 242 288 344
#     4  10  21  38  57  78 113 152 184 234 293 341
#     4  10  21  37  55  75 108 146 177 228 289 335
#     4  10  23  42  62  89 125 160 195 238 287 339
#     4  10  20  36  55  80 108 139 189 236 277 342
#     4  10  20  37  57  82 113 145 188 235 283 341
#
# _framework density 21.843629
#
# number of rings (size 3 to 8) (size 9 to 14) (size 15 to 20)
#    0.000    1.833    0.000    5.000    0.000    4.667 
#    0.000   17.500    0.000    0.000    0.000    0.000 
#    0.000    0.000    0.000    0.000    0.000    0.000 
#
# Total GULP energy -133777.727506 kJ/mol
# GULP energy per Si atom -5574.071979 kJ/mol
# Density = 2.179391 g / cm^3
# Si number density = 21.843629 Si / 1000 Ang^3
#
#
#
# Elastic Constant Matrix: (Units=GPa)
#
#
# Indices 1 2 3 4 5 6 
#
# 1 30.5654 19.9635 -12.1386 0.0000 -6.6223 0.0000
# 2 19.9635 110.3142 7.4455 0.0000 5.0661 0.0000
# 3 -12.1386 7.4455 53.3735 0.0000 -0.5975 0.0000
# 4 0.0000 0.0000 0.0000 -3.0168 0.0000 12.4259
# 5 -6.6223 5.0661 -0.5975 0.0000 27.4923 0.0000
# 6 0.0000 0.0000 0.0000 12.4259 0.0000 39.7259
#
#
#
# Elastic Compliance Matrix: (Units=1/GPa)
#
#
# Indices 1 2 3 4 5 6 
#
# 1 0.046967 -0.009940 0.012218 0.000000 0.013410 0.000000
# 2 -0.009940 0.011336 -0.003893 0.000000 -0.004568 0.000000
# 3 0.012218 -0.003893 0.022104 0.000000 0.004141 0.000000
# 4 0.000000 0.000000 0.000000 -0.144854 0.000000 0.045309
# 5 0.013410 -0.004568 0.004141 0.000000 0.040536 0.000000
# 6 0.000000 0.000000 0.000000 0.045309 0.000000 0.011000
#
#
# Mechanical properties :
#
#
# Convention : Reuss Voigt Hill
#
# Bulk Modulus (GPa) = 12.95714 24.97709 18.96711
# Shear Modulus (GPa) = 311.60874 24.77246 168.19060
#
# Velocity S-wave (km/s) = 11.95675 3.37127 8.78434
# Velocity P-wave (km/s) = 14.02010 5.15880 10.56353
#
# Compressibility (1/GPa) = 0.07717754
#
# Stress axis : x y z
#
# Youngs Moduli (GPa) = 21.29159 88.21133 45.24039
#
# Poissons Ratio (x) = 0.87683 -0.55276
# Poissons Ratio (y) = 0.21164 0.17613
# Poissons Ratio (z) = -0.26015 0.34342
#
# Static dielectric constant tensor:
#      x y z
#    x 1.765350 0.000000 0.008080 
#    y 0.000000 1.839430 0.000000 
#    z 0.008080 0.000000 1.831250 
# 
# From -- ./inp_files/355603.got.cif
#   From: 2010.05.17/outbox.cif.g08.bks.cpg/sg12_178_cif.got.tgz:355603.got - 2010.06.03 13:09:07.
