data_PCOD9197396
_publ_section_title
;
Structure prediction by ZEFSAII (Michael W. Deem and Ramdas Pophale) SiO2 
 PCOD9197396
Probable space group: C 2/M
;
_chemical_formula_sum "Si O2"
_cell_formula_units_Z 52
_cell_length_a 14.370763
_cell_length_b 18.435938
_cell_length_c 12.281345
_cell_angle_alpha 90.000000
_cell_angle_beta 127.002931
_cell_angle_gamma 90.000000
_cell_volume 2598.500901
_symmetry_space_group_name_H-M "C 2/M"
_symmetry_group_IT_number 12
_symmetry_cell_setting 'monoclinic'
loop_
_space_group_symop_operation_xyz
x,y,z
-x,y,-z
-x,-y,-z
x,-y,z
1/2+x,1/2+y,z
1/2-x,1/2+y,-z
1/2-x,1/2-y,-z
1/2+x,1/2-y,z
loop_
_atom_site_type_symbol
_atom_site_label
_atom_site_fract_x
_atom_site_fract_y
_atom_site_fract_z
Si Si1 0.000000 0.284154 0.000000
Si Si2 0.434093 0.300390 0.343499
Si Si3 0.542418 0.083750 0.187949
Si Si4 0.182950 0.081711 0.617839
Si Si5 0.273767 0.690433 0.799342
Si Si6 0.567843 0.915158 0.657645
Si Si7 0.160427 0.188248 0.399422
O O1 0.609752 0.271242 0.072825
O O2 0.995192 0.343988 0.094882
O O3 0.500000 0.276594 0.500000
O O4 0.392613 0.381698 0.340324
O O5 0.318000 0.255387 0.256464
O O6 0.525213 0.288526 0.311764
O O7 0.679973 0.084860 0.259900
O O8 0.517591 0.091985 0.299022
O O9 0.500763 0.000000 0.130691
O O10 0.167942 0.126316 0.495816
O O11 0.147774 0.000000 0.576043
O O12 0.306004 0.669322 0.698458
O O13 0.189464 0.624045 0.775150
O O14 0.500000 0.888917 0.500000
O O15 0.592183 0.000000 0.656756
O O16 0.250000 0.250000 0.500000
#
# Coordination Sequence:
#
# PCOD9197396 Si02
#       7
#     4   8   8   8   8   8   8
#     4  12  25  42  59  96 126 178 220 254 315 372
#     4  10  20  35  59  89 122 163 199 262 325 379
#     4  10  21  41  66  92 129 167 216 271 307 370
#     4  10  20  37  62  94 126 161 205 265 331 385
#     4  12  24  38  61  90 129 166 209 263 308 383
#     4  10  23  42  69 100 125 161 211 268 332 385
#     4  11  21  36  57  89 125 162 202 259 325 375
#
# _framework density 20.011537000000001
#
# number of rings (size 3 to 8) (size 9 to 14) (size 15 to 20)
#    0.000    1.385    4.615    1.615    4.308    5.231 
#    0.000    0.385    0.000    0.000    0.000    0.000 
#    0.000    0.000    0.000    0.000    0.000    0.000 
#
# Total GULP energy -144858.510989 kJ/mol
# GULP energy per Si atom -5571.481192 kJ/mol
# Density = 1.996599 g / cm^3
# Si number density = 20.011537 Si / 1000 Ang^3
#
#
#
# Elastic Constant Matrix: (Units=GPa)
#
#
# Indices 1 2 3 4 5 6 
#
# 1 138.5069 37.6582 11.3395 0.0000 6.3433 0.0000
# 2 37.6582 133.0738 23.2432 0.0000 12.2462 0.0000
# 3 11.3395 23.2432 38.1703 0.0000 0.9147 0.0000
# 4 0.0000 0.0000 0.0000 23.4618 0.0000 5.9873
# 5 6.3433 12.2462 0.9147 0.0000 38.9535 0.0000
# 6 0.0000 0.0000 0.0000 5.9873 0.0000 31.9264
#
#
#
# Elastic Compliance Matrix: (Units=1/GPa)
#
#
# Indices 1 2 3 4 5 6 
#
# 1 0.007878 -0.001975 -0.001123 0.000000 -0.000636 0.000000
# 2 -0.001975 0.009160 -0.004933 0.000000 -0.002442 0.000000
# 3 -0.001123 -0.004933 0.029511 0.000000 0.001041 0.000000
# 4 0.000000 0.000000 0.000000 0.044765 0.000000 -0.008395
# 5 -0.000636 -0.002442 0.001041 0.000000 0.026519 0.000000
# 6 0.000000 0.000000 0.000000 -0.008395 0.000000 0.032896
#
#
# Mechanical properties :
#
#
# Convention : Reuss Voigt Hill
#
# Bulk Modulus (GPa) = 32.79936 50.47030 41.63483
# Shear Modulus (GPa) = 28.25654 34.70234 31.47944
#
# Velocity S-wave (km/s) = 3.76175 4.16879 3.97049
# Velocity P-wave (km/s) = 5.94083 6.96040 6.47073
#
# Compressibility (1/GPa) = 0.03048840
#
# Stress axis : x y z
#
# Youngs Moduli (GPa) = 126.93931 109.17341 33.88620
#
# Poissons Ratio (x) = 0.21559 0.03804
# Poissons Ratio (y) = 0.25067 0.16714
# Poissons Ratio (z) = 0.14250 0.53850
#
# Static dielectric constant tensor:
#      x y z
#    x 1.773430 0.000000 0.011760 
#    y 0.000000 2.250570 0.000000 
#    z 0.011760 0.000000 1.731120 
# 
# From -- ./inp_files/144896.got.cif
#   From: 2010.05.17/outbox.cif.g08.bks.cpg/sg12_73_cif.got.tgz:144896.got - 2010.06.03 13:09:07.
