data_PCOD9197556
_publ_section_title
;
Structure prediction by ZEFSAII (Michael W. Deem and Ramdas Pophale) SiO2 
 PCOD9197556
Probable space group: C 2/M
;
_chemical_formula_sum "Si O2"
_cell_formula_units_Z 64
_cell_length_a 30.345718
_cell_length_b 12.902780
_cell_length_c 9.073318
_cell_angle_alpha 90.000000
_cell_angle_beta 62.574581
_cell_angle_gamma 90.000000
_cell_volume 3153.331162
_symmetry_space_group_name_H-M "C 2/M"
_symmetry_group_IT_number 12
_symmetry_cell_setting 'monoclinic'
loop_
_space_group_symop_operation_xyz
x,y,z
-x,y,-z
-x,-y,-z
x,-y,z
1/2+x,1/2+y,z
1/2-x,1/2+y,-z
1/2-x,1/2-y,-z
1/2+x,1/2-y,z
loop_
_atom_site_type_symbol
_atom_site_label
_atom_site_fract_x
_atom_site_fract_y
_atom_site_fract_z
Si Si1 0.998637 0.718068 0.339013
Si Si2 0.750798 0.172757 0.235012
Si Si3 0.388713 0.201618 0.845633
Si Si4 0.904641 0.388789 0.532420
Si Si5 0.782942 0.386628 0.040296
Si Si6 0.143341 0.818304 0.842008
Si Si7 0.954336 0.884737 0.185659
Si Si8 0.329263 0.880870 0.391985
O O1 0.962601 0.621563 0.416930
O O2 0.970524 0.795869 0.273861
O O3 0.000000 0.768405 0.500000
O O4 0.053463 0.681491 0.207907
O O5 0.732262 0.123580 0.109341
O O6 0.803451 0.129280 0.212720
O O7 0.713161 0.155764 0.427598
O O8 0.758873 0.292896 0.171208
O O9 0.387799 0.201343 0.669646
O O10 0.342620 0.127442 0.955352
O O11 0.377036 0.301724 0.960866
O O12 0.892788 0.500000 0.621383
O O13 0.877489 0.384270 0.420809
O O14 0.767883 0.500000 0.115788
O O15 0.098523 0.863319 0.813328
O O16 0.158719 0.707589 0.744827
O O17 0.951877 0.000000 0.256476
O O18 0.000000 0.885116 0.000000
O O19 0.319689 0.000000 0.356100
#
# Coordination Sequence:
#
# PCOD9197556 Si02
#       8
#     8   8   8   8   8   8   8   8
#     4  10  21  38  63  92 126 157 201 255 299 360
#     4  10  22  38  61  88 123 164 201 258 308 359
#     4  10  20  35  61  88 118 158 195 249 298 357
#     4  10  20  35  60  90 122 161 197 239 305 369
#     4  10  20  37  62  92 123 159 206 253 308 362
#     4  11  23  40  62  90 123 160 210 253 303 359
#     4  11  23  42  65  86 121 166 205 249 306 361
#     4  11  22  39  62  87 121 162 200 247 312 371
#
# _framework density 20.295998000000001
#
# number of rings (size 3 to 8) (size 9 to 14) (size 15 to 20)
#    0.000    1.625    3.750    1.125    0.000    6.500 
#    0.000    0.625    0.000    2.250    0.000    0.000 
#    0.000    0.000    0.000    0.000    0.000    0.000 
#
# Total GULP energy -178149.837540 kJ/mol
# GULP energy per Si atom -5567.182423 kJ/mol
# Density = 2.024980 g / cm^3
# Si number density = 20.295998 Si / 1000 Ang^3
#
#
#
# Elastic Constant Matrix: (Units=GPa)
#
#
# Indices 1 2 3 4 5 6 
#
# 1 134.9784 21.3550 22.2099 0.0000 1.1880 0.0000
# 2 21.3550 87.5047 19.5144 0.0000 8.0453 0.0000
# 3 22.2099 19.5144 43.8743 0.0000 -1.4555 0.0000
# 4 0.0000 0.0000 0.0000 16.1665 0.0000 -9.0832
# 5 1.1880 8.0453 -1.4555 0.0000 35.4714 0.0000
# 6 0.0000 0.0000 0.0000 -9.0832 0.0000 -4.9027
#
#
#
# Elastic Compliance Matrix: (Units=1/GPa)
#
#
# Indices 1 2 3 4 5 6 
#
# 1 0.008193 -0.001176 -0.003630 0.000000 -0.000157 0.000000
# 2 -0.001176 0.013208 -0.005385 0.000000 -0.003177 0.000000
# 3 -0.003630 -0.005385 0.027106 0.000000 0.002455 0.000000
# 4 0.000000 0.000000 0.000000 0.030308 0.000000 -0.056151
# 5 -0.000157 -0.003177 0.002455 0.000000 0.029018 0.000000
# 6 0.000000 0.000000 0.000000 -0.056151 0.000000 -0.099939
#
#
# Mechanical properties :
#
#
# Convention : Reuss Voigt Hill
#
# Bulk Modulus (GPa) = 35.55326 43.61288 39.58307
# Shear Modulus (GPa) = 132.79804 22.89892 77.84848
#
# Velocity S-wave (km/s) = 8.09770 3.36258 6.19999
# Velocity P-wave (km/s) = 10.24625 6.05070 8.41418
#
# Compressibility (1/GPa) = 0.02812681
#
# Stress axis : x y z
#
# Youngs Moduli (GPa) = 122.05192 75.71246 36.89166
#
# Poissons Ratio (x) = 0.08901 0.13391
# Poissons Ratio (y) = 0.14349 0.19866
# Poissons Ratio (z) = 0.44303 0.40770
#
# Static dielectric constant tensor:
#      x y z
#    x 1.759010 0.000000 0.003380 
#    y 0.000000 1.730560 0.000000 
#    z 0.003380 0.000000 1.729890 
# 
# From -- ./inp_files/111636.got.cif
#   From: 2010.05.17/outbox.cif.g08.bks.cpg/sg12_56_cif.got.tgz:111636.got - 2010.06.03 13:09:07.
