data_PCOD9197253
_publ_section_title
;
Structure prediction by ZEFSAII (Michael W. Deem and Ramdas Pophale) SiO2 
 PCOD9197253
Probable space group: C 2/M
;
_chemical_formula_sum "Si O2"
_cell_formula_units_Z 64
_cell_length_a 10.053853
_cell_length_b 26.635286
_cell_length_c 14.071518
_cell_angle_alpha 90.000000
_cell_angle_beta 68.642967
_cell_angle_gamma 90.000000
_cell_volume 3509.409575
_symmetry_space_group_name_H-M "C 2/M"
_symmetry_group_IT_number 12
_symmetry_cell_setting 'monoclinic'
loop_
_space_group_symop_operation_xyz
x,y,z
-x,y,-z
-x,-y,-z
x,-y,z
1/2+x,1/2+y,z
1/2-x,1/2+y,-z
1/2-x,1/2-y,-z
1/2+x,1/2-y,z
loop_
_atom_site_type_symbol
_atom_site_label
_atom_site_fract_x
_atom_site_fract_y
_atom_site_fract_z
Si Si1 0.183923 0.554369 0.155241
Si Si2 0.102547 0.164821 0.060757
Si Si3 0.156711 0.658134 0.714411
Si Si4 0.858455 0.945089 0.918677
Si Si5 0.351678 0.054628 0.200962
Si Si6 0.163710 0.336505 0.152389
Si Si7 0.128496 0.768046 0.238076
Si Si8 0.600867 0.224418 0.564888
O O1 0.193564 0.500000 0.204173
O O2 0.198428 0.610255 0.194968
O O3 0.023951 0.555800 0.151894
O O4 0.298273 0.553018 0.040982
O O5 0.063796 0.108580 0.107709
O O6 0.099567 0.204415 0.145961
O O7 0.258348 0.162804 0.969712
O O8 0.000000 0.177854 0.000000
O O9 0.197783 0.600954 0.722667
O O10 0.271334 0.695983 0.726898
O O11 0.129272 0.672413 0.612600
O O12 0.007577 0.666158 0.809263
O O13 0.725363 0.941414 0.880557
O O14 0.928810 0.000000 0.881989
O O15 0.312588 0.000000 0.250892
O O16 0.202311 0.285883 0.198447
O O17 0.985990 0.757058 0.334911
O O18 0.500000 0.218939 0.500000
O O19 0.750000 0.250000 0.500000
#
# Coordination Sequence:
#
# PCOD9197253 Si02
#       8
#     8   8   8   8   8   8   8   8
#     4   8  14  26  44  69 100 137 185 230 263 301
#     4  11  23  34  48  74 115 162 193 224 277 328
#     4  10  20  35  59  84 112 143 189 232 287 339
#     4   9  16  28  45  68 101 147 199 236 262 307
#     4   9  15  27  49  78 108 139 181 232 278 323
#     4   9  21  33  49  77 110 152 183 221 270 327
#     4  11  22  37  54  80 115 144 189 230 278 348
#     4  11  23  41  64  86 110 141 185 241 298 345
#
# _framework density 18.236685000000001
#
# number of rings (size 3 to 8) (size 9 to 14) (size 15 to 20)
#    0.000    2.250    2.500    0.750    3.500    2.250 
#    0.000    0.000    0.000    0.375    0.000    2.625 
#    0.000    0.000    0.000    0.000    0.000    0.125 
#
# Total GULP energy -178225.492412 kJ/mol
# GULP energy per Si atom -5569.546638 kJ/mol
# Density = 1.819518 g / cm^3
# Si number density = 18.236685 Si / 1000 Ang^3
#
#
#
# Elastic Constant Matrix: (Units=GPa)
#
#
# Indices 1 2 3 4 5 6 
#
# 1 50.8023 28.2339 21.5352 0.0000 8.6952 0.0000
# 2 28.2339 161.7867 43.3533 0.0000 6.4558 0.0000
# 3 21.5352 43.3533 66.5038 0.0000 1.2768 0.0000
# 4 0.0000 0.0000 0.0000 10.5650 0.0000 -0.3135
# 5 8.6952 6.4558 1.2768 0.0000 27.6172 0.0000
# 6 0.0000 0.0000 0.0000 -0.3135 0.0000 16.5668
#
#
#
# Elastic Compliance Matrix: (Units=1/GPa)
#
#
# Indices 1 2 3 4 5 6 
#
# 1 0.024900 -0.002353 -0.006395 0.000000 -0.006994 0.000000
# 2 -0.002353 0.007776 -0.004291 0.000000 -0.000879 0.000000
# 3 -0.006395 -0.004291 0.019864 0.000000 0.002098 0.000000
# 4 0.000000 0.000000 0.000000 0.094705 0.000000 0.001792
# 5 -0.006994 -0.000879 0.002098 0.000000 0.038520 0.000000
# 6 0.000000 0.000000 0.000000 0.001792 0.000000 0.060396
#
#
# Mechanical properties :
#
#
# Convention : Reuss Voigt Hill
#
# Bulk Modulus (GPa) = 37.78764 51.70418 44.74591
# Shear Modulus (GPa) = 17.78987 23.34783 20.56885
#
# Velocity S-wave (km/s) = 3.12669 3.58196 3.36204
# Velocity P-wave (km/s) = 5.81382 6.74689 6.29766
#
# Compressibility (1/GPa) = 0.02646368
#
# Stress axis : x y z
#
# Youngs Moduli (GPa) = 40.16133 128.59506 50.34139
#
# Poissons Ratio (x) = 0.30253 0.32194
# Poissons Ratio (y) = 0.09448 0.21600
# Poissons Ratio (z) = 0.25683 0.55176
#
# Static dielectric constant tensor:
#      x y z
#    x 1.676050 0.000000 -0.006710 
#    y 0.000000 1.720980 0.000000 
#    z -0.006710 0.000000 1.582570 
# 
# From -- ./inp_files/208837.got.cif
#   From: 2010.05.17/outbox.cif.g08.bks.cpg/sg12_105_cif.got.tgz:208837.got - 2010.06.03 13:09:07.
