data_PCOD9197388
_publ_section_title
;
Structure prediction by ZEFSAII (Michael W. Deem and Ramdas Pophale) SiO2 
 PCOD9197388
Probable space group: C 2/M
;
_chemical_formula_sum "Si O2"
_cell_formula_units_Z 56
_cell_length_a 20.187399
_cell_length_b 17.070281
_cell_length_c 15.061078
_cell_angle_alpha 90.000000
_cell_angle_beta 146.669379
_cell_angle_gamma 90.000000
_cell_volume 2851.810259
_symmetry_space_group_name_H-M "C 2/M"
_symmetry_group_IT_number 12
_symmetry_cell_setting 'monoclinic'
loop_
_space_group_symop_operation_xyz
x,y,z
-x,y,-z
-x,-y,-z
x,-y,z
1/2+x,1/2+y,z
1/2-x,1/2+y,-z
1/2-x,1/2-y,-z
1/2+x,1/2-y,z
loop_
_atom_site_type_symbol
_atom_site_label
_atom_site_fract_x
_atom_site_fract_y
_atom_site_fract_z
Si Si1 0.724926 0.169621 0.598159
Si Si2 0.015728 0.417402 0.121659
Si Si3 0.805064 0.000000 0.748866
Si Si4 0.939934 0.148547 0.209010
Si Si5 0.050915 0.000000 0.910196
Si Si6 0.239209 0.090522 0.851178
Si Si7 0.925285 0.268014 0.726846
Si Si8 0.614019 0.312252 0.564406
O O1 0.840249 0.199128 0.669880
O O2 0.618456 0.184921 0.408898
O O3 0.694059 0.235100 0.637318
O O4 0.739103 0.081834 0.650013
O O5 0.071036 0.500000 0.216346
O O6 0.081218 0.336457 0.209682
O O7 0.000000 0.424364 0.000000
O O8 0.883212 0.408556 0.015626
O O9 0.926224 0.000000 0.825038
O O10 0.846022 0.000000 0.898047
O O11 0.824965 0.139453 0.143366
O O12 0.951026 0.225899 0.160957
O O13 0.055004 0.155501 0.406177
O O14 0.943877 0.075044 0.147902
O O15 0.191997 0.123836 0.704505
O O16 0.199431 0.000000 0.815284
O O17 0.500000 0.293446 0.500000
#
# Coordination Sequence:
#
# PCOD9197388 Si02
#       8
#     8   8   4   8   4   8   8   8
#     4  10  21  40  58  86 110 150 202 239 287 343
#     4  10  22  38  54  85 120 154 190 234 289 351
#     4  11  24  40  61  82 120 157 195 241 292 347
#     4  10  20  36  59  88 120 146 195 244 286 344
#     4  11  22  38  55  92 118 152 192 246 293 346
#     4  10  20  35  59  89 121 152 187 234 297 348
#     4  10  21  37  60  84 114 152 195 243 288 341
#     4   9  20  36  59  88 119 151 189 244 288 348
#
# _framework density 19.636648999999998
#
# number of rings (size 3 to 8) (size 9 to 14) (size 15 to 20)
#    0.000    2.000    2.143    0.857    2.000    3.714 
#    0.000    3.214    0.000    0.000    0.000    0.000 
#    0.000    0.000    0.000    0.000    0.000    0.000 
#
# Total GULP energy -155985.574451 kJ/mol
# GULP energy per Si atom -5570.913373 kJ/mol
# Density = 1.959196 g / cm^3
# Si number density = 19.636649 Si / 1000 Ang^3
#
#
#
# Elastic Constant Matrix: (Units=GPa)
#
#
# Indices 1 2 3 4 5 6 
#
# 1 63.4783 31.9118 7.2045 0.0000 -10.6734 0.0000
# 2 31.9118 145.7106 33.8511 0.0000 -13.1089 0.0000
# 3 7.2045 33.8511 16.8497 0.0000 -10.5102 0.0000
# 4 0.0000 0.0000 0.0000 53.1696 0.0000 -76.9318
# 5 -10.6734 -13.1089 -10.5102 0.0000 25.7691 0.0000
# 6 0.0000 0.0000 0.0000 -76.9318 0.0000 216.6777
#
#
#
# Elastic Compliance Matrix: (Units=1/GPa)
#
#
# Indices 1 2 3 4 5 6 
#
# 1 0.018859 -0.005075 0.007235 0.000000 0.008180 0.000000
# 2 -0.005075 0.014812 -0.032456 0.000000 -0.007805 0.000000
# 3 0.007235 -0.032456 0.151598 0.000000 0.048317 0.000000
# 4 0.000000 0.000000 0.000000 0.038677 0.000000 0.013733
# 5 0.008180 -0.007805 0.048317 0.000000 0.057931 0.000000
# 6 0.000000 0.000000 0.000000 0.013733 0.000000 0.009491
#
#
# Mechanical properties :
#
#
# Convention : Reuss Voigt Hill
#
# Bulk Modulus (GPa) = 8.02080 41.33039 24.67560
# Shear Modulus (GPa) = 12.70583 69.32804 41.01693
#
# Velocity S-wave (km/s) = 2.54647 5.94828 4.57529
# Velocity P-wave (km/s) = 3.56924 8.26253 6.36431
#
# Compressibility (1/GPa) = 0.12467581
#
# Stress axis : x y z
#
# Youngs Moduli (GPa) = 53.02473 67.51088 6.59641
#
# Poissons Ratio (x) = 0.34263 -0.04772
# Poissons Ratio (y) = 0.26911 0.21410
# Poissons Ratio (z) = -0.38362 2.19116
#
# Static dielectric constant tensor:
#      x y z
#    x 1.692390 0.000000 -0.007610 
#    y 0.000000 1.759550 0.000000 
#    z -0.007610 0.000000 1.721570 
# 
# From -- ./inp_files/234761.got.cif
#   From: 2010.05.17/outbox.cif.g08.bks.cpg/sg12_118_cif.got.tgz:234761.got - 2010.06.03 13:09:07.
