data_PCOD9197035
_publ_section_title
;
Structure prediction by ZEFSAII (Michael W. Deem and Ramdas Pophale) SiO2 
 PCOD9197035
Probable space group: C 2/M
;
_chemical_formula_sum "Si O2"
_cell_formula_units_Z 56
_cell_length_a 17.598063
_cell_length_b 16.342532
_cell_length_c 9.911564
_cell_angle_alpha 90.000000
_cell_angle_beta 99.340150
_cell_angle_gamma 90.000000
_cell_volume 2812.743418
_symmetry_space_group_name_H-M "C 2/M"
_symmetry_group_IT_number 12
_symmetry_cell_setting 'monoclinic'
loop_
_space_group_symop_operation_xyz
x,y,z
-x,y,-z
-x,-y,-z
x,-y,z
1/2+x,1/2+y,z
1/2-x,1/2+y,-z
1/2-x,1/2-y,-z
1/2+x,1/2-y,z
loop_
_atom_site_type_symbol
_atom_site_label
_atom_site_fract_x
_atom_site_fract_y
_atom_site_fract_z
Si Si1 0.300720 0.672362 0.564477
Si Si2 0.789276 0.594924 0.237768
Si Si3 0.043866 0.092483 0.373346
Si Si4 0.936481 0.097385 0.089408
Si Si5 0.295410 0.095099 0.681626
Si Si6 0.239295 0.842365 0.950957
Si Si7 0.414281 0.900657 0.492628
O O1 0.250000 0.750000 0.500000
O O2 0.274728 0.649384 0.707501
O O3 0.391971 0.662926 0.595638
O O4 0.272221 0.604424 0.448473
O O5 0.774646 0.500000 0.263840
O O6 0.865349 0.618885 0.344267
O O7 0.786086 0.606916 0.077709
O O8 0.000000 0.087594 0.500000
O O9 0.979762 0.109045 0.242752
O O10 0.076770 0.000000 0.352523
O O11 0.851276 0.135036 0.066235
O O12 0.925427 0.000000 0.062058
O O13 0.000000 0.127626 0.000000
O O14 0.271940 0.141337 0.810754
O O15 0.369493 0.125116 0.616015
O O16 0.306047 0.000000 0.718906
O O17 0.250000 0.750000 0.000000
O O18 0.500000 0.868811 0.500000
O O19 0.416808 0.000000 0.501230
#
# Coordination Sequence:
#
# PCOD9197035 Si02
#       7
#     8   8   8   8   8   8   8
#     4  11  21  36  57  87 121 153 194 250 312 370
#     4  10  20  36  59  81 108 155 203 242 294 369
#     4  10  20  35  58  86 115 150 196 248 298 357
#     4  10  21  38  61  85 114 157 204 251 301 362
#     4  10  20  36  60  85 114 159 205 248 303 373
#     4  12  24  39  57  87 125 158 198 257 322 380
#     4   8  16  34  59  85 110 140 190 248 292 343
#
# _framework density 19.909389000000001
#
# number of rings (size 3 to 8) (size 9 to 14) (size 15 to 20)
#    0.000    1.857    0.000    6.000    0.000    2.286 
#    0.000    7.857    0.000    3.429    0.000    0.000 
#    0.000    0.000    0.000    0.000    0.000    0.000 
#
# Total GULP energy -156135.637729 kJ/mol
# GULP energy per Si atom -5576.272776 kJ/mol
# Density = 1.986407 g / cm^3
# Si number density = 19.909389 Si / 1000 Ang^3
#
#
#
# Elastic Constant Matrix: (Units=GPa)
#
#
# Indices 1 2 3 4 5 6 
#
# 1 148.5848 37.6753 63.9611 0.0000 6.2571 0.0000
# 2 37.6753 70.6564 17.3676 0.0000 10.1834 0.0000
# 3 63.9611 17.3676 138.3092 0.0000 -17.9197 0.0000
# 4 0.0000 0.0000 0.0000 28.5907 0.0000 7.5590
# 5 6.2571 10.1834 -17.9197 0.0000 21.0878 0.0000
# 6 0.0000 0.0000 0.0000 7.5590 0.0000 24.3763
#
#
#
# Elastic Compliance Matrix: (Units=1/GPa)
#
#
# Indices 1 2 3 4 5 6 
#
# 1 0.009892 -0.003286 -0.004873 0.000000 -0.005490 0.000000
# 2 -0.003286 0.017692 -0.001891 0.000000 -0.009176 0.000000
# 3 -0.004873 -0.001891 0.011268 0.000000 0.011934 0.000000
# 4 0.000000 0.000000 0.000000 0.038100 0.000000 -0.011815
# 5 -0.005490 -0.009176 0.011934 0.000000 0.063622 0.000000
# 6 0.000000 0.000000 0.000000 -0.011815 0.000000 0.044687
#
#
# Mechanical properties :
#
#
# Convention : Reuss Voigt Hill
#
# Bulk Modulus (GPa) = 53.32773 66.17318 59.75046
# Shear Modulus (GPa) = 23.62818 30.71405 27.17111
#
# Velocity S-wave (km/s) = 3.44871 3.93197 3.69824
# Velocity P-wave (km/s) = 6.53464 7.34324 6.95071
#
# Compressibility (1/GPa) = 0.01875197
#
# Stress axis : x y z
#
# Youngs Moduli (GPa) = 101.08878 56.52203 88.75064
#
# Poissons Ratio (x) = 0.18571 0.43252
# Poissons Ratio (y) = 0.33214 0.16783
# Poissons Ratio (z) = 0.49264 0.10688
#
# Static dielectric constant tensor:
#      x y z
#    x 1.705730 0.000000 -0.003660 
#    y 0.000000 1.774580 0.000000 
#    z -0.003660 0.000000 1.696320 
# 
# From -- ./inp_files/75983.got.cif
#   From: 2010.05.17/outbox.cif.g08.bks.cpg/sg12_38_cif.got.tgz:75983.got - 2010.06.03 13:09:07.
