data_PCOD9197064
_publ_section_title
;
Structure prediction by ZEFSAII (Michael W. Deem and Ramdas Pophale) SiO2 
 PCOD9197064
Probable space group: C 2/M
;
_chemical_formula_sum "Si O2"
_cell_formula_units_Z 52
_cell_length_a 30.593343
_cell_length_b 9.926998
_cell_length_c 17.248681
_cell_angle_alpha 90.000000
_cell_angle_beta 152.277849
_cell_angle_gamma 90.000000
_cell_volume 2436.833295
_symmetry_space_group_name_H-M "C 2/M"
_symmetry_group_IT_number 12
_symmetry_cell_setting 'monoclinic'
loop_
_space_group_symop_operation_xyz
x,y,z
-x,y,-z
-x,-y,-z
x,-y,z
1/2+x,1/2+y,z
1/2-x,1/2+y,-z
1/2-x,1/2-y,-z
1/2+x,1/2-y,z
loop_
_atom_site_type_symbol
_atom_site_label
_atom_site_fract_x
_atom_site_fract_y
_atom_site_fract_z
Si Si1 0.370475 0.500000 0.616416
Si Si2 0.066758 0.292136 0.287170
Si Si3 0.415331 0.151908 0.517917
Si Si4 0.212411 0.343900 0.836097
Si Si5 0.354325 0.852505 0.998665
Si Si6 0.272344 0.000000 0.735714
Si Si7 0.437922 0.345245 0.323442
Si Si8 0.160677 0.500000 0.324284
O O1 0.427122 0.634626 0.718380
O O2 0.329115 0.500000 0.463199
O O3 0.273585 0.500000 0.513558
O O4 0.122230 0.326270 0.454180
O O5 0.112703 0.373101 0.289280
O O6 0.960650 0.336267 0.137998
O O7 0.342535 0.158414 0.332989
O O8 0.495584 0.263057 0.630414
O O9 0.455733 0.000000 0.577528
O O10 0.216325 0.500000 0.866891
O O11 0.151662 0.245692 0.795345
O O12 0.312143 0.272817 0.977835
O O13 0.343932 0.000000 0.022700
O O14 0.292142 0.875422 0.823192
O O15 0.344382 0.000000 0.776836
O O16 0.500000 0.351099 0.500000
O O17 0.417631 0.500000 0.269599
#
# Coordination Sequence:
#
# PCOD9197064 Si02
#       8
#     4   8   8   8   8   4   8   4
#     4  10  24  38  65  89 119 153 205 258 300 368
#     4  12  22  39  61  91 122 155 196 260 312 367
#     4  10  20  35  58  88 119 158 203 255 308 359
#     4  10  20  35  58  86 124 162 203 253 302 362
#     4  10  21  38  59  87 120 164 204 246 302 366
#     4   8  21  40  66  85 111 166 214 244 286 383
#     4   9  18  33  56  86 119 159 209 256 296 356
#     4  10  21  44  66  85 118 161 208 246 317 358
#
# _framework density 21.339168000000001
#
# number of rings (size 3 to 8) (size 9 to 14) (size 15 to 20)
#    0.923    1.077    1.538    2.308    2.154    3.692 
#    0.000    0.769    0.000    0.923    0.000    0.000 
#    0.000    0.000    0.000    0.000    0.000    0.000 
#
# Total GULP energy -145152.525969 kJ/mol
# GULP energy per Si atom -5582.789460 kJ/mol
# Density = 2.129060 g / cm^3
# Si number density = 21.339168 Si / 1000 Ang^3
#
#
#
# Elastic Constant Matrix: (Units=GPa)
#
#
# Indices 1 2 3 4 5 6 
#
# 1 71.6863 45.6553 -1.4980 0.0000 2.5591 0.0000
# 2 45.6553 208.5316 31.2149 0.0000 18.1564 0.0000
# 3 -1.4980 31.2149 52.0975 0.0000 10.2719 0.0000
# 4 0.0000 0.0000 0.0000 9.8336 0.0000 14.1625
# 5 2.5591 18.1564 10.2719 0.0000 26.9160 0.0000
# 6 0.0000 0.0000 0.0000 14.1625 0.0000 23.6334
#
#
#
# Elastic Compliance Matrix: (Units=1/GPa)
#
#
# Indices 1 2 3 4 5 6 
#
# 1 0.016604 -0.004076 0.002907 0.000000 0.000061 0.000000
# 2 -0.004076 0.006434 -0.003453 0.000000 -0.002635 0.000000
# 3 0.002907 -0.003453 0.022646 0.000000 -0.006590 0.000000
# 4 0.000000 0.000000 0.000000 0.742616 0.000000 -0.445019
# 5 0.000061 -0.002635 -0.006590 0.000000 0.041439 0.000000
# 6 0.000000 0.000000 0.000000 -0.445019 0.000000 0.308995
#
#
# Mechanical properties :
#
#
# Convention : Reuss Voigt Hill
#
# Bulk Modulus (GPa) = 27.44059 53.67330 40.55694
# Shear Modulus (GPa) = 4.30989 29.20615 16.75802
#
# Velocity S-wave (km/s) = 1.42271 3.70356 2.80539
# Velocity P-wave (km/s) = 3.94791 6.59512 5.43514
#
# Compressibility (1/GPa) = 0.03644237
#
# Stress axis : x y z
#
# Youngs Moduli (GPa) = 60.22646 155.42377 44.15710
#
# Poissons Ratio (x) = 0.63347 -0.12838
# Poissons Ratio (y) = 0.24547 0.15246
# Poissons Ratio (z) = -0.17510 0.53663
#
# Static dielectric constant tensor:
#      x y z
#    x 1.749410 0.000000 -0.041020 
#    y 0.000000 1.758870 0.000000 
#    z -0.041020 0.000000 1.800340 
# 
# From -- ./inp_files/329345.got.cif
#   From: 2010.05.17/outbox.cif.g08.bks.cpg/sg12_165_cif.got.tgz:329345.got - 2010.06.03 13:09:07.
