data_PCOD9197933
_publ_section_title
;
Structure prediction by ZEFSAII (Michael W. Deem and Ramdas Pophale) SiO2 
 PCOD9197933
Probable space group: C 2/M
;
_chemical_formula_sum "Si O2"
_cell_formula_units_Z 56
_cell_length_a 8.900458
_cell_length_b 11.026341
_cell_length_c 31.608835
_cell_angle_alpha 90.000000
_cell_angle_beta 71.442070
_cell_angle_gamma 90.000000
_cell_volume 2940.774199
_symmetry_space_group_name_H-M "C 2/M"
_symmetry_group_IT_number 12
_symmetry_cell_setting 'monoclinic'
loop_
_space_group_symop_operation_xyz
x,y,z
-x,y,-z
-x,-y,-z
x,-y,z
1/2+x,1/2+y,z
1/2-x,1/2+y,-z
1/2-x,1/2-y,-z
1/2+x,1/2-y,z
loop_
_atom_site_type_symbol
_atom_site_label
_atom_site_fract_x
_atom_site_fract_y
_atom_site_fract_z
Si Si1 0.633892 0.135187 0.123802
Si Si2 0.006829 0.865943 0.412047
Si Si3 0.878638 0.137966 0.693206
Si Si4 0.161507 0.865334 0.735207
Si Si5 0.689191 0.366792 0.980898
Si Si6 0.920472 0.864152 0.159627
Si Si7 0.838308 0.690299 0.532447
O O1 0.747009 0.140471 0.072681
O O2 0.746458 0.142757 0.154627
O O3 0.519085 0.250198 0.133869
O O4 0.557119 0.000000 0.130528
O O5 0.058985 0.836904 0.359756
O O6 0.087689 0.779943 0.439252
O O7 0.815328 0.868666 0.432026
O O8 0.065810 0.000000 0.417120
O O9 0.767496 0.248190 0.716875
O O10 0.023357 0.135866 0.712970
O O11 0.808781 0.000000 0.699797
O O12 0.092070 0.856120 0.788711
O O13 0.240650 0.000000 0.725341
O O14 0.741725 0.500000 0.993021
O O15 0.500000 0.364909 0.000000
O O16 0.750000 0.250000 0.000000
O O17 0.983475 0.000000 0.142931
O O18 0.750000 0.750000 0.500000
O O19 0.000000 0.629008 0.500000
#
# Coordination Sequence:
#
# PCOD9197933 Si02
#       7
#     8   8   8   8   8   8   8
#     4  10  21  36  55  81 110 143 185 228 272 327
#     4  10  20  36  55  76 108 143 176 221 270 318
#     4  10  21  36  56  82 112 147 184 224 273 326
#     4  10  21  37  57  83 113 144 183 228 272 324
#     4  10  21  37  56  79 109 144 183 228 276 326
#     4  10  21  37  57  81 111 146 181 224 277 326
#     4   9  19  34  53  78 104 135 178 218 260 319
#
# _framework density 19.042604999999998
#
# number of rings (size 3 to 8) (size 9 to 14) (size 15 to 20)
#    0.000    2.143    0.000    2.571    0.000    6.571 
#    0.000    2.857    0.000    0.000    0.000    0.000 
#    0.000    0.000    0.000    0.000    0.000    0.000 
#
# Total GULP energy -155954.942715 kJ/mol
# GULP energy per Si atom -5569.819383 kJ/mol
# Density = 1.899926 g / cm^3
# Si number density = 19.042605 Si / 1000 Ang^3
#
#
#
# Elastic Constant Matrix: (Units=GPa)
#
#
# Indices 1 2 3 4 5 6 
#
# 1 53.0868 45.1369 0.8630 0.0000 1.4684 0.0000
# 2 45.1369 152.7763 31.2928 0.0000 -15.1804 0.0000
# 3 0.8630 31.2928 46.4778 0.0000 3.4687 0.0000
# 4 0.0000 0.0000 0.0000 42.7600 0.0000 -8.1606
# 5 1.4684 -15.1804 3.4687 0.0000 33.2528 0.0000
# 6 0.0000 0.0000 0.0000 -8.1606 0.0000 32.3945
#
#
#
# Elastic Compliance Matrix: (Units=1/GPa)
#
#
# Indices 1 2 3 4 5 6 
#
# 1 0.027589 -0.010210 0.006854 0.000000 -0.006594 0.000000
# 2 -0.010210 0.011948 -0.008361 0.000000 0.006777 0.000000
# 3 0.006854 -0.008361 0.027539 0.000000 -0.006992 0.000000
# 4 0.000000 0.000000 0.000000 0.024567 0.000000 0.006189
# 5 -0.006594 0.006777 -0.006992 0.000000 0.034187 0.000000
# 6 0.000000 0.000000 0.000000 0.006189 0.000000 0.032429
#
#
# Mechanical properties :
#
#
# Convention : Reuss Voigt Hill
#
# Bulk Modulus (GPa) = 22.91302 45.21404 34.06353
# Shear Modulus (GPa) = 25.47890 33.35134 29.41512
#
# Velocity S-wave (km/s) = 3.66183 4.18952 3.93453
# Velocity P-wave (km/s) = 5.47150 6.87008 6.21028
#
# Compressibility (1/GPa) = 0.04364332
#
# Stress axis : x y z
#
# Youngs Moduli (GPa) = 36.24595 83.69597 36.31178
#
# Poissons Ratio (x) = 0.85456 -0.24889
# Poissons Ratio (y) = 0.37008 0.30359
# Poissons Ratio (z) = -0.24844 0.69975
#
# Static dielectric constant tensor:
#      x y z
#    x 1.628000 0.000000 -0.014000 
#    y 0.000000 0.836030 0.000000 
#    z -0.014000 0.000000 1.662130 
# 
# From -- ./inp_files/355760.got.cif
#   From: 2010.05.17/outbox.cif.g08.bks.cpg/sg12_178_cif.got.tgz:355760.got - 2010.06.03 13:09:07.
