data_PCOD9197681
_publ_section_title
;
Structure prediction by ZEFSAII (Michael W. Deem and Ramdas Pophale) SiO2 
 PCOD9197681
Probable space group: C 2/M
;
_chemical_formula_sum "Si O2"
_cell_formula_units_Z 56
_cell_length_a 28.417200
_cell_length_b 19.195487
_cell_length_c 19.017808
_cell_angle_alpha 90.000000
_cell_angle_beta 163.555693
_cell_angle_gamma 90.000000
_cell_volume 2936.668962
_symmetry_space_group_name_H-M "C 2/M"
_symmetry_group_IT_number 12
_symmetry_cell_setting 'monoclinic'
loop_
_space_group_symop_operation_xyz
x,y,z
-x,y,-z
-x,-y,-z
x,-y,z
1/2+x,1/2+y,z
1/2-x,1/2+y,-z
1/2-x,1/2-y,-z
1/2+x,1/2-y,z
loop_
_atom_site_type_symbol
_atom_site_label
_atom_site_fract_x
_atom_site_fract_y
_atom_site_fract_z
Si Si1 0.296265 0.422244 0.712433
Si Si2 0.217090 0.793365 0.763418
Si Si3 0.157099 0.185502 0.829796
Si Si4 0.350367 0.646950 0.927992
Si Si5 0.978426 0.081935 0.253002
Si Si6 0.827967 0.343831 0.780246
Si Si7 0.821513 0.788702 0.669789
O O1 0.236420 0.500000 0.610273
O O2 0.238100 0.359783 0.578351
O O3 0.500000 0.425092 0.000000
O O4 0.256746 0.398627 0.735410
O O5 0.238830 0.827980 0.870751
O O6 0.331560 0.828423 0.868311
O O7 0.032234 0.797993 0.465756
O O8 0.252071 0.711354 0.820205
O O9 0.136594 0.123175 0.855893
O O10 0.250000 0.250000 0.000000
O O11 0.421381 0.600605 0.092450
O O12 0.498470 0.684651 0.097050
O O13 0.165428 0.111567 0.529867
O O14 0.973976 0.000000 0.258920
O O15 0.814485 0.269203 0.720820
O O16 0.000000 0.375898 0.000000
O O17 0.750000 0.750000 0.500000
#
# Coordination Sequence:
#
# PCOD9197681 Si02
#       7
#     8   8   8   8   8   8   8
#     4   9  18  31  49  77 119 155 184 231 292 353
#     4  10  20  35  61  94 112 151 211 251 300 354
#     4  10  21  39  62  88 115 155 204 259 298 355
#     4  11  18  33  58  87 120 148 196 251 295 361
#     4  11  24  38  60  92 121 160 203 250 311 369
#     4  11  20  37  58  86 126 159 201 247 291 361
#     4  11  19  31  52  87 117 160 202 236 284 355
#
# _framework density 19.069223999999998
#
# number of rings (size 3 to 8) (size 9 to 14) (size 15 to 20)
#    0.000    1.571    5.714    0.857    0.000    0.857 
#    0.000    5.714    0.000    2.571    0.000    0.000 
#    0.000    0.000    0.000    0.000    0.000    0.000 
#
# Total GULP energy -156112.803760 kJ/mol
# GULP energy per Si atom -5575.457277 kJ/mol
# Density = 1.902582 g / cm^3
# Si number density = 19.069224 Si / 1000 Ang^3
#
#
#
# Elastic Constant Matrix: (Units=GPa)
#
#
# Indices 1 2 3 4 5 6 
#
# 1 147.1370 58.3861 33.5339 0.0000 -13.0449 0.0000
# 2 58.3861 148.9634 29.7665 0.0000 -13.5300 0.0000
# 3 33.5339 29.7665 22.6474 0.0000 -14.2860 0.0000
# 4 0.0000 0.0000 0.0000 20.0020 0.0000 -2.3507
# 5 -13.0449 -13.5300 -14.2860 0.0000 24.4558 0.0000
# 6 0.0000 0.0000 0.0000 -2.3507 0.0000 23.5765
#
#
#
# Elastic Compliance Matrix: (Units=1/GPa)
#
#
# Indices 1 2 3 4 5 6 
#
# 1 0.010871 -0.001163 -0.017919 0.000000 -0.005312 0.000000
# 2 -0.001163 0.009379 -0.012230 0.000000 -0.002576 0.000000
# 3 -0.017919 -0.012230 0.121082 0.000000 0.054406 0.000000
# 4 0.000000 0.000000 0.000000 0.050588 0.000000 0.005044
# 5 -0.005312 -0.002576 0.054406 0.000000 0.068413 0.000000
# 6 0.000000 0.000000 0.000000 0.005044 0.000000 0.042918
#
#
# Mechanical properties :
#
#
# Convention : Reuss Voigt Hill
#
# Bulk Modulus (GPa) = 12.70525 62.45787 37.58156
# Shear Modulus (GPa) = 12.75154 26.74428 19.74791
#
# Velocity S-wave (km/s) = 2.58872 3.74904 3.22155
# Velocity P-wave (km/s) = 3.95126 7.18086 5.79557
#
# Compressibility (1/GPa) = 0.07870761
#
# Stress axis : x y z
#
# Youngs Moduli (GPa) = 91.99072 106.62507 8.25888
#
# Poissons Ratio (x) = 0.12396 0.14799
# Poissons Ratio (y) = 0.10695 0.10101
# Poissons Ratio (z) = 1.64838 1.30404
#
# Static dielectric constant tensor:
#      x y z
#    x 1.720130 0.000000 0.018270 
#    y 0.000000 1.690590 0.000000 
#    z 0.018270 0.000000 1.702420 
# 
# From -- ./inp_files/293926.got.cif
#   From: 2010.05.17/outbox.cif.g08.bks.cpg/sg12_147_cif.got.tgz:293926.got - 2010.06.03 13:09:07.
