data_PCOD9197415
_publ_section_title
;
Structure prediction by ZEFSAII (Michael W. Deem and Ramdas Pophale) SiO2 
 PCOD9197415
Probable space group: C 2/M
;
_chemical_formula_sum "Si O2"
_cell_formula_units_Z 64
_cell_length_a 29.678391
_cell_length_b 8.709693
_cell_length_c 15.463962
_cell_angle_alpha 90.000000
_cell_angle_beta 130.720044
_cell_angle_gamma 90.000000
_cell_volume 3029.558983
_symmetry_space_group_name_H-M "C 2/M"
_symmetry_group_IT_number 12
_symmetry_cell_setting 'monoclinic'
loop_
_space_group_symop_operation_xyz
x,y,z
-x,y,-z
-x,-y,-z
x,-y,z
1/2+x,1/2+y,z
1/2-x,1/2+y,-z
1/2-x,1/2-y,-z
1/2+x,1/2-y,z
loop_
_atom_site_type_symbol
_atom_site_label
_atom_site_fract_x
_atom_site_fract_y
_atom_site_fract_z
Si Si1 0.711019 0.680845 0.577629
Si Si2 0.126112 0.178230 0.638626
Si Si3 0.978461 0.818590 0.618798
Si Si4 0.607587 0.177808 0.790962
Si Si5 0.186668 0.314404 0.176056
Si Si6 0.707440 0.320017 0.019759
Si Si7 0.933489 0.313379 0.898101
Si Si8 0.109198 0.316702 0.347504
O O1 0.712940 0.500000 0.557906
O O2 0.670912 0.696434 0.614734
O O3 0.775323 0.732565 0.691856
O O4 0.675810 0.769674 0.459208
O O5 0.060991 0.206742 0.516482
O O6 0.135731 0.285445 0.732418
O O7 0.129400 0.000000 0.671412
O O8 0.935626 0.767873 0.643316
O O9 0.038948 0.724684 0.698186
O O10 0.991150 0.000000 0.639484
O O11 0.641474 0.278809 0.903857
O O12 0.614497 0.000000 0.821747
O O13 0.189140 0.500000 0.176752
O O14 0.118342 0.264360 0.101105
O O15 0.214578 0.252888 0.122981
O O16 0.716992 0.500000 0.036158
O O17 0.750000 0.250000 0.000000
O O18 0.935548 0.500000 0.905078
O O19 0.910154 0.274836 0.773350
O O20 0.000000 0.256598 0.000000
O O21 0.103156 0.500000 0.349876
#
# Coordination Sequence:
#
# PCOD9197415 Si02
#       8
#     8   8   8   8   8   8   8   8
#     4   9  19  36  59  86 119 159 200 251 312 371
#     4   9  18  34  54  79 117 160 200 249 311 366
#     4  10  21  37  57  83 119 160 201 253 311 368
#     4  12  24  36  56  85 118 158 204 255 306 366
#     4  10  21  40  66  92 122 165 212 256 314 376
#     4  12  26  44  64  90 123 160 205 255 311 371
#     4   9  20  38  61  91 127 165 206 257 314 372
#     4  10  20  35  59  90 121 160 206 254 306 368
#
# _framework density 21.125188000000001
#
# number of rings (size 3 to 8) (size 9 to 14) (size 15 to 20)
#    0.000    1.875    0.000    4.875    1.750    6.000 
#    0.000    1.250    0.000    1.875    0.000    0.000 
#    0.000    0.000    0.000    0.000    0.000    0.000 
#
# Total GULP energy -178880.924476 kJ/mol
# GULP energy per Si atom -5590.028890 kJ/mol
# Density = 2.107711 g / cm^3
# Si number density = 21.125188 Si / 1000 Ang^3
#
#
#
# Elastic Constant Matrix: (Units=GPa)
#
#
# Indices 1 2 3 4 5 6 
#
# 1 77.2224 14.3593 40.1814 0.0000 8.0298 0.0000
# 2 14.3593 31.4007 24.1863 0.0000 -0.3617 0.0000
# 3 40.1814 24.1863 110.6727 0.0000 6.9880 0.0000
# 4 0.0000 0.0000 0.0000 31.3247 0.0000 1.7229
# 5 8.0298 -0.3617 6.9880 0.0000 36.5668 0.0000
# 6 0.0000 0.0000 0.0000 1.7229 0.0000 12.2127
#
#
#
# Elastic Compliance Matrix: (Units=1/GPa)
#
#
# Indices 1 2 3 4 5 6 
#
# 1 0.016535 -0.003728 -0.005018 0.000000 -0.002709 0.000000
# 2 -0.003728 0.039278 -0.007396 0.000000 0.002620 0.000000
# 3 -0.005018 -0.007396 0.012560 0.000000 -0.001372 0.000000
# 4 0.000000 0.000000 0.000000 0.032173 0.000000 -0.004539
# 5 -0.002709 0.002620 -0.001372 0.000000 0.028230 0.000000
# 6 0.000000 0.000000 0.000000 -0.004539 0.000000 0.082522
#
#
# Mechanical properties :
#
#
# Convention : Reuss Voigt Hill
#
# Bulk Modulus (GPa) = 27.70778 41.86110 34.78444
# Shear Modulus (GPa) = 19.56090 25.39210 22.47650
#
# Velocity S-wave (km/s) = 3.04625 3.47072 3.26539
# Velocity P-wave (km/s) = 5.05146 5.99333 5.54244
#
# Compressibility (1/GPa) = 0.03609094
#
# Stress axis : x y z
#
# Youngs Moduli (GPa) = 60.47649 25.45961 79.61610
#
# Poissons Ratio (x) = 0.09491 0.39949
# Poissons Ratio (y) = 0.22545 0.58882
# Poissons Ratio (z) = 0.30345 0.18829
#
# Static dielectric constant tensor:
#      x y z
#    x 1.791140 0.000000 0.032820 
#    y 0.000000 1.706690 0.000000 
#    z 0.032820 0.000000 1.775530 
# 
# From -- ./inp_files/250083.got.cif
#   From: 2010.05.17/outbox.cif.g08.bks.cpg/sg12_126_cif.got.tgz:250083.got - 2010.06.03 13:09:07.
