data_PCOD9197865
_publ_section_title
;
Structure prediction by ZEFSAII (Michael W. Deem and Ramdas Pophale) SiO2 
 PCOD9197865
Probable space group: C 2/M
;
_chemical_formula_sum "Si O2"
_cell_formula_units_Z 64
_cell_length_a 14.811461
_cell_length_b 7.584097
_cell_length_c 25.357074
_cell_angle_alpha 90.000000
_cell_angle_beta 93.389155
_cell_angle_gamma 90.000000
_cell_volume 2843.417852
_symmetry_space_group_name_H-M "C 2/M"
_symmetry_group_IT_number 12
_symmetry_cell_setting 'monoclinic'
loop_
_space_group_symop_operation_xyz
x,y,z
-x,y,-z
-x,-y,-z
x,-y,z
1/2+x,1/2+y,z
1/2-x,1/2+y,-z
1/2-x,1/2-y,-z
1/2+x,1/2-y,z
loop_
_atom_site_type_symbol
_atom_site_label
_atom_site_fract_x
_atom_site_fract_y
_atom_site_fract_z
Si Si1 0.076196 0.299876 0.965214
Si Si2 0.331792 0.215665 0.207771
Si Si3 0.204750 0.208902 0.298107
Si Si4 0.602279 0.710930 0.500219
Si Si5 0.761439 0.283953 0.090000
Si Si6 0.758846 0.787321 0.583723
Si Si7 0.462027 0.789661 0.771989
Si Si8 0.568177 0.294499 0.112808
O O1 0.090262 0.500000 0.984131
O O2 0.021679 0.304584 0.907889
O O3 0.172108 0.218085 0.953656
O O4 0.000000 0.215203 0.000000
O O5 0.265834 0.278514 0.252088
O O6 0.298954 0.271725 0.148611
O O7 0.434385 0.272347 0.223322
O O8 0.329814 0.000000 0.206890
O O9 0.228462 0.280171 0.356558
O O10 0.100419 0.233909 0.278547
O O11 0.222453 0.000000 0.300467
O O12 0.500000 0.780127 0.500000
O O13 0.596047 0.500000 0.493408
O O14 0.662618 0.744670 0.554073
O O15 0.662807 0.778815 0.453352
O O16 0.763565 0.500000 0.088653
O O17 0.656769 0.231642 0.084540
O O18 0.766040 0.000000 0.585220
O O19 0.416328 0.724930 0.824609
O O20 0.463454 0.000000 0.773561
O O21 0.554428 0.500000 0.101528
#
# Coordination Sequence:
#
# PCOD9197865 Si02
#       8
#     8   8   8   8   8   8   8   8
#     4  10  21  38  58  79 105 137 173 216 262 310
#     4   9  17  32  53  73 101 139 171 205 258 317
#     4  10  20  36  54  76 108 141 175 216 264 310
#     4   9  18  34  55  77 106 143 177 215 269 313
#     4   9  17  33  55  76 102 138 170 202 259 316
#     4   9  19  34  53  78 106 139 179 220 257 310
#     4  11  21  34  54  79 105 137 178 215 256 312
#     4  11  21  35  57  79 104 138 174 213 261 312
#
# _framework density 22.508123999999999
#
# number of rings (size 3 to 8) (size 9 to 14) (size 15 to 20)
#    0.000    2.250    2.500    0.750    0.000    2.500 
#    0.000    3.750    0.000    0.000    0.000    0.000 
#    0.000    0.000    0.000    0.000    0.000    0.000 
#
# Total GULP energy -178776.613602 kJ/mol
# GULP energy per Si atom -5586.769175 kJ/mol
# Density = 2.245689 g / cm^3
# Si number density = 22.508124 Si / 1000 Ang^3
#
#
#
# Elastic Constant Matrix: (Units=GPa)
#
#
# Indices 1 2 3 4 5 6 
#
# 1 133.1293 2.1876 31.8348 0.0000 7.3170 0.0000
# 2 2.1876 52.8712 11.1340 0.0000 -6.4559 0.0000
# 3 31.8348 11.1340 96.2264 0.0000 9.7467 0.0000
# 4 0.0000 0.0000 0.0000 15.8331 0.0000 8.6590
# 5 7.3170 -6.4559 9.7467 0.0000 19.0368 0.0000
# 6 0.0000 0.0000 0.0000 8.6590 0.0000 13.5955
#
#
#
# Elastic Compliance Matrix: (Units=1/GPa)
#
#
# Indices 1 2 3 4 5 6 
#
# 1 0.008219 -0.000038 -0.002524 0.000000 -0.001880 0.000000
# 2 -0.000038 0.020663 -0.003258 0.000000 0.008690 0.000000
# 3 -0.002524 -0.003258 0.012253 0.000000 -0.006408 0.000000
# 4 0.000000 0.000000 0.000000 0.096916 0.000000 -0.061725
# 5 -0.001880 0.008690 -0.006408 0.000000 0.059480 0.000000
# 6 0.000000 0.000000 0.000000 -0.061725 0.000000 0.112866
#
#
# Mechanical properties :
#
#
# Convention : Reuss Voigt Hill
#
# Bulk Modulus (GPa) = 33.90562 41.39332 37.64947
# Shear Modulus (GPa) = 15.06610 25.49778 20.28194
#
# Velocity S-wave (km/s) = 2.59001 3.36940 3.00508
# Velocity P-wave (km/s) = 4.90313 5.79374 5.36694
#
# Compressibility (1/GPa) = 0.02949364
#
# Stress axis : x y z
#
# Youngs Moduli (GPa) = 121.66835 48.39614 81.60982
#
# Poissons Ratio (x) = 0.00184 0.20601
# Poissons Ratio (y) = 0.00462 0.26592
# Poissons Ratio (z) = 0.30714 0.15770
#
# Static dielectric constant tensor:
#      x y z
#    x 1.833980 0.000000 -0.017790 
#    y 0.000000 1.821850 0.000000 
#    z -0.017790 0.000000 1.839660 
# 
# From -- ./inp_files/359888.got.cif
#   From: 2010.05.17/outbox.cif.g08.bks.cpg/sg12_180_cif.got.tgz:359888.got - 2010.06.03 13:09:07.
