data_PCOD9197987
_publ_section_title
;
Structure prediction by ZEFSAII (Michael W. Deem and Ramdas Pophale) SiO2 
 PCOD9197987
Probable space group: C 2/M
;
_chemical_formula_sum "Si O2"
_cell_formula_units_Z 56
_cell_length_a 23.227222
_cell_length_b 26.153110
_cell_length_c 14.881333
_cell_angle_alpha 90.000000
_cell_angle_beta 160.800188
_cell_angle_gamma 90.000000
_cell_volume 2972.885510
_symmetry_space_group_name_H-M "C 2/M"
_symmetry_group_IT_number 12
_symmetry_cell_setting 'monoclinic'
loop_
_space_group_symop_operation_xyz
x,y,z
-x,y,-z
-x,-y,-z
x,-y,z
1/2+x,1/2+y,z
1/2-x,1/2+y,-z
1/2-x,1/2-y,-z
1/2+x,1/2-y,z
loop_
_atom_site_type_symbol
_atom_site_label
_atom_site_fract_x
_atom_site_fract_y
_atom_site_fract_z
Si Si1 0.500000 0.704180 0.500000
Si Si2 0.699992 0.232082 0.325480
Si Si3 0.041454 0.288691 0.427573
Si Si4 0.950443 0.439689 0.262635
Si Si5 0.660355 0.145548 0.014691
Si Si6 0.191618 0.939066 0.316225
Si Si7 0.500000 0.871169 0.500000
Si Si8 0.877052 0.622994 0.743242
O O1 0.449081 0.743200 0.345723
O O2 0.653869 0.668972 0.689946
O O3 0.750000 0.250000 0.500000
O O4 0.815161 0.262843 0.423963
O O5 0.724742 0.170582 0.362890
O O6 0.500000 0.241110 0.000000
O O7 0.913622 0.320291 0.175586
O O8 0.110241 0.330883 0.601459
O O9 0.923023 0.500000 0.230303
O O10 0.152582 0.430735 0.527347
O O11 0.837193 0.412350 0.018322
O O12 0.914600 0.409443 0.302007
O O13 0.518380 0.148100 0.883673
O O14 0.255079 0.911741 0.501115
O O15 0.182254 0.000000 0.317361
O O16 0.000000 0.921634 0.000000
O O17 0.000000 0.596757 0.000000
#
# Coordination Sequence:
#
# PCOD9197987 Si02
#       8
#     4   8   8   8   8   8   4   8
#     4  11  20  34  56  74 110 152 192 239 294 338
#     4  11  22  38  57  83 120 157 195 239 288 352
#     4  10  21  36  54  81 113 151 189 240 289 347
#     4   9  18  36  60  82 112 148 185 242 302 347
#     4  10  20  37  52  79 111 145 196 240 289 349
#     4   9  19  37  61  90 118 146 190 247 301 348
#     4   9  19  36  55  80 111 144 193 231 282 346
#     4  10  20  36  55  80 117 157 193 235 286 357
#
# _framework density 18.836918000000001
#
# number of rings (size 3 to 8) (size 9 to 14) (size 15 to 20)
#    0.000    2.143    1.429    2.357    0.000    0.857 
#    0.000    3.214    0.000    0.000    0.000    0.000 
#    0.000    0.000    0.000    0.000    0.000    0.000 
#
# Total GULP energy -155937.636332 kJ/mol
# GULP energy per Si atom -5569.201298 kJ/mol
# Density = 1.879404 g / cm^3
# Si number density = 18.836918 Si / 1000 Ang^3
#
#
#
# Elastic Constant Matrix: (Units=GPa)
#
#
# Indices 1 2 3 4 5 6 
#
# 1 81.2417 45.6408 19.4485 0.0000 -15.3286 0.0000
# 2 45.6408 101.4924 37.1093 0.0000 -2.2406 0.0000
# 3 19.4485 37.1093 80.7036 0.0000 -19.5152 0.0000
# 4 0.0000 0.0000 0.0000 17.4483 0.0000 -3.3603
# 5 -15.3286 -2.2406 -19.5152 0.0000 22.8775 0.0000
# 6 0.0000 0.0000 0.0000 -3.3603 0.0000 34.2501
#
#
#
# Elastic Compliance Matrix: (Units=1/GPa)
#
#
# Indices 1 2 3 4 5 6 
#
# 1 0.019928 -0.009884 0.003449 0.000000 0.015326 0.000000
# 2 -0.009884 0.017108 -0.008417 0.000000 -0.012127 0.000000
# 3 0.003449 -0.008417 0.019893 0.000000 0.018456 0.000000
# 4 0.000000 0.000000 0.000000 0.058416 0.000000 0.005731
# 5 0.015326 -0.012127 0.018456 0.000000 0.068535 0.000000
# 6 0.000000 0.000000 0.000000 0.005731 0.000000 0.029759
#
#
# Mechanical properties :
#
#
# Convention : Reuss Voigt Hill
#
# Bulk Modulus (GPa) = 36.73289 51.98167 44.35728
# Shear Modulus (GPa) = 19.80836 25.66445 22.73640
#
# Velocity S-wave (km/s) = 3.24631 3.69515 3.47798
# Velocity P-wave (km/s) = 5.79605 6.77208 6.30299
#
# Compressibility (1/GPa) = 0.02722356
#
# Stress axis : x y z
#
# Youngs Moduli (GPa) = 50.18116 58.45355 50.26867
#
# Poissons Ratio (x) = 0.57776 -0.17335
# Poissons Ratio (y) = 0.49599 0.42311
# Poissons Ratio (z) = -0.17305 0.49200
#
# Static dielectric constant tensor:
#      x y z
#    x 1.693340 0.000000 -0.019160 
#    y 0.000000 1.669380 0.000000 
#    z -0.019160 0.000000 1.656360 
# 
# From -- ./inp_files/242322.got.cif
#   From: 2010.05.17/outbox.cif.g08.bks.cpg/sg12_122_cif.got.tgz:242322.got - 2010.06.03 13:09:07.
