data_PCOD9197108
_publ_section_title
;
Structure prediction by ZEFSAII (Michael W. Deem and Ramdas Pophale) SiO2 
 PCOD9197108
Probable space group: C 2/M
;
_chemical_formula_sum "Si O2"
_cell_formula_units_Z 56
_cell_length_a 25.867660
_cell_length_b 8.125154
_cell_length_c 15.000575
_cell_angle_alpha 90.000000
_cell_angle_beta 58.575406
_cell_angle_gamma 90.000000
_cell_volume 2690.371034
_symmetry_space_group_name_H-M "C 2/M"
_symmetry_group_IT_number 12
_symmetry_cell_setting 'monoclinic'
loop_
_space_group_symop_operation_xyz
x,y,z
-x,y,-z
-x,-y,-z
x,-y,z
1/2+x,1/2+y,z
1/2-x,1/2+y,-z
1/2-x,1/2-y,-z
1/2+x,1/2-y,z
loop_
_atom_site_type_symbol
_atom_site_label
_atom_site_fract_x
_atom_site_fract_y
_atom_site_fract_z
Si Si1 0.135636 0.198196 0.218811
Si Si2 0.073148 0.302040 0.695721
Si Si3 0.526609 0.199150 0.072447
Si Si4 0.839220 0.803782 0.998704
Si Si5 0.496647 0.301158 0.605122
Si Si6 0.254910 0.196696 0.769369
Si Si7 0.207570 0.696622 0.619365
O O1 0.163194 0.261996 0.100475
O O2 0.066884 0.256986 0.294814
O O3 0.178623 0.245631 0.261584
O O4 0.133366 0.000000 0.215668
O O5 0.074362 0.500000 0.701231
O O6 0.139236 0.239455 0.664225
O O7 0.020757 0.242950 0.810066
O O8 0.052276 0.255498 0.615639
O O9 0.592894 0.270903 0.028534
O O10 0.531287 0.000000 0.072728
O O11 0.500000 0.242384 0.000000
O O12 0.829627 0.000000 0.002680
O O13 0.791230 0.736606 0.113118
O O14 0.500000 0.245411 0.500000
O O15 0.496208 0.500000 0.605634
O O16 0.233832 0.249407 0.690737
O O17 0.253666 0.000000 0.773019
O O18 0.204776 0.500000 0.622203
O O19 0.250000 0.750000 0.500000
#
# Coordination Sequence:
#
# PCOD9197108 Si02
#       7
#     8   8   8   8   8   8   8
#     4  10  21  39  61  89 125 162 202 252 307 363
#     4  10  22  40  62  90 120 154 197 247 301 357
#     4  10  20  35  58  87 120 157 197 242 298 361
#     4  10  21  38  59  88 123 159 203 250 303 363
#     4  10  22  39  62  91 121 157 199 246 306 367
#     4  11  24  40  61  91 124 162 207 252 303 363
#     4  11  25  45  66  90 122 161 205 252 304 361
#
# _framework density 20.814973999999999
#
# number of rings (size 3 to 8) (size 9 to 14) (size 15 to 20)
#    0.000    1.714    1.429    2.143    2.000    5.143 
#    0.000    0.000    0.000    0.000    0.000    0.000 
#    0.000    0.000    0.000    0.000    0.000    0.000 
#
# Total GULP energy -156511.916304 kJ/mol
# GULP energy per Si atom -5589.711297 kJ/mol
# Density = 2.076760 g / cm^3
# Si number density = 20.814974 Si / 1000 Ang^3
#
#
#
# Elastic Constant Matrix: (Units=GPa)
#
#
# Indices 1 2 3 4 5 6 
#
# 1 134.6819 -5.6608 26.6245 0.0000 17.6821 0.0000
# 2 -5.6608 11.5519 5.3244 0.0000 0.3910 0.0001
# 3 26.6245 5.3244 76.8415 0.0000 18.6939 0.0000
# 4 0.0000 0.0000 0.0000 17.1633 0.0000 1.2644
# 5 17.6821 0.3910 18.6939 0.0000 39.5615 0.0000
# 6 0.0000 0.0001 0.0000 1.2644 0.0000 14.4180
#
#
#
# Elastic Compliance Matrix: (Units=1/GPa)
#
#
# Indices 1 2 3 4 5 6 
#
# 1 0.008532 0.005517 -0.002709 0.000000 -0.002588 0.000000
# 2 0.005517 0.093177 -0.008524 0.000000 0.000641 -0.000001
# 3 -0.002709 -0.008524 0.016076 0.000000 -0.006301 0.000000
# 4 0.000000 0.000000 0.000000 0.058643 0.000000 -0.005143
# 5 -0.002588 0.000641 -0.006301 0.000000 0.029405 0.000000
# 6 0.000000 -0.000001 0.000000 -0.005143 0.000000 0.069809
#
#
# Mechanical properties :
#
#
# Convention : Reuss Voigt Hill
#
# Bulk Modulus (GPa) = 9.40259 30.62792 20.01526
# Shear Modulus (GPa) = 15.50275 27.34772 21.42524
#
# Velocity S-wave (km/s) = 2.73204 3.62864 3.21178
# Velocity P-wave (km/s) = 3.80514 5.68351 4.83639
#
# Compressibility (1/GPa) = 0.10635371
#
# Stress axis : x y z
#
# Youngs Moduli (GPa) = 117.20483 10.73229 62.20447
#
# Poissons Ratio (x) = -0.05921 0.16851
# Poissons Ratio (y) = -0.64664 0.53022
# Poissons Ratio (z) = 0.31750 0.09148
#
# Static dielectric constant tensor:
#      x y z
#    x 1.705200 0.000000 -0.011340 
#    y 0.000000 1.734810 0.000000 
#    z -0.011340 0.000000 1.747190 
# 
# From -- ./inp_files/238351.got.cif
#   From: 2010.05.17/outbox.cif.g08.bks.cpg/sg12_120_cif.got.tgz:238351.got - 2010.06.03 13:09:07.
