data_PCOD9197135
_publ_section_title
;
Structure prediction by ZEFSAII (Michael W. Deem and Ramdas Pophale) SiO2 
 PCOD9197135
Probable space group: C 2/M
;
_chemical_formula_sum "Si O2"
_cell_formula_units_Z 56
_cell_length_a 27.520681
_cell_length_b 15.969603
_cell_length_c 19.289537
_cell_angle_alpha 90.000000
_cell_angle_beta 160.250708
_cell_angle_gamma 90.000000
_cell_volume 2864.638542
_symmetry_space_group_name_H-M "C 2/M"
_symmetry_group_IT_number 12
_symmetry_cell_setting 'monoclinic'
loop_
_space_group_symop_operation_xyz
x,y,z
-x,y,-z
-x,-y,-z
x,-y,z
1/2+x,1/2+y,z
1/2-x,1/2+y,-z
1/2-x,1/2-y,-z
1/2+x,1/2-y,z
loop_
_atom_site_type_symbol
_atom_site_label
_atom_site_fract_x
_atom_site_fract_y
_atom_site_fract_z
Si Si1 0.570861 0.905119 0.886483
Si Si2 0.169744 0.196200 0.152491
Si Si3 0.032980 0.900871 0.216291
Si Si4 0.348645 0.666366 0.334082
Si Si5 0.451393 0.146354 0.867152
Si Si6 0.775444 0.602294 0.431030
Si Si7 0.162015 0.901605 0.526519
O O1 0.483604 0.903501 0.841710
O O2 0.443695 0.871371 0.665648
O O3 0.605655 0.000000 0.912565
O O4 0.719455 0.860005 0.107827
O O5 0.309638 0.241911 0.310268
O O6 0.203405 0.146032 0.267726
O O7 0.101146 0.137272 0.002983
O O8 0.050805 0.270972 0.999419
O O9 0.176410 0.874934 0.364971
O O10 0.035930 0.882065 0.302392
O O11 0.028150 0.000000 0.202799
O O12 0.500000 0.659911 0.500000
O O13 0.351347 0.612908 0.409508
O O14 0.285679 0.158264 0.661339
O O15 0.500000 0.096235 0.000000
O O16 0.773918 0.500000 0.422864
O O17 0.197551 0.000000 0.563058
#
# Coordination Sequence:
#
# PCOD9197135 Si02
#       7
#     8   8   8   8   8   8   8
#     4  10  20  35  58  88 118 151 191 236 290 354
#     4  11  23  38  57  87 124 161 196 236 285 351
#     4  10  21  36  60  93 125 155 187 232 294 359
#     4  11  26  43  58  83 114 158 203 248 298 335
#     4  11  19  32  51  89 119 152 181 228 297 355
#     4  10  20  35  60  92 126 155 185 232 292 358
#     4  11  22  37  59  87 119 153 193 244 293 349
#
# _framework density 19.548714
#
# number of rings (size 3 to 8) (size 9 to 14) (size 15 to 20)
#    0.000    1.429    4.286    2.571    0.000    5.714 
#    0.000    2.857    0.000    3.429    0.000    0.000 
#    0.000    0.000    0.000    0.000    0.000    0.000 
#
# Total GULP energy -155958.814054 kJ/mol
# GULP energy per Si atom -5569.957645 kJ/mol
# Density = 1.950422 g / cm^3
# Si number density = 19.548714 Si / 1000 Ang^3
#
#
#
# Elastic Constant Matrix: (Units=GPa)
#
#
# Indices 1 2 3 4 5 6 
#
# 1 54.7229 25.7757 43.2543 0.0004 5.2454 -0.0004
# 2 25.7757 38.7289 40.9211 0.0002 -8.0642 -0.0004
# 3 43.2543 40.9211 106.2449 0.0007 -20.0401 -0.0012
# 4 0.0004 0.0002 0.0007 57.0365 0.0007 -38.9630
# 5 5.2454 -8.0642 -20.0401 0.0007 38.1700 -0.0011
# 6 -0.0004 -0.0004 -0.0012 -38.9630 -0.0011 48.9239
#
#
#
# Elastic Compliance Matrix: (Units=1/GPa)
#
#
# Indices 1 2 3 4 5 6 
#
# 1 0.035508 -0.014304 -0.011585 0.000000 -0.013984 -0.000001
# 2 -0.014304 0.049308 -0.012023 0.000000 0.006071 0.000000
# 3 -0.011585 -0.012023 0.020623 0.000000 0.009879 0.000001
# 4 0.000000 0.000000 0.000000 0.038452 0.000000 0.030623
# 5 -0.013984 0.006071 0.009879 0.000000 0.034590 0.000001
# 6 -0.000001 0.000000 0.000001 0.030623 0.000001 0.044828
#
#
# Mechanical properties :
#
#
# Convention : Reuss Voigt Hill
#
# Bulk Modulus (GPa) = 33.76513 46.62209 40.19361
# Shear Modulus (GPa) = 16.18107 34.80911 25.49509
#
# Velocity S-wave (km/s) = 2.88015 4.22433 3.61526
# Velocity P-wave (km/s) = 5.32637 6.90611 6.16703
#
# Compressibility (1/GPa) = 0.02961635
#
# Stress axis : x y z
#
# Youngs Moduli (GPa) = 28.16240 20.28086 48.49032
#
# Poissons Ratio (x) = 0.29009 0.56174
# Poissons Ratio (y) = 0.40283 0.58299
# Poissons Ratio (z) = 0.32625 0.24383
#
# Static dielectric constant tensor:
#      x y z
#    x 1.677510 0.000000 -0.018360 
#    y 0.000000 1.714970 0.000000 
#    z -0.018360 0.000000 1.789800 
# 
# From -- ./inp_files/293935.got.cif
#   From: 2010.05.17/outbox.cif.g08.bks.cpg/sg12_147_cif.got.tgz:293935.got - 2010.06.03 13:09:07.
