data_PCOD9197935
_publ_section_title
;
Structure prediction by ZEFSAII (Michael W. Deem and Ramdas Pophale) SiO2 
 PCOD9197935
Probable space group: C 2/M
;
_chemical_formula_sum "Si O2"
_cell_formula_units_Z 48
_cell_length_a 13.729600
_cell_length_b 12.032206
_cell_length_c 27.350134
_cell_angle_alpha 90.000000
_cell_angle_beta 155.929592
_cell_angle_gamma 90.000000
_cell_volume 1842.776205
_symmetry_space_group_name_H-M "C 2/M"
_symmetry_group_IT_number 12
_symmetry_cell_setting 'monoclinic'
loop_
_space_group_symop_operation_xyz
x,y,z
-x,y,-z
-x,-y,-z
x,-y,z
1/2+x,1/2+y,z
1/2-x,1/2+y,-z
1/2-x,1/2-y,-z
1/2+x,1/2-y,z
loop_
_atom_site_type_symbol
_atom_site_label
_atom_site_fract_x
_atom_site_fract_y
_atom_site_fract_z
Si Si1 0.971116 0.751868 0.056375
Si Si2 0.567856 0.500000 0.974892
Si Si3 0.937892 0.500000 0.029632
Si Si4 0.987075 0.256768 0.260747
Si Si5 0.539298 0.000000 0.747486
Si Si6 0.653113 0.128067 0.519303
Si Si7 0.730296 0.258236 0.706987
Si Si8 0.317202 0.000000 0.750699
O O1 0.845004 0.873556 0.996948
O O2 0.848993 0.630225 0.994009
O O3 0.201664 0.756079 0.125987
O O4 0.112046 0.754616 0.172670
O O5 0.285227 0.500000 0.828363
O O6 0.500000 0.500000 0.000000
O O7 0.096361 0.500000 0.152927
O O8 0.000000 0.500000 0.000000
O O9 0.071044 0.380732 0.313482
O O10 0.089210 0.175198 0.348192
O O11 0.099657 0.227434 0.260653
O O12 0.524414 0.000000 0.802020
O O13 0.500000 0.141603 0.500000
O O14 0.507130 0.188480 0.410100
O O15 0.670212 0.000000 0.515840
O O16 0.675098 0.388329 0.676289
#
# Coordination Sequence:
#
# PCOD9197935 Si02
#       8
#     8   4   4   8   4   8   8   4
#     4  10  21  35  56  78 102 138 172 209 263 312
#     4  10  20  36  55  77 103 131 169 216 263 313
#     4  10  20  36  55  77 103 131 169 216 263 313
#     4   9  18  33  52  75 104 136 172 211 251 300
#     4   8  16  33  54  74  99 134 172 211 256 303
#     4   9  18  30  47  73 106 139 169 207 251 295
#     4   9  18  33  52  75 104 136 172 211 251 300
#     4   8  16  33  54  74  99 134 172 211 256 303
#
# _framework density 26.047656
#
# number of rings (size 3 to 8) (size 9 to 14) (size 15 to 20)
#    0.000    2.833    0.000    0.500    2.333    1.333 
#    0.000    5.000    0.000    8.000    0.000    0.000 
#    0.000    0.000    0.000    0.000    0.000    0.000 
#
# Total GULP energy -133845.558846 kJ/mol
# GULP energy per Si atom -5576.898285 kJ/mol
# Density = 2.598837 g / cm^3
# Si number density = 26.047656 Si / 1000 Ang^3
#
#
#
# Elastic Constant Matrix: (Units=GPa)
#
#
# Indices 1 2 3 4 5 6 
#
# 1 113.5923 15.9926 11.6820 0.0001 -7.1995 -0.0007
# 2 15.9926 239.4016 92.5437 -0.0002 -14.2601 -0.0001
# 3 11.6820 92.5437 81.2837 0.0015 -6.8164 0.0011
# 4 0.0001 -0.0002 0.0015 55.1781 0.0007 -11.7809
# 5 -7.1995 -14.2601 -6.8164 0.0007 31.8314 -0.0003
# 6 -0.0007 -0.0001 0.0011 -11.7809 -0.0003 12.2530
#
#
#
# Elastic Compliance Matrix: (Units=1/GPa)
#
#
# Indices 1 2 3 4 5 6 
#
# 1 0.009037 -0.000095 -0.001041 0.000000 0.001778 0.000001
# 2 -0.000095 0.007538 -0.008438 0.000001 0.001548 0.000001
# 3 -0.001041 -0.008438 0.022120 -0.000001 0.000721 -0.000003
# 4 0.000000 0.000001 -0.000001 0.022804 0.000000 0.021926
# 5 0.001778 0.001548 0.000721 0.000000 0.032666 0.000001
# 6 0.000001 0.000001 -0.000003 0.021926 0.000001 0.102694
#
#
# Mechanical properties :
#
#
# Convention : Reuss Voigt Hill
#
# Bulk Modulus (GPa) = 51.16458 74.96824 63.06641
# Shear Modulus (GPa) = 22.46967 40.78978 31.62973
#
# Velocity S-wave (km/s) = 2.94025 3.96152 3.48846
# Velocity P-wave (km/s) = 5.58678 7.05468 6.36320
#
# Compressibility (1/GPa) = 0.01954477
#
# Stress axis : x y z
#
# Youngs Moduli (GPa) = 110.66101 132.66909 45.20837
#
# Poissons Ratio (x) = 0.01264 0.04707
# Poissons Ratio (y) = 0.01054 0.38148
# Poissons Ratio (z) = 0.11521 1.11949
#
# Static dielectric constant tensor:
#      x y z
#    x 2.175660 0.000000 0.065100 
#    y 0.000000 1.986720 0.000000 
#    z 0.065100 0.000000 2.243660 
# 
# From -- ./inp_files/246053.got.cif
#   From: 2010.05.17/outbox.cif.g08.bks.cpg/sg12_124_cif.got.tgz:246053.got - 2010.06.03 13:09:07.
