data_PCOD9197558
_publ_section_title
;
Structure prediction by ZEFSAII (Michael W. Deem and Ramdas Pophale) SiO2 
 PCOD9197558
Probable space group: C 2/M
;
_chemical_formula_sum "Si O2"
_cell_formula_units_Z 64
_cell_length_a 30.368487
_cell_length_b 8.561487
_cell_length_c 12.734247
_cell_angle_alpha 90.000000
_cell_angle_beta 63.261609
_cell_angle_gamma 90.000000
_cell_volume 2956.862888
_symmetry_space_group_name_H-M "C 2/M"
_symmetry_group_IT_number 12
_symmetry_cell_setting 'monoclinic'
loop_
_space_group_symop_operation_xyz
x,y,z
-x,y,-z
-x,-y,-z
x,-y,z
1/2+x,1/2+y,z
1/2-x,1/2+y,-z
1/2-x,1/2-y,-z
1/2+x,1/2-y,z
loop_
_atom_site_type_symbol
_atom_site_label
_atom_site_fract_x
_atom_site_fract_y
_atom_site_fract_z
Si Si1 0.423740 0.813095 0.883739
Si Si2 0.280020 0.813819 0.781294
Si Si3 0.870534 0.312177 0.277457
Si Si4 0.824690 0.312443 0.109655
Si Si5 0.118235 0.813439 0.279854
Si Si6 0.472682 0.313414 0.213717
Si Si7 0.705975 0.188984 0.474257
Si Si8 0.544727 0.689963 0.528668
O O1 0.417323 0.744770 0.774121
O O2 0.474828 0.753728 0.877271
O O3 0.424493 0.000000 0.879862
O O4 0.374183 0.762537 0.996903
O O5 0.226473 0.757530 0.874711
O O6 0.326999 0.751265 0.793537
O O7 0.287638 0.757458 0.652247
O O8 0.281286 0.000000 0.781491
O O9 0.875146 0.500000 0.272327
O O10 0.834368 0.268976 0.220750
O O11 0.924353 0.241190 0.204269
O O12 0.844529 0.261286 0.413627
O O13 0.821222 0.500000 0.106456
O O14 0.094546 0.759693 0.415927
O O15 0.955128 0.000000 0.467899
O O16 0.475604 0.500000 0.209983
O O17 0.463149 0.256096 0.344242
O O18 0.750000 0.250000 0.500000
O O19 0.707129 0.000000 0.473298
O O20 0.500000 0.736303 0.500000
O O21 0.619291 0.500000 0.277507
#
# Coordination Sequence:
#
# PCOD9197558 Si02
#       8
#     8   8   8   8   8   8   8   8
#     4  11  24  42  62  86 116 153 202 253 295 344
#     4  11  23  38  60  93 125 152 193 249 297 346
#     4  10  21  39  61  87 120 156 196 239 290 352
#     4  10  23  43  64  83 113 161 205 242 294 355
#     4  11  22  39  64  89 119 159 196 238 296 359
#     4  11  22  38  62  90 120 155 195 239 294 355
#     4  10  20  35  60  90 123 157 193 239 294 352
#     4   9  17  34  59  87 118 152 192 232 283 354
#
# _framework density 21.644560999999999
#
# number of rings (size 3 to 8) (size 9 to 14) (size 15 to 20)
#    0.000    1.625    2.500    2.250    0.000    3.500 
#    0.000    5.000    0.000    0.000    0.000    0.000 
#    0.000    0.000    0.000    0.000    0.000    0.000 
#
# Total GULP energy -178894.333234 kJ/mol
# GULP energy per Si atom -5590.447914 kJ/mol
# Density = 2.159530 g / cm^3
# Si number density = 21.644561 Si / 1000 Ang^3
#
#
#
# Elastic Constant Matrix: (Units=GPa)
#
#
# Indices 1 2 3 4 5 6 
#
# 1 88.7839 11.5526 5.4925 0.0000 -42.3155 0.0000
# 2 11.5526 21.5349 16.5497 0.0000 -13.8367 0.0000
# 3 5.4925 16.5497 76.7780 0.0000 -33.9500 0.0000
# 4 0.0000 0.0000 0.0000 21.6134 0.0000 -6.9005
# 5 -42.3155 -13.8367 -33.9500 0.0000 43.4518 0.0000
# 6 0.0000 0.0000 0.0000 -6.9005 0.0000 30.8883
#
#
#
# Elastic Compliance Matrix: (Units=1/GPa)
#
#
# Indices 1 2 3 4 5 6 
#
# 1 0.030904 -0.002300 0.017218 0.000000 0.042816 0.000000
# 2 -0.002300 0.060875 -0.008214 0.000000 0.010727 0.000000
# 3 0.017218 -0.008214 0.030284 0.000000 0.037813 0.000000
# 4 0.000000 0.000000 0.000000 0.049821 0.000000 0.011130
# 5 0.042816 0.010727 0.037813 0.000000 0.097671 0.000000
# 6 0.000000 0.000000 0.000000 0.011130 0.000000 0.034861
#
#
# Mechanical properties :
#
#
# Convention : Reuss Voigt Hill
#
# Bulk Modulus (GPa) = 7.38171 28.25403 17.81787
# Shear Modulus (GPa) = 14.87363 29.42416 22.14889
#
# Velocity S-wave (km/s) = 2.62425 3.69104 3.20238
# Velocity P-wave (km/s) = 3.54966 5.58990 4.68226
#
# Compressibility (1/GPa) = 0.13547001
#
# Stress axis : x y z
#
# Youngs Moduli (GPa) = 32.35820 16.42708 33.02103
#
# Poissons Ratio (x) = 0.03779 -0.56854
# Poissons Ratio (y) = 0.07443 0.27123
# Poissons Ratio (z) = -0.55713 0.13493
#
# Static dielectric constant tensor:
#      x y z
#    x 1.760200 0.000000 0.011750 
#    y 0.000000 1.723170 0.000000 
#    z 0.011750 0.000000 1.838020 
# 
# From -- ./inp_files/249697.got.cif
#   From: 2010.05.17/outbox.cif.g08.bks.cpg/sg12_125_cif.got.tgz:249697.got - 2010.06.03 13:09:07.
