data_PCOD9197856
_publ_section_title
;
Structure prediction by ZEFSAII (Michael W. Deem and Ramdas Pophale) SiO2 
 PCOD9197856
Probable space group: C 2/M
;
_chemical_formula_sum "Si O2"
_cell_formula_units_Z 40
_cell_length_a 15.136172
_cell_length_b 7.576180
_cell_length_c 20.859802
_cell_angle_alpha 90.000000
_cell_angle_beta 54.936064
_cell_angle_gamma 90.000000
_cell_volume 1957.948650
_symmetry_space_group_name_H-M "C 2/M"
_symmetry_group_IT_number 12
_symmetry_cell_setting 'monoclinic'
loop_
_space_group_symop_operation_xyz
x,y,z
-x,y,-z
-x,-y,-z
x,-y,z
1/2+x,1/2+y,z
1/2-x,1/2+y,-z
1/2-x,1/2-y,-z
1/2+x,1/2-y,z
loop_
_atom_site_type_symbol
_atom_site_label
_atom_site_fract_x
_atom_site_fract_y
_atom_site_fract_z
Si Si1 0.096375 0.283606 0.912406
Si Si2 0.202307 0.789846 0.089980
Si Si3 0.847815 0.285566 0.380116
Si Si4 0.897847 0.208544 0.502167
Si Si5 0.456534 0.204033 0.205519
O O1 0.092643 0.500000 0.913295
O O2 0.209304 0.229539 0.895736
O O3 0.080837 0.218188 0.846755
O O4 0.000000 0.227701 0.000000
O O5 0.085651 0.709358 0.149825
O O6 0.190471 0.000000 0.100273
O O7 0.250000 0.750000 0.000000
O O8 0.847032 0.500000 0.381586
O O9 0.905593 0.230684 0.422153
O O10 0.722894 0.222419 0.431755
O O11 0.908630 0.221451 0.291127
O O12 0.000000 0.280336 0.500000
O O13 0.893788 0.000000 0.518119
O O14 0.420878 0.000000 0.219507
#
# Coordination Sequence:
#
# PCOD9197856 Si02
#       5
#     8   8   8   8   8
#     4   9  17  32  53  73  97 136 176 210 258 313
#     4  11  21  34  54  77 101 135 179 222 265 308
#     4   9  19  34  53  79 108 139 170 213 268 311
#     4   9  18  34  57  81 106 137 175 215 255 310
#     4  10  20  36  54  74 106 141 177 216 259 316
#
# _framework density 20.429545000000001
#
# number of rings (size 3 to 8) (size 9 to 14) (size 15 to 20)
#    0.000    2.400    2.000    0.600    0.000    2.800 
#    0.000    7.000    0.000    0.000    0.000    0.000 
#    0.000    0.000    0.000    0.000    0.000    0.000 
#
# Total GULP energy -111606.362099 kJ/mol
# GULP energy per Si atom -5580.318105 kJ/mol
# Density = 2.038305 g / cm^3
# Si number density = 20.429545 Si / 1000 Ang^3
#
#
#
# Elastic Constant Matrix: (Units=GPa)
#
#
# Indices 1 2 3 4 5 6 
#
# 1 200.7525 -8.3587 87.3532 0.0000 19.6860 0.0001
# 2 -8.3587 43.3285 -14.8302 0.0000 -0.6178 0.0003
# 3 87.3532 -14.8302 165.6836 0.0000 24.8674 0.0000
# 4 0.0000 0.0000 0.0000 14.5071 0.0000 -3.7754
# 5 19.6860 -0.6178 24.8674 0.0000 19.7894 0.0000
# 6 0.0001 0.0003 0.0000 -3.7754 0.0000 8.6694
#
#
#
# Elastic Compliance Matrix: (Units=1/GPa)
#
#
# Indices 1 2 3 4 5 6 
#
# 1 0.006580 0.000188 -0.003045 0.000000 -0.002713 0.000000
# 2 0.000188 0.023906 0.002411 0.000000 -0.002471 -0.000001
# 3 -0.003045 0.002411 0.009109 0.000000 -0.008342 0.000000
# 4 0.000000 0.000000 0.000000 0.077743 0.000000 0.033855
# 5 -0.002713 -0.002471 -0.008342 0.000000 0.063637 0.000000
# 6 0.000000 -0.000001 0.000000 0.033855 0.000000 0.130091
#
#
# Mechanical properties :
#
#
# Convention : Reuss Voigt Hill
#
# Bulk Modulus (GPa) = 25.83683 59.78812 42.81248
# Shear Modulus (GPa) = 15.39135 31.63319 23.51227
#
# Velocity S-wave (km/s) = 2.74777 3.93925 3.39617
# Velocity P-wave (km/s) = 4.76878 7.07243 6.03160
#
# Compressibility (1/GPa) = 0.03870443
#
# Stress axis : x y z
#
# Youngs Moduli (GPa) = 151.97051 41.83057 109.78202
#
# Poissons Ratio (x) = -0.00788 0.33430
# Poissons Ratio (y) = -0.02864 -0.26472
# Poissons Ratio (z) = 0.46277 -0.10087
#
# Static dielectric constant tensor:
#      x y z
#    x 1.685920 0.000000 0.048110 
#    y 0.000000 1.775360 0.000000 
#    z 0.048110 0.000000 1.631520 
# 
# From -- ./inp_files/203281.got.cif
#   From: 2010.05.17/outbox.cif.g08.bks.cpg/sg12_102_cif.got.tgz:203281.got - 2010.06.03 13:09:07.
