data_PCOD9197683
_publ_section_title
;
Structure prediction by ZEFSAII (Michael W. Deem and Ramdas Pophale) SiO2 
 PCOD9197683
Probable space group: C 2/M
;
_chemical_formula_sum "Si O2"
_cell_formula_units_Z 56
_cell_length_a 20.768785
_cell_length_b 19.803376
_cell_length_c 17.698039
_cell_angle_alpha 90.000000
_cell_angle_beta 21.341368
_cell_angle_gamma 90.000000
_cell_volume 2649.024403
_symmetry_space_group_name_H-M "C 2/M"
_symmetry_group_IT_number 12
_symmetry_cell_setting 'monoclinic'
loop_
_space_group_symop_operation_xyz
x,y,z
-x,y,-z
-x,-y,-z
x,-y,z
1/2+x,1/2+y,z
1/2-x,1/2+y,-z
1/2-x,1/2-y,-z
1/2+x,1/2-y,z
loop_
_atom_site_type_symbol
_atom_site_label
_atom_site_fract_x
_atom_site_fract_y
_atom_site_fract_z
Si Si1 0.771662 0.077179 0.587161
Si Si2 0.048032 0.076405 0.754715
Si Si3 0.706881 0.197618 0.254300
Si Si4 0.229416 0.420261 0.344141
Si Si5 0.838620 0.616221 0.829706
Si Si6 0.878288 0.577486 0.953617
Si Si7 0.788649 0.845312 0.723726
O O1 0.905878 0.106925 0.377723
O O2 0.583810 0.075233 0.750783
O O3 0.750238 0.119999 0.685992
O O4 0.823131 0.000000 0.552110
O O5 0.152927 0.103268 0.712644
O O6 0.117571 0.000000 0.672399
O O7 0.838866 0.074685 0.993395
O O8 0.500000 0.201334 0.500000
O O9 0.769075 0.131266 0.232377
O O10 0.707877 0.184912 0.163634
O O11 0.786996 0.269243 0.189088
O O12 0.263707 0.500000 0.289839
O O13 0.021724 0.412631 0.594702
O O14 0.858229 0.617756 0.897804
O O15 0.817651 0.500000 0.007054
O O16 0.780394 0.610806 0.130964
O O17 0.000000 0.842333 0.500000
#
# Coordination Sequence:
#
# PCOD9197683 Si02
#       7
#     8   8   8   8   8   8   8
#     4  10  21  40  62  92 126 157 203 257 308 367
#     4  10  20  35  61  94 124 155 198 255 308 366
#     4   9  23  42  61  85 124 166 209 250 303 367
#     4  10  20  39  63  89 125 161 203 260 309 354
#     4  11  21  38  63  91 124 160 201 252 309 366
#     4  11  22  38  64  93 122 160 204 254 313 367
#     4  11  23  41  61  86 126 165 205 253 302 366
#
# _framework density 21.139858
#
# number of rings (size 3 to 8) (size 9 to 14) (size 15 to 20)
#    0.000    1.714    1.429    3.000    0.000    8.286 
#    5.143    3.571    0.000    0.000    0.000    0.000 
#    0.000    0.000    0.000    0.000    0.000    0.000 
#
# Total GULP energy -156266.236592 kJ/mol
# GULP energy per Si atom -5580.937021 kJ/mol
# Density = 2.109174 g / cm^3
# Si number density = 21.139858 Si / 1000 Ang^3
#
#
#
# Elastic Constant Matrix: (Units=GPa)
#
#
# Indices 1 2 3 4 5 6 
#
# 1 167.3812 68.0620 35.3426 0.1626 21.8572 0.4049
# 2 68.0620 77.8365 17.5624 0.4281 11.3855 1.0963
# 3 35.3426 17.5624 83.4516 0.2066 4.3310 0.5066
# 4 0.1626 0.4281 0.2066 -24.8592 -0.0834 -94.6704
# 5 21.8572 11.3855 4.3310 -0.0834 34.7106 -0.1967
# 6 0.4049 1.0963 0.5066 -94.6704 -0.1967 -245.2085
#
#
#
# Elastic Compliance Matrix: (Units=1/GPa)
#
#
# Indices 1 2 3 4 5 6 
#
# 1 0.010115 -0.007774 -0.002465 -0.000002 -0.003512 -0.000020
# 2 -0.007774 0.020067 -0.000849 -0.000004 -0.001580 0.000078
# 3 -0.002465 -0.000849 0.013196 -0.000011 0.000184 0.000023
# 4 -0.000002 -0.000004 -0.000011 0.085534 0.000023 -0.033023
# 5 -0.003512 -0.001580 0.000184 0.000023 0.031516 -0.000046
# 6 -0.000020 0.000078 0.000023 -0.033023 -0.000046 0.008672
#
#
# Mechanical properties :
#
#
# Convention : Reuss Voigt Hill
#
# Bulk Modulus (GPa) = 47.16828 63.40038 55.28433
# Shear Modulus (GPa) = 25.20867 -33.22459 -4.00796
#
# Velocity S-wave (km/s) = 3.45696 -3.96871 -1.37842
# Velocity P-wave (km/s) = 6.18830 3.00917 4.86571
#
# Compressibility (1/GPa) = 0.02120069
#
# Stress axis : x y z
#
# Youngs Moduli (GPa) = 98.86437 49.83234 75.78036
#
# Poissons Ratio (x) = 0.38742 0.18682
# Poissons Ratio (y) = 0.76862 0.06434
# Poissons Ratio (z) = 0.24372 0.04231
#
# Static dielectric constant tensor:
#      x y z
#    x 1.772950 -0.000010 0.012750 
#    y -0.000010 1.782550 0.000010 
#    z 0.012750 0.000010 1.791280 
# 
# From -- ./inp_files/286012.got.cif
#   From: 2010.05.17/outbox.cif.g08.bks.cpg/sg12_144_cif.got.tgz:286012.got - 2010.06.03 13:09:07.
