data_PCOD9197535
_publ_section_title
;
Structure prediction by ZEFSAII (Michael W. Deem and Ramdas Pophale) SiO2 
 PCOD9197535
Probable space group: C 2/M
;
_chemical_formula_sum "Si O2"
_cell_formula_units_Z 64
_cell_length_a 27.949258
_cell_length_b 8.802957
_cell_length_c 12.957674
_cell_angle_alpha 90.000000
_cell_angle_beta 86.802240
_cell_angle_gamma 90.000000
_cell_volume 3183.091812
_symmetry_space_group_name_H-M "C 2/M"
_symmetry_group_IT_number 12
_symmetry_cell_setting 'monoclinic'
loop_
_space_group_symop_operation_xyz
x,y,z
-x,y,-z
-x,-y,-z
x,-y,z
1/2+x,1/2+y,z
1/2-x,1/2+y,-z
1/2-x,1/2-y,-z
1/2+x,1/2-y,z
loop_
_atom_site_type_symbol
_atom_site_label
_atom_site_fract_x
_atom_site_fract_y
_atom_site_fract_z
Si Si1 0.405349 0.828550 0.866733
Si Si2 0.823795 0.175493 0.981883
Si Si3 0.412544 0.824139 0.636116
Si Si4 0.522741 0.180264 0.676189
Si Si5 0.277754 0.683887 0.397437
Si Si6 0.384193 0.320981 0.439157
Si Si7 0.499892 0.324653 0.885429
Si Si8 0.249216 0.679884 0.168596
O O1 0.367176 0.789811 0.957675
O O2 0.387422 0.823278 0.750969
O O3 0.444682 0.697556 0.863536
O O4 0.425565 0.000000 0.876442
O O5 0.787153 0.219297 0.894156
O O6 0.838769 0.000000 0.969225
O O7 0.798068 0.191874 0.095311
O O8 0.468935 0.777789 0.642415
O O9 0.385111 0.719921 0.559637
O O10 0.412602 0.000000 0.599854
O O11 0.567287 0.246292 0.609184
O O12 0.527412 0.237158 0.793125
O O13 0.523922 0.000000 0.672318
O O14 0.276348 0.500000 0.404383
O O15 0.250000 0.750000 0.500000
O O16 0.333760 0.731678 0.397213
O O17 0.256381 0.723805 0.287126
O O18 0.387742 0.500000 0.421853
O O19 0.514868 0.500000 0.886373
O O20 0.500000 0.258667 0.000000
O O21 0.235059 0.500000 0.165761
#
# Coordination Sequence:
#
# PCOD9197535 Si02
#       8
#     8   8   8   8   8   8   8   8
#     4  10  21  36  56  84 117 152 192 234 285 347
#     4  10  20  35  60  89 114 146 192 244 296 349
#     4   9  20  37  56  81 115 153 192 236 284 343
#     4  10  21  38  59  84 115 152 195 237 284 346
#     4  10  24  43  60  83 116 154 196 242 296 357
#     4  11  23  37  57  86 115 149 193 241 294 347
#     4  10  21  37  57  83 116 152 188 233 288 338
#     4   9  20  40  60  80 113 152 189 239 300 354
#
# _framework density 20.106238000000001
#
# number of rings (size 3 to 8) (size 9 to 14) (size 15 to 20)
#    0.000    2.125    0.000    3.000    1.750    8.500 
#    0.000    2.500    0.000    0.000    0.000    0.000 
#    0.000    0.000    0.000    0.000    0.000    0.000 
#
# Total GULP energy -178429.966096 kJ/mol
# GULP energy per Si atom -5575.936440 kJ/mol
# Density = 2.006047 g / cm^3
# Si number density = 20.106238 Si / 1000 Ang^3
#
#
#
# Elastic Constant Matrix: (Units=GPa)
#
#
# Indices 1 2 3 4 5 6 
#
# 1 17.0292 2.8762 2.2535 0.0000 -9.1584 0.0000
# 2 2.8762 23.5730 14.9017 0.0000 -2.7107 0.0000
# 3 2.2535 14.9017 101.1157 0.0000 3.1420 0.0000
# 4 0.0000 0.0000 0.0000 23.3855 0.0000 -0.1699
# 5 -9.1584 -2.7107 3.1420 0.0000 22.3520 0.0000
# 6 0.0000 0.0000 0.0000 -0.1699 0.0000 -21.9432
#
#
#
# Elastic Compliance Matrix: (Units=1/GPa)
#
#
# Indices 1 2 3 4 5 6 
#
# 1 0.076452 -0.004487 -0.002008 0.000000 0.031063 0.000000
# 2 -0.004487 0.048055 -0.007137 0.000000 0.004992 0.000000
# 3 -0.002008 -0.007137 0.011087 0.000000 -0.003247 0.000000
# 4 0.000000 0.000000 0.000000 0.042759 0.000000 -0.000331
# 5 0.031063 0.004992 -0.003247 0.000000 0.058528 0.000000
# 6 0.000000 0.000000 0.000000 -0.000331 0.000000 -0.045570
#
#
# Mechanical properties :
#
#
# Convention : Reuss Voigt Hill
#
# Bulk Modulus (GPa) = 9.23106 20.19787 14.71447
# Shear Modulus (GPa) = 19.63209 12.87129 16.25169
#
# Velocity S-wave (km/s) = 3.12816 2.53289 2.84613
# Velocity P-wave (km/s) = 4.20099 4.31526 4.25850
#
# Compressibility (1/GPa) = 0.10832987
#
# Stress axis : x y z
#
# Youngs Moduli (GPa) = 13.08012 20.80966 90.19495
#
# Poissons Ratio (x) = 0.09337 0.18109
# Poissons Ratio (y) = 0.05869 0.64373
# Poissons Ratio (z) = 0.02626 0.14852
#
# Static dielectric constant tensor:
#      x y z
#    x 1.756130 0.000000 0.010280 
#    y 0.000000 1.689550 0.000000 
#    z 0.010280 0.000000 1.741650 
# 
# From -- ./inp_files/187573.got.cif
#   From: 2010.05.17/outbox.cif.g08.bks.cpg/sg12_94_cif.got.tgz:187573.got - 2010.06.03 13:09:07.
