data_PCOD9197915
_publ_section_title
;
Structure prediction by ZEFSAII (Michael W. Deem and Ramdas Pophale) SiO2 
 PCOD9197915
Probable space group: C 2/M
;
_chemical_formula_sum "Si O2"
_cell_formula_units_Z 40
_cell_length_a 8.697175
_cell_length_b 11.075231
_cell_length_c 21.458681
_cell_angle_alpha 90.000000
_cell_angle_beta 96.117514
_cell_angle_gamma 90.000000
_cell_volume 2055.198766
_symmetry_space_group_name_H-M "C 2/M"
_symmetry_group_IT_number 12
_symmetry_cell_setting 'monoclinic'
loop_
_space_group_symop_operation_xyz
x,y,z
-x,y,-z
-x,-y,-z
x,-y,z
1/2+x,1/2+y,z
1/2-x,1/2+y,-z
1/2-x,1/2-y,-z
1/2+x,1/2-y,z
loop_
_atom_site_type_symbol
_atom_site_label
_atom_site_fract_x
_atom_site_fract_y
_atom_site_fract_z
Si Si1 0.822176 0.132760 0.471496
Si Si2 0.362555 0.310513 0.953883
Si Si3 0.442900 0.133556 0.125663
Si Si4 0.980133 0.360734 0.729461
Si Si5 0.636172 0.635390 0.673990
O O1 0.750000 0.250000 0.500000
O O2 0.817938 0.143057 0.396643
O O3 0.000000 0.130256 0.500000
O O4 0.753970 0.000000 0.485559
O O5 0.457015 0.218993 0.914179
O O6 0.235467 0.370543 0.903820
O O7 0.500000 0.372089 0.000000
O O8 0.250000 0.250000 0.000000
O O9 0.457647 0.166352 0.198677
O O10 0.510273 0.000000 0.121765
O O11 0.026910 0.500000 0.714478
O O12 0.794417 0.359980 0.720000
O O13 0.036647 0.251951 0.687985
O O14 0.565461 0.500000 0.680223
#
# Coordination Sequence:
#
# PCOD9197915 Si02
#       5
#     8   8   8   8   8
#     4  10  21  36  55  81 111 144 182 224 271 322
#     4   9  19  34  53  78 104 134 174 213 259 321
#     4  10  20  36  55  75 105 139 172 218 268 315
#     4  10  21  36  56  81 108 143 184 223 270 325
#     4  10  21  37  56  80 111 144 181 226 272 319
#
# _framework density 19.462838000000001
#
# number of rings (size 3 to 8) (size 9 to 14) (size 15 to 20)
#    0.000    2.200    0.000    2.400    0.000    6.000 
#    0.000    4.000    0.000    0.000    0.000    0.000 
#    0.000    0.000    0.000    0.000    0.000    0.000 
#
# Total GULP energy -111359.411441 kJ/mol
# GULP energy per Si atom -5567.970572 kJ/mol
# Density = 1.941854 g / cm^3
# Si number density = 19.462838 Si / 1000 Ang^3
#
#
#
# Elastic Constant Matrix: (Units=GPa)
#
#
# Indices 1 2 3 4 5 6 
#
# 1 58.5041 34.4413 4.5811 0.0000 4.5485 0.0000
# 2 34.4413 159.4831 23.7163 0.0000 -37.7489 0.0000
# 3 4.5811 23.7163 57.8642 0.0000 12.2156 0.0000
# 4 0.0000 0.0000 0.0000 -6.5415 0.0000 12.8872
# 5 4.5485 -37.7489 12.2156 0.0000 30.4970 0.0000
# 6 0.0000 0.0000 0.0000 12.8872 0.0000 19.6292
#
#
#
# Elastic Compliance Matrix: (Units=1/GPa)
#
#
# Indices 1 2 3 4 5 6 
#
# 1 0.024688 -0.011145 0.006885 0.000000 -0.020235 0.000000
# 2 -0.011145 0.016896 -0.011807 0.000000 0.027305 0.000000
# 3 0.006885 -0.011807 0.027176 0.000000 -0.026526 0.000000
# 4 0.000000 0.000000 0.000000 -0.066656 0.000000 0.043762
# 5 -0.020235 0.027305 -0.026526 0.000000 0.080231 0.000000
# 6 0.000000 0.000000 0.000000 0.043762 0.000000 0.022213
#
#
# Mechanical properties :
#
#
# Convention : Reuss Voigt Hill
#
# Bulk Modulus (GPa) = 27.30289 44.59209 35.94749
# Shear Modulus (GPa) = 33.58202 22.92447 28.25325
#
# Velocity S-wave (km/s) = 4.15835 3.43572 3.81419
# Velocity P-wave (km/s) = 6.09217 6.22093 6.15689
#
# Compressibility (1/GPa) = 0.03662617
#
# Stress axis : x y z
#
# Youngs Moduli (GPa) = 40.50581 59.18672 36.79743
#
# Poissons Ratio (x) = 0.65962 -0.25335
# Poissons Ratio (y) = 0.45143 0.43446
# Poissons Ratio (z) = -0.27888 0.69880
#
# Static dielectric constant tensor:
#      x y z
#    x 1.657810 0.000000 0.028510 
#    y 0.000000 1.712240 0.000000 
#    z 0.028510 0.000000 1.706520 
# 
# From -- ./inp_files/254727.got.cif
#   From: 2010.05.17/outbox.cif.g08.bks.cpg/sg12_128_cif.got.tgz:254727.got - 2010.06.03 13:09:07.
