data_PCOD9197069
_publ_section_title
;
Structure prediction by ZEFSAII (Michael W. Deem and Ramdas Pophale) SiO2 
 PCOD9197069
Probable space group: C 2/M
;
_chemical_formula_sum "Si O2"
_cell_formula_units_Z 52
_cell_length_a 12.344103
_cell_length_b 23.539719
_cell_length_c 9.061854
_cell_angle_alpha 90.000000
_cell_angle_beta 79.736494
_cell_angle_gamma 90.000000
_cell_volume 2591.029797
_symmetry_space_group_name_H-M "C 2/M"
_symmetry_group_IT_number 12
_symmetry_cell_setting 'monoclinic'
loop_
_space_group_symop_operation_xyz
x,y,z
-x,y,-z
-x,-y,-z
x,-y,z
1/2+x,1/2+y,z
1/2-x,1/2+y,-z
1/2-x,1/2-y,-z
1/2+x,1/2-y,z
loop_
_atom_site_type_symbol
_atom_site_label
_atom_site_fract_x
_atom_site_fract_y
_atom_site_fract_z
Si Si1 0.527584 0.000000 0.318172
Si Si2 0.411332 0.880302 0.647456
Si Si3 0.039323 0.826929 0.161163
Si Si4 0.331252 0.390364 0.299917
Si Si5 0.301824 0.000000 0.189975
Si Si6 0.411078 0.798484 0.893961
Si Si7 0.232492 0.892985 0.019998
Si Si8 0.128934 0.000000 0.505310
O O1 0.500000 0.000000 0.500000
O O2 0.594105 0.942469 0.276492
O O3 0.416925 0.000000 0.250044
O O4 0.500000 0.883954 0.500000
O O5 0.288029 0.864288 0.630876
O O6 0.456877 0.835972 0.751323
O O7 0.097168 0.765614 0.165129
O O8 0.131795 0.874861 0.149359
O O9 0.932248 0.845629 0.279907
O O10 0.000000 0.826688 0.000000
O O11 0.347764 0.444279 0.400801
O O12 0.317479 0.407612 0.129680
O O13 0.292478 0.944569 0.087486
O O14 0.206620 0.000000 0.340289
O O15 0.500000 0.796790 0.000000
O O16 0.306249 0.835969 0.973036
O O17 0.000000 0.000000 0.500000
#
# Coordination Sequence:
#
# PCOD9197069 Si02
#       8
#     4   8   8   8   4   8   8   4
#     4  10  20  36  56  77 112 153 189 233 289 350
#     4  10  20  37  58  82 113 155 195 239 296 357
#     4   9  19  37  59  83 115 157 200 240 291 348
#     4  10  21  39  60  83 116 161 199 237 294 358
#     4  12  23  36  59  95 121 152 198 246 297 355
#     4  10  20  35  58  87 114 148 195 246 293 345
#     4  10  21  38  61  87 120 155 195 246 294 349
#     4  12  23  36  56  88 126 161 196 241 295 357
#
# _framework density 20.069241000000002
#
# number of rings (size 3 to 8) (size 9 to 14) (size 15 to 20)
#    0.000    1.846    0.000    5.077    0.000    3.077 
#    0.000   10.000    0.000    0.000    0.000    0.000 
#    0.000    0.000    0.000    0.000    0.000    0.000 
#
# Total GULP energy -144917.045944 kJ/mol
# GULP energy per Si atom -5573.732536 kJ/mol
# Density = 2.002356 g / cm^3
# Si number density = 20.069241 Si / 1000 Ang^3
#
#
#
# Elastic Constant Matrix: (Units=GPa)
#
#
# Indices 1 2 3 4 5 6 
#
# 1 83.9172 25.2881 32.5875 0.0000 -14.9272 0.0000
# 2 25.2881 105.4831 37.4608 0.0000 -3.7142 0.0000
# 3 32.5875 37.4608 70.4482 0.0000 -11.6441 0.0000
# 4 0.0000 0.0000 0.0000 35.7291 0.0000 -3.7645
# 5 -14.9272 -3.7142 -11.6441 0.0000 37.5759 0.0000
# 6 0.0000 0.0000 0.0000 -3.7645 0.0000 29.1363
#
#
#
# Elastic Compliance Matrix: (Units=1/GPa)
#
#
# Indices 1 2 3 4 5 6 
#
# 1 0.015286 -0.001544 -0.005556 0.000000 0.004198 0.000000
# 2 -0.001544 0.011867 -0.005801 0.000000 -0.001238 0.000000
# 3 -0.005556 -0.005801 0.020437 0.000000 0.003552 0.000000
# 4 0.000000 0.000000 0.000000 0.028375 0.000000 0.003666
# 5 0.004198 -0.001238 0.003552 0.000000 0.029259 0.000000
# 6 0.000000 0.000000 0.000000 0.003666 0.000000 0.034795
#
#
# Mechanical properties :
#
#
# Convention : Reuss Voigt Hill
#
# Bulk Modulus (GPa) = 45.89594 50.05792 47.97693
# Shear Modulus (GPa) = 28.88804 31.45573 30.17188
#
# Velocity S-wave (km/s) = 3.79808 3.96328 3.88156
# Velocity P-wave (km/s) = 6.49248 6.77792 6.63674
#
# Compressibility (1/GPa) = 0.02178842
#
# Stress axis : x y z
#
# Youngs Moduli (GPa) = 65.41908 84.26951 48.93162
#
# Poissons Ratio (x) = 0.13008 0.27188
# Poissons Ratio (y) = 0.10098 0.28384
# Poissons Ratio (z) = 0.36348 0.48882
#
# Static dielectric constant tensor:
#      x y z
#    x 1.881000 0.000000 0.850050 
#    y 0.000000 1.752920 0.000000 
#    z 0.850050 0.000000 6.787380 
# 
# From -- ./inp_files/52577.got.cif
#   From: 2010.05.17/outbox.cif.g08.bks.cpg/sg12_27_cif.got.tgz:52577.got - 2010.06.03 13:09:07.
