data_PCOD9197695
_publ_section_title
;
Structure prediction by ZEFSAII (Michael W. Deem and Ramdas Pophale) SiO2 
 PCOD9197695
Probable space group: C 2/M
;
_chemical_formula_sum "Si O2"
_cell_formula_units_Z 64
_cell_length_a 15.359486
_cell_length_b 23.698585
_cell_length_c 10.560096
_cell_angle_alpha 90.000000
_cell_angle_beta 45.232629
_cell_angle_gamma 90.000000
_cell_volume 2729.028832
_symmetry_space_group_name_H-M "C 2/M"
_symmetry_group_IT_number 12
_symmetry_cell_setting 'monoclinic'
loop_
_space_group_symop_operation_xyz
x,y,z
-x,y,-z
-x,-y,-z
x,-y,z
1/2+x,1/2+y,z
1/2-x,1/2+y,-z
1/2-x,1/2-y,-z
1/2+x,1/2-y,z
loop_
_atom_site_type_symbol
_atom_site_label
_atom_site_fract_x
_atom_site_fract_y
_atom_site_fract_z
Si Si1 0.797218 0.213202 0.142333
Si Si2 0.865907 0.439632 0.201372
Si Si3 0.397934 0.566305 0.212277
Si Si4 0.889015 0.242825 0.324230
Si Si5 0.374079 0.935601 0.495130
Si Si6 0.264841 0.152833 0.144798
Si Si7 0.533797 0.350827 0.243060
Si Si8 0.563364 0.159688 0.255275
O O1 0.871567 0.215850 0.200259
O O2 0.782233 0.279922 0.128642
O O3 0.658593 0.189148 0.257460
O O4 0.882571 0.179945 0.953399
O O5 0.808778 0.500000 0.216783
O O6 0.865249 0.440730 0.352492
O O7 0.806437 0.380894 0.223324
O O8 0.000000 0.438782 0.000000
O O9 0.386230 0.500000 0.248581
O O10 0.259786 0.585475 0.319308
O O11 0.454962 0.598236 0.271822
O O12 0.500000 0.574638 0.000000
O O13 0.750000 0.250000 0.500000
O O14 0.939963 0.197841 0.371671
O O15 0.974153 0.296989 0.268005
O O16 0.480118 0.889484 0.397584
O O17 0.394248 0.000000 0.522507
O O18 0.127142 0.135895 0.256187
O O19 0.348951 0.132750 0.941425
#
# Coordination Sequence:
#
# PCOD9197695 Si02
#       8
#     8   8   8   8   8   8   8   8
#     4  11  23  40  63  90 128 175 216 269 327 400
#     4  10  20  35  62 102 137 172 214 265 337 407
#     4  10  22  42  66  90 120 170 224 271 328 390
#     4  12  24  38  60  89 125 168 215 271 330 382
#     4  10  21  39  66 100 135 168 220 281 332 397
#     4  11  21  38  62  91 134 173 208 261 325 401
#     4  11  22  41  62  90 123 166 224 265 324 397
#     4  11  21  39  61  96 131 169 222 267 331 396
#
# _framework density 23.451567000000001
#
# number of rings (size 3 to 8) (size 9 to 14) (size 15 to 20)
#    0.000    1.250    3.750    3.375    0.000    1.000 
#    0.000    5.000    0.000    3.000    0.000   20.125 
#    0.000    0.000    0.000    0.000    0.000    0.000 
#
# Total GULP energy -178692.579289 kJ/mol
# GULP energy per Si atom -5584.143103 kJ/mol
# Density = 2.339819 g / cm^3
# Si number density = 23.451567 Si / 1000 Ang^3
#
#
#
# Elastic Constant Matrix: (Units=GPa)
#
#
# Indices 1 2 3 4 5 6 
#
# 1 114.7739 43.8235 30.6354 0.0000 -26.3416 0.0000
# 2 43.8235 100.7269 22.0024 0.0000 -24.4269 0.0000
# 3 30.6354 22.0024 90.6323 0.0000 -32.2292 0.0000
# 4 0.0000 0.0000 0.0000 26.2590 0.0000 -21.2856
# 5 -26.3416 -24.4269 -32.2292 0.0000 44.9514 0.0000
# 6 0.0000 0.0000 0.0000 -21.2856 0.0000 5.6055
#
#
#
# Elastic Compliance Matrix: (Units=1/GPa)
#
#
# Indices 1 2 3 4 5 6 
#
# 1 0.011386 -0.003753 -0.001732 0.000000 0.003391 0.000000
# 2 -0.003753 0.012711 -0.000192 0.000000 0.004570 0.000000
# 3 -0.001732 -0.000192 0.015123 0.000000 0.009724 0.000000
# 4 0.000000 0.000000 0.000000 -0.018326 0.000000 -0.069587
# 5 0.003391 0.004570 0.009724 0.000000 0.033689 0.000000
# 6 0.000000 0.000000 0.000000 -0.069587 0.000000 -0.085846
#
#
# Mechanical properties :
#
#
# Convention : Reuss Voigt Hill
#
# Bulk Modulus (GPa) = 35.88455 55.45064 45.66760
# Shear Modulus (GPa) = -470.85575 29.34128 -220.75724
#
# Velocity S-wave (km/s) = -14.18499 3.54099 -9.71276
# Velocity P-wave (km/s) = 15.90441 6.35722 10.30864
#
# Compressibility (1/GPa) = 0.02786714
#
# Stress axis : x y z
#
# Youngs Moduli (GPa) = 87.82388 78.67202 66.12239
#
# Poissons Ratio (x) = 0.29527 0.11450
# Poissons Ratio (y) = 0.32962 0.01269
# Poissons Ratio (z) = 0.15208 0.01510
#
# Static dielectric constant tensor:
#      x y z
#    x 1.926700 0.000000 0.011720 
#    y 0.000000 1.908960 0.000000 
#    z 0.011720 0.000000 1.953540 
# 
# From -- ./inp_files/149766.got.cif
#   From: 2010.05.17/outbox.cif.g08.bks.cpg/sg12_75_cif.got.tgz:149766.got - 2010.06.03 13:09:07.
