data_PCOD9197042
_publ_section_title
;
Structure prediction by ZEFSAII (Michael W. Deem and Ramdas Pophale) SiO2 
 PCOD9197042
Probable space group: C 2/M
;
_chemical_formula_sum "Si O2"
_cell_formula_units_Z 48
_cell_length_a 30.365811
_cell_length_b 8.592432
_cell_length_c 15.501010
_cell_angle_alpha 90.000000
_cell_angle_beta 139.984960
_cell_angle_gamma 90.000000
_cell_volume 2600.544602
_symmetry_space_group_name_H-M "C 2/M"
_symmetry_group_IT_number 12
_symmetry_cell_setting 'monoclinic'
loop_
_space_group_symop_operation_xyz
x,y,z
-x,y,-z
-x,-y,-z
x,-y,z
1/2+x,1/2+y,z
1/2-x,1/2+y,-z
1/2-x,1/2-y,-z
1/2+x,1/2-y,z
loop_
_atom_site_type_symbol
_atom_site_label
_atom_site_fract_x
_atom_site_fract_y
_atom_site_fract_z
Si Si1 0.076158 0.812221 0.143371
Si Si2 0.078680 0.686623 0.840061
Si Si3 0.573524 0.187676 0.328883
Si Si4 0.423884 0.686521 0.355188
Si Si5 0.831421 0.311663 0.369623
Si Si6 0.673259 0.688274 0.132524
O O1 0.090852 0.750413 0.260596
O O2 0.130802 0.761710 0.153463
O O3 0.076184 0.000000 0.146008
O O4 0.000000 0.761270 0.000000
O O5 0.079657 0.500000 0.840173
O O6 0.089479 0.748993 0.760090
O O7 0.003260 0.737998 0.759742
O O8 0.134782 0.748061 0.990943
O O9 0.626327 0.238273 0.482210
O O10 0.574020 0.000000 0.326927
O O11 0.500000 0.736639 0.500000
O O12 0.422380 0.500000 0.350847
O O13 0.369558 0.747594 0.342881
O O14 0.833561 0.500000 0.369752
O O15 0.752321 0.263002 0.254756
O O16 0.671230 0.500000 0.126584
#
# Coordination Sequence:
#
# PCOD9197042 Si02
#       6
#     8   8   8   8   8   8
#     4  10  20  35  58  86 116 153 194 237 286 340
#     4  11  22  37  61  88 116 152 194 239 288 345
#     4  10  21  36  58  87 115 150 194 238 287 343
#     4  11  23  38  61  90 117 149 193 241 288 345
#     4  10  22  41  61  84 119 156 191 238 292 345
#     4  10  22  40  60  85 119 156 194 238 289 343
#
# _framework density 18.457671999999999
#
# number of rings (size 3 to 8) (size 9 to 14) (size 15 to 20)
#    0.000    1.667    3.333    1.000    0.000    5.000 
#    0.000    0.000    0.000    0.000    0.000    0.000 
#    0.000    0.000    0.000    0.000    0.000    0.000 
#
# Total GULP energy -134101.424778 kJ/mol
# GULP energy per Si atom -5587.559366 kJ/mol
# Density = 1.841566 g / cm^3
# Si number density = 18.457672 Si / 1000 Ang^3
#
#
#
# Elastic Constant Matrix: (Units=GPa)
#
#
# Indices 1 2 3 4 5 6 
#
# 1 185.6564 29.3650 108.1319 0.0000 -8.4986 0.0000
# 2 29.3650 11.0978 29.1949 0.0000 2.0649 0.0000
# 3 108.1319 29.1949 171.1477 0.0000 -3.3958 0.0000
# 4 0.0000 0.0000 0.0000 29.0857 0.0000 -5.4134
# 5 -8.4986 2.0649 -3.3958 0.0000 43.2525 0.0000
# 6 0.0000 0.0000 0.0000 -5.4134 0.0000 35.3681
#
#
#
# Elastic Compliance Matrix: (Units=1/GPa)
#
#
# Indices 1 2 3 4 5 6 
#
# 1 0.010534 -0.020002 -0.003188 0.000000 0.002774 0.000000
# 2 -0.020002 0.205885 -0.022792 0.000000 -0.015549 0.000000
# 3 -0.003188 -0.022792 0.011773 0.000000 0.001386 0.000000
# 4 0.000000 0.000000 0.000000 0.035389 0.000000 0.005417
# 5 0.002774 -0.015549 0.001386 0.000000 0.024516 0.000000
# 6 0.000000 0.000000 0.000000 0.005417 0.000000 0.029103
#
#
# Mechanical properties :
#
#
# Convention : Reuss Voigt Hill
#
# Bulk Modulus (GPa) = 7.34063 77.92061 42.63062
# Shear Modulus (GPa) = 10.99930 34.95525 22.97728
#
# Velocity S-wave (km/s) = 2.44380 4.35651 3.53209
# Velocity P-wave (km/s) = 3.45666 8.22272 6.30720
#
# Compressibility (1/GPa) = 0.13622815
#
# Stress axis : x y z
#
# Youngs Moduli (GPa) = 94.93115 4.85707 84.94163
#
# Poissons Ratio (x) = 0.09715 0.27083
# Poissons Ratio (y) = 1.89878 1.93599
# Poissons Ratio (z) = 0.30268 0.11070
#
# Static dielectric constant tensor:
#      x y z
#    x 1.604980 0.000000 0.015940 
#    y 0.000000 1.630330 0.000000 
#    z 0.015940 0.000000 1.613240 
# 
# From -- ./inp_files/230391.got.cif
#   From: 2010.05.17/outbox.cif.g08.bks.cpg/sg12_116_cif.got.tgz:230391.got - 2010.06.03 13:09:07.
