data_PCOD9197837
_publ_section_title
;
Structure prediction by ZEFSAII (Michael W. Deem and Ramdas Pophale) SiO2 
 PCOD9197837
Probable space group: C 2/M
;
_chemical_formula_sum "Si O2"
_cell_formula_units_Z 58
_cell_length_a 14.753584
_cell_length_b 7.464503
_cell_length_c 23.610542
_cell_angle_alpha 90.000000
_cell_angle_beta 90.225220
_cell_angle_gamma 90.000000
_cell_volume 2600.165743
_symmetry_space_group_name_H-M "C 2/M"
_symmetry_group_IT_number 12
_symmetry_cell_setting 'monoclinic'
loop_
_space_group_symop_operation_xyz
x,y,z
-x,y,-z
-x,-y,-z
x,-y,z
1/2+x,1/2+y,z
1/2-x,1/2+y,-z
1/2-x,1/2-y,-z
1/2+x,1/2-y,z
loop_
_atom_site_type_symbol
_atom_site_label
_atom_site_fract_x
_atom_site_fract_y
_atom_site_fract_z
Si Si1 0.771470 0.717414 0.626215
Si Si2 0.974772 0.780639 0.936420
Si Si3 0.270931 0.287463 0.934353
Si Si4 0.978265 0.285319 0.641939
Si Si5 0.383144 0.791034 0.457336
Si Si6 0.634079 0.288224 0.723535
Si Si7 0.882338 0.795184 0.151709
Si Si8 0.500000 0.500000 0.500000
O O1 0.772969 0.500000 0.626215
O O2 0.875161 0.778765 0.635042
O O3 0.717106 0.769178 0.568989
O O4 0.707119 0.782602 0.678008
O O5 0.872789 0.728751 0.923853
O O6 0.040326 0.712704 0.887616
O O7 0.980473 0.000000 0.937487
O O8 0.000000 0.722155 0.000000
O O9 0.264465 0.500000 0.926304
O O10 0.203040 0.201655 0.890060
O O11 0.250000 0.250000 0.000000
O O12 0.975833 0.500000 0.638288
O O13 0.048739 0.225988 0.593402
O O14 0.032589 0.236728 0.698991
O O15 0.419578 0.657543 0.504407
O O16 0.396933 0.000000 0.471264
O O17 0.653520 0.500000 0.725844
O O18 0.638989 0.214421 0.787151
O O19 0.911353 0.000000 0.163582
#
# Coordination Sequence:
#
# PCOD9197837 Si02
#       8
#     8   8   8   8   8   8   8   2
#     4   9  17  36  60  84 116 155 193 239 295 344
#     4   9  17  32  52  69  96 139 176 210 269 338
#     4  11  21  34  53  74  96 136 178 221 275 338
#     4   9  19  35  60  84 114 151 196 237 284 347
#     4  10  21  38  61  89 119 164 205 240 291 346
#     4   9  19  33  55  83 109 145 184 232 292 340
#     4  10  20  36  53  76 109 139 181 230 276 340
#     4  12  22  40  64  86 132 166 194 256 290 328
#
# _framework density 22.306270999999999
#
# number of rings (size 3 to 8) (size 9 to 14) (size 15 to 20)
#    0.000    2.345    2.069    0.621    0.966    2.207 
#    0.000    2.759    0.000    0.000    0.000    0.000 
#    0.000    0.000    0.000    0.000    0.000    0.000 
#
# Total GULP energy -161677.651300 kJ/mol
# GULP energy per Si atom -5575.091424 kJ/mol
# Density = 2.225550 g / cm^3
# Si number density = 22.306271 Si / 1000 Ang^3
#
#
#
# Elastic Constant Matrix: (Units=GPa)
#
#
# Indices 1 2 3 4 5 6 
#
# 1 132.0631 5.4684 35.0463 0.0000 11.2185 0.0000
# 2 5.4684 84.1278 -6.0139 0.0000 0.3430 0.0000
# 3 35.0463 -6.0139 105.4981 0.0000 9.3852 0.0000
# 4 0.0000 0.0000 0.0000 5.8449 0.0000 12.3369
# 5 11.2185 0.3430 9.3852 0.0000 25.3541 0.0000
# 6 0.0000 0.0000 0.0000 12.3369 0.0000 19.8812
#
#
#
# Elastic Compliance Matrix: (Units=1/GPa)
#
#
# Indices 1 2 3 4 5 6 
#
# 1 0.008538 -0.000732 -0.002629 0.000000 -0.002794 0.000000
# 2 -0.000732 0.012002 0.000944 0.000000 -0.000188 0.000000
# 3 -0.002629 0.000944 0.010655 0.000000 -0.002793 0.000000
# 4 0.000000 0.000000 0.000000 -0.552326 0.000000 0.342735
# 5 -0.002794 -0.000188 -0.002793 0.000000 0.041714 0.000000
# 6 0.000000 0.000000 0.000000 0.342735 0.000000 -0.162379
#
#
# Mechanical properties :
#
#
# Convention : Reuss Voigt Hill
#
# Bulk Modulus (GPa) = 37.93492 43.41007 40.67249
# Shear Modulus (GPa) = -7.95957 29.36192 10.70118
#
# Velocity S-wave (km/s) = -1.89105 3.63203 2.19267
# Velocity P-wave (km/s) = 3.50360 6.09032 4.96826
#
# Compressibility (1/GPa) = 0.02636094
#
# Stress axis : x y z
#
# Youngs Moduli (GPa) = 117.12947 83.31617 93.85628
#
# Poissons Ratio (x) = 0.06095 0.24677
# Poissons Ratio (y) = 0.08568 -0.08859
# Poissons Ratio (z) = 0.30796 -0.07864
#
# Static dielectric constant tensor:
#      x y z
#    x 1.819640 0.000000 -0.019740 
#    y 0.000000 1.956000 0.000000 
#    z -0.019740 0.000000 1.884900 
# 
# From -- ./inp_files/338142.got.cif
#   From: 2010.05.17/outbox.cif.g08.bks.cpg/sg12_170_cif.got.tgz:338142.got - 2010.06.03 13:09:07.
