data_PCOD9197508
_publ_section_title
;
Structure prediction by ZEFSAII (Michael W. Deem and Ramdas Pophale) SiO2 
 PCOD9197508
Probable space group: C 2/M
;
_chemical_formula_sum "Si O2"
_cell_formula_units_Z 52
_cell_length_a 17.266509
_cell_length_b 14.976234
_cell_length_c 14.632236
_cell_angle_alpha 90.000000
_cell_angle_beta 48.243990
_cell_angle_gamma 90.000000
_cell_volume 2822.600525
_symmetry_space_group_name_H-M "C 2/M"
_symmetry_group_IT_number 12
_symmetry_cell_setting 'monoclinic'
loop_
_space_group_symop_operation_xyz
x,y,z
-x,y,-z
-x,-y,-z
x,-y,z
1/2+x,1/2+y,z
1/2-x,1/2+y,-z
1/2-x,1/2-y,-z
1/2+x,1/2-y,z
loop_
_atom_site_type_symbol
_atom_site_label
_atom_site_fract_x
_atom_site_fract_y
_atom_site_fract_z
Si Si1 0.812264 0.894378 0.392087
Si Si2 0.117881 0.395828 0.678786
Si Si3 0.000000 0.324660 0.500000
Si Si4 0.271779 0.264088 0.876827
Si Si5 0.716587 0.897124 0.269118
Si Si6 0.488313 0.736551 0.323012
Si Si7 0.120571 0.605154 0.890054
O O1 0.715284 0.875949 0.536059
O O2 0.777895 0.876370 0.314876
O O3 0.909479 0.835362 0.344963
O O4 0.834474 0.000000 0.382316
O O5 0.088909 0.500000 0.688581
O O6 0.027552 0.327996 0.721644
O O7 0.145577 0.382794 0.762997
O O8 0.904856 0.383115 0.611243
O O9 0.960876 0.262920 0.448297
O O10 0.257564 0.172809 0.830277
O O11 0.392199 0.291663 0.771886
O O12 0.195629 0.336470 0.892813
O O13 0.250000 0.250000 0.000000
O O14 0.735777 0.000000 0.229267
O O15 0.130708 0.500000 0.903655
O O16 0.000000 0.629772 0.000000
#
# Coordination Sequence:
#
# PCOD9197508 Si02
#       7
#     8   8   4   8   8   8   8
#     4  10  21  37  58  87 119 157 198 239 296 360
#     4  10  20  35  60  87 113 152 198 246 292 346
#     4  10  21  32  55  90 120 154 193 240 301 348
#     4  11  25  40  58  88 119 156 197 244 302 353
#     4  10  21  38  60  87 119 154 197 246 294 350
#     4  11  22  35  58  84 122 157 189 242 297 354
#     4  10  22  41  64  85 111 154 207 252 292 347
#
# _framework density 18.422726999999998
#
# number of rings (size 3 to 8) (size 9 to 14) (size 15 to 20)
#    0.000    1.692    1.538    2.538    4.308    3.692 
#    0.000    0.385    0.000    2.308    0.000    0.000 
#    0.000    0.000    0.000    0.000    0.000    0.000 
#
# Total GULP energy -145256.887124 kJ/mol
# GULP energy per Si atom -5586.803351 kJ/mol
# Density = 1.838080 g / cm^3
# Si number density = 18.422727 Si / 1000 Ang^3
#
#
#
# Elastic Constant Matrix: (Units=GPa)
#
#
# Indices 1 2 3 4 5 6 
#
# 1 147.6249 92.5598 53.0955 0.0000 -0.0812 0.0000
# 2 92.5598 88.6677 52.5215 0.0000 -3.4331 0.0000
# 3 53.0955 52.5215 81.5453 0.0000 11.4822 0.0000
# 4 0.0000 0.0000 0.0000 16.4437 0.0000 -1.8828
# 5 -0.0812 -3.4331 11.4822 0.0000 32.3527 0.0000
# 6 0.0000 0.0000 0.0000 -1.8828 0.0000 21.4933
#
#
#
# Elastic Compliance Matrix: (Units=1/GPa)
#
#
# Indices 1 2 3 4 5 6 
#
# 1 0.019844 -0.021662 0.001419 0.000000 -0.002752 0.000000
# 2 -0.021662 0.043245 -0.015144 0.000000 0.009909 0.000000
# 3 0.001419 -0.015144 0.022440 0.000000 -0.009568 0.000000
# 4 0.000000 0.000000 0.000000 0.061430 0.000000 0.005381
# 5 -0.002752 0.009909 -0.009568 0.000000 0.035350 0.000000
# 6 0.000000 0.000000 0.000000 0.005381 0.000000 0.046998
#
#
# Mechanical properties :
#
#
# Convention : Reuss Voigt Hill
#
# Bulk Modulus (GPa) = 67.77313 79.35461 73.56387
# Shear Modulus (GPa) = 16.39345 22.03533 19.21439
#
# Velocity S-wave (km/s) = 2.98627 3.46221 3.23301
# Velocity P-wave (km/s) = 6.98270 7.69093 7.34535
#
# Compressibility (1/GPa) = 0.01475511
#
# Stress axis : x y z
#
# Youngs Moduli (GPa) = 50.39259 23.12392 44.56260
#
# Poissons Ratio (x) = 0.50092 -0.06323
# Poissons Ratio (y) = 1.09162 0.67485
# Poissons Ratio (z) = -0.07150 0.35019
#
# Static dielectric constant tensor:
#      x y z
#    x 1.620420 0.000000 0.009050 
#    y 0.000000 1.631070 0.000000 
#    z 0.009050 0.000000 1.637210 
# 
# From -- ./inp_files/214734.got.cif
#   From: 2010.05.17/outbox.cif.g08.bks.cpg/sg12_108_cif.got.tgz:214734.got - 2010.06.03 13:09:07.
