data_PCOD9197661
_publ_section_title
;
Structure prediction by ZEFSAII (Michael W. Deem and Ramdas Pophale) SiO2 
 PCOD9197661
Probable space group: C 2/M
;
_chemical_formula_sum "Si O2"
_cell_formula_units_Z 58
_cell_length_a 25.153096
_cell_length_b 7.744024
_cell_length_c 20.884786
_cell_angle_alpha 90.000000
_cell_angle_beta 41.027655
_cell_angle_gamma 90.000000
_cell_volume 2670.374113
_symmetry_space_group_name_H-M "C 2/M"
_symmetry_group_IT_number 12
_symmetry_cell_setting 'monoclinic'
loop_
_space_group_symop_operation_xyz
x,y,z
-x,y,-z
-x,-y,-z
x,-y,z
1/2+x,1/2+y,z
1/2-x,1/2+y,-z
1/2-x,1/2-y,-z
1/2+x,1/2-y,z
loop_
_atom_site_type_symbol
_atom_site_label
_atom_site_fract_x
_atom_site_fract_y
_atom_site_fract_z
Si Si1 0.289077 0.289325 0.786596
Si Si2 0.025703 0.207685 0.147862
Si Si3 0.347018 0.795840 0.352324
Si Si4 0.911031 0.796994 0.568477
Si Si5 0.666636 0.292554 0.112320
Si Si6 0.103451 0.200759 0.940648
Si Si7 0.171243 0.700940 0.486388
Si Si8 0.500000 0.000000 0.000000
O O1 0.283769 0.500000 0.791402
O O2 0.344802 0.227048 0.677951
O O3 0.325832 0.234161 0.821449
O O4 0.199035 0.219029 0.861289
O O5 0.088304 0.273436 0.145048
O O6 0.934071 0.265474 0.242082
O O7 0.025632 0.000000 0.149969
O O8 0.063511 0.255353 0.045077
O O9 0.268165 0.719269 0.389275
O O10 0.347326 0.727546 0.425561
O O11 0.332084 0.000000 0.368953
O O12 0.879157 0.781418 0.525336
O O13 0.000000 0.721903 0.500000
O O14 0.916304 0.000000 0.579241
O O15 0.660050 0.500000 0.119221
O O16 0.750000 0.250000 0.000000
O O17 0.084999 0.000000 0.942983
O O18 0.068096 0.345150 0.926066
O O19 0.150076 0.500000 0.506113
#
# Coordination Sequence:
#
# PCOD9197661 Si02
#       8
#     8   8   8   8   8   8   8   2
#     4  10  21  40  63  92 130 176 215 261 331 395
#     4  10  22  38  61  97 129 161 209 266 317 386
#     4  10  22  39  65  93 122 163 210 259 323 390
#     4  10  23  41  65  94 126 169 218 262 317 395
#     4  10  20  35  61  91 125 162 202 252 314 380
#     4  11  24  43  66  97 131 172 226 269 330 396
#     4  10  22  42  63  90 124 164 208 264 324 379
#     4  12  26  44  68  90 130 188 210 286 316 384
#
# _framework density 21.719802000000001
#
# number of rings (size 3 to 8) (size 9 to 14) (size 15 to 20)
#    0.000    1.793    2.069    1.034    2.897    4.138 
#    0.000    0.000    0.000    0.000    0.000    0.000 
#    0.000    0.000    0.000    0.000    0.000    0.000 
#
# Total GULP energy -161804.729424 kJ/mol
# GULP energy per Si atom -5579.473428 kJ/mol
# Density = 2.167037 g / cm^3
# Si number density = 21.719802 Si / 1000 Ang^3
#
#
#
# Elastic Constant Matrix: (Units=GPa)
#
#
# Indices 1 2 3 4 5 6 
#
# 1 124.5648 17.0775 52.2485 0.0011 -19.5099 -0.0040
# 2 17.0775 47.1946 12.2846 0.0154 0.4645 -0.0044
# 3 52.2485 12.2846 128.4091 0.0014 -23.9578 -0.0018
# 4 0.0011 0.0154 0.0014 14.8229 -0.0080 -3.8412
# 5 -19.5099 0.4645 -23.9578 -0.0080 27.5640 0.0020
# 6 -0.0040 -0.0044 -0.0018 -3.8412 0.0020 8.4626
#
#
#
# Elastic Compliance Matrix: (Units=1/GPa)
#
#
# Indices 1 2 3 4 5 6 
#
# 1 0.010489 -0.003040 -0.003082 0.000006 0.004796 0.000005
# 2 -0.003040 0.022768 -0.001688 -0.000026 -0.004003 -0.000001
# 3 -0.003082 -0.001688 0.010505 0.000005 0.006978 0.000001
# 4 0.000006 -0.000026 0.000005 0.076456 0.000029 0.034704
# 5 0.004796 -0.004003 0.006978 0.000029 0.045806 0.000004
# 6 0.000005 -0.000001 0.000001 0.034704 0.000004 0.133920
#
#
# Mechanical properties :
#
#
# Convention : Reuss Voigt Hill
#
# Bulk Modulus (GPa) = 35.53530 51.48776 43.51153
# Shear Modulus (GPa) = 15.38722 24.74042 20.06382
#
# Velocity S-wave (km/s) = 2.66454 3.37868 3.04263
# Velocity P-wave (km/s) = 5.08554 6.24320 5.69387
#
# Compressibility (1/GPa) = 0.02814103
#
# Stress axis : x y z
#
# Youngs Moduli (GPa) = 95.34016 43.92177 95.19307
#
# Poissons Ratio (x) = 0.13354 0.29339
# Poissons Ratio (y) = 0.28987 0.16067
# Poissons Ratio (z) = 0.29384 0.07413
#
# Static dielectric constant tensor:
#      x y z
#    x 1.823850 -0.000010 0.027990 
#    y -0.000010 1.796470 0.000000 
#    z 0.027990 0.000000 1.790440 
# 
# From -- ./inp_files/324568.got.cif
#   From: 2010.05.17/outbox.cif.g08.bks.cpg/sg12_163_cif.got.tgz:324568.got - 2010.06.03 13:09:07.
