data_PCOD9197180
_publ_section_title
;
Structure prediction by ZEFSAII (Michael W. Deem and Ramdas Pophale) SiO2 
 PCOD9197180
Probable space group: C 2/M
;
_chemical_formula_sum "Si O2"
_cell_formula_units_Z 48
_cell_length_a 21.906068
_cell_length_b 8.679461
_cell_length_c 12.261917
_cell_angle_alpha 90.000000
_cell_angle_beta 98.709971
_cell_angle_gamma 90.000000
_cell_volume 2304.506702
_symmetry_space_group_name_H-M "C 2/M"
_symmetry_group_IT_number 12
_symmetry_cell_setting 'monoclinic'
loop_
_space_group_symop_operation_xyz
x,y,z
-x,y,-z
-x,-y,-z
x,-y,z
1/2+x,1/2+y,z
1/2-x,1/2+y,-z
1/2-x,1/2-y,-z
1/2+x,1/2-y,z
loop_
_atom_site_type_symbol
_atom_site_label
_atom_site_fract_x
_atom_site_fract_y
_atom_site_fract_z
Si Si1 0.072701 0.826630 0.522056
Si Si2 0.937292 0.183710 0.920638
Si Si3 0.647527 0.683636 0.746912
Si Si4 0.602268 0.181953 0.303707
Si Si5 0.179834 0.318805 0.983012
Si Si6 0.763132 0.316815 0.622729
O O1 0.093744 0.775942 0.647394
O O2 0.090555 0.718630 0.427127
O O3 0.000000 0.838872 0.500000
O O4 0.100071 0.000000 0.512612
O O5 0.940075 0.230249 0.794177
O O6 0.934069 0.000000 0.931123
O O7 0.872919 0.252448 0.950233
O O8 0.000000 0.236159 0.000000
O O9 0.643790 0.500000 0.772552
O O10 0.651634 0.780607 0.856840
O O11 0.708528 0.712474 0.691836
O O12 0.672749 0.238021 0.308971
O O13 0.597327 0.000000 0.281740
O O14 0.185869 0.500000 0.005816
O O15 0.250000 0.250000 0.000000
O O16 0.768776 0.500000 0.610575
O O17 0.750000 0.250000 0.500000
#
# Coordination Sequence:
#
# PCOD9197180 Si02
#       6
#     8   8   8   8   8   8
#     4  10  22  39  61  90 125 171 216 256 312 383
#     4  11  26  47  71  97 129 174 225 274 331 398
#     4  10  21  39  63  92 129 169 212 262 318 383
#     4  11  23  39  63  95 129 163 208 265 324 387
#     4  12  26  45  70  99 134 175 223 275 332 393
#     4  10  20  35  58  89 123 159 200 249 307 374
#
# _framework density 20.828754
#
# number of rings (size 3 to 8) (size 9 to 14) (size 15 to 20)
#    0.000    1.333    1.667    3.500    2.333    5.000 
#    0.000    0.000    0.000    0.000    0.000    0.000 
#    0.000    0.000    0.000    0.000    0.000    0.000 
#
# Total GULP energy -134067.115399 kJ/mol
# GULP energy per Si atom -5586.129808 kJ/mol
# Density = 2.078135 g / cm^3
# Si number density = 20.828754 Si / 1000 Ang^3
#
#
#
# Elastic Constant Matrix: (Units=GPa)
#
#
# Indices 1 2 3 4 5 6 
#
# 1 69.3300 21.8288 17.3006 0.0000 20.5884 0.0000
# 2 21.8288 53.6018 15.8215 0.0000 1.8452 0.0000
# 3 17.3006 15.8215 109.2471 0.0000 21.0849 0.0000
# 4 0.0000 0.0000 0.0000 40.7034 0.0000 -4.1144
# 5 20.5884 1.8452 21.0849 0.0000 33.6169 0.0000
# 6 0.0000 0.0000 0.0000 -4.1144 0.0000 23.4358
#
#
#
# Elastic Compliance Matrix: (Units=1/GPa)
#
#
# Indices 1 2 3 4 5 6 
#
# 1 0.020536 -0.008024 0.000287 0.000000 -0.012317 0.000000
# 2 -0.008024 0.022643 -0.003091 0.000000 0.005610 0.000000
# 3 0.000287 -0.003091 0.010873 0.000000 -0.006826 0.000000
# 4 0.000000 0.000000 0.000000 0.025012 0.000000 0.004391
# 5 -0.012317 0.005610 -0.006826 0.000000 0.041264 0.000000
# 6 0.000000 0.000000 0.000000 0.004391 0.000000 0.043441
#
#
# Mechanical properties :
#
#
# Convention : Reuss Voigt Hill
#
# Bulk Modulus (GPa) = 30.86786 38.00896 34.43841
# Shear Modulus (GPa) = 25.48115 31.36642 28.42379
#
# Velocity S-wave (km/s) = 3.50146 3.88483 3.69811
# Velocity P-wave (km/s) = 5.58560 6.19762 5.89955
#
# Compressibility (1/GPa) = 0.03239615
#
# Stress axis : x y z
#
# Youngs Moduli (GPa) = 48.69477 44.16365 91.96906
#
# Poissons Ratio (x) = 0.35436 -0.02640
# Poissons Ratio (y) = 0.39072 0.28431
# Poissons Ratio (z) = -0.01398 0.13652
#
# Static dielectric constant tensor:
#      x y z
#    x 1.840330 0.000000 0.028920 
#    y 0.000000 1.743960 0.000000 
#    z 0.028920 0.000000 1.840200 
# 
# From -- ./inp_files/173049.got.cif
#   From: 2010.05.17/outbox.cif.g08.bks.cpg/sg12_87_cif.got.tgz:173049.got - 2010.06.03 13:09:07.
