data_PCOD9197413
_publ_section_title
;
Structure prediction by ZEFSAII (Michael W. Deem and Ramdas Pophale) SiO2 
 PCOD9197413
Probable space group: C 2/M
;
_chemical_formula_sum "Si O2"
_cell_formula_units_Z 56
_cell_length_a 31.082466
_cell_length_b 19.230584
_cell_length_c 9.615217
_cell_angle_alpha 90.000000
_cell_angle_beta 150.107511
_cell_angle_gamma 90.000000
_cell_volume 2864.326285
_symmetry_space_group_name_H-M "C 2/M"
_symmetry_group_IT_number 12
_symmetry_cell_setting 'monoclinic'
loop_
_space_group_symop_operation_xyz
x,y,z
-x,y,-z
-x,-y,-z
x,-y,z
1/2+x,1/2+y,z
1/2-x,1/2+y,-z
1/2-x,1/2-y,-z
1/2+x,1/2-y,z
loop_
_atom_site_type_symbol
_atom_site_label
_atom_site_fract_x
_atom_site_fract_y
_atom_site_fract_z
Si Si1 0.150991 0.168714 0.650768
Si Si2 0.770403 0.916340 0.366171
Si Si3 0.302999 0.171071 0.291907
Si Si4 0.491061 0.140242 0.809056
Si Si5 0.421470 0.919809 0.189843
Si Si6 0.977644 0.220393 0.277266
Si Si7 0.714821 0.678962 0.331042
O O1 0.165027 0.115130 0.565752
O O2 0.173505 0.247091 0.661360
O O3 0.054169 0.170552 0.437607
O O4 0.221736 0.153929 0.967771
O O5 0.788285 0.881477 0.564059
O O6 0.771745 0.000000 0.374746
O O7 0.673452 0.889533 0.054440
O O8 0.389473 0.129948 0.493927
O O9 0.277430 0.160293 0.379578
O O10 0.550290 0.086487 0.891598
O O11 0.517832 0.212845 0.811592
O O12 0.500000 0.141928 0.000000
O O13 0.500000 0.889467 0.500000
O O14 0.414029 0.000000 0.209585
O O15 0.000000 0.236640 0.500000
O O16 0.881110 0.191957 0.995804
O O17 0.750000 0.750000 0.500000
#
# Coordination Sequence:
#
# PCOD9197413 Si02
#       7
#     8   8   8   8   8   8   8
#     4  10  21  38  60  89 118 158 205 252 300 362
#     4  11  24  41  62  91 126 163 203 252 313 368
#     4  10  20  35  59  90 121 155 204 250 302 354
#     4  11  22  33  55  93 124 153 195 252 304 359
#     4  10  21  38  60  85 120 166 203 234 293 374
#     4  11  23  39  61  87 117 155 203 255 306 362
#     4  12  22  39  64  91 123 160 198 257 311 360
#
# _framework density 19.550844000000001
#
# number of rings (size 3 to 8) (size 9 to 14) (size 15 to 20)
#    0.000    1.286    2.857    3.857    2.000    0.286 
#    0.000    2.857    0.000    0.857    0.000    0.000 
#    0.000    0.000    0.000    0.000    0.000    0.000 
#
# Total GULP energy -156403.418889 kJ/mol
# GULP energy per Si atom -5585.836389 kJ/mol
# Density = 1.950635 g / cm^3
# Si number density = 19.550844 Si / 1000 Ang^3
#
#
#
# Elastic Constant Matrix: (Units=GPa)
#
#
# Indices 1 2 3 4 5 6 
#
# 1 94.6004 6.3976 4.6133 0.0000 -3.0361 0.0000
# 2 6.3976 34.2486 5.8483 0.0000 -1.2388 0.0000
# 3 4.6133 5.8483 77.9435 0.0000 7.7113 0.0000
# 4 0.0000 0.0000 0.0000 4.2426 0.0000 0.1414
# 5 -3.0361 -1.2388 7.7113 0.0000 44.5105 0.0000
# 6 0.0000 0.0000 0.0000 0.1414 0.0000 19.6356
#
#
#
# Elastic Compliance Matrix: (Units=1/GPa)
#
#
# Indices 1 2 3 4 5 6 
#
# 1 0.010751 -0.001882 -0.000572 0.000000 0.000780 0.000000
# 2 -0.001882 0.029973 -0.002246 0.000000 0.001095 0.000000
# 3 -0.000572 -0.002246 0.013270 0.000000 -0.002400 0.000000
# 4 0.000000 0.000000 0.000000 0.235761 0.000000 -0.001697
# 5 0.000780 0.001095 -0.002400 0.000000 0.022966 0.000000
# 6 0.000000 0.000000 0.000000 -0.001697 0.000000 0.050940
#
#
# Mechanical properties :
#
#
# Convention : Reuss Voigt Hill
#
# Bulk Modulus (GPa) = 22.42515 26.72342 24.57428
# Shear Modulus (GPa) = 12.88905 26.33997 19.61451
#
# Velocity S-wave (km/s) = 2.57039 3.67448 3.17086
# Velocity P-wave (km/s) = 4.50603 5.63034 5.09926
#
# Compressibility (1/GPa) = 0.04459279
#
# Stress axis : x y z
#
# Youngs Moduli (GPa) = 93.01442 33.36331 75.35975
#
# Poissons Ratio (x) = 0.06280 0.04313
# Poissons Ratio (y) = 0.17508 0.16925
# Poissons Ratio (z) = 0.05323 0.07493
#
# Static dielectric constant tensor:
#      x y z
#    x 1.673010 0.000000 -0.006140 
#    y 0.000000 1.676610 0.000000 
#    z -0.006140 0.000000 1.714400 
# 
# From -- ./inp_files/77643.got.cif
#   From: 2010.05.17/outbox.cif.g08.bks.cpg/sg12_39_cif.got.tgz:77643.got - 2010.06.03 13:09:07.
