data_PCOD9198039
_publ_section_title
;
Structure prediction by ZEFSAII (Michael W. Deem and Ramdas Pophale) SiO2 
 PCOD9198039
Probable space group: C 2/M
;
_chemical_formula_sum "Si O2"
_cell_formula_units_Z 64
_cell_length_a 15.587273
_cell_length_b 9.608740
_cell_length_c 23.905751
_cell_angle_alpha 90.000000
_cell_angle_beta 53.215625
_cell_angle_gamma 90.000000
_cell_volume 2867.572422
_symmetry_space_group_name_H-M "C 2/M"
_symmetry_group_IT_number 12
_symmetry_cell_setting 'monoclinic'
loop_
_space_group_symop_operation_xyz
x,y,z
-x,y,-z
-x,-y,-z
x,-y,z
1/2+x,1/2+y,z
1/2-x,1/2+y,-z
1/2-x,1/2-y,-z
1/2+x,1/2-y,z
loop_
_atom_site_type_symbol
_atom_site_label
_atom_site_fract_x
_atom_site_fract_y
_atom_site_fract_z
Si Si1 0.113195 0.654676 0.533574
Si Si2 0.353121 0.343075 0.744743
Si Si3 0.711880 0.661722 0.933866
Si Si4 0.596509 0.334820 0.096428
Si Si5 0.452382 0.842045 0.309400
Si Si6 0.355948 0.334883 0.165286
Si Si7 0.758928 0.158735 0.381332
Si Si8 0.072856 0.154384 0.410241
O O1 0.075412 0.500000 0.528326
O O2 0.085868 0.651146 0.610095
O O3 0.231034 0.662666 0.459208
O O4 0.045984 0.784956 0.536744
O O5 0.341918 0.500000 0.772982
O O6 0.436610 0.238802 0.741718
O O7 0.241102 0.264738 0.779330
O O8 0.408059 0.359239 0.663166
O O9 0.744870 0.500000 0.923664
O O10 0.817779 0.755635 0.898555
O O11 0.647903 0.679892 0.901024
O O12 0.638023 0.689931 0.016592
O O13 0.602449 0.500000 0.104747
O O14 0.471164 0.295619 0.145817
O O15 0.357435 0.749631 0.322283
O O16 0.458135 0.000000 0.286731
O O17 0.335984 0.500000 0.185019
O O18 0.654261 0.225998 0.396113
O O19 0.775960 0.000000 0.359136
O O20 0.093440 0.000000 0.425890
#
# Coordination Sequence:
#
# PCOD9198039 Si02
#       8
#     8   8   8   8   8   8   8   8
#     4   9  19  34  53  77 105 135 168 214 272 332
#     4  10  22  40  57  75 103 140 184 230 271 320
#     4   9  18  34  57  87 121 153 187 232 283 334
#     4   9  18  34  57  87 121 153 189 232 280 336
#     4  10  20  36  56  76 103 138 175 218 270 326
#     4  10  20  36  59  84 112 154 197 233 281 339
#     4  11  21  33  52  80 108 134 170 217 272 331
#     4  10  21  36  53  74 102 138 178 223 272 323
#
# _framework density 22.318529999999999
#
# number of rings (size 3 to 8) (size 9 to 14) (size 15 to 20)
#    0.000    2.250    0.000    2.625    0.000    7.000 
#    2.250    0.000    0.000    3.750    0.000    0.000 
#    0.000    0.000    0.000    0.000    0.000    0.000 
#
# Total GULP energy -178577.838980 kJ/mol
# GULP energy per Si atom -5580.557468 kJ/mol
# Density = 2.226773 g / cm^3
# Si number density = 22.318530 Si / 1000 Ang^3
#
#
#
# Elastic Constant Matrix: (Units=GPa)
#
#
# Indices 1 2 3 4 5 6 
#
# 1 40.8457 25.2883 16.9087 0.0000 -29.1108 0.0000
# 2 25.2883 138.8897 38.2134 0.0000 -35.3754 0.0000
# 3 16.9087 38.2134 82.0676 0.0000 -27.0136 0.0000
# 4 0.0000 0.0000 0.0000 3.1597 0.0000 -13.4330
# 5 -29.1108 -35.3754 -27.0136 0.0000 48.1798 0.0000
# 6 0.0000 0.0000 0.0000 -13.4330 0.0000 30.7815
#
#
#
# Elastic Compliance Matrix: (Units=1/GPa)
#
#
# Indices 1 2 3 4 5 6 
#
# 1 0.043251 -0.001505 0.000034 0.000000 0.025047 0.000000
# 2 -0.001505 0.009323 -0.002547 0.000000 0.004508 0.000000
# 3 0.000034 -0.002547 0.015642 0.000000 0.006921 0.000000
# 4 0.000000 0.000000 0.000000 -0.370039 0.000000 -0.161485
# 5 0.025047 0.004508 0.006921 0.000000 0.043079 0.000000
# 6 0.000000 0.000000 0.000000 -0.161485 0.000000 -0.037985
#
#
# Mechanical properties :
#
#
# Convention : Reuss Voigt Hill
#
# Bulk Modulus (GPa) = 16.61682 46.95820 31.78751
# Shear Modulus (GPa) = -18.61280 28.51705 4.95212
#
# Velocity S-wave (km/s) = -2.89097 3.57841 1.49119
# Velocity P-wave (km/s) = 1.91890 6.17730 4.15192
#
# Compressibility (1/GPa) = 0.06017998
#
# Stress axis : x y z
#
# Youngs Moduli (GPa) = 23.12090 107.26255 63.92993
#
# Poissons Ratio (x) = 0.16141 -0.00217
# Poissons Ratio (y) = 0.03479 0.16284
# Poissons Ratio (z) = -0.00079 0.27322
#
# Static dielectric constant tensor:
#      x y z
#    x 1.862740 0.000000 0.070610 
#    y 0.000000 1.798130 0.000000 
#    z 0.070610 0.000000 1.854890 
# 
# From -- ./inp_files/378155.got.cif
#   From: 2010.05.17/outbox.cif.g08.bks.cpg/sg12_190_cif.got.tgz:378155.got - 2010.06.03 13:09:07.
