data_PCOD9198516
_publ_section_title
;
Structure prediction by ZEFSAII (Michael W. Deem and Ramdas Pophale) SiO2 
 PCOD9198516
Probable space group: C 2/M
;
_chemical_formula_sum "Si O2"
_cell_formula_units_Z 40
_cell_length_a 14.702921
_cell_length_b 18.494131
_cell_length_c 11.406191
_cell_angle_alpha 90.000000
_cell_angle_beta 137.992992
_cell_angle_gamma 90.000000
_cell_volume 2075.621097
_symmetry_space_group_name_H-M "C 2/M"
_symmetry_group_IT_number 12
_symmetry_cell_setting 'monoclinic'
loop_
_space_group_symop_operation_xyz
x,y,z
-x,y,-z
-x,-y,-z
x,-y,z
1/2+x,1/2+y,z
1/2-x,1/2+y,-z
1/2-x,1/2-y,-z
1/2+x,1/2-y,z
loop_
_atom_site_type_symbol
_atom_site_label
_atom_site_fract_x
_atom_site_fract_y
_atom_site_fract_z
Si Si1 0.012022 0.086434 0.150943
Si Si2 0.433433 0.228702 0.552843
Si Si3 0.246974 0.350571 0.456190
Si Si4 0.839501 0.418627 0.856123
Si Si5 0.178762 0.179406 0.880338
O O1 0.142677 0.123184 0.341163
O O2 0.879722 0.123475 0.081165
O O3 0.016846 0.000000 0.175529
O O4 0.000000 0.099255 0.000000
O O5 0.500000 0.194865 0.500000
O O6 0.298194 0.279273 0.432081
O O7 0.392764 0.169659 0.610776
O O8 0.547043 0.287628 0.691650
O O9 0.223791 0.409040 0.333585
O O10 0.815160 0.500000 0.875286
O O11 0.773232 0.362178 0.880647
O O12 0.000000 0.406168 0.000000
O O13 0.250000 0.250000 0.000000
#
# Coordination Sequence:
#
# PCOD9198516 Si02
#       5
#     8   8   8   8   8
#     4  10  23  41  61  87 121 163 205 244 297 366
#     4  10  20  36  57  90 120 150 200 250 305 360
#     4  10  21  38  62  86 123 157 198 256 301 353
#     4  11  23  40  61  88 123 162 206 250 304 366
#     4  11  23  37  63  90 120 158 199 255 307 356
#
# _framework density 19.271339999999999
#
# number of rings (size 3 to 8) (size 9 to 14) (size 15 to 20)
#    0.000    1.600    2.000    2.400    2.800    2.400 
#    0.000    3.000    0.000    1.200    0.000    0.000 
#    0.000    0.000    0.000    0.000    0.000    0.000 
#
# Total GULP energy -111434.459293 kJ/mol
# GULP energy per Si atom -5571.722965 kJ/mol
# Density = 1.922748 g / cm^3
# Si number density = 19.271340 Si / 1000 Ang^3
#
#
#
# Elastic Constant Matrix: (Units=GPa)
#
#
# Indices 1 2 3 4 5 6 
#
# 1 131.1198 77.4514 31.4340 0.0000 -14.4579 0.0000
# 2 77.4514 103.5003 27.6522 0.0000 -4.1068 0.0000
# 3 31.4340 27.6522 60.4237 0.0000 -11.3477 0.0000
# 4 0.0000 0.0000 0.0000 30.5168 0.0000 -1.1406
# 5 -14.4579 -4.1068 -11.3477 0.0000 20.1837 0.0000
# 6 0.0000 0.0000 0.0000 -1.1406 0.0000 31.2033
#
#
#
# Elastic Compliance Matrix: (Units=1/GPa)
#
#
# Indices 1 2 3 4 5 6 
#
# 1 0.015110 -0.010583 -0.001553 0.000000 0.007797 0.000000
# 2 -0.010583 0.018427 -0.004078 0.000000 -0.006124 0.000000
# 3 -0.001553 -0.004078 0.021086 0.000000 0.009912 0.000000
# 4 0.000000 0.000000 0.000000 0.032814 0.000000 0.001199
# 5 0.007797 -0.006124 0.009912 0.000000 0.059457 0.000000
# 6 0.000000 0.000000 0.000000 0.001199 0.000000 0.032092
#
#
# Mechanical properties :
#
#
# Convention : Reuss Voigt Hill
#
# Bulk Modulus (GPa) = 45.05407 63.12435 54.08921
# Shear Modulus (GPa) = 22.85078 26.94784 24.89931
#
# Velocity S-wave (km/s) = 3.44719 3.74349 3.59839
# Velocity P-wave (km/s) = 6.26688 7.17716 6.73741
#
# Compressibility (1/GPa) = 0.02219555
#
# Stress axis : x y z
#
# Youngs Moduli (GPa) = 66.18249 54.26682 47.42574
#
# Poissons Ratio (x) = 0.57428 0.07366
# Poissons Ratio (y) = 0.70038 0.19339
# Poissons Ratio (z) = 0.10280 0.22129
#
# Static dielectric constant tensor:
#      x y z
#    x 1.700810 0.000000 -0.041180 
#    y 0.000000 1.673500 0.000000 
#    z -0.041180 0.000000 1.667790 
# 
# From -- ./inp_files/63809.got.cif
#   From: 2010.05.17/outbox.cif.g08.bks.cpg/sg12_32_cif.got.tgz:63809.got - 2010.06.03 13:09:07.
