data_PCOD9198001
_publ_section_title
;
Structure prediction by ZEFSAII (Michael W. Deem and Ramdas Pophale) SiO2 
 PCOD9198001
Probable space group: C 2/M
;
_chemical_formula_sum "Si O2"
_cell_formula_units_Z 52
_cell_length_a 15.572357
_cell_length_b 14.795733
_cell_length_c 14.082087
_cell_angle_alpha 90.000000
_cell_angle_beta 121.455943
_cell_angle_gamma 90.000000
_cell_volume 2767.757987
_symmetry_space_group_name_H-M "C 2/M"
_symmetry_group_IT_number 12
_symmetry_cell_setting 'monoclinic'
loop_
_space_group_symop_operation_xyz
x,y,z
-x,y,-z
-x,-y,-z
x,-y,z
1/2+x,1/2+y,z
1/2-x,1/2+y,-z
1/2-x,1/2-y,-z
1/2+x,1/2-y,z
loop_
_atom_site_type_symbol
_atom_site_label
_atom_site_fract_x
_atom_site_fract_y
_atom_site_fract_z
Si Si1 0.664551 0.605607 0.564706
Si Si2 0.827394 0.683433 0.777255
Si Si3 0.121640 0.500000 0.081686
Si Si4 0.021048 0.893276 0.665684
Si Si5 0.506212 0.689122 0.846241
Si Si6 0.260871 0.500000 0.974157
Si Si7 0.999674 0.000000 0.112503
Si Si8 0.290566 0.696365 0.931509
O O1 0.691896 0.500000 0.567664
O O2 0.759909 0.665375 0.645988
O O3 0.590171 0.631721 0.436427
O O4 0.596344 0.611077 0.620703
O O5 0.845468 0.588853 0.841478
O O6 0.933079 0.727390 0.809762
O O7 0.777925 0.750808 0.826180
O O8 0.185002 0.500000 0.019749
O O9 0.000000 0.500000 0.000000
O O10 0.053179 0.828130 0.769476
O O11 0.018349 0.000000 0.691008
O O12 0.449612 0.593129 0.826961
O O13 0.590166 0.693237 0.975826
O O14 0.380146 0.500000 0.072471
O O15 0.249148 0.594195 0.911236
O O16 0.000000 0.000000 0.000000
O O17 0.250000 0.750000 0.000000
#
# Coordination Sequence:
#
# PCOD9198001 Si02
#       8
#     8   8   4   8   8   4   4   8
#     4   9  19  36  58  82 106 139 187 239 286 338
#     4  12  23  35  54  79 116 151 186 233 282 339
#     4  12  24  38  51  76 119 158 198 222 271 337
#     4   9  18  35  60  83 104 136 187 241 290 338
#     4  11  21  33  54  82 111 145 182 232 287 332
#     4  10  22  36  58  76 109 161 184 236 279 322
#     4  10  20  36  55  82 117 142 186 236 290 331
#     4  11  21  35  54  81 110 147 192 223 274 344
#
# _framework density 18.787770999999999
#
# number of rings (size 3 to 8) (size 9 to 14) (size 15 to 20)
#    0.000    1.538    3.077    5.077    2.154    0.615 
#    0.000    0.000    0.000    0.000    0.000    0.000 
#    0.000    4.923    0.000    0.000    0.000    0.000 
#
# Total GULP energy -145068.309454 kJ/mol
# GULP energy per Si atom -5579.550364 kJ/mol
# Density = 1.874501 g / cm^3
# Si number density = 18.787771 Si / 1000 Ang^3
#
#
#
# Elastic Constant Matrix: (Units=GPa)
#
#
# Indices 1 2 3 4 5 6 
#
# 1 57.8921 13.2897 -0.9697 0.0000 3.9350 0.0000
# 2 13.2897 96.2147 0.0219 0.0000 3.7447 0.0000
# 3 -0.9697 0.0219 45.5513 0.0000 6.5688 0.0000
# 4 0.0000 0.0000 0.0000 25.7729 0.0000 -1.3002
# 5 3.9350 3.7447 6.5688 0.0000 23.4223 0.0000
# 6 0.0000 0.0000 0.0000 -1.3002 0.0000 27.7679
#
#
#
# Elastic Compliance Matrix: (Units=1/GPa)
#
#
# Indices 1 2 3 4 5 6 
#
# 1 0.018028 -0.002379 0.000799 0.000000 -0.002873 0.000000
# 2 -0.002379 0.010775 0.000141 0.000000 -0.001363 0.000000
# 3 0.000799 0.000141 0.022920 0.000000 -0.006585 0.000000
# 4 0.000000 0.000000 0.000000 0.038892 0.000000 0.001821
# 5 -0.002873 -0.001363 -0.006585 0.000000 0.045241 0.000000
# 6 0.000000 0.000000 0.000000 0.001821 0.000000 0.036098
#
#
# Mechanical properties :
#
#
# Convention : Reuss Voigt Hill
#
# Bulk Modulus (GPa) = 20.47269 24.92688 22.69979
# Shear Modulus (GPa) = 26.16241 27.88038 27.02140
#
# Velocity S-wave (km/s) = 3.73570 3.85641 3.79653
# Velocity P-wave (km/s) = 5.43395 5.75548 5.59702
#
# Compressibility (1/GPa) = 0.04884556
#
# Stress axis : x y z
#
# Youngs Moduli (GPa) = 55.46874 92.80784 43.63046
#
# Poissons Ratio (x) = 0.22075 -0.03487
# Poissons Ratio (y) = 0.13193 -0.00614
# Poissons Ratio (z) = -0.04433 -0.01305
#
# Static dielectric constant tensor:
#      x y z
#    x 1.718000 0.000000 -0.004670 
#    y 0.000000 1.669840 0.000000 
#    z -0.004670 0.000000 1.668850 
# 
# From -- ./inp_files/214972.got.cif
#   From: 2010.05.17/outbox.cif.g08.bks.cpg/sg12_108_cif.got.tgz:214972.got - 2010.06.03 13:09:07.
