data_PCOD9198901
_publ_section_title
;
Structure prediction by ZEFSAII (Michael W. Deem and Ramdas Pophale) SiO2 
 PCOD9198901
Probable space group: C 2/M
;
_chemical_formula_sum "Si O2"
_cell_formula_units_Z 64
_cell_length_a 29.661046
_cell_length_b 8.404584
_cell_length_c 23.040985
_cell_angle_alpha 90.000000
_cell_angle_beta 149.709576
_cell_angle_gamma 90.000000
_cell_volume 2897.106346
_symmetry_space_group_name_H-M "C 2/M"
_symmetry_group_IT_number 12
_symmetry_cell_setting 'monoclinic'
loop_
_space_group_symop_operation_xyz
x,y,z
-x,y,-z
-x,-y,-z
x,-y,z
1/2+x,1/2+y,z
1/2-x,1/2+y,-z
1/2-x,1/2-y,-z
1/2+x,1/2-y,z
loop_
_atom_site_type_symbol
_atom_site_label
_atom_site_fract_x
_atom_site_fract_y
_atom_site_fract_z
Si Si1 0.370564 0.811353 0.479769
Si Si2 0.896491 0.308269 0.882665
Si Si3 0.044262 0.191304 0.239713
Si Si4 0.896330 0.306196 0.382226
Si Si5 0.536946 0.310055 0.727869
Si Si6 0.875537 0.191900 0.983697
Si Si7 0.697775 0.808054 0.842167
Si Si8 0.699641 0.188838 0.341855
O O1 0.352552 0.752374 0.394161
O O2 0.472028 0.769284 0.608444
O O3 0.302504 0.736298 0.449888
O O4 0.359220 0.000000 0.468573
O O5 0.895528 0.500000 0.880301
O O6 0.853615 0.251672 0.895178
O O7 0.847614 0.249724 0.770204
O O8 0.000000 0.254475 0.000000
O O9 0.142625 0.246668 0.332058
O O10 0.003168 0.243515 0.255170
O O11 0.043893 0.000000 0.239151
O O12 0.973176 0.248389 0.112194
O O13 0.894102 0.500000 0.379949
O O14 0.849044 0.256378 0.270542
O O15 0.000000 0.258019 0.500000
O O16 0.528912 0.500000 0.715440
O O17 0.638696 0.263029 0.827890
O O18 0.800777 0.238586 0.947740
O O19 0.875726 0.000000 0.982065
O O20 0.693378 0.000000 0.841376
O O21 0.693283 0.000000 0.335873
#
# Coordination Sequence:
#
# PCOD9198901 Si02
#       8
#     8   8   8   8   8   8   8   8
#     4  11  22  39  64  89 117 153 194 240 291 346
#     4  10  20  36  58  88 125 157 185 231 296 354
#     4  10  23  42  60  82 115 155 201 248 289 339
#     4   9  16  31  57  86 115 146 183 229 282 343
#     4  11  24  41  59  83 117 154 196 246 296 346
#     4  10  21  37  61  89 116 153 202 244 283 342
#     4  10  20  37  60  87 117 151 192 239 290 347
#     4  11  23  39  61  89 121 154 192 237 291 352
#
# _framework density 22.091007000000001
#
# number of rings (size 3 to 8) (size 9 to 14) (size 15 to 20)
#    0.000    1.750    2.500    1.875    0.000    4.750 
#    0.000    1.875    0.000    0.000    0.000    0.000 
#    0.000    0.000    0.000    0.000    0.000    0.000 
#
# Total GULP energy -178851.281531 kJ/mol
# GULP energy per Si atom -5589.102548 kJ/mol
# Density = 2.204073 g / cm^3
# Si number density = 22.091007 Si / 1000 Ang^3
#
#
#
# Elastic Constant Matrix: (Units=GPa)
#
#
# Indices 1 2 3 4 5 6 
#
# 1 144.5216 14.7906 1.5897 0.0000 23.0646 0.0000
# 2 14.7906 12.5698 -3.2558 0.0000 -0.1819 0.0000
# 3 1.5897 -3.2558 22.7969 0.0000 16.8679 0.0000
# 4 0.0000 0.0000 0.0000 16.0648 0.0000 4.1211
# 5 23.0646 -0.1819 16.8679 0.0000 39.2989 0.0000
# 6 0.0000 0.0000 0.0000 4.1211 0.0000 30.5304
#
#
#
# Elastic Compliance Matrix: (Units=1/GPa)
#
#
# Indices 1 2 3 4 5 6 
#
# 1 0.008934 -0.009894 0.002752 0.000000 -0.006470 0.000000
# 2 -0.009894 0.094850 0.014090 0.000000 0.000198 0.000000
# 3 0.002752 0.014090 0.068628 0.000000 -0.031006 0.000000
# 4 0.000000 0.000000 0.000000 0.064481 0.000000 -0.008704
# 5 -0.006470 0.000198 -0.031006 0.000000 0.042553 0.000000
# 6 0.000000 0.000000 0.000000 -0.008704 0.000000 0.033929
#
#
# Mechanical properties :
#
#
# Convention : Reuss Voigt Hill
#
# Bulk Modulus (GPa) = 5.36745 22.90413 14.13579
# Shear Modulus (GPa) = 13.82806 28.29640 21.06223
#
# Velocity S-wave (km/s) = 2.50463 3.58285 3.09112
# Velocity P-wave (km/s) = 3.28622 5.24465 4.37639
#
# Compressibility (1/GPa) = 0.18630810
#
# Stress axis : x y z
#
# Youngs Moduli (GPa) = 111.92840 10.54293 14.57121
#
# Poissons Ratio (x) = 0.10431 -0.04009
# Poissons Ratio (y) = 1.10739 -0.20530
# Poissons Ratio (z) = -0.30798 -0.14855
#
# Static dielectric constant tensor:
#      x y z
#    x 1.829870 0.000000 -0.012560 
#    y 0.000000 1.746330 0.000000 
#    z -0.012560 0.000000 1.819390 
# 
# From -- ./inp_files/353437.got.cif
#   From: 2010.05.17/outbox.cif.g08.bks.cpg/sg12_177_cif.got.tgz:353437.got - 2010.06.03 13:09:07.
