data_PCOD9198770
_publ_section_title
;
Structure prediction by ZEFSAII (Michael W. Deem and Ramdas Pophale) SiO2 
 PCOD9198770
Probable space group: C 2/M
;
_chemical_formula_sum "Si O2"
_cell_formula_units_Z 64
_cell_length_a 21.048524
_cell_length_b 8.442488
_cell_length_c 22.293731
_cell_angle_alpha 90.000000
_cell_angle_beta 62.060229
_cell_angle_gamma 90.000000
_cell_volume 3499.872432
_symmetry_space_group_name_H-M "C 2/M"
_symmetry_group_IT_number 12
_symmetry_cell_setting 'monoclinic'
loop_
_space_group_symop_operation_xyz
x,y,z
-x,y,-z
-x,-y,-z
x,-y,z
1/2+x,1/2+y,z
1/2-x,1/2+y,-z
1/2-x,1/2-y,-z
1/2+x,1/2-y,z
loop_
_atom_site_type_symbol
_atom_site_label
_atom_site_fract_x
_atom_site_fract_y
_atom_site_fract_z
Si Si1 0.297374 0.187718 0.296525
Si Si2 0.579307 0.806628 0.446115
Si Si3 0.225481 0.689716 0.446264
Si Si4 0.915770 0.810753 0.161389
Si Si5 0.339230 0.691699 0.071557
Si Si6 0.673159 0.806777 0.152168
Si Si7 0.577573 0.190079 0.082047
Si Si8 0.157099 0.690943 0.292748
O O1 0.279169 0.251372 0.370593
O O2 0.373846 0.237600 0.236162
O O3 0.236167 0.260516 0.280265
O O4 0.290446 0.000000 0.299505
O O5 0.500000 0.752296 0.500000
O O6 0.644981 0.758467 0.460976
O O7 0.602241 0.755213 0.368859
O O8 0.578294 0.000000 0.446842
O O9 0.225484 0.500000 0.446319
O O10 0.250000 0.750000 0.500000
O O11 0.875575 0.759010 0.118042
O O12 0.998036 0.759864 0.121017
O O13 0.910306 0.000000 0.167508
O O14 0.341217 0.500000 0.068203
O O15 0.255982 0.742234 0.107030
O O16 0.382960 0.757578 0.996079
O O17 0.624264 0.755082 0.118583
O O18 0.646069 0.753424 0.229670
O O19 0.672817 0.000000 0.152686
O O20 0.573226 0.000000 0.085277
O O21 0.154648 0.500000 0.293262
#
# Coordination Sequence:
#
# PCOD9198770 Si02
#       8
#     8   8   8   8   8   8   8   8
#     4  11  21  35  58  86 112 142 188 236 280 328
#     4   8  15  29  53  84 110 139 184 226 263 316
#     4  10  20  36  58  84 117 151 188 229 276 329
#     4  11  22  39  60  79 108 148 188 227 278 341
#     4  10  20  37  60  78 100 145 196 227 274 344
#     4   9  18  35  56  79 107 147 188 224 275 338
#     4  11  23  36  52  82 118 143 179 236 288 329
#     4   9  16  33  58  79 107 148 187 223 268 331
#
# _framework density 18.286380999999999
#
# number of rings (size 3 to 8) (size 9 to 14) (size 15 to 20)
#    0.000    2.125    1.250    3.750    0.000    2.500 
#    2.250    1.875    0.000    9.375    0.000    0.000 
#    0.000    0.000    0.000    0.000    0.000    0.000 
#
# Total GULP energy -178618.758760 kJ/mol
# GULP energy per Si atom -5581.836211 kJ/mol
# Density = 1.824476 g / cm^3
# Si number density = 18.286381 Si / 1000 Ang^3
#
#
#
# Elastic Constant Matrix: (Units=GPa)
#
#
# Indices 1 2 3 4 5 6 
#
# 1 101.9840 9.4467 73.9987 0.0001 3.2398 -0.0006
# 2 9.4467 5.6040 17.4156 -0.0002 0.0942 -0.0006
# 3 73.9987 17.4156 156.5473 0.0001 1.8086 -0.0003
# 4 0.0001 -0.0002 0.0001 20.3748 0.0000 8.6885
# 5 3.2398 0.0942 1.8086 0.0000 29.5916 0.0001
# 6 -0.0006 -0.0006 -0.0003 8.6885 0.0001 15.4436
#
#
#
# Elastic Compliance Matrix: (Units=1/GPa)
#
#
# Indices 1 2 3 4 5 6 
#
# 1 0.015059 -0.005024 -0.006545 0.000000 -0.001233 0.000000
# 2 -0.005024 0.274443 -0.028173 -0.000001 0.001398 0.000011
# 3 -0.006545 -0.028173 0.012615 0.000000 0.000035 -0.000001
# 4 0.000000 -0.000001 0.000000 0.064572 0.000000 -0.036327
# 5 -0.001233 0.001398 0.000035 0.000000 0.033922 0.000000
# 6 0.000000 0.000011 -0.000001 -0.036327 0.000000 0.085189
#
#
# Mechanical properties :
#
#
# Convention : Reuss Voigt Hill
#
# Bulk Modulus (GPa) = 4.49168 51.76194 28.12681
# Shear Modulus (GPa) = 7.81866 23.96695 15.89281
#
# Velocity S-wave (km/s) = 2.07001 3.62421 2.95126
# Velocity P-wave (km/s) = 2.85918 6.77355 5.19884
#
# Compressibility (1/GPa) = 0.22263387
#
# Stress axis : x y z
#
# Youngs Moduli (GPa) = 66.40490 3.64374 79.26790
#
# Poissons Ratio (x) = 0.01831 0.51882
# Poissons Ratio (y) = 0.33363 2.23318
# Poissons Ratio (z) = 0.43463 0.10265
#
# Static dielectric constant tensor:
#      x y z
#    x 1.607640 0.000000 0.003690 
#    y 0.000000 1.628440 0.000000 
#    z 0.003690 0.000000 1.619270 
# 
# From -- ./inp_files/319925.got.cif
#   From: 2010.05.17/outbox.cif.g08.bks.cpg/sg12_160_cif.got.tgz:319925.got - 2010.06.03 13:09:07.
