data_PCOD9198498
_publ_section_title
;
Structure prediction by ZEFSAII (Michael W. Deem and Ramdas Pophale) SiO2 
 PCOD9198498
Probable space group: C 2/M
;
_chemical_formula_sum "Si O2"
_cell_formula_units_Z 52
_cell_length_a 17.393709
_cell_length_b 16.918891
_cell_length_c 11.094598
_cell_angle_alpha 90.000000
_cell_angle_beta 138.134169
_cell_angle_gamma 90.000000
_cell_volume 2178.985899
_symmetry_space_group_name_H-M "C 2/M"
_symmetry_group_IT_number 12
_symmetry_cell_setting 'monoclinic'
loop_
_space_group_symop_operation_xyz
x,y,z
-x,y,-z
-x,-y,-z
x,-y,z
1/2+x,1/2+y,z
1/2-x,1/2+y,-z
1/2-x,1/2-y,-z
1/2+x,1/2-y,z
loop_
_atom_site_type_symbol
_atom_site_label
_atom_site_fract_x
_atom_site_fract_y
_atom_site_fract_z
Si Si1 0.774523 0.000000 0.434995
Si Si2 0.156894 0.591208 0.974254
Si Si3 0.370028 0.855230 0.803538
Si Si4 0.760013 0.717569 0.333738
Si Si5 0.553965 0.644299 0.434417
Si Si6 0.944367 0.594649 0.565973
Si Si7 0.176083 0.820645 0.974964
O O1 0.672763 0.068793 0.315884
O O2 0.872076 0.071563 0.532491
O O3 0.145473 0.500000 0.995598
O O4 0.037999 0.618922 0.775584
O O5 0.191380 0.635501 0.135905
O O6 0.253941 0.602349 0.987235
O O7 0.331861 0.771947 0.702023
O O8 0.500000 0.857619 0.000000
O O9 0.866907 0.778823 0.447802
O O10 0.823562 0.637486 0.443589
O O11 0.690238 0.693190 0.132272
O O12 0.500000 0.619581 0.500000
O O13 0.451226 0.671115 0.225668
O O14 0.932863 0.500000 0.553106
O O15 0.000000 0.615899 0.500000
O O16 0.250000 0.750000 0.000000
#
# Coordination Sequence:
#
# PCOD9198498 Si02
#       7
#     4   8   8   8   8   8   8
#     4  10  22  38  54  82 117 152 195 249 297 340
#     4  11  22  34  58  90 116 156 194 233 299 356
#     4  11  23  40  62  83 114 159 205 250 291 343
#     4  11  22  37  58  85 121 155 196 244 296 350
#     4  11  21  32  54  85 123 156 185 236 297 364
#     4  10  20  36  57  87 123 151 190 241 292 359
#     4  12  20  33  55  86 122 154 185 233 299 363
#
# _framework density 23.864312999999999
#
# number of rings (size 3 to 8) (size 9 to 14) (size 15 to 20)
#    0.000    1.077    5.385    2.769    1.077    0.000 
#    0.000    0.769    0.000    0.462    0.000    0.000 
#    0.000    0.000    0.000    0.000    0.000    0.000 
#
# Total GULP energy -144900.016282 kJ/mol
# GULP energy per Si atom -5573.077549 kJ/mol
# Density = 2.381000 g / cm^3
# Si number density = 23.864313 Si / 1000 Ang^3
#
#
#
# Elastic Constant Matrix: (Units=GPa)
#
#
# Indices 1 2 3 4 5 6 
#
# 1 47.5293 22.0990 29.5678 0.0000 -7.1728 0.0000
# 2 22.0990 95.8926 63.8310 0.0000 -3.8143 0.0000
# 3 29.5678 63.8310 206.1960 0.0000 10.1559 0.0000
# 4 0.0000 0.0000 0.0000 44.2914 0.0000 8.2593
# 5 -7.1728 -3.8143 10.1559 0.0000 42.7368 0.0000
# 6 0.0000 0.0000 0.0000 8.2593 0.0000 24.0273
#
#
#
# Elastic Compliance Matrix: (Units=1/GPa)
#
#
# Indices 1 2 3 4 5 6 
#
# 1 0.025154 -0.003866 -0.002632 0.000000 0.004502 0.000000
# 2 -0.003866 0.013930 -0.003832 0.000000 0.001505 0.000000
# 3 -0.002632 -0.003832 0.006528 0.000000 -0.002335 0.000000
# 4 0.000000 0.000000 0.000000 0.024124 0.000000 -0.008293
# 5 0.004502 0.001505 -0.002335 0.000000 0.024844 0.000000
# 6 0.000000 0.000000 0.000000 -0.008293 0.000000 0.044470
#
#
# Mechanical properties :
#
#
# Convention : Reuss Voigt Hill
#
# Bulk Modulus (GPa) = 40.07594 64.51261 52.29427
# Shear Modulus (GPa) = 29.75712 37.81912 33.78812
#
# Velocity S-wave (km/s) = 3.53502 3.98522 3.76685
# Velocity P-wave (km/s) = 5.78719 6.94750 6.39372
#
# Compressibility (1/GPa) = 0.02495263
#
# Stress axis : x y z
#
# Youngs Moduli (GPa) = 39.75532 71.78829 153.17600
#
# Poissons Ratio (x) = 0.27752 0.40316
# Poissons Ratio (y) = 0.15368 0.58697
# Poissons Ratio (z) = 0.10464 0.27509
#
# Static dielectric constant tensor:
#      x y z
#    x 2.062180 0.000000 -0.005560 
#    y 0.000000 1.929350 0.000000 
#    z -0.005560 0.000000 1.919330 
# 
# From -- ./inp_files/234479.got.cif
#   From: 2010.05.17/outbox.cif.g08.bks.cpg/sg12_118_cif.got.tgz:234479.got - 2010.06.03 13:09:07.
