data_PCOD9198842
_publ_section_title
;
Structure prediction by ZEFSAII (Michael W. Deem and Ramdas Pophale) SiO2 
 PCOD9198842
Probable space group: C 2/M
;
_chemical_formula_sum "Si O2"
_cell_formula_units_Z 48
_cell_length_a 10.678883
_cell_length_b 25.812179
_cell_length_c 14.162044
_cell_angle_alpha 90.000000
_cell_angle_beta 142.432571
_cell_angle_gamma 90.000000
_cell_volume 2380.065095
_symmetry_space_group_name_H-M "C 2/M"
_symmetry_group_IT_number 12
_symmetry_cell_setting 'monoclinic'
loop_
_space_group_symop_operation_xyz
x,y,z
-x,y,-z
-x,-y,-z
x,-y,z
1/2+x,1/2+y,z
1/2-x,1/2+y,-z
1/2-x,1/2-y,-z
1/2+x,1/2-y,z
loop_
_atom_site_type_symbol
_atom_site_label
_atom_site_fract_x
_atom_site_fract_y
_atom_site_fract_z
Si Si1 0.396497 0.368201 0.179642
Si Si2 0.665785 0.439121 0.678610
Si Si3 0.527549 0.056833 0.297685
Si Si4 0.764386 0.260305 0.895901
Si Si5 0.233793 0.146106 0.108089
Si Si6 0.737030 0.058142 0.610454
O O1 0.325686 0.406076 0.221118
O O2 0.379947 0.309591 0.210321
O O3 0.612173 0.394559 0.277201
O O4 0.265863 0.362982 0.005261
O O5 0.500000 0.421452 0.500000
O O6 0.628728 0.500000 0.676533
O O7 0.880133 0.435968 0.750482
O O8 0.373694 0.101579 0.232648
O O9 0.714499 0.057367 0.483421
O O10 0.429892 0.000000 0.246140
O O11 0.699161 0.203613 0.819849
O O12 0.750000 0.250000 0.000000
O O13 0.000000 0.269807 0.000000
O O14 0.000000 0.141104 0.000000
O O15 0.500000 0.063274 0.500000
O O16 0.808025 0.000000 0.683154
#
# Coordination Sequence:
#
# PCOD9198842 Si02
#       6
#     8   8   8   8   8   8
#     4  11  21  35  64  87 111 158 209 245 294 366
#     4  10  20  36  58  86 122 156 193 244 299 356
#     4  10  21  36  56  85 123 157 189 243 307 355
#     4   9  21  39  60  85 117 157 201 251 309 358
#     4  10  22  40  59  84 119 154 198 252 298 354
#     4  10  20  36  59  86 120 161 198 239 299 364
#
# _framework density 20.167515999999999
#
# number of rings (size 3 to 8) (size 9 to 14) (size 15 to 20)
#    0.000    2.000    1.667    1.500    4.667    1.667 
#    0.000    2.500    0.000    0.000    0.000    0.000 
#    0.000    0.000    0.000    0.000    0.000    0.000 
#
# Total GULP energy -133677.248355 kJ/mol
# GULP energy per Si atom -5569.885348 kJ/mol
# Density = 2.012161 g / cm^3
# Si number density = 20.167516 Si / 1000 Ang^3
#
#
#
# Elastic Constant Matrix: (Units=GPa)
#
#
# Indices 1 2 3 4 5 6 
#
# 1 98.2700 38.0954 4.0867 0.0000 -8.0373 0.0000
# 2 38.0954 177.6247 52.2714 0.0000 27.0291 0.0000
# 3 4.0867 52.2714 32.6036 0.0000 -2.9906 0.0000
# 4 0.0000 0.0000 0.0000 156.3668 0.0000 -13.9822
# 5 -8.0373 27.0291 -2.9906 0.0000 33.5750 0.0000
# 6 0.0000 0.0000 0.0000 -13.9822 0.0000 32.9544
#
#
#
# Elastic Compliance Matrix: (Units=1/GPa)
#
#
# Indices 1 2 3 4 5 6 
#
# 1 0.013856 -0.008493 0.012916 0.000000 0.011304 0.000000
# 2 -0.008493 0.020976 -0.034584 0.000000 -0.022000 0.000000
# 3 0.012916 -0.034584 0.088055 0.000000 0.038776 0.000000
# 4 0.000000 0.000000 0.000000 0.006647 0.000000 0.002820
# 5 0.011304 -0.022000 0.038776 0.000000 0.053655 0.000000
# 6 0.000000 0.000000 0.000000 0.002820 0.000000 0.031542
#
#
# Mechanical properties :
#
#
# Convention : Reuss Voigt Hill
#
# Bulk Modulus (GPa) = 15.98293 55.26725 35.62509
# Shear Modulus (GPa) = 16.89719 58.84889 37.87304
#
# Velocity S-wave (km/s) = 2.89769 5.40772 4.33820
# Velocity P-wave (km/s) = 4.37467 8.15198 6.54189
#
# Compressibility (1/GPa) = 0.06256675
#
# Stress axis : x y z
#
# Youngs Moduli (GPa) = 72.17203 47.67282 11.35653
#
# Poissons Ratio (x) = 0.40488 -0.14668
# Poissons Ratio (y) = 0.61294 0.39275
# Poissons Ratio (z) = -0.93218 1.64870
#
# Static dielectric constant tensor:
#      x y z
#    x 1.839620 0.000000 -0.029180 
#    y 0.000000 1.749410 0.000000 
#    z -0.029180 0.000000 1.702090 
# 
# From -- ./inp_files/50806.got.cif
#   From: 2010.05.17/outbox.cif.g08.bks.cpg/sg12_26_cif.got.tgz:50806.got - 2010.06.03 13:09:07.
