data_PCOD9198688
_publ_section_title
;
Structure prediction by ZEFSAII (Michael W. Deem and Ramdas Pophale) SiO2 
 PCOD9198688
Probable space group: C 2/M
;
_chemical_formula_sum "Si O2"
_cell_formula_units_Z 56
_cell_length_a 19.085329
_cell_length_b 8.796112
_cell_length_c 27.656622
_cell_angle_alpha 90.000000
_cell_angle_beta 139.959208
_cell_angle_gamma 90.000000
_cell_volume 2986.931437
_symmetry_space_group_name_H-M "C 2/M"
_symmetry_group_IT_number 12
_symmetry_cell_setting 'monoclinic'
loop_
_space_group_symop_operation_xyz
x,y,z
-x,y,-z
-x,-y,-z
x,-y,z
1/2+x,1/2+y,z
1/2-x,1/2+y,-z
1/2-x,1/2-y,-z
1/2+x,1/2-y,z
loop_
_atom_site_type_symbol
_atom_site_label
_atom_site_fract_x
_atom_site_fract_y
_atom_site_fract_z
Si Si1 0.520106 0.318103 0.262898
Si Si2 0.719012 0.820727 0.431767
Si Si3 0.871601 0.327520 0.439154
Si Si4 0.551679 0.828990 0.174626
Si Si5 0.311308 0.670847 0.310665
Si Si6 0.432952 0.317407 0.917642
Si Si7 0.675489 0.817637 0.782318
O O1 0.524419 0.500000 0.267194
O O2 0.615962 0.251737 0.348430
O O3 0.533010 0.261763 0.214399
O O4 0.404999 0.255307 0.221433
O O5 0.750000 0.750000 0.500000
O O6 0.822106 0.786124 0.451914
O O7 0.699418 0.000000 0.426409
O O8 0.840354 0.500000 0.436039
O O9 0.827030 0.281059 0.363751
O O10 0.000000 0.319185 0.500000
O O11 0.681792 0.841252 0.237523
O O12 0.519755 0.751420 0.107112
O O13 0.506625 0.000000 0.155462
O O14 0.355106 0.500000 0.342062
O O15 0.357262 0.745545 0.286551
O O16 0.440252 0.500000 0.917572
O O17 0.304170 0.282251 0.856721
O O18 0.500000 0.266917 0.000000
O O19 0.663339 0.000000 0.775143
#
# Coordination Sequence:
#
# PCOD9198688 Si02
#       7
#     8   8   8   8   8   8   8
#     4  12  24  40  62  87 120 159 203 250 300 359
#     4  12  26  44  63  86 119 158 203 252 307 360
#     4  11  24  40  59  84 116 152 197 247 299 354
#     4  10  20  36  60  89 118 153 196 242 294 351
#     4  10  20  36  58  83 113 150 197 246 293 350
#     4   9  19  38  64  93 124 158 196 241 295 355
#     4  10  21  37  60  88 121 156 197 245 296 354
#
# _framework density 18.748339000000001
#
# number of rings (size 3 to 8) (size 9 to 14) (size 15 to 20)
#    0.000    1.429    1.429    4.286    2.000    3.143 
#    0.000    0.714    0.000    0.000    0.000    0.000 
#    0.000    0.000    0.000    0.000    0.000    0.000 
#
# Total GULP energy -156277.360195 kJ/mol
# GULP energy per Si atom -5581.334293 kJ/mol
# Density = 1.870567 g / cm^3
# Si number density = 18.748339 Si / 1000 Ang^3
#
#
#
# Elastic Constant Matrix: (Units=GPa)
#
#
# Indices 1 2 3 4 5 6 
#
# 1 124.6802 57.6342 45.7028 0.0000 -22.3385 0.0000
# 2 57.6342 96.2100 21.7596 0.0000 -0.6547 -0.0001
# 3 45.7028 21.7596 65.4783 0.0000 -23.4607 0.0000
# 4 0.0000 0.0000 0.0000 23.1937 0.0000 -4.4611
# 5 -22.3385 -0.6547 -23.4607 0.0000 26.4067 0.0000
# 6 0.0000 -0.0001 0.0000 -4.4611 0.0000 39.8371
#
#
#
# Elastic Compliance Matrix: (Units=1/GPa)
#
#
# Indices 1 2 3 4 5 6 
#
# 1 0.014816 -0.007707 -0.004926 0.000000 0.007966 0.000000
# 2 -0.007707 0.015618 -0.002945 0.000000 -0.008749 0.000000
# 3 -0.004926 -0.002945 0.026655 0.000000 0.019441 0.000000
# 4 0.000000 0.000000 0.000000 0.044064 0.000000 0.004934
# 5 0.007966 -0.008749 0.019441 0.000000 0.061663 0.000000
# 6 0.000000 0.000000 0.000000 0.004934 0.000000 0.025655
#
#
# Mechanical properties :
#
#
# Convention : Reuss Voigt Hill
#
# Bulk Modulus (GPa) = 38.56304 59.61798 49.09051
# Shear Modulus (GPa) = 21.90369 28.63897 25.27133
#
# Velocity S-wave (km/s) = 3.42175 3.91262 3.67539
# Velocity P-wave (km/s) = 6.01869 7.23046 6.65223
#
# Compressibility (1/GPa) = 0.02593156
#
# Stress axis : x y z
#
# Youngs Moduli (GPa) = 67.49382 64.03050 37.51646
#
# Poissons Ratio (x) = 0.49350 0.18480
# Poissons Ratio (y) = 0.52019 0.11050
# Poissons Ratio (z) = 0.33247 0.18859
#
# Static dielectric constant tensor:
#      x y z
#    x 1.608160 0.000000 -0.021830 
#    y 0.000000 1.660320 0.000000 
#    z -0.021830 0.000000 1.644130 
# 
# From -- ./inp_files/363202.got.cif
#   From: 2010.05.17/outbox.cif.g08.bks.cpg/sg12_182_cif.got.tgz:363202.got - 2010.06.03 13:09:07.
