data_PCOD9198741
_publ_section_title
;
Structure prediction by ZEFSAII (Michael W. Deem and Ramdas Pophale) SiO2 
 PCOD9198741
Probable space group: C 2/M
;
_chemical_formula_sum "Si O2"
_cell_formula_units_Z 56
_cell_length_a 21.480140
_cell_length_b 7.833194
_cell_length_c 31.680764
_cell_angle_alpha 90.000000
_cell_angle_beta 29.422006
_cell_angle_gamma 90.000000
_cell_volume 2618.568163
_symmetry_space_group_name_H-M "C 2/M"
_symmetry_group_IT_number 12
_symmetry_cell_setting 'monoclinic'
loop_
_space_group_symop_operation_xyz
x,y,z
-x,y,-z
-x,-y,-z
x,-y,z
1/2+x,1/2+y,z
1/2-x,1/2+y,-z
1/2-x,1/2-y,-z
1/2+x,1/2-y,z
loop_
_atom_site_type_symbol
_atom_site_label
_atom_site_fract_x
_atom_site_fract_y
_atom_site_fract_z
Si Si1 0.105632 0.199114 0.470332
Si Si2 0.159187 0.293808 0.279701
Si Si3 0.644703 0.206218 0.907323
Si Si4 0.115428 0.304696 0.560492
Si Si5 0.772557 0.793838 0.299532
Si Si6 0.940809 0.792831 0.889125
Si Si7 0.748106 0.699544 0.070740
O O1 0.117036 0.287383 0.508676
O O2 0.232011 0.217749 0.367983
O O3 0.000000 0.270018 0.500000
O O4 0.078080 0.000000 0.494263
O O5 0.153574 0.500000 0.284551
O O6 0.279713 0.250089 0.179691
O O7 0.183800 0.235643 0.313252
O O8 0.021750 0.225739 0.345591
O O9 0.729337 0.273011 0.896463
O O10 0.639516 0.000000 0.912863
O O11 0.500000 0.267262 0.000000
O O12 0.105893 0.500000 0.578732
O O13 0.250000 0.250000 0.500000
O O14 0.914557 0.748060 0.202917
O O15 0.765135 0.000000 0.307148
O O16 0.857660 0.729503 0.898430
O O17 0.930003 0.000000 0.898183
O O18 0.878896 0.717846 0.967701
O O19 0.717324 0.500000 0.094048
#
# Coordination Sequence:
#
# PCOD9198741 Si02
#       7
#     8   8   8   8   8   8   8
#     4  11  23  39  62  91 120 153 198 246 295 357
#     4  10  22  38  58  84 114 151 195 246 298 358
#     4  10  21  35  53  79 114 154 193 236 289 351
#     4  11  24  43  65  90 124 162 203 252 311 369
#     4  10  20  36  58  84 114 148 192 241 297 353
#     4   9  18  32  53  79 105 140 185 232 283 344
#     4   9  18  33  50  73 108 144 183 230 283 338
#
# _framework density 21.385732000000001
#
# number of rings (size 3 to 8) (size 9 to 14) (size 15 to 20)
#    0.000    2.000    1.429    1.714    0.000    4.857 
#    0.000    1.429    0.000    0.000    0.000    0.000 
#    0.000    0.000    0.000    0.000    0.000    0.000 
#
# Total GULP energy -156259.270713 kJ/mol
# GULP energy per Si atom -5580.688240 kJ/mol
# Density = 2.133706 g / cm^3
# Si number density = 21.385732 Si / 1000 Ang^3
#
#
#
# Elastic Constant Matrix: (Units=GPa)
#
#
# Indices 1 2 3 4 5 6 
#
# 1 63.6802 -4.9948 32.5008 0.0096 -2.8083 -0.0531
# 2 -4.9948 21.2580 -5.1691 0.0219 -10.0509 0.0903
# 3 32.5008 -5.1691 99.1317 -0.0204 -12.5936 -0.0200
# 4 0.0096 0.0219 -0.0204 25.0583 0.0025 3.8775
# 5 -2.8083 -10.0509 -12.5936 0.0025 34.5447 0.0120
# 6 -0.0531 0.0903 -0.0200 3.8775 0.0120 3.5443
#
#
#
# Elastic Compliance Matrix: (Units=1/GPa)
#
#
# Indices 1 2 3 4 5 6 
#
# 1 0.019047 0.003122 -0.006050 -0.000050 0.000251 0.000226
# 2 0.003122 0.057636 0.004345 0.000212 0.018608 -0.001691
# 3 -0.006050 0.004345 0.012998 0.000038 0.005511 -0.000188
# 4 -0.000050 0.000212 0.000038 0.048041 0.000086 -0.052564
# 5 0.000251 0.018608 0.005511 0.000086 0.036392 -0.000656
# 6 0.000226 -0.001691 -0.000188 -0.052564 -0.000656 0.339701
#
#
# Mechanical properties :
#
#
# Convention : Reuss Voigt Hill
#
# Bulk Modulus (GPa) = 10.80887 25.41597 18.11242
# Shear Modulus (GPa) = 9.22818 23.41164 16.31991
#
# Velocity S-wave (km/s) = 2.07954 3.31226 2.76546
# Velocity P-wave (km/s) = 3.29108 5.15155 4.32259
#
# Compressibility (1/GPa) = 0.09251657
#
# Stress axis : x y z
#
# Youngs Moduli (GPa) = 52.50055 17.35016 76.93608
#
# Poissons Ratio (x) = -0.05417 0.46547
# Poissons Ratio (y) = -0.16391 -0.33432
# Poissons Ratio (z) = 0.31763 -0.07539
#
# Static dielectric constant tensor:
#      x y z
#    x 1.794680 0.000000 -0.035860 
#    y 0.000000 1.779090 0.000010 
#    z -0.035860 0.000010 1.785610 
# 
# From -- ./inp_files/380646.got.cif
#   From: 2010.05.17/outbox.cif.g08.bks.cpg/sg12_191_cif.got.tgz:380646.got - 2010.06.03 13:09:07.
