data_PCOD9198974
_publ_section_title
;
Structure prediction by ZEFSAII (Michael W. Deem and Ramdas Pophale) SiO2 
 PCOD9198974
Probable space group: C 2/M
;
_chemical_formula_sum "Si O2"
_cell_formula_units_Z 64
_cell_length_a 16.671519
_cell_length_b 27.216942
_cell_length_c 9.534097
_cell_angle_alpha 90.000000
_cell_angle_beta 41.354864
_cell_angle_gamma 90.000000
_cell_volume 2858.327632
_symmetry_space_group_name_H-M "C 2/M"
_symmetry_group_IT_number 12
_symmetry_cell_setting 'monoclinic'
loop_
_space_group_symop_operation_xyz
x,y,z
-x,y,-z
-x,-y,-z
x,-y,z
1/2+x,1/2+y,z
1/2-x,1/2+y,-z
1/2-x,1/2-y,-z
1/2+x,1/2-y,z
loop_
_atom_site_type_symbol
_atom_site_label
_atom_site_fract_x
_atom_site_fract_y
_atom_site_fract_z
Si Si1 0.132489 0.551045 0.885606
Si Si2 0.625674 0.812353 0.910446
Si Si3 0.819711 0.607491 0.929173
Si Si4 0.706676 0.866611 0.570726
Si Si5 0.380488 0.834835 0.591418
Si Si6 0.898911 0.057410 0.253815
Si Si7 0.600098 0.699042 0.989160
Si Si8 0.044050 0.883911 0.285441
O O1 0.201151 0.500000 0.781639
O O2 0.117568 0.565235 0.065964
O O3 0.186696 0.593694 0.719885
O O4 0.000000 0.546403 0.000000
O O5 0.667262 0.844323 0.988312
O O6 0.721535 0.818763 0.653482
O O7 0.599106 0.757914 0.999486
O O8 0.500000 0.829993 0.000000
O O9 0.678874 0.594671 0.110314
O O10 0.868182 0.619653 0.713812
O O11 0.606872 0.851355 0.586204
O O12 0.803276 0.898136 0.352775
O O13 0.500000 0.807826 0.500000
O O14 0.244716 0.811193 0.773317
O O15 0.960022 0.076647 0.317154
O O16 0.856957 0.000000 0.312890
O O17 0.000000 0.059644 0.000000
O O18 0.500000 0.687128 0.000000
O O19 0.557429 0.666072 0.176361
O O20 0.000000 0.873994 0.500000
#
# Coordination Sequence:
#
# PCOD9198974 Si02
#       8
#     8   8   8   8   8   8   8   8
#     4  10  20  36  59  83 110 152 203 250 304 380
#     4  10  21  41  65  89 122 166 214 264 316 388
#     4  10  21  38  57  84 124 160 198 259 329 385
#     4  11  21  39  64  88 120 162 212 259 315 386
#     4  11  22  37  60  92 129 166 206 264 335 389
#     4  11  24  43  66  92 126 173 224 272 325 389
#     4  10  23  43  65  92 128 172 224 269 322 394
#     4  11  22  38  63  93 127 165 209 273 332 384
#
# _framework density 22.390715
#
# number of rings (size 3 to 8) (size 9 to 14) (size 15 to 20)
#    0.000    1.500    0.000    7.500    0.000    3.250 
#    0.000   10.000    0.000    3.375    0.000    0.000 
#    0.000    0.000    0.000    0.000    0.000    0.000 
#
# Total GULP energy -178263.500797 kJ/mol
# GULP energy per Si atom -5570.734400 kJ/mol
# Density = 2.233975 g / cm^3
# Si number density = 22.390715 Si / 1000 Ang^3
#
#
#
# Elastic Constant Matrix: (Units=GPa)
#
#
# Indices 1 2 3 4 5 6 
#
# 1 116.1641 15.6538 11.2847 0.0000 2.4551 0.0000
# 2 15.6538 76.0482 2.6336 0.0000 10.2806 0.0000
# 3 11.2847 2.6336 82.2201 0.0000 15.7406 0.0000
# 4 0.0000 0.0000 0.0000 21.6159 0.0000 6.1855
# 5 2.4551 10.2806 15.7406 0.0000 49.3041 0.0000
# 6 0.0000 0.0000 0.0000 6.1855 0.0000 42.3750
#
#
#
# Elastic Compliance Matrix: (Units=1/GPa)
#
#
# Indices 1 2 3 4 5 6 
#
# 1 0.008971 -0.001849 -0.001236 0.000000 0.000333 0.000000
# 2 -0.001849 0.013913 0.000368 0.000000 -0.002927 0.000000
# 3 -0.001236 0.000368 0.013125 0.000000 -0.004206 0.000000
# 4 0.000000 0.000000 0.000000 0.048279 0.000000 -0.007047
# 5 0.000333 -0.002927 -0.004206 0.000000 0.022219 0.000000
# 6 0.000000 0.000000 0.000000 -0.007047 0.000000 0.024627
#
#
# Mechanical properties :
#
#
# Convention : Reuss Voigt Hill
#
# Bulk Modulus (GPa) = 32.70473 37.06407 34.88440
# Shear Modulus (GPa) = 34.06955 38.98304 36.52629
#
# Velocity S-wave (km/s) = 3.90499 4.17710 4.04333
# Velocity P-wave (km/s) = 5.91355 6.31296 6.11651
#
# Compressibility (1/GPa) = 0.03057661
#
# Stress axis : x y z
#
# Youngs Moduli (GPa) = 111.47456 71.87532 76.18795
#
# Poissons Ratio (x) = 0.13288 0.09415
# Poissons Ratio (y) = 0.20609 -0.02807
# Poissons Ratio (z) = 0.13776 -0.02648
#
# Static dielectric constant tensor:
#      x y z
#    x 1.907270 0.000000 -0.076960 
#    y 0.000000 1.859600 0.000000 
#    z -0.076960 0.000000 1.946390 
# 
# From -- ./inp_files/68603.got.cif
#   From: 2010.05.17/outbox.cif.g08.bks.cpg/sg12_35_cif.got.tgz:68603.got - 2010.06.03 13:09:07.
