data_PCOD9198923
_publ_section_title
;
Structure prediction by ZEFSAII (Michael W. Deem and Ramdas Pophale) SiO2 
 PCOD9198923
Probable space group: C 2/M
;
_chemical_formula_sum "Si O2"
_cell_formula_units_Z 48
_cell_length_a 12.162823
_cell_length_b 17.959148
_cell_length_c 11.428124
_cell_angle_alpha 90.000000
_cell_angle_beta 91.315450
_cell_angle_gamma 90.000000
_cell_volume 2495.632249
_symmetry_space_group_name_H-M "C 2/M"
_symmetry_group_IT_number 12
_symmetry_cell_setting 'monoclinic'
loop_
_space_group_symop_operation_xyz
x,y,z
-x,y,-z
-x,-y,-z
x,-y,z
1/2+x,1/2+y,z
1/2-x,1/2+y,-z
1/2-x,1/2-y,-z
1/2+x,1/2-y,z
loop_
_atom_site_type_symbol
_atom_site_label
_atom_site_fract_x
_atom_site_fract_y
_atom_site_fract_z
Si Si1 0.431799 0.586779 0.156303
Si Si2 0.836009 0.687770 0.249863
Si Si3 0.444033 0.825576 0.885496
Si Si4 0.631054 0.087924 0.523490
Si Si5 0.142113 0.163023 0.082443
Si Si6 0.756054 0.352729 0.706710
O O1 0.448241 0.500000 0.136669
O O2 0.549310 0.627107 0.163721
O O3 0.352277 0.601256 0.262589
O O4 0.372188 0.623529 0.042150
O O5 0.838977 0.631738 0.358164
O O6 0.759533 0.656408 0.144396
O O7 0.781674 0.766372 0.286013
O O8 0.958175 0.696589 0.201072
O O9 0.387964 0.749804 0.931719
O O10 0.350622 0.865990 0.807377
O O11 0.500000 0.863629 0.000000
O O12 0.500000 0.095436 0.500000
O O13 0.694316 0.124274 0.415805
O O14 0.656145 0.000000 0.532169
#
# Coordination Sequence:
#
# PCOD9198923 Si02
#       6
#     8   8   8   8   8   8
#     4  11  21  37  59  87 129 163 191 233 298 367
#     4  11  22  39  64  89 117 155 201 255 291 347
#     4  11  19  35  61  91 122 148 198 251 292 346
#     4  11  24  43  62  82 117 160 200 249 305 353
#     4  10  20  36  58  90 122 158 194 235 295 355
#     4  11  22  39  63  91 115 156 206 246 296 344
#
# _framework density 19.233602999999999
#
# number of rings (size 3 to 8) (size 9 to 14) (size 15 to 20)
#    0.000    1.167    5.000    3.000    0.000    4.000 
#    0.000    0.833    0.000    4.500    0.000    0.000 
#    0.000    0.000    0.000    0.000    0.000    0.000 
#
# Total GULP energy -134108.458290 kJ/mol
# GULP energy per Si atom -5587.852429 kJ/mol
# Density = 1.918983 g / cm^3
# Si number density = 19.233603 Si / 1000 Ang^3
#
#
#
# Elastic Constant Matrix: (Units=GPa)
#
#
# Indices 1 2 3 4 5 6 
#
# 1 82.7571 5.2087 14.2038 0.0000 -13.2075 0.0000
# 2 5.2087 44.8932 7.3453 0.0000 -0.9459 0.0000
# 3 14.2038 7.3453 51.6660 0.0000 -16.2949 0.0000
# 4 0.0000 0.0000 0.0000 10.1830 0.0000 6.7822
# 5 -13.2075 -0.9459 -16.2949 0.0000 41.2624 0.0000
# 6 0.0000 0.0000 0.0000 6.7822 0.0000 8.3364
#
#
#
# Elastic Compliance Matrix: (Units=1/GPa)
#
#
# Indices 1 2 3 4 5 6 
#
# 1 0.013079 -0.001051 -0.002437 0.000000 0.003200 0.000000
# 2 -0.001051 0.022917 -0.003323 0.000000 -0.001124 0.000000
# 3 -0.002437 -0.003323 0.023105 0.000000 0.008268 0.000000
# 4 0.000000 0.000000 0.000000 0.214352 0.000000 -0.174390
# 5 0.003200 -0.001124 0.008268 0.000000 0.028499 0.000000
# 6 0.000000 0.000000 0.000000 -0.174390 0.000000 0.261835
#
#
# Mechanical properties :
#
#
# Convention : Reuss Voigt Hill
#
# Bulk Modulus (GPa) = 21.98875 25.87019 23.92947
# Shear Modulus (GPa) = 8.43783 22.12692 15.28238
#
# Velocity S-wave (km/s) = 2.09680 3.39548 2.82186
# Velocity P-wave (km/s) = 4.16165 5.37141 4.80476
#
# Compressibility (1/GPa) = 0.04547780
#
# Stress axis : x y z
#
# Youngs Moduli (GPa) = 76.46050 43.63542 43.28024
#
# Poissons Ratio (x) = 0.04587 0.10547
# Poissons Ratio (y) = 0.08038 0.14384
# Poissons Ratio (z) = 0.18632 0.14502
#
# Static dielectric constant tensor:
#      x y z
#    x 1.677600 0.000000 -0.010950 
#    y 0.000000 1.656330 0.000000 
#    z -0.010950 0.000000 1.666420 
# 
# From -- ./inp_files/131066.got.cif
#   From: 2010.05.17/outbox.cif.g08.bks.cpg/sg12_66_cif.got.tgz:131066.got - 2010.06.03 13:09:07.
