data_PCOD9198916
_publ_section_title
;
Structure prediction by ZEFSAII (Michael W. Deem and Ramdas Pophale) SiO2 
 PCOD9198916
Probable space group: C 2/M
;
_chemical_formula_sum "Si O2"
_cell_formula_units_Z 48
_cell_length_a 19.548907
_cell_length_b 19.826962
_cell_length_c 16.456301
_cell_angle_alpha 90.000000
_cell_angle_beta 21.827281
_cell_angle_gamma 90.000000
_cell_volume 2371.547403
_symmetry_space_group_name_H-M "C 2/M"
_symmetry_group_IT_number 12
_symmetry_cell_setting 'monoclinic'
loop_
_space_group_symop_operation_xyz
x,y,z
-x,y,-z
-x,-y,-z
x,-y,z
1/2+x,1/2+y,z
1/2-x,1/2+y,-z
1/2-x,1/2-y,-z
1/2+x,1/2-y,z
loop_
_atom_site_type_symbol
_atom_site_label
_atom_site_fract_x
_atom_site_fract_y
_atom_site_fract_z
Si Si1 0.562267 0.500000 0.341056
Si Si2 0.274074 0.242462 0.071658
Si Si3 0.665943 0.610323 0.988556
Si Si4 0.088469 0.000000 0.813626
Si Si5 0.478912 0.000000 0.621914
Si Si6 0.428689 0.152027 0.172800
Si Si7 0.516411 0.356407 0.638037
Si Si8 0.984625 0.500000 0.918068
O O1 0.500000 0.500000 0.500000
O O2 0.480282 0.432242 0.396860
O O3 0.782225 0.500000 0.101312
O O4 0.280959 0.316139 0.105017
O O5 0.107914 0.193033 0.278529
O O6 0.250000 0.250000 0.000000
O O7 0.450736 0.199840 0.903179
O O8 0.849513 0.563861 0.789234
O O9 0.505844 0.565588 0.123698
O O10 0.578988 0.631334 0.170242
O O11 0.312351 0.000000 0.571831
O O12 0.000000 0.000000 0.000000
O O13 0.500000 0.000000 0.500000
O O14 0.437689 0.073386 0.190522
O O15 0.218771 0.173024 0.414086
O O16 0.500000 0.155688 0.000000
O O17 0.000000 0.500000 0.000000
#
# Coordination Sequence:
#
# PCOD9198916 Si02
#       8
#     4   8   8   4   4   8   8   4
#     4  12  20  36  65  89 131 174 218 276 321 384
#     4  10  24  44  65  94 137 179 228 274 340 411
#     4  10  24  44  65 101 128 171 224 271 341 402
#     4  11  22  43  73  96 128 163 218 284 337 398
#     4  11  22  45  72  96 129 166 220 286 342 395
#     4  11  23  42  64 100 137 182 232 279 333 397
#     4  11  24  42  65  97 139 177 227 273 333 403
#     4  10  20  36  58  89 128 169 219 271 325 379
#
# _framework density 20.23995
#
# number of rings (size 3 to 8) (size 9 to 14) (size 15 to 20)
#    0.000    1.333    3.333    3.500    0.000    7.333 
#    6.000    0.000    0.000    0.000    0.000    0.000 
#    0.000    0.000    0.000    0.000    0.000    0.000 
#
# Total GULP energy -133737.677488 kJ/mol
# GULP energy per Si atom -5572.403229 kJ/mol
# Density = 2.019388 g / cm^3
# Si number density = 20.239950 Si / 1000 Ang^3
#
#
#
# Elastic Constant Matrix: (Units=GPa)
#
#
# Indices 1 2 3 4 5 6 
#
# 1 72.9596 43.5589 43.6901 -0.0447 -22.9604 -0.0489
# 2 43.5589 170.3149 50.3647 -0.0726 -33.6799 -0.0986
# 3 43.6901 50.3647 154.5252 -0.0942 -42.8658 -0.0555
# 4 -0.0447 -0.0726 -0.0942 45.2908 0.0496 21.4009
# 5 -22.9604 -33.6799 -42.8658 0.0496 54.1229 0.0555
# 6 -0.0489 -0.0986 -0.0555 21.4009 0.0555 58.4483
#
#
#
# Elastic Compliance Matrix: (Units=1/GPa)
#
#
# Indices 1 2 3 4 5 6 
#
# 1 0.018602 -0.003119 -0.003322 0.000001 0.003320 0.000004
# 2 -0.003119 0.007434 -0.000801 0.000001 0.002669 0.000006
# 3 -0.003322 -0.000801 0.009154 0.000011 0.005342 -0.000004
# 4 0.000001 0.000001 0.000011 0.026699 -0.000005 -0.009776
# 5 0.003320 0.002669 0.005342 -0.000005 0.025776 -0.000010
# 6 0.000004 0.000006 -0.000004 -0.009776 -0.000010 0.020689
#
#
# Mechanical properties :
#
#
# Convention : Reuss Voigt Hill
#
# Bulk Modulus (GPa) = 48.29492 74.78078 61.53785
# Shear Modulus (GPa) = 38.53895 48.91814 43.72854
#
# Velocity S-wave (km/s) = 4.36834 4.92154 4.65317
# Velocity P-wave (km/s) = 7.02539 8.32603 7.70321
#
# Compressibility (1/GPa) = 0.02070611
#
# Stress axis : x y z
#
# Youngs Moduli (GPa) = 53.75679 134.52386 109.24569
#
# Poissons Ratio (x) = 0.41955 0.36294
# Poissons Ratio (y) = 0.16765 0.08748
# Poissons Ratio (z) = 0.17859 0.10773
#
# Static dielectric constant tensor:
#      x y z
#    x 1.751130 0.000030 -0.004950 
#    y 0.000030 1.815940 -0.000050 
#    z -0.004950 -0.000050 1.736330 
# 
# From -- ./inp_files/285888.got.cif
#   From: 2010.05.17/outbox.cif.g08.bks.cpg/sg12_143_cif.got.tgz:285888.got - 2010.06.03 13:09:07.
