data_PCOD9198554
_publ_section_title
;
Structure prediction by ZEFSAII (Michael W. Deem and Ramdas Pophale) SiO2 
 PCOD9198554
Probable space group: C 2/M
;
_chemical_formula_sum "Si O2"
_cell_formula_units_Z 58
_cell_length_a 19.955514
_cell_length_b 26.249041
_cell_length_c 14.711415
_cell_angle_alpha 90.000000
_cell_angle_beta 160.633164
_cell_angle_gamma 90.000000
_cell_volume 2555.436711
_symmetry_space_group_name_H-M "C 2/M"
_symmetry_group_IT_number 12
_symmetry_cell_setting 'monoclinic'
loop_
_space_group_symop_operation_xyz
x,y,z
-x,y,-z
-x,-y,-z
x,-y,z
1/2+x,1/2+y,z
1/2-x,1/2+y,-z
1/2-x,1/2-y,-z
1/2+x,1/2-y,z
loop_
_atom_site_type_symbol
_atom_site_label
_atom_site_fract_x
_atom_site_fract_y
_atom_site_fract_z
Si Si1 0.773168 0.940271 0.030399
Si Si2 0.380815 0.701540 0.943453
Si Si3 0.388993 0.813616 0.956802
Si Si4 0.272879 0.094019 0.224317
Si Si5 0.793241 0.557123 0.440322
Si Si6 0.820002 0.092284 0.378381
Si Si7 0.000000 0.500000 0.000000
Si Si8 0.784942 0.147132 0.528719
O O1 0.946793 0.925116 0.323589
O O2 0.795526 0.000000 0.041674
O O3 0.818567 0.913312 0.992152
O O4 0.537426 0.932847 0.754469
O O5 0.543031 0.687990 0.229405
O O6 0.500000 0.700652 0.000000
O O7 0.294789 0.757833 0.848640
O O8 0.233393 0.653218 0.755714
O O9 0.243615 0.862055 0.769571
O O10 0.500000 0.811320 0.000000
O O11 0.569124 0.824811 0.257561
O O12 0.500000 0.076141 0.500000
O O13 0.210546 0.061654 0.231975
O O14 0.761453 0.500000 0.436577
O O15 0.697931 0.602412 0.375463
O O16 0.792208 0.119219 0.441580
O O17 0.663513 0.045166 0.176712
#
# Coordination Sequence:
#
# PCOD9198554 Si02
#       8
#     8   8   8   8   8   8   2   8
#     4  10  20  36  58  80 110 155 186 216 274 343
#     4  11  20  36  58  83 109 142 184 231 281 332
#     4   9  21  37  56  80 111 145 182 228 282 329
#     4  10  20  37  55  80 114 148 184 223 273 335
#     4  10  22  36  53  82 119 147 178 227 283 327
#     4  11  21  36  60  85 109 145 190 231 267 330
#     4  12  20  36  60  82 116 140 194 232 270 308
#     4  11  20  36  57  84 109 142 185 236 275 319
#
# _framework density 22.696708999999998
#
# number of rings (size 3 to 8) (size 9 to 14) (size 15 to 20)
#    0.000    1.655    5.517    0.828    0.966    1.655 
#    0.000    2.759    0.000    5.793    0.000    0.000 
#    0.000    0.000    0.000    0.000    0.000    0.000 
#
# Total GULP energy -161681.877924 kJ/mol
# GULP energy per Si atom -5575.237170 kJ/mol
# Density = 2.264505 g / cm^3
# Si number density = 22.696709 Si / 1000 Ang^3
#
#
#
# Elastic Constant Matrix: (Units=GPa)
#
#
# Indices 1 2 3 4 5 6 
#
# 1 31.6061 18.6113 -5.8152 0.0000 3.9599 0.0000
# 2 18.6113 151.5558 20.0218 0.0000 3.1080 0.0000
# 3 -5.8152 20.0218 68.0052 0.0000 2.1767 0.0000
# 4 0.0000 0.0000 0.0000 25.0167 0.0000 -0.6469
# 5 3.9599 3.1080 2.1767 0.0000 22.1706 0.0000
# 6 0.0000 0.0000 0.0000 -0.6469 0.0000 15.3022
#
#
#
# Elastic Compliance Matrix: (Units=1/GPa)
#
#
# Indices 1 2 3 4 5 6 
#
# 1 0.036208 -0.004946 0.004752 0.000000 -0.006240 0.000000
# 2 -0.004946 0.007554 -0.002650 0.000000 0.000085 0.000000
# 3 0.004752 -0.002650 0.015957 0.000000 -0.002044 0.000000
# 4 0.000000 0.000000 0.000000 0.040017 0.000000 0.001692
# 5 -0.006240 0.000085 -0.002044 0.000000 0.046408 0.000000
# 6 0.000000 0.000000 0.000000 0.001692 0.000000 0.065422
#
#
# Mechanical properties :
#
#
# Convention : Reuss Voigt Hill
#
# Bulk Modulus (GPa) = 18.50773 35.20034 26.85404
# Shear Modulus (GPa) = 21.25276 27.05452 24.15364
#
# Velocity S-wave (km/s) = 3.06335 3.45628 3.26573
# Velocity P-wave (km/s) = 4.54799 5.60986 5.10660
#
# Compressibility (1/GPa) = 0.05403147
#
# Stress axis : x y z
#
# Youngs Moduli (GPa) = 27.61796 132.38101 62.66976
#
# Poissons Ratio (x) = 0.65479 -0.29782
# Poissons Ratio (y) = 0.13661 0.16605
# Poissons Ratio (z) = -0.13125 0.35077
#
# Static dielectric constant tensor:
#      x y z
#    x 1.982320 0.000000 -0.203380 
#    y 0.000000 1.790470 0.000000 
#    z -0.203380 0.000000 2.324200 
# 
# From -- ./inp_files/235835.got.cif
#   From: 2010.05.17/outbox.cif.g08.bks.cpg/sg12_118_cif.got.tgz:235835.got - 2010.06.03 13:09:07.
