data_PCOD9198344
_publ_section_title
;
Structure prediction by ZEFSAII (Michael W. Deem and Ramdas Pophale) SiO2 
 PCOD9198344
Probable space group: C 2/M
;
_chemical_formula_sum "Si O2"
_cell_formula_units_Z 56
_cell_length_a 13.375362
_cell_length_b 13.210819
_cell_length_c 25.574225
_cell_angle_alpha 90.000000
_cell_angle_beta 29.950564
_cell_angle_gamma 90.000000
_cell_volume 2256.098698
_symmetry_space_group_name_H-M "C 2/M"
_symmetry_group_IT_number 12
_symmetry_cell_setting 'monoclinic'
loop_
_space_group_symop_operation_xyz
x,y,z
-x,y,-z
-x,-y,-z
x,-y,z
1/2+x,1/2+y,z
1/2-x,1/2+y,-z
1/2-x,1/2-y,-z
1/2+x,1/2-y,z
loop_
_atom_site_type_symbol
_atom_site_label
_atom_site_fract_x
_atom_site_fract_y
_atom_site_fract_z
Si Si1 0.653070 0.111266 0.237795
Si Si2 0.521597 0.664517 0.550906
Si Si3 0.853527 0.684187 0.112392
Si Si4 0.990934 0.893328 0.803202
Si Si5 0.390833 0.110702 0.457558
Si Si6 0.806258 0.366331 0.971865
Si Si7 0.919447 0.340318 0.243856
O O1 0.780201 0.212802 0.172492
O O2 0.567796 0.110542 0.334519
O O3 0.470285 0.126449 0.279647
O O4 0.745184 0.000000 0.185609
O O5 0.500000 0.632791 0.500000
O O6 0.575274 0.785631 0.526073
O O7 0.690551 0.620868 0.512698
O O8 0.303709 0.633587 0.672484
O O9 0.678873 0.621056 0.164506
O O10 0.992193 0.618085 0.086502
O O11 0.000000 0.720033 0.000000
O O12 0.085839 0.782296 0.757709
O O13 0.099952 0.000000 0.744147
O O14 0.878985 0.904350 0.909932
O O15 0.385744 0.000000 0.486423
O O16 0.890063 0.382151 0.875600
O O17 0.750000 0.250000 0.000000
#
# Coordination Sequence:
#
# PCOD9198344 Si02
#       7
#     8   8   8   8   8   8   8
#     4  10  20  36  57  81 112 152 194 241 298 355
#     4  11  22  40  67  90 120 164 201 248 308 358
#     4   9  18  33  53  78 111 148 190 240 290 348
#     4   9  19  35  56  80 111 152 192 235 294 352
#     4  10  23  41  62  90 122 157 204 251 301 363
#     4   9  18  33  52  76 109 146 186 235 283 342
#     4  10  20  36  58  85 116 151 195 243 292 353
#
# _framework density 24.82161
#
# number of rings (size 3 to 8) (size 9 to 14) (size 15 to 20)
#    0.000    2.286    1.429    1.714    0.000    5.143 
#    0.000    4.286    0.000    0.000    0.000    0.000 
#    0.000    0.000    0.000    0.000    0.000    0.000 
#
# Total GULP energy -156202.452367 kJ/mol
# GULP energy per Si atom -5578.659013 kJ/mol
# Density = 2.476512 g / cm^3
# Si number density = 24.821610 Si / 1000 Ang^3
#
#
#
# Elastic Constant Matrix: (Units=GPa)
#
#
# Indices 1 2 3 4 5 6 
#
# 1 84.2556 -1.1225 3.7901 0.0003 -10.2712 0.0004
# 2 -1.1225 158.1791 2.1723 -0.0011 -1.5666 0.0002
# 3 3.7901 2.1723 29.2699 -0.0031 -2.8939 -0.0015
# 4 0.0003 -0.0011 -0.0031 -21.4205 0.0005 -36.6944
# 5 -10.2712 -1.5666 -2.8939 0.0005 24.0064 0.0000
# 6 0.0004 0.0002 -0.0015 -36.6944 0.0000 -0.6832
#
#
#
# Elastic Compliance Matrix: (Units=1/GPa)
#
#
# Indices 1 2 3 4 5 6 
#
# 1 0.012561 0.000156 -0.001119 0.000000 0.005250 0.000000
# 2 0.000156 0.006333 -0.000448 0.000000 0.000426 0.000000
# 3 -0.001119 -0.000448 0.034706 -0.000001 0.003676 -0.000002
# 4 0.000000 0.000000 -0.000001 0.000513 0.000000 -0.027552
# 5 0.005250 0.000426 0.003676 0.000000 0.044372 0.000000
# 6 0.000000 0.000000 -0.000002 -0.027552 0.000000 0.016083
#
#
# Mechanical properties :
#
#
# Convention : Reuss Voigt Hill
#
# Bulk Modulus (GPa) = 19.69305 31.26492 25.47899
# Shear Modulus (GPa) = 37.22522 18.17154 27.69838
#
# Velocity S-wave (km/s) = 3.87681 2.70864 3.34413
# Velocity P-wave (km/s) = 5.29061 4.73345 5.01977
#
# Compressibility (1/GPa) = 0.05077933
#
# Stress axis : x y z
#
# Youngs Moduli (GPa) = 79.61136 157.89219 28.81315
#
# Poissons Ratio (x) = -0.02471 0.03224
# Poissons Ratio (y) = -0.01246 0.01291
# Poissons Ratio (z) = 0.08909 0.07076
#
# Static dielectric constant tensor:
#      x y z
#    x 2.090950 -0.000010 0.027900 
#    y -0.000010 2.092730 0.000000 
#    z 0.027900 0.000000 2.023020 
# 
# From -- ./inp_files/361419.got.cif
#   From: 2010.05.17/outbox.cif.g08.bks.cpg/sg12_181_cif.got.tgz:361419.got - 2010.06.03 13:09:07.
