data_PCOD9198144
_publ_section_title
;
Structure prediction by ZEFSAII (Michael W. Deem and Ramdas Pophale) SiO2 
 PCOD9198144
Probable space group: C 2/M
;
_chemical_formula_sum "Si O2"
_cell_formula_units_Z 48
_cell_length_a 19.122850
_cell_length_b 11.620165
_cell_length_c 21.321874
_cell_angle_alpha 90.000000
_cell_angle_beta 31.341600
_cell_angle_gamma 90.000000
_cell_volume 2464.393221
_symmetry_space_group_name_H-M "C 2/M"
_symmetry_group_IT_number 12
_symmetry_cell_setting 'monoclinic'
loop_
_space_group_symop_operation_xyz
x,y,z
-x,y,-z
-x,-y,-z
x,-y,z
1/2+x,1/2+y,z
1/2-x,1/2+y,-z
1/2-x,1/2-y,-z
1/2+x,1/2-y,z
loop_
_atom_site_type_symbol
_atom_site_label
_atom_site_fract_x
_atom_site_fract_y
_atom_site_fract_z
Si Si1 0.993028 0.134954 0.169000
Si Si2 0.728160 0.367244 0.771301
Si Si3 0.844941 0.129738 0.639126
Si Si4 0.794533 0.875720 0.537783
Si Si5 0.042709 0.273947 0.677950
Si Si6 0.241932 0.134366 0.902953
O O1 0.885733 0.142555 0.194624
O O2 0.948688 0.191985 0.267662
O O3 0.011533 0.000000 0.167184
O O4 0.133968 0.184036 0.034447
O O5 0.786522 0.500000 0.719782
O O6 0.815649 0.250079 0.696436
O O7 0.680597 0.361606 0.879790
O O8 0.767696 0.138355 0.631854
O O9 0.000000 0.128659 0.500000
O O10 0.815512 0.000000 0.688906
O O11 0.897601 0.785342 0.429699
O O12 0.654002 0.869318 0.608937
O O13 0.858868 0.000000 0.479788
O O14 0.889302 0.310954 0.788965
O O15 0.261106 0.000000 0.903579
#
# Coordination Sequence:
#
# PCOD9198144 Si02
#       6
#     8   8   8   8   8   8
#     4  10  20  36  58  84 113 149 189 234 286 339
#     4  10  20  37  59  85 115 149 192 237 283 339
#     4  10  20  36  56  80 113 153 191 232 287 342
#     4  10  21  35  53  77 110 148 184 229 287 339
#     4  11  20  35  56  81 110 145 187 236 280 339
#     4  10  21  36  57  84 114 147 188 237 289 339
#
# _framework density 19.477412000000001
#
# number of rings (size 3 to 8) (size 9 to 14) (size 15 to 20)
#    0.000    1.833    1.667    3.000    0.000    2.333 
#    0.000    1.667    0.000    5.000    0.000    0.000 
#    0.000    0.000    0.000    0.000    0.000    0.000 
#
# Total GULP energy -133621.603316 kJ/mol
# GULP energy per Si atom -5567.566805 kJ/mol
# Density = 1.943308 g / cm^3
# Si number density = 19.477412 Si / 1000 Ang^3
#
#
#
# Elastic Constant Matrix: (Units=GPa)
#
#
# Indices 1 2 3 4 5 6 
#
# 1 46.0461 4.8737 -6.9219 0.0000 0.6505 0.0000
# 2 4.8737 104.7276 30.8131 0.0001 1.3877 0.0000
# 3 -6.9219 30.8131 53.5388 0.0000 -1.6685 0.0000
# 4 0.0000 0.0001 0.0000 17.7175 0.0000 5.6146
# 5 0.6505 1.3877 -1.6685 0.0000 23.1243 0.0000
# 6 0.0000 0.0000 0.0000 5.6146 0.0000 3.0428
#
#
#
# Elastic Compliance Matrix: (Units=1/GPa)
#
#
# Indices 1 2 3 4 5 6 
#
# 1 0.022600 -0.002296 0.004237 0.000000 -0.000192 0.000000
# 2 -0.002296 0.011760 -0.007101 0.000000 -0.001153 0.000000
# 3 0.004237 -0.007101 0.023375 0.000000 0.001994 0.000000
# 4 0.000000 0.000000 0.000000 0.135917 0.000000 -0.250795
# 5 -0.000192 -0.001153 0.001994 0.000000 0.043463 0.000000
# 6 0.000000 0.000000 0.000000 -0.250795 0.000000 0.791413
#
#
# Mechanical properties :
#
#
# Convention : Reuss Voigt Hill
#
# Bulk Modulus (GPa) = 21.09011 29.09360 25.09185
# Shear Modulus (GPa) = 4.74090 20.48008 12.61049
#
# Velocity S-wave (km/s) = 1.56184 3.24617 2.54725
# Velocity P-wave (km/s) = 3.75552 5.38699 4.64347
#
# Compressibility (1/GPa) = 0.04741560
#
# Stress axis : x y z
#
# Youngs Moduli (GPa) = 44.24770 85.03418 42.78107
#
# Poissons Ratio (x) = 0.19523 -0.18127
# Poissons Ratio (y) = 0.10159 0.30379
# Poissons Ratio (z) = -0.18749 0.60383
#
# Static dielectric constant tensor:
#      x y z
#    x 1.726690 0.000000 -0.009490 
#    y 0.000000 1.710640 0.000000 
#    z -0.009490 0.000000 1.671940 
# 
# From -- ./inp_files/153551.got.cif
#   From: 2010.05.17/outbox.cif.g08.bks.cpg/sg12_77_cif.got.tgz:153551.got - 2010.06.03 13:09:07.
