data_PCOD9198340
_publ_section_title
;
Structure prediction by ZEFSAII (Michael W. Deem and Ramdas Pophale) SiO2 
 PCOD9198340
Probable space group: C 2/M
;
_chemical_formula_sum "Si O2"
_cell_formula_units_Z 56
_cell_length_a 29.081789
_cell_length_b 7.884919
_cell_length_c 11.396295
_cell_angle_alpha 90.000000
_cell_angle_beta 104.083165
_cell_angle_gamma 90.000000
_cell_volume 2534.711290
_symmetry_space_group_name_H-M "C 2/M"
_symmetry_group_IT_number 12
_symmetry_cell_setting 'monoclinic'
loop_
_space_group_symop_operation_xyz
x,y,z
-x,y,-z
-x,-y,-z
x,-y,z
1/2+x,1/2+y,z
1/2-x,1/2+y,-z
1/2-x,1/2-y,-z
1/2+x,1/2-y,z
loop_
_atom_site_type_symbol
_atom_site_label
_atom_site_fract_x
_atom_site_fract_y
_atom_site_fract_z
Si Si1 0.613662 0.794483 0.321896
Si Si2 0.471620 0.195853 0.874008
Si Si3 0.900681 0.304562 0.428863
Si Si4 0.444568 0.697960 0.216908
Si Si5 0.805655 0.199106 0.258480
Si Si6 0.800272 0.202136 0.769363
Si Si7 0.153020 0.794111 0.960675
O O1 0.577747 0.728226 0.199647
O O2 0.596952 0.732461 0.438741
O O3 0.666586 0.745616 0.319662
O O4 0.610929 0.000000 0.322867
O O5 0.508286 0.204296 0.789139
O O6 0.461899 0.000000 0.899839
O O7 0.500000 0.276103 0.000000
O O8 0.915994 0.500000 0.440135
O O9 0.929366 0.216542 0.342435
O O10 0.845463 0.294549 0.357339
O O11 0.452041 0.500000 0.196066
O O12 0.399748 0.761054 0.110853
O O13 0.752510 0.226507 0.267224
O O14 0.812665 0.252053 0.126666
O O15 0.817830 0.000000 0.272432
O O16 0.796317 0.000000 0.776550
O O17 0.826912 0.268325 0.903489
O O18 0.151342 0.000000 0.964992
#
# Coordination Sequence:
#
# PCOD9198340 Si02
#       7
#     8   8   8   8   8   8   8
#     4  10  23  40  56  78 110 146 184 229 275 320
#     4  10  21  38  60  86 114 145 182 222 271 330
#     4  10  21  39  59  79 107 144 188 230 270 321
#     4  10  20  36  59  85 114 146 181 225 276 324
#     4  10  20  36  57  81 112 145 181 227 276 326
#     4  11  21  34  55  82 111 145 185 225 273 330
#     4   8  17  33  53  81 113 143 177 221 271 324
#
# _framework density 22.093246000000001
#
# number of rings (size 3 to 8) (size 9 to 14) (size 15 to 20)
#    0.000    2.143    0.000    3.857    0.000    3.143 
#    0.000   10.000    0.000    0.000    0.000    0.000 
#    0.000    0.000    0.000    0.000    0.000    0.000 
#
# Total GULP energy -156449.489520 kJ/mol
# GULP energy per Si atom -5587.481769 kJ/mol
# Density = 2.204296 g / cm^3
# Si number density = 22.093246 Si / 1000 Ang^3
#
#
#
# Elastic Constant Matrix: (Units=GPa)
#
#
# Indices 1 2 3 4 5 6 
#
# 1 80.8206 -14.9995 -6.5077 0.0000 -5.7185 0.0000
# 2 -14.9995 37.8541 -2.0505 0.0000 -1.1200 0.0000
# 3 -6.5077 -2.0505 59.3953 0.0000 -11.6192 0.0000
# 4 0.0000 0.0000 0.0000 14.4808 0.0000 -6.8695
# 5 -5.7185 -1.1200 -11.6192 0.0000 15.1203 0.0000
# 6 0.0000 0.0000 0.0000 -6.8695 0.0000 19.7845
#
#
#
# Elastic Compliance Matrix: (Units=1/GPa)
#
#
# Indices 1 2 3 4 5 6 
#
# 1 0.014399 0.006146 0.003465 0.000000 0.008564 0.000000
# 2 0.006146 0.029217 0.003013 0.000000 0.006804 0.000000
# 3 0.003465 0.003013 0.020737 0.000000 0.017469 0.000000
# 4 0.000000 0.000000 0.000000 0.082675 0.000000 0.028706
# 5 0.008564 0.006804 0.017469 0.000000 0.083303 0.000000
# 6 0.000000 0.000000 0.000000 0.028706 0.000000 0.060512
#
#
# Mechanical properties :
#
#
# Convention : Reuss Voigt Hill
#
# Bulk Modulus (GPa) = 11.16035 14.55052 12.85543
# Shear Modulus (GPa) = 16.92269 23.31896 20.12082
#
# Velocity S-wave (km/s) = 2.77061 3.25234 3.02109
# Velocity P-wave (km/s) = 3.91120 4.55015 4.24272
#
# Compressibility (1/GPa) = 0.08960295
#
# Stress axis : x y z
#
# Youngs Moduli (GPa) = 69.45057 34.22632 48.22188
#
# Poissons Ratio (x) = -0.21037 -0.16709
# Poissons Ratio (y) = -0.42688 -0.14530
# Poissons Ratio (z) = -0.24065 -0.10313
#
# Static dielectric constant tensor:
#      x y z
#    x 1.773290 0.000000 -0.002270 
#    y 0.000000 1.792470 0.000000 
#    z -0.002270 0.000000 1.838330 
# 
# From -- ./inp_files/181025.got.cif
#   From: 2010.05.17/outbox.cif.g08.bks.cpg/sg12_91_cif.got.tgz:181025.got - 2010.06.03 13:09:07.
