data_PCOD9198888
_publ_section_title
;
Structure prediction by ZEFSAII (Michael W. Deem and Ramdas Pophale) SiO2 
 PCOD9198888
Probable space group: C 2/M
;
_chemical_formula_sum "Si O2"
_cell_formula_units_Z 64
_cell_length_a 12.892921
_cell_length_b 14.753338
_cell_length_c 18.538468
_cell_angle_alpha 90.000000
_cell_angle_beta 52.443824
_cell_angle_gamma 90.000000
_cell_volume 2795.471348
_symmetry_space_group_name_H-M "C 2/M"
_symmetry_group_IT_number 12
_symmetry_cell_setting 'monoclinic'
loop_
_space_group_symop_operation_xyz
x,y,z
-x,y,-z
-x,-y,-z
x,-y,z
1/2+x,1/2+y,z
1/2-x,1/2+y,-z
1/2-x,1/2-y,-z
1/2+x,1/2-y,z
loop_
_atom_site_type_symbol
_atom_site_label
_atom_site_fract_x
_atom_site_fract_y
_atom_site_fract_z
Si Si1 0.421601 0.888838 0.319986
Si Si2 0.623481 0.641199 0.905402
Si Si3 0.873494 0.109734 0.262550
Si Si4 0.077414 0.610767 0.396073
Si Si5 0.143551 0.345711 0.951608
Si Si6 0.615510 0.393637 0.249793
Si Si7 0.864939 0.111004 0.595212
Si Si8 0.379021 0.103092 0.880515
O O1 0.504473 0.859353 0.354237
O O2 0.270320 0.861357 0.385594
O O3 0.494605 0.860319 0.215230
O O4 0.425810 0.000000 0.317134
O O5 0.597580 0.631418 0.832467
O O6 0.634473 0.745391 0.923503
O O7 0.761174 0.601112 0.872875
O O8 0.500000 0.601733 0.000000
O O9 0.726647 0.141875 0.338994
O O10 0.985963 0.145926 0.267324
O O11 0.872848 0.000000 0.269003
O O12 0.079253 0.500000 0.392863
O O13 0.000000 0.637688 0.500000
O O14 0.263140 0.387505 0.856591
O O15 0.162857 0.345554 0.029497
O O16 0.000000 0.388475 0.000000
O O17 0.590055 0.500000 0.271668
O O18 0.641219 0.357227 0.318941
O O19 0.000000 0.139186 0.500000
O O20 0.864348 0.000000 0.594413
O O21 0.405757 0.000000 0.892100
#
# Coordination Sequence:
#
# PCOD9198888 Si02
#       8
#     8   8   8   8   8   8   8   8
#     4   9  17  30  50  81 116 149 188 234 285 340
#     4  11  23  38  56  82 115 151 195 234 286 351
#     4  10  20  36  58  88 121 152 189 238 294 342
#     4   9  17  29  51  83 118 153 189 235 289 342
#     4  11  24  39  56  79 112 154 197 237 285 342
#     4  10  21  37  58  86 117 151 194 243 293 344
#     4   9  18  31  51  81 116 152 190 236 290 343
#     4  11  21  36  59  85 114 147 190 243 289 340
#
# _framework density 22.894172000000001
#
# number of rings (size 3 to 8) (size 9 to 14) (size 15 to 20)
#    0.000    2.000    1.250    2.625    1.750    5.000 
#    0.000    0.000    0.000    0.750    0.000    2.625 
#    0.000    0.000    0.000    0.000    0.000    0.000 
#
# Total GULP energy -178933.551285 kJ/mol
# GULP energy per Si atom -5591.673478 kJ/mol
# Density = 2.284206 g / cm^3
# Si number density = 22.894172 Si / 1000 Ang^3
#
#
#
# Elastic Constant Matrix: (Units=GPa)
#
#
# Indices 1 2 3 4 5 6 
#
# 1 143.8322 9.0003 59.6484 0.0000 -12.7368 0.0000
# 2 9.0003 46.7487 -9.4204 0.0000 -5.7527 0.0000
# 3 59.6484 -9.4204 152.2319 0.0000 -15.9005 0.0000
# 4 0.0000 0.0000 0.0000 23.2068 0.0000 2.3394
# 5 -12.7368 -5.7527 -15.9005 0.0000 37.3157 0.0000
# 6 0.0000 0.0000 0.0000 2.3394 0.0000 22.9892
#
#
#
# Elastic Compliance Matrix: (Units=1/GPa)
#
#
# Indices 1 2 3 4 5 6 
#
# 1 0.008595 -0.002194 -0.003383 0.000000 0.001154 0.000000
# 2 -0.002194 0.022836 0.002682 0.000000 0.003914 0.000000
# 3 -0.003383 0.002682 0.008355 0.000000 0.002819 0.000000
# 4 0.000000 0.000000 0.000000 0.043538 0.000000 -0.004430
# 5 0.001154 0.003914 0.002819 0.000000 0.028997 0.000000
# 6 0.000000 0.000000 0.000000 -0.004430 0.000000 0.043950
#
#
# Mechanical properties :
#
#
# Convention : Reuss Voigt Hill
#
# Bulk Modulus (GPa) = 29.41699 51.25214 40.33457
# Shear Modulus (GPa) = 28.83640 35.60796 32.22218
#
# Velocity S-wave (km/s) = 3.55287 3.94804 3.75566
# Velocity P-wave (km/s) = 5.45046 6.57403 6.03843
#
# Compressibility (1/GPa) = 0.03399396
#
# Stress axis : x y z
#
# Youngs Moduli (GPa) = 116.34654 43.79138 119.69083
#
# Poissons Ratio (x) = 0.09610 0.40492
# Poissons Ratio (y) = 0.25532 -0.32099
# Poissons Ratio (z) = 0.39360 -0.11744
#
# Static dielectric constant tensor:
#      x y z
#    x 1.839810 0.000000 -0.026140 
#    y 0.000000 1.912860 0.000000 
#    z -0.026140 0.000000 1.820590 
# 
# From -- ./inp_files/265057.got.cif
#   From: 2010.05.17/outbox.cif.g08.bks.cpg/sg12_133_cif.got.tgz:265057.got - 2010.06.03 13:09:07.
