data_PCOD9198235
_publ_section_title
;
Structure prediction by ZEFSAII (Michael W. Deem and Ramdas Pophale) SiO2 
 PCOD9198235
Probable space group: C 2/M
;
_chemical_formula_sum "Si O2"
_cell_formula_units_Z 56
_cell_length_a 14.929023
_cell_length_b 29.246246
_cell_length_c 9.874256
_cell_angle_alpha 90.000000
_cell_angle_beta 131.982842
_cell_angle_gamma 90.000000
_cell_volume 3204.766732
_symmetry_space_group_name_H-M "C 2/M"
_symmetry_group_IT_number 12
_symmetry_cell_setting 'monoclinic'
loop_
_space_group_symop_operation_xyz
x,y,z
-x,y,-z
-x,-y,-z
x,-y,z
1/2+x,1/2+y,z
1/2-x,1/2+y,-z
1/2-x,1/2-y,-z
1/2+x,1/2-y,z
loop_
_atom_site_type_symbol
_atom_site_label
_atom_site_fract_x
_atom_site_fract_y
_atom_site_fract_z
Si Si1 0.705891 0.795992 0.028521
Si Si2 0.857002 0.143781 0.374360
Si Si3 0.481892 0.855690 0.327868
Si Si4 0.381216 0.736858 0.816125
Si Si5 0.024951 0.550918 0.799440
Si Si6 0.296926 0.948108 0.763322
Si Si7 0.289665 0.810507 0.532974
O O1 0.806242 0.829542 0.191134
O O2 0.640316 0.775905 0.094414
O O3 0.750000 0.750000 0.000000
O O4 0.617136 0.824770 0.845493
O O5 0.796623 0.093696 0.329136
O O6 0.808791 0.173240 0.455610
O O7 0.000000 0.141316 0.500000
O O8 0.500000 0.841496 0.500000
O O9 0.451434 0.908751 0.280913
O O10 0.609205 0.848322 0.382441
O O11 0.368126 0.766390 0.663850
O O12 0.276407 0.700896 0.675674
O O13 0.500000 0.713927 0.000000
O O14 0.034239 0.500000 0.751342
O O15 0.894574 0.555252 0.740683
O O16 0.122102 0.555410 0.018900
O O17 0.245440 0.000000 0.706861
#
# Coordination Sequence:
#
# PCOD9198235 Si02
#       7
#     8   8   8   8   8   8   8
#     4  11  24  37  55  79 114 151 195 238 286 326
#     4  11  23  36  58  83 115 151 189 238 284 348
#     4  12  22  36  59  83 114 151 192 237 286 343
#     4  10  20  36  57  73 106 153 184 241 284 324
#     4   9  18  34  61  90 113 140 183 239 298 352
#     4   9  17  34  62  89 112 141 182 237 298 349
#     4  10  22  37  54  85 108 141 205 230 279 345
#
# _framework density 17.473970999999999
#
# number of rings (size 3 to 8) (size 9 to 14) (size 15 to 20)
#    0.000    1.714    4.286    1.714    2.000    2.286 
#    0.000    0.000    0.000    0.000    0.000    0.000 
#    0.000    5.714    0.000    0.000    0.000    0.000 
#
# Total GULP energy -155885.935585 kJ/mol
# GULP energy per Si atom -5567.354842 kJ/mol
# Density = 1.743420 g / cm^3
# Si number density = 17.473971 Si / 1000 Ang^3
#
#
#
# Elastic Constant Matrix: (Units=GPa)
#
#
# Indices 1 2 3 4 5 6 
#
# 1 58.1975 28.7017 35.2027 0.0000 15.4848 0.0000
# 2 28.7017 123.9506 58.4303 0.0000 15.5354 0.0000
# 3 35.2027 58.4303 129.2860 0.0000 14.6484 0.0000
# 4 0.0000 0.0000 0.0000 25.2267 0.0000 -2.6174
# 5 15.4848 15.5354 14.6484 0.0000 21.8614 0.0000
# 6 0.0000 0.0000 0.0000 -2.6174 0.0000 25.8594
#
#
#
# Elastic Compliance Matrix: (Units=1/GPa)
#
#
# Indices 1 2 3 4 5 6 
#
# 1 0.024135 -0.001990 -0.004216 0.000000 -0.012856 0.000000
# 2 -0.001990 0.010847 -0.003946 0.000000 -0.003654 0.000000
# 3 -0.004216 -0.003946 0.010832 0.000000 -0.001468 0.000000
# 4 0.000000 0.000000 0.000000 0.040061 0.000000 0.004055
# 5 -0.012856 -0.003654 -0.001468 0.000000 0.058430 0.000000
# 6 0.000000 0.000000 0.000000 0.004055 0.000000 0.039081
#
#
# Mechanical properties :
#
#
# Convention : Reuss Voigt Hill
#
# Bulk Modulus (GPa) = 39.19958 61.78926 50.49442
# Shear Modulus (GPa) = 23.56339 27.19611 25.37975
#
# Velocity S-wave (km/s) = 3.67616 3.94938 3.81521
# Velocity P-wave (km/s) = 6.36401 7.49895 6.95467
#
# Compressibility (1/GPa) = 0.02551048
#
# Stress axis : x y z
#
# Youngs Moduli (GPa) = 41.43367 92.19281 92.31511
#
# Poissons Ratio (x) = 0.18347 0.38916
# Poissons Ratio (y) = 0.08246 0.36430
# Poissons Ratio (z) = 0.17467 0.36382
#
# Static dielectric constant tensor:
#      x y z
#    x 1.604980 0.000000 0.049570 
#    y 0.000000 1.631630 0.000000 
#    z 0.049570 0.000000 1.574270 
# 
# From -- ./inp_files/68315.got.cif
#   From: 2010.05.17/outbox.cif.g08.bks.cpg/sg12_35_cif.got.tgz:68315.got - 2010.06.03 13:09:07.
