data_PCOD9198183
_publ_section_title
;
Structure prediction by ZEFSAII (Michael W. Deem and Ramdas Pophale) SiO2 
 PCOD9198183
Probable space group: C 2/M
;
_chemical_formula_sum "Si O2"
_cell_formula_units_Z 32
_cell_length_a 18.840862
_cell_length_b 12.820228
_cell_length_c 17.568476
_cell_angle_alpha 90.000000
_cell_angle_beta 21.629046
_cell_angle_gamma 90.000000
_cell_volume 1564.159559
_symmetry_space_group_name_H-M "C 2/M"
_symmetry_group_IT_number 12
_symmetry_cell_setting 'monoclinic'
loop_
_space_group_symop_operation_xyz
x,y,z
-x,y,-z
-x,-y,-z
x,-y,z
1/2+x,1/2+y,z
1/2-x,1/2+y,-z
1/2-x,1/2-y,-z
1/2+x,1/2-y,z
loop_
_atom_site_type_symbol
_atom_site_label
_atom_site_fract_x
_atom_site_fract_y
_atom_site_fract_z
Si Si1 0.887520 0.726802 0.013265
Si Si2 0.166092 0.877924 0.664264
Si Si3 0.509175 0.294408 0.661485
Si Si4 0.236019 0.617002 0.714926
O O1 0.717030 0.722505 0.122639
O O2 0.792794 0.701209 0.189455
O O3 0.011740 0.831230 0.878177
O O4 0.051979 0.637473 0.843239
O O5 0.363651 0.811290 0.471894
O O6 0.073024 0.850405 0.675096
O O7 0.197385 0.000000 0.641743
O O8 0.578847 0.363523 0.520455
O O9 0.231896 0.500000 0.749446
#
# Coordination Sequence:
#
# PCOD9198183 Si02
#       4
#     8   8   8   8
#     4  10  20  36  56  83 115 142 177 225 277 330
#     4  10  22  38  56  81 112 147 186 225 269 325
#     4  10  21  38  58  83 112 143 184 230 272 323
#     4  10  21  36  58  87 113 140 180 230 279 326
#
# _framework density 20.458272000000001
#
# number of rings (size 3 to 8) (size 9 to 14) (size 15 to 20)
#    0.000    2.000    0.000    3.750    0.000    6.000 
#    0.000   11.250    0.000   15.000    0.000    0.000 
#    0.000    0.000    0.000    0.000    0.000    0.000 
#
# Total GULP energy -89260.794161 kJ/mol
# GULP energy per Si atom -5578.799635 kJ/mol
# Density = 2.041171 g / cm^3
# Si number density = 20.458272 Si / 1000 Ang^3
#
#
#
# Elastic Constant Matrix: (Units=GPa)
#
#
# Indices 1 2 3 4 5 6 
#
# 1 68.0630 34.6271 27.3452 -0.0005 -2.5249 0.0004
# 2 34.6271 126.3398 12.8063 -0.0012 14.8441 0.0013
# 3 27.3452 12.8063 71.7809 -0.0023 -15.5028 0.0024
# 4 -0.0005 -0.0012 -0.0023 13.5355 0.0004 7.7609
# 5 -2.5249 14.8441 -15.5028 0.0004 45.4740 -0.0003
# 6 0.0004 0.0013 0.0024 7.7609 -0.0003 16.9626
#
#
#
# Elastic Compliance Matrix: (Units=1/GPa)
#
#
# Indices 1 2 3 4 5 6 
#
# 1 0.019804 -0.004809 -0.006596 -0.000002 0.000421 0.000002
# 2 -0.004809 0.009737 -0.000701 0.000001 -0.003684 -0.000001
# 3 -0.006596 -0.000701 0.017854 0.000005 0.005949 -0.000005
# 4 -0.000002 0.000001 0.000005 0.100154 0.000000 -0.045823
# 5 0.000421 -0.003684 0.005949 0.000000 0.025245 0.000000
# 6 0.000002 -0.000001 -0.000005 -0.045823 0.000000 0.079918
#
#
# Mechanical properties :
#
#
# Convention : Reuss Voigt Hill
#
# Bulk Modulus (GPa) = 43.13270 46.19343 44.66307
# Shear Modulus (GPa) = 17.56534 27.95476 22.76005
#
# Velocity S-wave (km/s) = 2.93336 3.70053 3.33905
# Velocity P-wave (km/s) = 5.70980 6.39429 6.06171
#
# Compressibility (1/GPa) = 0.02318426
#
# Stress axis : x y z
#
# Youngs Moduli (GPa) = 50.49415 102.69981 56.01021
#
# Poissons Ratio (x) = 0.49386 0.36943
# Poissons Ratio (y) = 0.24282 0.03926
# Poissons Ratio (z) = 0.33304 0.07199
#
# Static dielectric constant tensor:
#      x y z
#    x 1.794480 0.000000 -0.011490 
#    y 0.000000 1.697550 0.000000 
#    z -0.011490 0.000000 1.760190 
# 
# From -- ./inp_files/321119.got.cif
#   From: 2010.05.17/outbox.cif.g08.bks.cpg/sg12_161_cif.got.tgz:321119.got - 2010.06.03 13:09:07.
