data_PCOD9198513
_publ_section_title
;
Structure prediction by ZEFSAII (Michael W. Deem and Ramdas Pophale) SiO2 
 PCOD9198513
Probable space group: C 2/M
;
_chemical_formula_sum "Si O2"
_cell_formula_units_Z 60
_cell_length_a 30.566344
_cell_length_b 11.723690
_cell_length_c 9.076649
_cell_angle_alpha 90.000000
_cell_angle_beta 107.385973
_cell_angle_gamma 90.000000
_cell_volume 3104.019466
_symmetry_space_group_name_H-M "C 2/M"
_symmetry_group_IT_number 12
_symmetry_cell_setting 'monoclinic'
loop_
_space_group_symop_operation_xyz
x,y,z
-x,y,-z
-x,-y,-z
x,-y,z
1/2+x,1/2+y,z
1/2-x,1/2+y,-z
1/2-x,1/2-y,-z
1/2+x,1/2-y,z
loop_
_atom_site_type_symbol
_atom_site_label
_atom_site_fract_x
_atom_site_fract_y
_atom_site_fract_z
Si Si1 0.747981 0.233413 0.747629
Si Si2 0.899034 0.500000 0.496739
Si Si3 0.808768 0.134063 0.551655
Si Si4 0.400882 0.224346 0.698407
Si Si5 0.905329 0.701465 0.257104
Si Si6 0.309326 0.135098 0.042609
Si Si7 0.050906 0.133148 0.487290
Si Si8 0.550352 0.133899 0.980598
O O1 0.774388 0.157676 0.653593
O O2 0.714105 0.313087 0.618197
O O3 0.720283 0.159156 0.839200
O O4 0.783045 0.310040 0.877998
O O5 0.895334 0.601059 0.618181
O O6 0.903775 0.599719 0.373681
O O7 0.854861 0.203220 0.632460
O O8 0.817026 0.000000 0.543272
O O9 0.439953 0.293480 0.649261
O O10 0.415838 0.203419 0.880078
O O11 0.857848 0.694868 0.121269
O O12 0.914205 0.816442 0.356114
O O13 0.945581 0.679236 0.180683
O O14 0.315708 0.000000 0.029527
O O15 0.000000 0.149818 0.500000
O O16 0.058337 0.000000 0.467672
O O17 0.562977 0.000000 0.990695
O O18 0.500000 0.142274 0.000000
#
# Coordination Sequence:
#
# PCOD9198513 Si02
#       8
#     8   4   8   8   8   8   8   8
#     4  10  23  40  59  91 116 158 200 249 300 352
#     4  10  20  36  57  90 116 150 208 238 298 360
#     4  11  23  41  61  87 123 157 202 246 300 360
#     4  11  22  39  62  91 119 163 199 250 304 367
#     4  11  21  38  62  90 119 160 201 250 302 366
#     4  11  21  38  63  85 121 155 199 248 299 359
#     4  10  22  41  62  87 119 160 210 254 295 352
#     4  11  22  38  58  90 130 158 194 250 311 365
#
# _framework density 19.329777
#
# number of rings (size 3 to 8) (size 9 to 14) (size 15 to 20)
#    0.000    1.333    2.000    4.400    0.000    0.000 
#    6.000    8.000    0.000    3.600    0.000    0.000 
#    0.000    0.000    0.000    0.000    0.000    0.000 
#
# Total GULP energy -167121.914492 kJ/mol
# GULP energy per Si atom -5570.730483 kJ/mol
# Density = 1.928578 g / cm^3
# Si number density = 19.329777 Si / 1000 Ang^3
#
#
#
# Elastic Constant Matrix: (Units=GPa)
#
#
# Indices 1 2 3 4 5 6 
#
# 1 39.3464 20.2061 -5.4824 0.0000 6.5161 0.0000
# 2 20.2061 105.1832 19.3001 0.0000 16.0106 0.0000
# 3 -5.4824 19.3001 75.3187 0.0000 6.5402 0.0000
# 4 0.0000 0.0000 0.0000 14.8265 0.0000 1.0588
# 5 6.5161 16.0106 6.5402 0.0000 22.0360 0.0000
# 6 0.0000 0.0000 0.0000 1.0588 0.0000 9.1179
#
#
#
# Elastic Compliance Matrix: (Units=1/GPa)
#
#
# Indices 1 2 3 4 5 6 
#
# 1 0.029847 -0.005577 0.004122 0.000000 -0.005997 0.000000
# 2 -0.005577 0.012072 -0.002957 0.000000 -0.006244 0.000000
# 3 0.004122 -0.002957 0.014631 0.000000 -0.003413 0.000000
# 4 0.000000 0.000000 0.000000 0.068011 0.000000 -0.007898
# 5 -0.005997 -0.006244 -0.003413 0.000000 0.052703 0.000000
# 6 0.000000 0.000000 0.000000 -0.007898 0.000000 0.110591
#
#
# Mechanical properties :
#
#
# Convention : Reuss Voigt Hill
#
# Bulk Modulus (GPa) = 20.95293 31.98841 26.47067
# Shear Modulus (GPa) = 15.99552 21.58438 18.78995
#
# Velocity S-wave (km/s) = 2.87976 3.34524 3.12119
# Velocity P-wave (km/s) = 4.68195 5.61298 5.16847
#
# Compressibility (1/GPa) = 0.04772603
#
# Stress axis : x y z
#
# Youngs Moduli (GPa) = 33.50415 82.83857 68.34757
#
# Poissons Ratio (x) = 0.46201 -0.28176
# Poissons Ratio (y) = 0.18686 0.20211
# Poissons Ratio (z) = -0.13812 0.24496
#
# Static dielectric constant tensor:
#      x y z
#    x 1.725470 0.000000 -0.008340 
#    y 0.000000 1.623830 0.000000 
#    z -0.008340 0.000000 1.658380 
# 
# From -- ./inp_files/110006.got.cif
#   From: 2010.05.17/outbox.cif.g08.bks.cpg/sg12_56_cif.got.tgz:110006.got - 2010.06.03 13:09:07.
