data_PCOD9198676
_publ_section_title
;
Structure prediction by ZEFSAII (Michael W. Deem and Ramdas Pophale) SiO2 
 PCOD9198676
Probable space group: C 2/M
;
_chemical_formula_sum "Si O2"
_cell_formula_units_Z 56
_cell_length_a 18.353104
_cell_length_b 10.637981
_cell_length_c 18.080530
_cell_angle_alpha 90.000000
_cell_angle_beta 127.282459
_cell_angle_gamma 90.000000
_cell_volume 2808.709698
_symmetry_space_group_name_H-M "C 2/M"
_symmetry_group_IT_number 12
_symmetry_cell_setting 'monoclinic'
loop_
_space_group_symop_operation_xyz
x,y,z
-x,y,-z
-x,-y,-z
x,-y,z
1/2+x,1/2+y,z
1/2-x,1/2+y,-z
1/2-x,1/2-y,-z
1/2+x,1/2-y,z
loop_
_atom_site_type_symbol
_atom_site_label
_atom_site_fract_x
_atom_site_fract_y
_atom_site_fract_z
Si Si1 0.102919 0.355081 0.531568
Si Si2 0.124168 0.647016 0.808954
Si Si3 0.418392 0.852453 0.657479
Si Si4 0.793163 0.725687 0.837249
Si Si5 0.542715 0.367074 0.108078
Si Si6 0.250188 0.856593 0.655129
Si Si7 0.586220 0.141332 0.949093
O O1 0.131158 0.500000 0.567071
O O2 0.101933 0.343025 0.441904
O O3 0.169169 0.245525 0.600959
O O4 0.000000 0.339968 0.500000
O O5 0.127618 0.500000 0.787386
O O6 0.197917 0.727160 0.811004
O O7 0.143720 0.649408 0.908866
O O8 0.020925 0.696752 0.733739
O O9 0.334392 0.806694 0.656084
O O10 0.425169 0.000000 0.681668
O O11 0.851049 0.841924 0.839619
O O12 0.780312 0.638178 0.758934
O O13 0.853778 0.669536 0.941463
O O14 0.524898 0.500000 0.136058
O O15 0.493703 0.243617 0.108481
O O16 0.500000 0.375905 0.000000
O O17 0.225924 0.000000 0.616015
O O18 0.548316 0.000000 0.930782
#
# Coordination Sequence:
#
# PCOD9198676 Si02
#       7
#     8   8   8   8   8   8   8
#     4  10  21  39  64  90 115 147 191 239 285 338
#     4  10  20  36  58  83 112 150 194 240 290 340
#     4   9  19  37  59  84 115 150 190 236 286 341
#     4  11  21  34  55  83 117 153 193 238 285 340
#     4   9  19  34  53  78 108 145 190 237 283 333
#     4  11  23  38  59  87 120 155 189 231 285 343
#     4  10  21  37  58  82 112 153 196 238 288 345
#
# _framework density 19.937982000000002
#
# number of rings (size 3 to 8) (size 9 to 14) (size 15 to 20)
#    0.000    2.000    0.000    3.429    0.000    7.429 
#    0.000    1.429    0.000    2.571    0.000    0.000 
#    0.000    0.000    0.000    0.000    0.000    0.000 
#
# Total GULP energy -156167.098291 kJ/mol
# GULP energy per Si atom -5577.396368 kJ/mol
# Density = 1.989260 g / cm^3
# Si number density = 19.937982 Si / 1000 Ang^3
#
#
#
# Elastic Constant Matrix: (Units=GPa)
#
#
# Indices 1 2 3 4 5 6 
#
# 1 128.7530 59.6921 30.1250 0.0000 7.8919 0.0000
# 2 59.6921 120.9168 31.9014 0.0000 14.7629 0.0000
# 3 30.1250 31.9014 64.3692 0.0000 6.1797 0.0000
# 4 0.0000 0.0000 0.0000 183.0276 0.0000 -34.2362
# 5 7.8919 14.7629 6.1797 0.0000 29.2111 0.0000
# 6 0.0000 0.0000 0.0000 -34.2362 0.0000 29.7179
#
#
#
# Elastic Compliance Matrix: (Units=1/GPa)
#
#
# Indices 1 2 3 4 5 6 
#
# 1 0.010461 -0.004454 -0.002688 0.000000 -0.000006 0.000000
# 2 -0.004454 0.011865 -0.003404 0.000000 -0.004073 0.000000
# 3 -0.002688 -0.003404 0.018624 0.000000 -0.001493 0.000000
# 4 0.000000 0.000000 0.000000 0.006964 0.000000 0.008023
# 5 -0.000006 -0.004073 -0.001493 0.000000 0.036609 0.000000
# 6 0.000000 0.000000 0.000000 0.008023 0.000000 0.042893
#
#
# Mechanical properties :
#
#
# Convention : Reuss Voigt Hill
#
# Bulk Modulus (GPa) = 50.36114 61.94179 56.15146
# Shear Modulus (GPa) = 32.23140 61.21269 46.72205
#
# Velocity S-wave (km/s) = 4.02504 5.54691 4.84609
# Velocity P-wave (km/s) = 6.84945 8.49464 7.71602
#
# Compressibility (1/GPa) = 0.01985658
#
# Stress axis : x y z
#
# Youngs Moduli (GPa) = 95.59130 84.28480 53.69479
#
# Poissons Ratio (x) = 0.37544 0.14431
# Poissons Ratio (y) = 0.42581 0.18280
# Poissons Ratio (z) = 0.25692 0.28694
#
# Static dielectric constant tensor:
#      x y z
#    x 1.701120 0.000000 -0.007120 
#    y 0.000000 1.734820 0.000000 
#    z -0.007120 0.000000 1.723680 
# 
# From -- ./inp_files/277081.got.cif
#   From: 2010.05.17/outbox.cif.g08.bks.cpg/sg12_139_cif.got.tgz:277081.got - 2010.06.03 13:09:07.
