data_PCOD9198518
_publ_section_title
;
Structure prediction by ZEFSAII (Michael W. Deem and Ramdas Pophale) SiO2 
 PCOD9198518
Probable space group: C 2/M
;
_chemical_formula_sum "Si O2"
_cell_formula_units_Z 56
_cell_length_a 8.117279
_cell_length_b 30.875627
_cell_length_c 13.789074
_cell_angle_alpha 90.000000
_cell_angle_beta 52.406960
_cell_angle_gamma 90.000000
_cell_volume 2738.331125
_symmetry_space_group_name_H-M "C 2/M"
_symmetry_group_IT_number 12
_symmetry_cell_setting 'monoclinic'
loop_
_space_group_symop_operation_xyz
x,y,z
-x,y,-z
-x,-y,-z
x,-y,z
1/2+x,1/2+y,z
1/2-x,1/2+y,-z
1/2-x,1/2-y,-z
1/2+x,1/2-y,z
loop_
_atom_site_type_symbol
_atom_site_label
_atom_site_fract_x
_atom_site_fract_y
_atom_site_fract_z
Si Si1 0.626953 0.756323 0.143480
Si Si2 0.777089 0.198860 0.471450
Si Si3 0.778513 0.186112 0.747769
Si Si4 0.698082 0.000000 0.857379
Si Si5 0.801066 0.594794 0.141969
Si Si6 0.355236 0.823991 0.701486
Si Si7 0.097159 0.905372 0.857299
Si Si8 0.906756 0.000000 0.141338
O O1 0.412594 0.782165 0.205486
O O2 0.629731 0.708382 0.187307
O O3 0.719202 0.788329 0.193436
O O4 0.750000 0.750000 0.000000
O O5 0.750000 0.250000 0.500000
O O6 0.713481 0.188079 0.383101
O O7 0.606860 0.175855 0.600800
O O8 0.020004 0.188139 0.392250
O O9 0.703659 0.137356 0.790687
O O10 0.693270 0.952703 0.809418
O O11 0.903001 0.000000 0.851050
O O12 0.500000 0.000000 0.000000
O O13 0.595440 0.596641 0.148578
O O14 0.000000 0.597548 0.000000
O O15 0.259366 0.868735 0.771030
O O16 0.198699 0.953286 0.812199
O O17 0.000000 0.899948 0.000000
O O18 0.000000 0.000000 0.000000
#
# Coordination Sequence:
#
# PCOD9198518 Si02
#       8
#     8   8   8   4   8   8   8   4
#     4  12  27  42  60  91 127 160 201 257 329 376
#     4  11  24  44  64  81 115 169 223 257 297 363
#     4  12  25  41  61  86 123 165 207 258 305 374
#     4   8  16  32  56  81 121 162 200 243 300 377
#     4  10  20  36  57  90 125 162 202 250 312 381
#     4  11  25  42  64  88 119 167 212 258 311 361
#     4  10  21  36  64  91 130 158 201 255 326 383
#     4   8  16  34  56  92 122 163 192 242 315 400
#
# _framework density 20.450410999999999
#
# number of rings (size 3 to 8) (size 9 to 14) (size 15 to 20)
#    0.000    1.429    2.857    2.143    6.000    0.571 
#    0.000    0.000    0.000    2.571    0.000    0.000 
#    0.000    2.286    0.000    0.000    0.000    0.071 
#
# Total GULP energy -156240.977838 kJ/mol
# GULP energy per Si atom -5580.034923 kJ/mol
# Density = 2.040387 g / cm^3
# Si number density = 20.450411 Si / 1000 Ang^3
#
#
#
# Elastic Constant Matrix: (Units=GPa)
#
#
# Indices 1 2 3 4 5 6 
#
# 1 59.8319 35.9885 35.6162 0.0000 -10.6997 0.0000
# 2 35.9885 222.0185 73.1742 0.0000 -14.1278 0.0000
# 3 35.6162 73.1742 135.9057 0.0000 -3.5752 0.0000
# 4 0.0000 0.0000 0.0000 6.5036 0.0000 -4.9445
# 5 -10.6997 -14.1278 -3.5752 0.0000 32.5498 0.0000
# 6 0.0000 0.0000 0.0000 -4.9445 0.0000 21.2410
#
#
#
# Elastic Compliance Matrix: (Units=1/GPa)
#
#
# Indices 1 2 3 4 5 6 
#
# 1 0.021463 -0.001584 -0.004618 0.000000 0.005860 0.000000
# 2 -0.001584 0.005734 -0.002628 0.000000 0.001679 0.000000
# 3 -0.004618 -0.002628 0.009942 0.000000 -0.001566 0.000000
# 4 0.000000 0.000000 0.000000 0.186825 0.000000 0.043489
# 5 0.005860 0.001679 -0.001566 0.000000 0.033205 0.000000
# 6 0.000000 0.000000 0.000000 0.043489 0.000000 0.057202
#
#
# Mechanical properties :
#
#
# Convention : Reuss Voigt Hill
#
# Bulk Modulus (GPa) = 51.33622 78.59043 64.96333
# Shear Modulus (GPa) = 14.77000 30.25737 22.51368
#
# Velocity S-wave (km/s) = 2.69036 3.85066 3.32157
# Velocity P-wave (km/s) = 5.89983 7.63435 6.82244
#
# Compressibility (1/GPa) = 0.01947942
#
# Stress axis : x y z
#
# Youngs Moduli (GPa) = 46.59145 174.40109 100.58505
#
# Poissons Ratio (x) = 0.27630 0.46446
# Poissons Ratio (y) = 0.07381 0.26433
# Poissons Ratio (z) = 0.21514 0.45830
#
# Static dielectric constant tensor:
#      x y z
#    x 1.971100 0.000000 0.059030 
#    y 0.000000 1.741620 0.000000 
#    z 0.059030 0.000000 1.748270 
# 
# From -- ./inp_files/200868.got.cif
#   From: 2010.05.17/outbox.cif.g08.bks.cpg/sg12_101_cif.got.tgz:200868.got - 2010.06.03 13:09:07.
