data_PCOD9198735
_publ_section_title
;
Structure prediction by ZEFSAII (Michael W. Deem and Ramdas Pophale) SiO2 
 PCOD9198735
Probable space group: C 2/M
;
_chemical_formula_sum "Si O2"
_cell_formula_units_Z 48
_cell_length_a 25.857357
_cell_length_b 8.697309
_cell_length_c 11.863074
_cell_angle_alpha 90.000000
_cell_angle_beta 88.862940
_cell_angle_gamma 90.000000
_cell_volume 2667.354532
_symmetry_space_group_name_H-M "C 2/M"
_symmetry_group_IT_number 12
_symmetry_cell_setting 'monoclinic'
loop_
_space_group_symop_operation_xyz
x,y,z
-x,y,-z
-x,-y,-z
x,-y,z
1/2+x,1/2+y,z
1/2-x,1/2+y,-z
1/2-x,1/2-y,-z
1/2+x,1/2-y,z
loop_
_atom_site_type_symbol
_atom_site_label
_atom_site_fract_x
_atom_site_fract_y
_atom_site_fract_z
Si Si1 0.549676 0.313979 0.647727
Si Si2 0.566478 0.686576 0.389284
Si Si3 0.307830 0.316630 0.007431
Si Si4 0.333187 0.314997 0.753537
Si Si5 0.262928 0.317033 0.377038
Si Si6 0.644048 0.817166 0.768381
O O1 0.552505 0.500000 0.655005
O O2 0.489437 0.267565 0.657145
O O3 0.568264 0.268550 0.520687
O O4 0.587302 0.240737 0.737082
O O5 0.566674 0.500000 0.388536
O O6 0.615717 0.737031 0.315394
O O7 0.304597 0.500000 0.024092
O O8 0.337170 0.243378 0.111444
O O9 0.250000 0.250000 0.000000
O O10 0.335534 0.286379 0.886786
O O11 0.327193 0.500000 0.738116
O O12 0.283024 0.233921 0.704276
O O13 0.266643 0.500000 0.382944
O O14 0.250000 0.250000 0.500000
O O15 0.315986 0.250466 0.325119
O O16 0.646732 0.000000 0.766082
#
# Coordination Sequence:
#
# PCOD9198735 Si02
#       6
#     8   8   8   8   8   8
#     4   9  17  34  60  86 113 147 185 229 286 345
#     4   8  16  33  59  87 113 144 183 229 284 348
#     4  11  22  37  58  81 111 152 195 238 287 340
#     4  10  20  36  58  84 113 146 189 235 284 342
#     4  12  24  37  56  83 116 148 183 230 287 343
#     4  12  24  38  56  81 114 151 194 238 284 338
#
# _framework density 17.995358
#
# number of rings (size 3 to 8) (size 9 to 14) (size 15 to 20)
#    0.000    1.667    1.667    5.500    0.000    2.000 
#    0.000    3.333    0.000    5.000    0.000    0.000 
#    0.000    0.000    0.000    0.000    0.000    0.000 
#
# Total GULP energy -134082.517849 kJ/mol
# GULP energy per Si atom -5586.771577 kJ/mol
# Density = 1.795440 g / cm^3
# Si number density = 17.995358 Si / 1000 Ang^3
#
#
#
# Elastic Constant Matrix: (Units=GPa)
#
#
# Indices 1 2 3 4 5 6 
#
# 1 66.3781 16.2376 6.2968 0.0000 18.5723 0.0000
# 2 16.2376 74.1324 32.1804 0.0000 9.5543 0.0000
# 3 6.2968 32.1804 58.8366 0.0000 26.8066 0.0000
# 4 0.0000 0.0000 0.0000 26.9867 0.0000 4.9621
# 5 18.5723 9.5543 26.8066 0.0000 35.3452 0.0000
# 6 0.0000 0.0000 0.0000 4.9621 0.0000 24.7564
#
#
#
# Elastic Compliance Matrix: (Units=1/GPa)
#
#
# Indices 1 2 3 4 5 6 
#
# 1 0.019892 -0.005838 0.007804 0.000000 -0.014793 0.000000
# 2 -0.005838 0.019763 -0.013978 0.000000 0.008327 0.000000
# 3 0.007804 -0.013978 0.036600 0.000000 -0.028081 0.000000
# 4 0.000000 0.000000 0.000000 0.038473 0.000000 -0.007711
# 5 -0.014793 0.008327 -0.028081 0.000000 0.055112 0.000000
# 6 0.000000 0.000000 0.000000 -0.007711 0.000000 0.041939
#
#
# Mechanical properties :
#
#
# Convention : Reuss Voigt Hill
#
# Bulk Modulus (GPa) = 19.14590 34.30854 26.72722
# Shear Modulus (GPa) = 19.74616 27.05982 23.40299
#
# Velocity S-wave (km/s) = 3.31613 3.88198 3.61016
# Velocity P-wave (km/s) = 5.03237 6.26096 5.67998
#
# Compressibility (1/GPa) = 0.05223051
#
# Stress axis : x y z
#
# Youngs Moduli (GPa) = 50.27120 50.59999 27.32230
#
# Poissons Ratio (x) = 0.29542 -0.21323
# Poissons Ratio (y) = 0.29350 0.38192
# Poissons Ratio (z) = -0.39233 0.70730
#
# Static dielectric constant tensor:
#      x y z
#    x 1.601720 0.000000 -0.006220 
#    y 0.000000 1.609450 0.000000 
#    z -0.006220 0.000000 1.604890 
# 
# From -- ./inp_files/172306.got.cif
#   From: 2010.05.17/outbox.cif.g08.bks.cpg/sg12_87_cif.got.tgz:172306.got - 2010.06.03 13:09:07.
