data_PCOD9198137
_publ_section_title
;
Structure prediction by ZEFSAII (Michael W. Deem and Ramdas Pophale) SiO2 
 PCOD9198137
Probable space group: C 2/M
;
_chemical_formula_sum "Si O2"
_cell_formula_units_Z 48
_cell_length_a 13.490862
_cell_length_b 20.344048
_cell_length_c 8.284748
_cell_angle_alpha 90.000000
_cell_angle_beta 83.955399
_cell_angle_gamma 90.000000
_cell_volume 2261.179596
_symmetry_space_group_name_H-M "C 2/M"
_symmetry_group_IT_number 12
_symmetry_cell_setting 'monoclinic'
loop_
_space_group_symop_operation_xyz
x,y,z
-x,y,-z
-x,-y,-z
x,-y,z
1/2+x,1/2+y,z
1/2-x,1/2+y,-z
1/2-x,1/2-y,-z
1/2+x,1/2-y,z
loop_
_atom_site_type_symbol
_atom_site_label
_atom_site_fract_x
_atom_site_fract_y
_atom_site_fract_z
Si Si1 0.598822 0.765600 0.401558
Si Si2 0.110444 0.118547 0.534949
Si Si3 0.106418 0.803828 0.061895
Si Si4 0.741791 0.655533 0.773076
Si Si5 0.890235 0.577404 0.979922
Si Si6 0.792816 0.927005 0.784420
O O1 0.500000 0.795956 0.500000
O O2 0.610611 0.696348 0.491487
O O3 0.592275 0.746956 0.211864
O O4 0.696268 0.810503 0.381633
O O5 0.151061 0.114396 0.709365
O O6 0.186036 0.081144 0.406419
O O7 0.000000 0.095807 0.500000
O O8 0.143264 0.871272 0.138037
O O9 0.187414 0.793509 0.904891
O O10 0.000000 0.811059 0.000000
O O11 0.823050 0.613218 0.857032
O O12 0.900166 0.500000 0.936579
O O13 0.821936 0.583147 0.150480
O O14 0.000000 0.604290 0.000000
O O15 0.820548 0.000000 0.835556
#
# Coordination Sequence:
#
# PCOD9198137 Si02
#       6
#     8   8   8   8   8   8
#     4  10  21  36  54  80 114 146 181 228 278 324
#     4  10  21  37  54  79 116 146 174 225 280 321
#     4  10  20  36  56  80 112 147 183 227 276 322
#     4  11  21  35  60  84 106 146 192 223 267 335
#     4   9  20  39  58  79 110 143 181 232 277 316
#     4   9  19  35  55  79 109 146 182 220 272 329
#
# _framework density 21.227857
#
# number of rings (size 3 to 8) (size 9 to 14) (size 15 to 20)
#    0.000    2.167    0.000    4.000    0.000    3.333 
#    0.000    8.333    0.000    3.500    0.000    0.000 
#    0.000    0.000    0.000    0.000    0.000    0.000 
#
# Total GULP energy -133818.202940 kJ/mol
# GULP energy per Si atom -5575.758456 kJ/mol
# Density = 2.117954 g / cm^3
# Si number density = 21.227857 Si / 1000 Ang^3
#
#
#
# Elastic Constant Matrix: (Units=GPa)
#
#
# Indices 1 2 3 4 5 6 
#
# 1 161.5839 28.2008 59.8853 0.0000 4.3987 0.0000
# 2 28.2008 24.7461 4.0813 0.0000 -7.8198 0.0000
# 3 59.8853 4.0813 78.9703 0.0000 -9.8261 0.0000
# 4 0.0000 0.0000 0.0000 15.7542 0.0000 -8.5340
# 5 4.3987 -7.8198 -9.8261 0.0000 38.5074 0.0000
# 6 0.0000 0.0000 0.0000 -8.5340 0.0000 19.0113
#
#
#
# Elastic Compliance Matrix: (Units=1/GPa)
#
#
# Indices 1 2 3 4 5 6 
#
# 1 0.012526 -0.014873 -0.009588 0.000000 -0.006898 0.000000
# 2 -0.014873 0.060947 0.010204 0.000000 0.016679 0.000000
# 3 -0.009588 0.010204 0.020450 0.000000 0.008386 0.000000
# 4 0.000000 0.000000 0.000000 0.083869 0.000000 0.037648
# 5 -0.006898 0.016679 0.008386 0.000000 0.032284 0.000000
# 6 0.000000 0.000000 0.000000 0.037648 0.000000 0.069500
#
#
# Mechanical properties :
#
#
# Convention : Reuss Voigt Hill
#
# Bulk Modulus (GPa) = 15.28841 49.95948 32.62394
# Shear Modulus (GPa) = 15.15641 26.19675 20.67658
#
# Velocity S-wave (km/s) = 2.67495 3.51675 3.12433
# Velocity P-wave (km/s) = 4.09367 6.33056 5.33077
#
# Compressibility (1/GPa) = 0.06540904
#
# Stress axis : x y z
#
# Youngs Moduli (GPa) = 79.83556 16.40761 48.89958
#
# Poissons Ratio (x) = 0.24403 0.46886
# Poissons Ratio (y) = 1.18737 -0.49897
# Poissons Ratio (z) = 0.76548 -0.16742
#
# Static dielectric constant tensor:
#      x y z
#    x 1.807730 0.000000 -0.005600 
#    y 0.000000 1.794750 0.000000 
#    z -0.005600 0.000000 1.822070 
# 
# From -- ./inp_files/50628.got.cif
#   From: 2010.05.17/outbox.cif.g08.bks.cpg/sg12_26_cif.got.tgz:50628.got - 2010.06.03 13:09:07.
