data_PCOD9198300
_publ_section_title
;
Structure prediction by ZEFSAII (Michael W. Deem and Ramdas Pophale) SiO2 
 PCOD9198300
Probable space group: C 2/M
;
_chemical_formula_sum "Si O2"
_cell_formula_units_Z 40
_cell_length_a 27.556822
_cell_length_b 8.769256
_cell_length_c 11.750225
_cell_angle_alpha 90.000000
_cell_angle_beta 126.716554
_cell_angle_gamma 90.000000
_cell_volume 2276.131587
_symmetry_space_group_name_H-M "C 2/M"
_symmetry_group_IT_number 12
_symmetry_cell_setting 'monoclinic'
loop_
_space_group_symop_operation_xyz
x,y,z
-x,y,-z
-x,-y,-z
x,-y,z
1/2+x,1/2+y,z
1/2-x,1/2+y,-z
1/2-x,1/2-y,-z
1/2+x,1/2-y,z
loop_
_atom_site_type_symbol
_atom_site_label
_atom_site_fract_x
_atom_site_fract_y
_atom_site_fract_z
Si Si1 0.801518 0.182568 0.490777
Si Si2 0.445260 0.817836 0.067898
Si Si3 0.925675 0.182834 0.794120
Si Si4 0.343986 0.682027 0.082038
Si Si5 0.783842 0.682233 0.216360
O O1 0.750000 0.250000 0.500000
O O2 0.866805 0.217961 0.637204
O O3 0.795033 0.251764 0.356460
O O4 0.795304 0.000000 0.476805
O O5 0.512942 0.751117 0.172238
O O6 0.401650 0.760751 0.106362
O O7 0.447353 0.000000 0.066070
O O8 0.420333 0.752949 0.912883
O O9 0.931513 0.000000 0.812514
O O10 0.352039 0.500000 0.096008
O O11 0.327823 0.744035 0.184140
O O12 0.284693 0.716146 0.921605
O O13 0.791062 0.500000 0.226300
#
# Coordination Sequence:
#
# PCOD9198300 Si02
#       5
#     8   8   8   8   8
#     4  11  23  37  56  81 110 144 178 218 268 319
#     4  11  21  34  56  83 108 139 180 225 269 312
#     4  10  21  37  55  78 109 144 181 219 265 320
#     4  10  20  36  57  80 109 144 179 218 266 319
#     4  10  21  36  56  82 110 141 179 222 266 315
#
# _framework density 17.573675999999999
#
# number of rings (size 3 to 8) (size 9 to 14) (size 15 to 20)
#    0.000    1.600    0.000    6.600    0.000   10.400 
#    0.000    1.000    0.000    6.000    0.000    0.000 
#    0.000    0.000    0.000    0.000    0.000    0.000 
#
# Total GULP energy -111783.769223 kJ/mol
# GULP energy per Si atom -5589.188461 kJ/mol
# Density = 1.753368 g / cm^3
# Si number density = 17.573676 Si / 1000 Ang^3
#
#
#
# Elastic Constant Matrix: (Units=GPa)
#
#
# Indices 1 2 3 4 5 6 
#
# 1 162.9069 70.8368 84.7027 0.0000 -14.9531 0.0000
# 2 70.8368 97.7772 68.4926 0.0000 -2.7541 0.0000
# 3 84.7027 68.4926 132.7591 0.0000 -13.4151 0.0000
# 4 0.0000 0.0000 0.0000 28.7336 0.0000 -5.0121
# 5 -14.9531 -2.7541 -13.4151 0.0000 13.1001 0.0000
# 6 0.0000 0.0000 0.0000 -5.0121 0.0000 36.5751
#
#
#
# Elastic Compliance Matrix: (Units=1/GPa)
#
#
# Indices 1 2 3 4 5 6 
#
# 1 0.010965 -0.005289 -0.003474 0.000000 0.007846 0.000000
# 2 -0.005289 0.018955 -0.007375 0.000000 -0.009605 0.000000
# 3 -0.003474 -0.007375 0.014497 0.000000 0.009329 0.000000
# 4 0.000000 0.000000 0.000000 0.035655 0.000000 0.004886
# 5 0.007846 -0.009605 0.009329 0.000000 0.092826 0.000000
# 6 0.000000 0.000000 0.000000 0.004886 0.000000 0.028011
#
#
# Mechanical properties :
#
#
# Convention : Reuss Voigt Hill
#
# Bulk Modulus (GPa) = 82.37532 93.50083 87.93808
# Shear Modulus (GPa) = 21.07651 26.97583 24.02617
#
# Velocity S-wave (km/s) = 3.46688 3.92218 3.70153
# Velocity P-wave (km/s) = 7.93736 8.59255 8.27144
#
# Compressibility (1/GPa) = 0.01213956
#
# Stress axis : x y z
#
# Youngs Moduli (GPa) = 91.19972 52.75696 68.98112
#
# Poissons Ratio (x) = 0.27904 0.23966
# Poissons Ratio (y) = 0.48236 0.50874
# Poissons Ratio (z) = 0.31685 0.38909
#
# Static dielectric constant tensor:
#      x y z
#    x 1.572970 0.000000 0.009930 
#    y 0.000000 1.584680 0.000000 
#    z 0.009930 0.000000 1.575960 
# 
# From -- ./inp_files/180302.got.cif
#   From: 2010.05.17/outbox.cif.g08.bks.cpg/sg12_91_cif.got.tgz:180302.got - 2010.06.03 13:09:07.
