data_PCOD9198956
_publ_section_title
;
Structure prediction by ZEFSAII (Michael W. Deem and Ramdas Pophale) SiO2 
 PCOD9198956
Probable space group: C 2/M
;
_chemical_formula_sum "Si O2"
_cell_formula_units_Z 40
_cell_length_a 14.505057
_cell_length_b 14.489166
_cell_length_c 13.060455
_cell_angle_alpha 90.000000
_cell_angle_beta 136.832684
_cell_angle_gamma 90.000000
_cell_volume 1877.848303
_symmetry_space_group_name_H-M "C 2/M"
_symmetry_group_IT_number 12
_symmetry_cell_setting 'monoclinic'
loop_
_space_group_symop_operation_xyz
x,y,z
-x,y,-z
-x,-y,-z
x,-y,z
1/2+x,1/2+y,z
1/2-x,1/2+y,-z
1/2-x,1/2-y,-z
1/2+x,1/2-y,z
loop_
_atom_site_type_symbol
_atom_site_label
_atom_site_fract_x
_atom_site_fract_y
_atom_site_fract_z
Si Si1 0.847402 0.868438 0.892086
Si Si2 0.679605 0.099764 0.953473
Si Si3 0.772940 0.894058 0.609154
Si Si4 0.411000 0.200291 0.694714
Si Si5 0.651842 0.150939 0.140059
O O1 0.788938 0.895706 0.953461
O O2 0.763351 0.897801 0.724468
O O3 0.849380 0.758396 0.888026
O O4 0.000000 0.900335 0.000000
O O5 0.566701 0.177354 0.841143
O O6 0.610298 0.000000 0.888514
O O7 0.735161 0.107689 0.114479
O O8 0.641174 0.850729 0.448669
O O9 0.880219 0.810304 0.672277
O O10 0.800675 0.000000 0.597306
O O11 0.327074 0.152600 0.721186
O O12 0.500000 0.113520 0.000000
#
# Coordination Sequence:
#
# PCOD9198956 Si02
#       5
#     8   8   8   8   8
#     4  10  21  38  56  80 114 148 187 233 278 327
#     4  11  21  33  57  87 113 147 187 229 278 331
#     4  10  20  36  59  82 112 152 185 225 282 334
#     4   9  20  37  55  85 118 145 184 231 276 332
#     4   8  17  34  55  78 110 147 180 223 275 326
#
# _framework density 21.300974
#
# number of rings (size 3 to 8) (size 9 to 14) (size 15 to 20)
#    0.000    2.400    0.000    3.000    0.000    6.800 
#    0.000    2.000    0.000    3.600    0.000   23.800 
#    0.000    0.000    0.000    0.000    0.000    0.000 
#
# Total GULP energy -111368.304797 kJ/mol
# GULP energy per Si atom -5568.415240 kJ/mol
# Density = 2.125249 g / cm^3
# Si number density = 21.300974 Si / 1000 Ang^3
#
#
#
# Elastic Constant Matrix: (Units=GPa)
#
#
# Indices 1 2 3 4 5 6 
#
# 1 105.3777 22.7021 36.2477 0.0000 -30.4133 0.0000
# 2 22.7021 120.7747 13.5292 0.0000 -3.1596 0.0000
# 3 36.2477 13.5292 87.2581 0.0000 -29.5227 0.0000
# 4 0.0000 0.0000 0.0000 -77.9141 0.0000 71.4177
# 5 -30.4133 -3.1596 -29.5227 0.0000 29.0969 0.0000
# 6 0.0000 0.0000 0.0000 71.4177 0.0000 -52.3910
#
#
#
# Elastic Compliance Matrix: (Units=1/GPa)
#
#
# Indices 1 2 3 4 5 6 
#
# 1 0.014241 -0.002213 -0.000941 0.000000 0.013691 0.000000
# 2 -0.002213 0.008778 -0.001373 0.000000 -0.002754 0.000000
# 3 -0.000941 -0.001373 0.017787 0.000000 0.016915 0.000000
# 4 0.000000 0.000000 0.000000 0.051440 0.000000 0.070121
# 5 0.013691 -0.002754 0.016915 0.000000 0.065542 0.000000
# 6 0.000000 0.000000 0.000000 0.070121 0.000000 0.076500
#
#
# Mechanical properties :
#
#
# Convention : Reuss Voigt Hill
#
# Bulk Modulus (GPa) = 31.49452 50.92983 41.21217
# Shear Modulus (GPa) = 19.69077 -4.17954 7.75562
#
# Velocity S-wave (km/s) = 3.04370 -1.40228 1.91020
# Velocity P-wave (km/s) = 5.21246 4.61949 4.92491
#
# Compressibility (1/GPa) = 0.03175156
#
# Stress axis : x y z
#
# Youngs Moduli (GPa) = 70.21735 113.92471 56.22135
#
# Poissons Ratio (x) = 0.25217 0.05288
# Poissons Ratio (y) = 0.15542 0.07720
# Poissons Ratio (z) = 0.06605 0.15644
#
# Static dielectric constant tensor:
#      x y z
#    x 1.810580 0.000000 -0.026790 
#    y 0.000000 1.798690 0.000000 
#    z -0.026790 0.000000 1.801110 
# 
# From -- ./inp_files/143337.got.cif
#   From: 2010.05.17/outbox.cif.g08.bks.cpg/sg12_72_cif.got.tgz:143337.got - 2010.06.03 13:09:07.
