data_PCOD9198939
_publ_section_title
;
Structure prediction by ZEFSAII (Michael W. Deem and Ramdas Pophale) SiO2 
 PCOD9198939
Probable space group: C 2/M
;
_chemical_formula_sum "Si O2"
_cell_formula_units_Z 56
_cell_length_a 18.396321
_cell_length_b 7.644983
_cell_length_c 29.406722
_cell_angle_alpha 90.000000
_cell_angle_beta 39.117496
_cell_angle_gamma 90.000000
_cell_volume 2609.296463
_symmetry_space_group_name_H-M "C 2/M"
_symmetry_group_IT_number 12
_symmetry_cell_setting 'monoclinic'
loop_
_space_group_symop_operation_xyz
x,y,z
-x,y,-z
-x,-y,-z
x,-y,z
1/2+x,1/2+y,z
1/2-x,1/2+y,-z
1/2-x,1/2-y,-z
1/2+x,1/2-y,z
loop_
_atom_site_type_symbol
_atom_site_label
_atom_site_fract_x
_atom_site_fract_y
_atom_site_fract_z
Si Si1 0.770248 0.712131 0.717348
Si Si2 0.205373 0.708423 0.571948
Si Si3 0.494466 0.205978 0.135001
Si Si4 0.626420 0.793985 0.427702
Si Si5 0.590555 0.703334 0.991554
Si Si6 0.149518 0.714312 0.143672
Si Si7 0.443792 0.786261 0.712673
O O1 0.769355 0.500000 0.717656
O O2 0.640658 0.768351 0.790987
O O3 0.813827 0.776542 0.646977
O O4 0.858795 0.769469 0.713572
O O5 0.203069 0.500000 0.578339
O O6 0.250000 0.750000 0.500000
O O7 0.290685 0.777192 0.569286
O O8 0.074719 0.773419 0.641653
O O9 0.537523 0.288968 0.067358
O O10 0.566756 0.272887 0.143084
O O11 0.517608 0.000000 0.119278
O O12 0.500000 0.718870 0.500000
O O13 0.609075 0.000000 0.426880
O O14 0.604630 0.500000 0.971206
O O15 0.500000 0.783491 0.000000
O O16 0.719720 0.776057 0.927288
O O17 0.147471 0.500000 0.143973
O O18 0.103047 0.768315 0.215452
O O19 0.444630 0.000000 0.711599
#
# Coordination Sequence:
#
# PCOD9198939 Si02
#       7
#     8   8   8   8   8   8   8
#     4  10  20  36  59  82 107 144 188 228 268 324
#     4  11  22  37  59  85 115 150 188 232 284 340
#     4  11  22  35  53  80 115 146 174 220 279 330
#     4  10  21  38  59  84 115 150 190 235 281 330
#     4  10  20  36  59  81 102 137 185 228 266 322
#     4   9  18  33  54  80 108 139 178 223 271 324
#     4   9  18  35  58  81 106 142 186 229 274 325
#
# _framework density 21.461722999999999
#
# number of rings (size 3 to 8) (size 9 to 14) (size 15 to 20)
#    0.000    2.000    0.000    3.857    0.000    6.857 
#    0.000    3.571    0.000    5.143    0.000    0.000 
#    0.000    0.000    0.000    0.000    0.000    0.000 
#
# Total GULP energy -156521.398227 kJ/mol
# GULP energy per Si atom -5590.049937 kJ/mol
# Density = 2.141288 g / cm^3
# Si number density = 21.461723 Si / 1000 Ang^3
#
#
#
# Elastic Constant Matrix: (Units=GPa)
#
#
# Indices 1 2 3 4 5 6 
#
# 1 191.9703 -20.0782 104.4595 0.0021 -6.7209 0.0119
# 2 -20.0782 37.6004 -19.2680 0.0099 -3.9395 -0.0197
# 3 104.4595 -19.2680 198.4624 0.0059 -10.1580 0.0031
# 4 0.0021 0.0099 0.0059 7.7241 0.0017 -3.3201
# 5 -6.7209 -3.9395 -10.1580 0.0017 47.2429 0.0002
# 6 0.0119 -0.0197 0.0031 -3.3201 0.0002 3.6476
#
#
#
# Elastic Compliance Matrix: (Units=1/GPa)
#
#
# Indices 1 2 3 4 5 6 
#
# 1 0.007459 0.002136 -0.003696 -0.000010 0.000445 -0.000019
# 2 0.002136 0.029012 0.001852 0.000039 0.003121 0.000184
# 3 -0.003696 0.001852 0.007224 -0.000001 0.001182 0.000015
# 4 -0.000010 0.000039 -0.000001 0.212672 -0.000007 0.193578
# 5 0.000445 0.003121 0.001182 -0.000007 0.021745 0.000007
# 6 -0.000019 0.000184 0.000015 0.193578 0.000007 0.450350
#
#
# Mechanical properties :
#
#
# Convention : Reuss Voigt Hill
#
# Bulk Modulus (GPa) = 22.58358 62.02886 42.30622
# Shear Modulus (GPa) = 6.73275 35.91757 21.32516
#
# Velocity S-wave (km/s) = 1.77311 4.09536 3.15562
# Velocity P-wave (km/s) = 3.83894 7.16432 5.74739
#
# Compressibility (1/GPa) = 0.04427996
#
# Stress axis : x y z
#
# Youngs Moduli (GPa) = 134.06171 34.46824 138.41869
#
# Poissons Ratio (x) = -0.07361 0.51160
# Poissons Ratio (y) = -0.28632 -0.25640
# Poissons Ratio (z) = 0.49550 -0.06385
#
# Static dielectric constant tensor:
#      x y z
#    x 1.724120 0.000000 -0.016010 
#    y 0.000000 1.838840 0.000000 
#    z -0.016010 0.000000 1.728890 
# 
# From -- ./inp_files/377666.got.cif
#   From: 2010.05.17/outbox.cif.g08.bks.cpg/sg12_189_cif.got.tgz:377666.got - 2010.06.03 13:09:07.
