data_PCOD9198066
_publ_section_title
;
Structure prediction by ZEFSAII (Michael W. Deem and Ramdas Pophale) SiO2 
 PCOD9198066
Probable space group: C 2/M
;
_chemical_formula_sum "Si O2"
_cell_formula_units_Z 48
_cell_length_a 14.133281
_cell_length_b 7.700106
_cell_length_c 30.044480
_cell_angle_alpha 90.000000
_cell_angle_beta 139.067762
_cell_angle_gamma 90.000000
_cell_volume 2142.178911
_symmetry_space_group_name_H-M "C 2/M"
_symmetry_group_IT_number 12
_symmetry_cell_setting 'monoclinic'
loop_
_space_group_symop_operation_xyz
x,y,z
-x,y,-z
-x,-y,-z
x,-y,z
1/2+x,1/2+y,z
1/2-x,1/2+y,-z
1/2-x,1/2-y,-z
1/2+x,1/2-y,z
loop_
_atom_site_type_symbol
_atom_site_label
_atom_site_fract_x
_atom_site_fract_y
_atom_site_fract_z
Si Si1 0.944893 0.702466 0.654120
Si Si2 0.569518 0.702793 0.886055
Si Si3 0.379631 0.700547 0.368776
Si Si4 0.095712 0.788380 0.992223
Si Si5 0.160808 0.792196 0.513224
Si Si6 0.445173 0.698904 0.751196
O O1 0.945411 0.500000 0.641574
O O2 0.040299 0.795256 0.650737
O O3 0.777351 0.765790 0.591255
O O4 0.995071 0.719012 0.722490
O O5 0.526375 0.500000 0.871099
O O6 0.742401 0.719041 0.944960
O O7 0.501583 0.780567 0.817237
O O8 0.533246 0.772368 0.922356
O O9 0.347579 0.500000 0.369382
O O10 0.498754 0.772502 0.446204
O O11 0.228247 0.794100 0.310187
O O12 0.104224 0.000000 0.994027
O O13 0.000000 0.737083 0.000000
O O14 0.250000 0.750000 0.500000
O O15 0.143509 0.000000 0.511456
O O16 0.494681 0.500000 0.767184
#
# Coordination Sequence:
#
# PCOD9198066 Si02
#       6
#     8   8   8   8   8   8
#     4  10  20  36  56  78 105 141 185 232 280 324
#     4   9  20  37  54  78 112 141 171 215 259 308
#     4  10  20  36  56  79 107 141 182 228 280 332
#     4   9  18  35  60  85 106 134 172 212 259 314
#     4   8  16  31  52  75 101 134 177 230 279 324
#     4  11  23  37  52  77 114 151 184 219 264 320
#
# _framework density 22.407093
#
# number of rings (size 3 to 8) (size 9 to 14) (size 15 to 20)
#    0.000    2.500    0.000    1.500    0.000    5.000 
#    0.000    5.000    0.000    0.000    0.000    0.000 
#    0.000    0.000    0.000    0.000    0.000    0.000 
#
# Total GULP energy -133939.897477 kJ/mol
# GULP energy per Si atom -5580.829062 kJ/mol
# Density = 2.235609 g / cm^3
# Si number density = 22.407093 Si / 1000 Ang^3
#
#
#
# Elastic Constant Matrix: (Units=GPa)
#
#
# Indices 1 2 3 4 5 6 
#
# 1 75.0079 -8.0801 24.3966 0.0000 -29.3135 0.0000
# 2 -8.0801 44.7096 -2.2770 0.0000 -5.0379 0.0000
# 3 24.3966 -2.2770 136.0622 0.0000 -45.4781 0.0000
# 4 0.0000 0.0000 0.0000 13.3644 0.0000 5.1581
# 5 -29.3135 -5.0379 -45.4781 0.0000 31.4126 0.0000
# 6 0.0000 0.0000 0.0000 5.1581 0.0000 19.0364
#
#
#
# Elastic Compliance Matrix: (Units=1/GPa)
#
#
# Indices 1 2 3 4 5 6 
#
# 1 0.026621 0.009524 0.008138 0.000000 0.038151 0.000000
# 2 0.009524 0.026883 0.006111 0.000000 0.022047 0.000000
# 3 0.008138 0.006111 0.017165 0.000000 0.033425 0.000000
# 4 0.000000 0.000000 0.000000 0.083565 0.000000 -0.022643
# 5 0.038151 0.022047 0.033425 0.000000 0.119364 0.000000
# 6 0.000000 0.000000 0.000000 -0.022643 0.000000 0.058666
#
#
# Mechanical properties :
#
#
# Convention : Reuss Voigt Hill
#
# Bulk Modulus (GPa) = 8.45907 31.53985 19.99946
# Shear Modulus (GPa) = 15.42630 28.87870 22.15250
#
# Velocity S-wave (km/s) = 2.62669 3.59391 3.14767
# Velocity P-wave (km/s) = 3.60315 5.59714 4.70695
#
# Compressibility (1/GPa) = 0.11821634
#
# Stress axis : x y z
#
# Youngs Moduli (GPa) = 37.56469 37.19768 58.25896
#
# Poissons Ratio (x) = -0.35429 -0.47411
# Poissons Ratio (y) = -0.35778 -0.35604
# Poissons Ratio (z) = -0.30570 -0.22733
#
# Static dielectric constant tensor:
#      x y z
#    x 1.822150 0.000000 -0.038750 
#    y 0.000000 1.892870 0.000000 
#    z -0.038750 0.000000 1.854270 
# 
# From -- ./inp_files/360314.got.cif
#   From: 2010.05.17/outbox.cif.g08.bks.cpg/sg12_181_cif.got.tgz:360314.got - 2010.06.03 13:09:07.
