data_PCOD9198286
_publ_section_title
;
Structure prediction by ZEFSAII (Michael W. Deem and Ramdas Pophale) SiO2 
 PCOD9198286
Probable space group: C 2/M
;
_chemical_formula_sum "Si O2"
_cell_formula_units_Z 40
_cell_length_a 14.982981
_cell_length_b 7.338428
_cell_length_c 14.025977
_cell_angle_alpha 90.000000
_cell_angle_beta 75.526391
_cell_angle_gamma 90.000000
_cell_volume 1493.233295
_symmetry_space_group_name_H-M "C 2/M"
_symmetry_group_IT_number 12
_symmetry_cell_setting 'monoclinic'
loop_
_space_group_symop_operation_xyz
x,y,z
-x,y,-z
-x,-y,-z
x,-y,z
1/2+x,1/2+y,z
1/2-x,1/2+y,-z
1/2-x,1/2-y,-z
1/2+x,1/2-y,z
loop_
_atom_site_type_symbol
_atom_site_label
_atom_site_fract_x
_atom_site_fract_y
_atom_site_fract_z
Si Si1 0.878747 0.219614 0.225684
Si Si2 0.279154 0.208611 0.854572
Si Si3 0.056918 0.714508 0.073056
Si Si4 0.891162 0.220608 0.427224
Si Si5 0.390630 0.719921 0.634654
O O1 0.816911 0.291723 0.154941
O O2 0.984395 0.265868 0.178408
O O3 0.849694 0.285536 0.338160
O O4 0.870732 0.000000 0.227332
O O5 0.345505 0.290569 0.917386
O O6 0.336988 0.207466 0.740066
O O7 0.262260 0.000000 0.886365
O O8 0.070074 0.500000 0.051887
O O9 0.000000 0.795423 0.000000
O O10 0.855590 0.283093 0.539624
O O11 0.000482 0.264289 0.392933
O O12 0.885143 0.000000 0.429841
O O13 0.384203 0.500000 0.641268
#
# Coordination Sequence:
#
# PCOD9198286 Si02
#       5
#     8   8   8   8   8
#     4  10  20  36  57  80 106 137 175 216 257 307
#     4  10  21  35  53  80 110 136 170 220 266 301
#     4  10  22  40  57  75 105 139 170 215 273 319
#     4   8  15  29  51  77 105 139 175 210 249 301
#     4   9  16  30  53  77 104 143 180 205 245 310
#
# _framework density 26.787507999999999
#
# number of rings (size 3 to 8) (size 9 to 14) (size 15 to 20)
#    0.000    2.600    2.000    1.200    0.000    2.800 
#    0.000    3.000    0.000    0.000    0.000    0.000 
#    0.000    0.000    0.000    0.000    0.000    0.000 
#
# Total GULP energy -111872.584461 kJ/mol
# GULP energy per Si atom -5593.629223 kJ/mol
# Density = 2.672654 g / cm^3
# Si number density = 26.787508 Si / 1000 Ang^3
#
#
#
# Elastic Constant Matrix: (Units=GPa)
#
#
# Indices 1 2 3 4 5 6 
#
# 1 131.2946 14.2148 40.6014 0.0000 27.0663 0.0000
# 2 14.2148 120.1110 17.1972 0.0000 7.8885 0.0000
# 3 40.6014 17.1972 149.1254 0.0000 31.6807 0.0000
# 4 0.0000 0.0000 0.0000 6.8801 0.0000 -18.4996
# 5 27.0663 7.8885 31.6807 0.0000 65.7577 0.0000
# 6 0.0000 0.0000 0.0000 -18.4996 0.0000 -5.0680
#
#
#
# Elastic Compliance Matrix: (Units=1/GPa)
#
#
# Indices 1 2 3 4 5 6 
#
# 1 0.008779 -0.000612 -0.001746 0.000000 -0.002699 0.000000
# 2 -0.000612 0.008530 -0.000728 0.000000 -0.000421 0.000000
# 3 -0.001746 -0.000728 0.007903 0.000000 -0.003001 0.000000
# 4 0.000000 0.000000 0.000000 0.013439 0.000000 -0.049057
# 5 -0.002699 -0.000421 -0.003001 0.000000 0.017815 0.000000
# 6 0.000000 0.000000 0.000000 -0.049057 0.000000 -0.018244
#
#
# Mechanical properties :
#
#
# Convention : Reuss Voigt Hill
#
# Bulk Modulus (GPa) = 52.52045 60.50642 56.51344
# Shear Modulus (GPa) = 98.54312 35.41514 66.97913
#
# Velocity S-wave (km/s) = 6.07181 3.63998 5.00581
# Velocity P-wave (km/s) = 8.29486 6.34843 7.38604
#
# Compressibility (1/GPa) = 0.01904020
#
# Stress axis : x y z
#
# Youngs Moduli (GPa) = 113.90724 117.23528 126.53821
#
# Poissons Ratio (x) = 0.07171 0.22098
# Poissons Ratio (y) = 0.06968 0.09208
# Poissons Ratio (z) = 0.19892 0.08531
#
# Static dielectric constant tensor:
#      x y z
#    x 2.086850 0.000000 0.049310 
#    y 0.000000 1.980480 0.000000 
#    z 0.049310 0.000000 2.126200 
# 
# From -- ./inp_files/140818.got.cif
#   From: 2010.05.17/outbox.cif.g08.bks.cpg/sg12_71_cif.got.tgz:140818.got - 2010.06.03 13:09:07.
