data_PCOD9198012
_publ_section_title
;
Structure prediction by ZEFSAII (Michael W. Deem and Ramdas Pophale) SiO2 
 PCOD9198012
Probable space group: C 2/M
;
_chemical_formula_sum "Si O2"
_cell_formula_units_Z 56
_cell_length_a 24.318125
_cell_length_b 16.047807
_cell_length_c 8.733709
_cell_angle_alpha 90.000000
_cell_angle_beta 120.944845
_cell_angle_gamma 90.000000
_cell_volume 2923.216749
_symmetry_space_group_name_H-M "C 2/M"
_symmetry_group_IT_number 12
_symmetry_cell_setting 'monoclinic'
loop_
_space_group_symop_operation_xyz
x,y,z
-x,y,-z
-x,-y,-z
x,-y,z
1/2+x,1/2+y,z
1/2-x,1/2+y,-z
1/2-x,1/2-y,-z
1/2+x,1/2-y,z
loop_
_atom_site_type_symbol
_atom_site_label
_atom_site_fract_x
_atom_site_fract_y
_atom_site_fract_z
Si Si1 0.114706 0.283861 0.559267
Si Si2 0.321219 0.592280 0.958460
Si Si3 0.057205 0.858868 0.683192
Si Si4 0.924995 0.405114 0.239907
Si Si5 0.758513 0.237456 0.693045
Si Si6 0.220158 0.593642 0.092113
Si Si7 0.991253 0.724574 0.810499
O O1 0.098042 0.198631 0.624596
O O2 0.079252 0.354503 0.607787
O O3 0.190060 0.294955 0.657799
O O4 0.082314 0.282408 0.346872
O O5 0.311570 0.500000 0.874816
O O6 0.390414 0.594030 0.140563
O O7 0.269071 0.602271 0.019927
O O8 0.310046 0.668989 0.825681
O O9 0.021559 0.796885 0.749346
O O10 0.000000 0.899592 0.500000
O O11 0.944176 0.500000 0.289517
O O12 0.970831 0.357759 0.187651
O O13 0.852556 0.402887 0.072024
O O14 0.750000 0.250000 0.500000
O O15 0.770797 0.327949 0.784389
O O16 0.230838 0.500000 0.173201
O O17 0.000000 0.740947 0.000000
#
# Coordination Sequence:
#
# PCOD9198012 Si02
#       7
#     8   8   8   8   8   8   8
#     4  10  20  36  55  84 111 151 203 239 288 363
#     4  11  22  39  64  91 119 155 205 253 297 362
#     4   9  19  38  61  83 113 151 197 248 293 352
#     4  10  20  37  58  80 113 154 196 246 298 351
#     4  12  24  36  62  90 125 163 194 247 312 358
#     4  10  21  39  63  89 116 152 200 250 295 357
#     4  10  22  35  56  83 116 151 201 247 296 356
#
# _framework density 19.156979
#
# number of rings (size 3 to 8) (size 9 to 14) (size 15 to 20)
#    0.000    1.714    2.857    3.429    4.000    2.286 
#    0.000    0.000    0.000    0.429    0.000    0.000 
#    0.000    0.000    0.000    0.000    0.000    0.000 
#
# Total GULP energy -156226.919310 kJ/mol
# GULP energy per Si atom -5579.532833 kJ/mol
# Density = 1.911338 g / cm^3
# Si number density = 19.156979 Si / 1000 Ang^3
#
#
#
# Elastic Constant Matrix: (Units=GPa)
#
#
# Indices 1 2 3 4 5 6 
#
# 1 37.8864 5.5118 19.3916 0.0000 16.9938 0.0000
# 2 5.5118 119.4756 48.7313 0.0000 -2.0808 0.0000
# 3 19.3916 48.7313 119.9977 0.0000 6.4644 0.0000
# 4 0.0000 0.0000 0.0000 1.9458 0.0000 1.4277
# 5 16.9938 -2.0808 6.4644 0.0000 33.0919 0.0000
# 6 0.0000 0.0000 0.0000 1.4277 0.0000 10.9512
#
#
#
# Elastic Compliance Matrix: (Units=1/GPa)
#
#
# Indices 1 2 3 4 5 6 
#
# 1 0.037059 0.000027 -0.005027 0.000000 -0.018047 0.000000
# 2 0.000027 0.010100 -0.004183 0.000000 0.001439 0.000000
# 3 -0.005027 -0.004183 0.010834 0.000000 0.000202 0.000000
# 4 0.000000 0.000000 0.000000 0.568301 0.000000 -0.074091
# 5 -0.018047 0.001439 0.000202 0.000000 0.039538 0.000000
# 6 0.000000 0.000000 0.000000 -0.074091 0.000000 0.100974
#
#
# Mechanical properties :
#
#
# Convention : Reuss Voigt Hill
#
# Bulk Modulus (GPa) = 25.23685 47.18102 36.20894
# Shear Modulus (GPa) = 6.26267 22.77942 14.52104
#
# Velocity S-wave (km/s) = 1.81004 3.45206 2.75617
# Velocity P-wave (km/s) = 4.19173 6.36954 5.39174
#
# Compressibility (1/GPa) = 0.03962459
#
# Stress axis : x y z
#
# Youngs Moduli (GPa) = 26.98398 99.00920 92.30276
#
# Poissons Ratio (x) = -0.00263 0.46403
# Poissons Ratio (y) = -0.00072 0.38614
# Poissons Ratio (z) = 0.13566 0.41420
#
# Static dielectric constant tensor:
#      x y z
#    x 1.647480 0.000000 0.035030 
#    y 0.000000 1.672730 0.000000 
#    z 0.035030 0.000000 1.676460 
# 
# From -- ./inp_files/104705.got.cif
#   From: 2010.05.17/outbox.cif.g08.bks.cpg/sg12_53_cif.got.tgz:104705.got - 2010.06.03 13:09:07.
