data_PCOD9198037
_publ_section_title
;
Structure prediction by ZEFSAII (Michael W. Deem and Ramdas Pophale) SiO2 
 PCOD9198037
Probable space group: C 2/M
;
_chemical_formula_sum "Si O2"
_cell_formula_units_Z 56
_cell_length_a 13.735894
_cell_length_b 10.649176
_cell_length_c 21.145328
_cell_angle_alpha 90.000000
_cell_angle_beta 76.849896
_cell_angle_gamma 90.000000
_cell_volume 3011.945085
_symmetry_space_group_name_H-M "C 2/M"
_symmetry_group_IT_number 12
_symmetry_cell_setting 'monoclinic'
loop_
_space_group_symop_operation_xyz
x,y,z
-x,y,-z
-x,-y,-z
x,-y,z
1/2+x,1/2+y,z
1/2-x,1/2+y,-z
1/2-x,1/2-y,-z
1/2+x,1/2-y,z
loop_
_atom_site_type_symbol
_atom_site_label
_atom_site_fract_x
_atom_site_fract_y
_atom_site_fract_z
Si Si1 0.878467 0.139633 0.513257
Si Si2 0.259397 0.643071 0.909530
Si Si3 0.539372 0.852622 0.698635
Si Si4 0.728219 0.349495 0.341968
Si Si5 0.618579 0.355431 0.977444
Si Si6 0.394373 0.648368 0.765328
Si Si7 0.563862 0.135424 0.555540
O O1 0.832643 0.185198 0.586186
O O2 0.863463 0.247606 0.464174
O O3 0.000000 0.128919 0.500000
O O4 0.842938 0.000000 0.502169
O O5 0.217947 0.500000 0.914334
O O6 0.175211 0.750021 0.928130
O O7 0.327747 0.659548 0.837801
O O8 0.330414 0.651891 0.960800
O O9 0.655854 0.814524 0.678040
O O10 0.481992 0.751188 0.749224
O O11 0.505068 0.847319 0.629818
O O12 0.530403 0.000000 0.719969
O O13 0.727816 0.500000 0.344207
O O14 0.672750 0.317450 0.285530
O O15 0.632685 0.500000 0.952529
O O16 0.500000 0.332704 0.000000
O O17 0.425515 0.500000 0.755389
O O18 0.500000 0.128626 0.500000
O O19 0.614825 0.000000 0.555128
#
# Coordination Sequence:
#
# PCOD9198037 Si02
#       7
#     8   8   8   8   8   8   8
#     4   9  16  28  48  69  89 121 164 203 247 307
#     4   9  19  34  53  80 108 136 173 212 250 294
#     4  10  21  36  52  72 101 136 171 207 256 316
#     4   9  19  35  52  72 101 135 168 207 259 313
#     4   9  18  34  55  79 110 143 171 205 250 297
#     4  10  20  36  56  76 103 136 172 215 253 292
#     4   9  17  29  45  66  93 122 154 201 256 299
#
# _framework density 18.592635999999999
#
# number of rings (size 3 to 8) (size 9 to 14) (size 15 to 20)
#    0.000    2.714    0.000    1.714    0.000    4.286 
#    0.000    1.429    0.000    0.000    0.000    0.000 
#    0.000    0.000    0.000    0.000    0.000    0.000 
#
# Total GULP energy -155891.497697 kJ/mol
# GULP energy per Si atom -5567.553489 kJ/mol
# Density = 1.855032 g / cm^3
# Si number density = 18.592636 Si / 1000 Ang^3
#
#
#
# Elastic Constant Matrix: (Units=GPa)
#
#
# Indices 1 2 3 4 5 6 
#
# 1 76.9227 42.8339 21.1281 0.0000 -26.3025 0.0000
# 2 42.8339 155.4667 67.6846 0.0000 -30.9025 0.0000
# 3 21.1281 67.6846 88.1249 0.0000 -26.1018 0.0000
# 4 0.0000 0.0000 0.0000 -10.5460 0.0000 -40.7174
# 5 -26.3025 -30.9025 -26.1018 0.0000 20.9708 0.0000
# 6 0.0000 0.0000 0.0000 -40.7174 0.0000 -1.8167
#
#
#
# Elastic Compliance Matrix: (Units=1/GPa)
#
#
# Indices 1 2 3 4 5 6 
#
# 1 0.024743 -0.002661 0.006561 0.000000 0.035278 0.000000
# 2 -0.002661 0.010859 -0.006259 0.000000 0.004874 0.000000
# 3 0.006561 -0.006259 0.022630 0.000000 0.027173 0.000000
# 4 0.000000 0.000000 0.000000 0.001109 0.000000 -0.024847
# 5 0.035278 0.004874 0.027173 0.000000 0.132937 0.000000
# 6 0.000000 0.000000 0.000000 -0.024847 0.000000 0.006435
#
#
# Mechanical properties :
#
#
# Convention : Reuss Voigt Hill
#
# Bulk Modulus (GPa) = 18.68677 64.86751 41.77714
# Shear Modulus (GPa) = 22.59699 14.31278 18.45489
#
# Velocity S-wave (km/s) = 3.49000 2.77755 3.15396
# Velocity P-wave (km/s) = 5.12958 6.72688 5.98179
#
# Compressibility (1/GPa) = 0.05351379
#
# Stress axis : x y z
#
# Youngs Moduli (GPa) = 40.41618 92.08878 44.18926
#
# Poissons Ratio (x) = 0.24505 -0.28992
# Poissons Ratio (y) = 0.10755 0.27656
# Poissons Ratio (z) = -0.26516 0.57635
#
# Static dielectric constant tensor:
#      x y z
#    x 1.702860 0.000000 0.007540 
#    y 0.000000 1.708520 0.000000 
#    z 0.007540 0.000000 1.632250 
# 
# From -- ./inp_files/309459.got.cif
#   From: 2010.05.17/outbox.cif.g08.bks.cpg/sg12_155_cif.got.tgz:309459.got - 2010.06.03 13:09:07.
