data_PCOD9198094
_publ_section_title
;
Structure prediction by ZEFSAII (Michael W. Deem and Ramdas Pophale) SiO2 
 PCOD9198094
Probable space group: C 2/M
;
_chemical_formula_sum "Si O2"
_cell_formula_units_Z 28
_cell_length_a 10.689150
_cell_length_b 19.865969
_cell_length_c 7.600426
_cell_angle_alpha 90.000000
_cell_angle_beta 40.141470
_cell_angle_gamma 90.000000
_cell_volume 1040.478486
_symmetry_space_group_name_H-M "C 2/M"
_symmetry_group_IT_number 12
_symmetry_cell_setting 'monoclinic'
loop_
_space_group_symop_operation_xyz
x,y,z
-x,y,-z
-x,-y,-z
x,-y,z
1/2+x,1/2+y,z
1/2-x,1/2+y,-z
1/2-x,1/2-y,-z
1/2+x,1/2-y,z
loop_
_atom_site_type_symbol
_atom_site_label
_atom_site_fract_x
_atom_site_fract_y
_atom_site_fract_z
Si Si1 0.778296 0.000000 0.993283
Si Si2 0.671092 0.646912 0.557242
Si Si3 0.000000 0.245444 0.500000
Si Si4 0.789982 0.000000 0.558701
Si Si5 0.760327 0.643507 0.869751
O O1 0.790528 0.000000 0.769547
O O2 0.676376 0.933565 0.175543
O O3 0.012442 0.000000 0.775492
O O4 0.677534 0.704117 0.401566
O O5 0.777557 0.576673 0.400240
O O6 0.710139 0.656678 0.720206
O O7 0.434443 0.642188 0.806545
O O8 0.089804 0.296655 0.255875
#
# Coordination Sequence:
#
# PCOD9198094 Si02
#       5
#     4   8   4   4   8
#     4   9  17  34  56  79 103 132 176 219 258 301
#     4  10  20  36  56  79 103 135 180 217 253 303
#     4  12  22  34  52  78 114 142 164 208 268 318
#     4   9  17  33  60  79  95 133 182 226 250 287
#     4  10  21  35  55  79 105 138 174 215 258 307
#
# _framework density 26.910695
#
# number of rings (size 3 to 8) (size 9 to 14) (size 15 to 20)
#    0.000    2.000    0.000    6.000    0.000    4.000 
#    0.000    0.000    0.000    1.714    0.000    0.000 
#    0.000    2.286    0.000    0.000    0.000    0.000 
#
# Total GULP energy -77992.566576 kJ/mol
# GULP energy per Si atom -5570.897613 kJ/mol
# Density = 2.684944 g / cm^3
# Si number density = 26.910695 Si / 1000 Ang^3
#
#
#
# Elastic Constant Matrix: (Units=GPa)
#
#
# Indices 1 2 3 4 5 6 
#
# 1 66.8344 32.4549 14.1873 0.0000 18.8725 0.0000
# 2 32.4549 207.1870 25.4572 0.0000 17.8101 0.0000
# 3 14.1873 25.4572 73.2947 0.0000 9.0922 0.0000
# 4 0.0000 0.0000 0.0000 29.9402 0.0000 -3.1669
# 5 18.8725 17.8101 9.0922 0.0000 41.4490 0.0000
# 6 0.0000 0.0000 0.0000 -3.1669 0.0000 -21.4961
#
#
#
# Elastic Compliance Matrix: (Units=1/GPa)
#
#
# Indices 1 2 3 4 5 6 
#
# 1 0.018358 -0.002027 -0.001974 0.000000 -0.007055 0.000000
# 2 -0.002027 0.005405 -0.001348 0.000000 -0.001104 0.000000
# 3 -0.001974 -0.001348 0.014711 0.000000 -0.001749 0.000000
# 4 0.000000 0.000000 0.000000 0.032887 0.000000 -0.004845
# 5 -0.007055 -0.001104 -0.001749 0.000000 0.028196 0.000000
# 6 0.000000 0.000000 0.000000 -0.004845 0.000000 -0.045806
#
#
# Mechanical properties :
#
#
# Convention : Reuss Voigt Hill
#
# Bulk Modulus (GPa) = 36.00335 54.61278 45.30806
# Shear Modulus (GPa) = 67.83676 28.32642 48.08159
#
# Velocity S-wave (km/s) = 5.02621 3.24791 4.23153
# Velocity P-wave (km/s) = 6.86234 5.86544 6.38338
#
# Compressibility (1/GPa) = 0.02777519
#
# Stress axis : x y z
#
# Youngs Moduli (GPa) = 54.47315 185.03017 67.97715
#
# Poissons Ratio (x) = 0.37499 0.13421
# Poissons Ratio (y) = 0.11040 0.09163
# Poissons Ratio (z) = 0.10755 0.24941
#
# Static dielectric constant tensor:
#      x y z
#    x 2.213780 0.000000 -0.131230 
#    y 0.000000 2.336210 0.000000 
#    z -0.131230 0.000000 2.148030 
# 
# From -- ./inp_files/47741.got.cif
#   From: 2010.05.17/outbox.cif.g08.bks.cpg/sg12_24_cif.got.tgz:47741.got - 2010.06.03 13:09:07.
