data_PCOD9198601
_publ_section_title
;
Structure prediction by ZEFSAII (Michael W. Deem and Ramdas Pophale) SiO2 
 PCOD9198601
Probable space group: C 2/M
;
_chemical_formula_sum "Si O2"
_cell_formula_units_Z 48
_cell_length_a 19.356933
_cell_length_b 18.647154
_cell_length_c 14.487840
_cell_angle_alpha 90.000000
_cell_angle_beta 25.099092
_cell_angle_gamma 90.000000
_cell_volume 2218.237923
_symmetry_space_group_name_H-M "C 2/M"
_symmetry_group_IT_number 12
_symmetry_cell_setting 'monoclinic'
loop_
_space_group_symop_operation_xyz
x,y,z
-x,y,-z
-x,-y,-z
x,-y,z
1/2+x,1/2+y,z
1/2-x,1/2+y,-z
1/2-x,1/2-y,-z
1/2+x,1/2-y,z
loop_
_atom_site_type_symbol
_atom_site_label
_atom_site_fract_x
_atom_site_fract_y
_atom_site_fract_z
Si Si1 0.594158 0.419323 0.469558
Si Si2 0.780382 0.686401 0.598550
Si Si3 0.739588 0.159510 0.590886
Si Si4 0.300620 0.916130 0.742340
Si Si5 0.097803 0.580896 0.026625
Si Si6 0.829634 0.673242 0.886641
O O1 0.500000 0.382003 0.500000
O O2 0.527727 0.500000 0.560469
O O3 0.608072 0.380855 0.548786
O O4 0.777548 0.422647 0.208607
O O5 0.721858 0.768567 0.674073
O O6 0.728036 0.668630 0.557124
O O7 0.736952 0.629462 0.730776
O O8 0.977283 0.686893 0.361762
O O9 0.570688 0.117086 0.796604
O O10 0.500000 0.917718 0.500000
O O11 0.261636 0.870831 0.881631
O O12 0.248449 0.000000 0.805831
O O13 0.065147 0.500000 0.098629
O O14 0.179102 0.624826 0.011302
O O15 0.750000 0.750000 0.000000
#
# Coordination Sequence:
#
# PCOD9198601 Si02
#       6
#     8   8   8   8   8   8
#     4  10  22  36  56  86 117 153 193 243 305 357
#     4   9  21  36  55  88 117 155 204 245 298 355
#     4  10  20  36  58  81 121 156 194 252 293 357
#     4   9  18  35  59  86 117 155 203 253 300 355
#     4  10  21  38  59  87 118 156 201 242 296 364
#     4  10  21  34  57  92 123 157 193 248 305 359
#
# _framework density 21.638795999999999
#
# number of rings (size 3 to 8) (size 9 to 14) (size 15 to 20)
#    0.000    2.333    0.000    1.500    4.667    6.667 
#    0.000    0.000    0.000    0.000    0.000   10.500 
#    0.000    0.000    0.000    0.000    0.000    0.000 
#
# Total GULP energy -133929.083889 kJ/mol
# GULP energy per Si atom -5580.378495 kJ/mol
# Density = 2.158955 g / cm^3
# Si number density = 21.638796 Si / 1000 Ang^3
#
#
#
# Elastic Constant Matrix: (Units=GPa)
#
#
# Indices 1 2 3 4 5 6 
#
# 1 167.2512 93.9054 7.4314 -0.0059 -1.7198 -0.0130
# 2 93.9054 172.7245 10.0913 -0.0042 9.7636 -0.0044
# 3 7.4314 10.0913 16.2758 -0.0152 8.8766 -0.0214
# 4 -0.0059 -0.0042 -0.0152 -27.6509 0.0075 -131.7798
# 5 -1.7198 9.7636 8.8766 0.0075 15.9953 0.0176
# 6 -0.0130 -0.0044 -0.0214 -131.7798 0.0176 -237.5555
#
#
#
# Elastic Compliance Matrix: (Units=1/GPa)
#
#
# Indices 1 2 3 4 5 6 
#
# 1 0.009084 -0.005043 -0.004636 0.000000 0.006628 0.000001
# 2 -0.005043 0.008866 0.000076 0.000000 -0.005996 0.000000
# 3 -0.004636 0.000076 0.091502 0.000004 -0.051323 -0.000014
# 4 0.000000 0.000000 0.000004 0.022001 0.000001 -0.012205
# 5 0.006628 -0.005996 -0.051323 0.000001 0.095372 0.000011
# 6 0.000001 0.000000 -0.000014 -0.012205 0.000011 0.002561
#
#
# Mechanical properties :
#
#
# Convention : Reuss Voigt Hill
#
# Bulk Modulus (GPa) = 11.08082 64.34531 37.71306
# Shear Modulus (GPa) = 17.94205 -33.52065 -7.78930
#
# Velocity S-wave (km/s) = 2.88264 -3.94013 -1.89934
# Velocity P-wave (km/s) = 4.02634 3.01681 3.55757
#
# Compressibility (1/GPa) = 0.09024605
#
# Stress axis : x y z
#
# Youngs Moduli (GPa) = 110.07780 112.79453 10.92873
#
# Poissons Ratio (x) = 0.56880 0.05066
# Poissons Ratio (y) = 0.55510 -0.00083
# Poissons Ratio (z) = 0.51031 -0.00853
#
# Static dielectric constant tensor:
#      x y z
#    x 1.789000 0.000000 -0.003960 
#    y 0.000000 1.819540 0.000000 
#    z -0.003960 0.000000 1.817320 
# 
# From -- ./inp_files/226730.got.cif
#   From: 2010.05.17/outbox.cif.g08.bks.cpg/sg12_114_cif.got.tgz:226730.got - 2010.06.03 13:09:07.
