data_PCOD9198165
_publ_section_title
;
Structure prediction by ZEFSAII (Michael W. Deem and Ramdas Pophale) SiO2 
 PCOD9198165
Probable space group: C 2/M
;
_chemical_formula_sum "Si O2"
_cell_formula_units_Z 56
_cell_length_a 8.654758
_cell_length_b 29.396537
_cell_length_c 11.668738
_cell_angle_alpha 90.000000
_cell_angle_beta 73.455388
_cell_angle_gamma 90.000000
_cell_volume 2845.847640
_symmetry_space_group_name_H-M "C 2/M"
_symmetry_group_IT_number 12
_symmetry_cell_setting 'monoclinic'
loop_
_space_group_symop_operation_xyz
x,y,z
-x,y,-z
-x,-y,-z
x,-y,z
1/2+x,1/2+y,z
1/2-x,1/2+y,-z
1/2-x,1/2-y,-z
1/2+x,1/2-y,z
loop_
_atom_site_type_symbol
_atom_site_label
_atom_site_fract_x
_atom_site_fract_y
_atom_site_fract_z
Si Si1 0.126993 0.448029 0.804275
Si Si2 0.389729 0.866490 0.922886
Si Si3 0.224946 0.232127 0.633604
Si Si4 0.057329 0.134430 0.667189
Si Si5 0.013616 0.690796 0.697141
Si Si6 0.905875 0.086509 0.911247
Si Si7 0.754299 0.612826 0.416671
O O1 0.074566 0.500000 0.815826
O O2 0.278314 0.442025 0.860439
O O3 0.185188 0.430889 0.666669
O O4 0.984397 0.413510 0.870757
O O5 0.402943 0.833725 0.813240
O O6 0.500000 0.846269 0.000000
O O7 0.212768 0.876518 0.005644
O O8 0.250000 0.250000 0.500000
O O9 0.121283 0.185830 0.660922
O O10 0.142672 0.273575 0.718945
O O11 0.399267 0.220256 0.642936
O O12 0.182135 0.107374 0.558322
O O13 0.026266 0.110089 0.794907
O O14 0.888737 0.132801 0.633533
O O15 0.107260 0.650722 0.612219
O O16 0.000000 0.064855 0.000000
#
# Coordination Sequence:
#
# PCOD9198165 Si02
#       7
#     8   8   8   8   8   8   8
#     4   9  19  37  63  89 111 145 194 243 284 342
#     4   9  20  39  61  81 112 155 198 231 284 346
#     4  12  23  34  56  86 114 145 193 243 285 336
#     4  10  20  36  56  81 115 153 189 235 281 342
#     4  11  22  37  54  84 114 146 191 243 285 338
#     4  10  20  36  56  84 117 157 191 228 286 344
#     4   9  19  36  58  82 114 148 186 235 300 339
#
# _framework density 19.677793000000001
#
# number of rings (size 3 to 8) (size 9 to 14) (size 15 to 20)
#    0.000    2.000    1.429    3.000    2.000    2.857 
#    0.000    9.286    0.000    0.000    0.000   13.000 
#    0.000    0.000    0.000    0.000    0.000    0.000 
#
# Total GULP energy -156237.968029 kJ/mol
# GULP energy per Si atom -5579.927430 kJ/mol
# Density = 1.963301 g / cm^3
# Si number density = 19.677793 Si / 1000 Ang^3
#
#
#
# Elastic Constant Matrix: (Units=GPa)
#
#
# Indices 1 2 3 4 5 6 
#
# 1 45.3362 4.1231 24.6626 0.0000 6.8265 0.0000
# 2 4.1231 63.7144 36.8094 0.0000 10.9829 0.0000
# 3 24.6626 36.8094 135.7430 0.0000 -11.4740 0.0000
# 4 0.0000 0.0000 0.0000 8.3482 0.0000 1.3756
# 5 6.8265 10.9829 -11.4740 0.0000 20.5994 0.0000
# 6 0.0000 0.0000 0.0000 1.3756 0.0000 12.9480
#
#
#
# Elastic Compliance Matrix: (Units=1/GPa)
#
#
# Indices 1 2 3 4 5 6 
#
# 1 0.028598 0.005877 -0.008244 0.000000 -0.017202 0.000000
# 2 0.005877 0.024137 -0.009303 0.000000 -0.019999 0.000000
# 3 -0.008244 -0.009303 0.012632 0.000000 0.014728 0.000000
# 4 0.000000 0.000000 0.000000 0.121920 0.000000 -0.012952
# 5 -0.017202 -0.019999 0.014728 0.000000 0.073112 0.000000
# 6 0.000000 0.000000 0.000000 -0.012952 0.000000 0.078608
#
#
# Mechanical properties :
#
#
# Convention : Reuss Voigt Hill
#
# Bulk Modulus (GPa) = 23.79408 41.77597 32.78502
# Shear Modulus (GPa) = 13.28530 20.32570 16.80550
#
# Velocity S-wave (km/s) = 2.60117 3.21740 2.92556
# Velocity P-wave (km/s) = 4.59777 5.92270 5.30179
#
# Compressibility (1/GPa) = 0.04202726
#
# Stress axis : x y z
#
# Youngs Moduli (GPa) = 34.96790 41.43043 79.16171
#
# Poissons Ratio (x) = -0.24349 0.65258
# Poissons Ratio (y) = -0.20551 0.73647
# Poissons Ratio (z) = 0.28826 0.38544
#
# Static dielectric constant tensor:
#      x y z
#    x 1.729740 0.000000 0.003120 
#    y 0.000000 1.658820 0.000000 
#    z 0.003120 0.000000 1.729820 
# 
# From -- ./inp_files/125176.got.cif
#   From: 2010.05.17/outbox.cif.g08.bks.cpg/sg12_63_cif.got.tgz:125176.got - 2010.06.03 13:09:07.
