data_PCOD9198964
_publ_section_title
;
Structure prediction by ZEFSAII (Michael W. Deem and Ramdas Pophale) SiO2 
 PCOD9198964
Probable space group: C 2/M
;
_chemical_formula_sum "Si O2"
_cell_formula_units_Z 40
_cell_length_a 13.898132
_cell_length_b 10.681575
_cell_length_c 19.531354
_cell_angle_alpha 90.000000
_cell_angle_beta 139.680937
_cell_angle_gamma 90.000000
_cell_volume 1876.106775
_symmetry_space_group_name_H-M "C 2/M"
_symmetry_group_IT_number 12
_symmetry_cell_setting 'monoclinic'
loop_
_space_group_symop_operation_xyz
x,y,z
-x,y,-z
-x,-y,-z
x,-y,z
1/2+x,1/2+y,z
1/2-x,1/2+y,-z
1/2-x,1/2-y,-z
1/2+x,1/2-y,z
loop_
_atom_site_type_symbol
_atom_site_label
_atom_site_fract_x
_atom_site_fract_y
_atom_site_fract_z
Si Si1 0.998769 0.214184 0.837558
Si Si2 0.241073 0.351942 0.607596
Si Si3 0.021487 0.646576 0.619684
Si Si4 0.821486 0.365736 0.972917
Si Si5 0.793038 0.145402 0.852715
O O1 0.151257 0.140801 0.906067
O O2 0.889947 0.216433 0.713181
O O3 0.900125 0.153536 0.844658
O O4 0.063340 0.344066 0.902425
O O5 0.276116 0.500000 0.615742
O O6 0.129503 0.346439 0.612123
O O7 0.137643 0.300608 0.489944
O O8 0.994315 0.500000 0.617672
O O9 0.128492 0.688329 0.738695
O O10 0.845723 0.500000 0.952671
O O11 0.839894 0.246489 0.933875
O O12 0.791335 0.000000 0.874712
#
# Coordination Sequence:
#
# PCOD9198964 Si02
#       5
#     8   8   8   8   8
#     4  10  21  36  57  77 104 145 186 220 260 317
#     4   8  12  24  49  77 102 130 169 217 264 307
#     4   7  12  24  47  79 105 126 165 220 265 304
#     4  11  24  38  53  79 113 145 179 222 270 316
#     4  10  20  36  59  83 107 139 180 222 264 317
#
# _framework density 21.320747000000001
#
# number of rings (size 3 to 8) (size 9 to 14) (size 15 to 20)
#    0.000    2.800    0.000    4.800    0.000    7.200 
#    0.000    1.000    0.000    1.200    0.000    5.600 
#    0.000    0.000    0.000    0.000    0.000    0.000 
#
# Total GULP energy -111398.616656 kJ/mol
# GULP energy per Si atom -5569.930833 kJ/mol
# Density = 2.127222 g / cm^3
# Si number density = 21.320747 Si / 1000 Ang^3
#
#
#
# Elastic Constant Matrix: (Units=GPa)
#
#
# Indices 1 2 3 4 5 6 
#
# 1 85.4606 28.0521 21.6128 0.0000 22.3983 0.0000
# 2 28.0521 84.0694 40.5165 0.0000 3.5391 0.0000
# 3 21.6128 40.5165 213.7157 0.0000 36.4550 0.0000
# 4 0.0000 0.0000 0.0000 16.6151 0.0000 -2.8381
# 5 22.3983 3.5391 36.4550 0.0000 14.5777 0.0000
# 6 0.0000 0.0000 0.0000 -2.8381 0.0000 -50.3405
#
#
#
# Elastic Compliance Matrix: (Units=1/GPa)
#
#
# Indices 1 2 3 4 5 6 
#
# 1 0.035508 -0.014909 0.013819 0.000000 -0.085497 0.000000
# 2 -0.014909 0.019589 -0.009246 0.000000 0.041275 0.000000
# 3 0.013819 -0.009246 0.014428 0.000000 -0.055070 0.000000
# 4 0.000000 0.000000 0.000000 0.059612 0.000000 -0.003361
# 5 -0.085497 0.041275 -0.055070 0.000000 0.327657 0.000000
# 6 0.000000 0.000000 0.000000 -0.003361 0.000000 -0.019675
#
#
# Mechanical properties :
#
#
# Convention : Reuss Voigt Hill
#
# Bulk Modulus (GPa) = 20.46994 62.62314 41.54654
# Shear Modulus (GPa) = 10.54685 15.70808 13.12747
#
# Velocity S-wave (km/s) = 2.22654 2.71726 2.48405
# Velocity P-wave (km/s) = 4.02887 6.26740 5.26840
#
# Compressibility (1/GPa) = 0.04885212
#
# Stress axis : x y z
#
# Youngs Moduli (GPa) = 28.16260 51.05030 69.30897
#
# Poissons Ratio (x) = 0.76112 -0.95781
# Poissons Ratio (y) = 0.41988 0.64086
# Poissons Ratio (z) = -0.38919 0.47204
#
# Static dielectric constant tensor:
#      x y z
#    x 1.819070 0.000000 -0.013110 
#    y 0.000000 1.739290 0.000000 
#    z -0.013110 0.000000 1.874600 
# 
# From -- ./inp_files/309569.got.cif
#   From: 2010.05.17/outbox.cif.g08.bks.cpg/sg12_155_cif.got.tgz:309569.got - 2010.06.03 13:09:07.
