data_PCOD9198358
_publ_section_title
;
Structure prediction by ZEFSAII (Michael W. Deem and Ramdas Pophale) SiO2 
 PCOD9198358
Probable space group: C 2/M
;
_chemical_formula_sum "Si O2"
_cell_formula_units_Z 58
_cell_length_a 19.289648
_cell_length_b 12.370394
_cell_length_c 16.564515
_cell_angle_alpha 90.000000
_cell_angle_beta 47.160563
_cell_angle_gamma 90.000000
_cell_volume 2898.316136
_symmetry_space_group_name_H-M "C 2/M"
_symmetry_group_IT_number 12
_symmetry_cell_setting 'monoclinic'
loop_
_space_group_symop_operation_xyz
x,y,z
-x,y,-z
-x,-y,-z
x,-y,z
1/2+x,1/2+y,z
1/2-x,1/2+y,-z
1/2-x,1/2-y,-z
1/2+x,1/2-y,z
loop_
_atom_site_type_symbol
_atom_site_label
_atom_site_fract_x
_atom_site_fract_y
_atom_site_fract_z
Si Si1 0.500000 0.000000 0.000000
Si Si2 0.261408 0.381403 0.266328
Si Si3 0.102484 0.770525 0.379241
Si Si4 0.351779 0.677170 0.350310
Si Si5 0.732094 0.624087 0.413812
Si Si6 0.549222 0.624997 0.111655
Si Si7 0.870893 0.710596 0.074691
Si Si8 0.175354 0.126943 0.165519
O O1 0.418728 0.098227 0.062753
O O2 0.283472 0.500000 0.216396
O O3 0.155225 0.344633 0.331084
O O4 0.276784 0.380081 0.350152
O O5 0.331405 0.290423 0.175358
O O6 0.173414 0.836943 0.382221
O O7 0.105834 0.823305 0.288339
O O8 0.000000 0.766694 0.500000
O O9 0.334433 0.642675 0.455499
O O10 0.323589 0.802445 0.360095
O O11 0.453381 0.645540 0.236952
O O12 0.757506 0.500000 0.384703
O O13 0.549116 0.500000 0.082676
O O14 0.633389 0.639236 0.109681
O O15 0.561402 0.714570 0.033354
O O16 0.776875 0.681076 0.098210
O O17 0.183704 0.000000 0.175320
#
# Coordination Sequence:
#
# PCOD9198358 Si02
#       8
#     2   8   8   8   8   8   8   8
#     4  12  24  40  66  88 126 160 194 256 316 360
#     4  10  21  39  61  84 120 163 200 256 302 364
#     4  10  21  35  57  91 120 155 207 251 301 368
#     4  10  21  36  54  85 115 148 203 247 304 354
#     4  10  20  36  57  81 119 161 195 252 311 364
#     4  11  22  38  63  88 116 161 204 256 293 364
#     4  11  23  41  60  92 120 160 200 248 309 370
#     4  10  21  39  60  84 124 161 202 250 305 359
#
# _framework density 20.011619
#
# number of rings (size 3 to 8) (size 9 to 14) (size 15 to 20)
#    0.000    1.655    0.690    4.138    0.000    2.483 
#    9.931    2.069    1.517    4.966    0.000    0.000 
#    0.000    0.000    0.000    0.000    0.000    0.000 
#
# Total GULP energy -161673.524477 kJ/mol
# GULP energy per Si atom -5574.949120 kJ/mol
# Density = 1.996607 g / cm^3
# Si number density = 20.011619 Si / 1000 Ang^3
#
#
#
# Elastic Constant Matrix: (Units=GPa)
#
#
# Indices 1 2 3 4 5 6 
#
# 1 35.9051 30.1552 -3.3212 0.0000 -0.9739 0.0000
# 2 30.1552 169.6362 44.6615 0.0000 0.2651 0.0000
# 3 -3.3212 44.6615 67.8505 0.0000 -1.1929 0.0000
# 4 0.0000 0.0000 0.0000 15.7248 0.0000 -1.9048
# 5 -0.9739 0.2651 -1.1929 0.0000 31.9271 0.0000
# 6 0.0000 0.0000 0.0000 -1.9048 0.0000 16.2423
#
#
#
# Elastic Compliance Matrix: (Units=1/GPa)
#
#
# Indices 1 2 3 4 5 6 
#
# 1 0.035419 -0.008179 0.007142 0.000000 0.001415 0.000000
# 2 -0.008179 0.009021 -0.006348 0.000000 -0.000562 0.000000
# 3 0.007142 -0.006348 0.019284 0.000000 0.000991 0.000000
# 4 0.000000 0.000000 0.000000 0.064510 0.000000 0.007565
# 5 0.001415 -0.000562 0.000991 0.000000 0.031406 0.000000
# 6 0.000000 0.000000 0.000000 0.007565 0.000000 0.062455
#
#
# Mechanical properties :
#
#
# Convention : Reuss Voigt Hill
#
# Bulk Modulus (GPa) = 20.42703 46.26473 33.34588
# Shear Modulus (GPa) = 19.74852 26.23860 22.99356
#
# Velocity S-wave (km/s) = 3.14483 3.62493 3.39338
# Velocity P-wave (km/s) = 4.83904 6.37882 5.66152
#
# Compressibility (1/GPa) = 0.04895473
#
# Stress axis : x y z
#
# Youngs Moduli (GPa) = 28.23312 110.85113 51.85660
#
# Poissons Ratio (x) = 0.90664 -0.37037
# Poissons Ratio (y) = 0.23092 0.32920
# Poissons Ratio (z) = -0.20165 0.70371
#
# Static dielectric constant tensor:
#      x y z
#    x 1.719990 0.000000 0.005640 
#    y 0.000000 1.722900 0.000000 
#    z 0.005640 0.000000 1.718920 
# 
# From -- ./inp_files/283513.got.cif
#   From: 2010.05.17/outbox.cif.g08.bks.cpg/sg12_142_cif.got.tgz:283513.got - 2010.06.03 13:09:07.
