data_PCOD9198742
_publ_section_title
;
Structure prediction by ZEFSAII (Michael W. Deem and Ramdas Pophale) SiO2 
 PCOD9198742
Probable space group: C 2/M
;
_chemical_formula_sum "Si O2"
_cell_formula_units_Z 56
_cell_length_a 19.573434
_cell_length_b 8.263042
_cell_length_c 27.890456
_cell_angle_alpha 90.000000
_cell_angle_beta 40.710276
_cell_angle_gamma 90.000000
_cell_volume 2942.159941
_symmetry_space_group_name_H-M "C 2/M"
_symmetry_group_IT_number 12
_symmetry_cell_setting 'monoclinic'
loop_
_space_group_symop_operation_xyz
x,y,z
-x,y,-z
-x,-y,-z
x,-y,z
1/2+x,1/2+y,z
1/2-x,1/2+y,-z
1/2-x,1/2-y,-z
1/2+x,1/2-y,z
loop_
_atom_site_type_symbol
_atom_site_label
_atom_site_fract_x
_atom_site_fract_y
_atom_site_fract_z
Si Si1 0.321093 0.307222 0.812712
Si Si2 0.262230 0.804013 0.740763
Si Si3 0.964985 0.690634 0.570769
Si Si4 0.678309 0.693064 0.081384
Si Si5 0.436709 0.304464 0.217149
Si Si6 0.550451 0.817577 0.686978
Si Si7 0.636303 0.318059 0.549618
O O1 0.345387 0.500000 0.800378
O O2 0.264257 0.267502 0.793268
O O3 0.276488 0.267521 0.889460
O O4 0.426169 0.201769 0.755442
O O5 0.361727 0.747616 0.654793
O O6 0.152582 0.763815 0.773524
O O7 0.270352 0.000000 0.740174
O O8 0.943991 0.500000 0.574679
O O9 0.000000 0.758476 0.500000
O O10 0.064369 0.715019 0.552425
O O11 0.673904 0.500000 0.080998
O O12 0.556435 0.748883 0.142460
O O13 0.750000 0.750000 0.000000
O O14 0.438159 0.500000 0.221771
O O15 0.406186 0.227277 0.284217
O O16 0.583426 0.691265 0.629535
O O17 0.579758 0.000000 0.657303
O O18 0.641159 0.500000 0.528401
O O19 0.750000 0.250000 0.500000
#
# Coordination Sequence:
#
# PCOD9198742 Si02
#       7
#     8   8   8   8   8   8   8
#     4  10  20  36  58  84 114 149 186 232 283 337
#     4  10  20  36  59  84 115 153 191 233 285 345
#     4  10  22  39  58  85 117 150 191 239 292 343
#     4   9  19  36  58  84 115 149 190 233 283 339
#     4   9  20  37  57  85 117 151 189 233 285 339
#     4  11  21  36  57  83 110 145 192 236 282 340
#     4  12  25  40  58  81 112 148 191 243 290 340
#
# _framework density 19.033636000000001
#
# number of rings (size 3 to 8) (size 9 to 14) (size 15 to 20)
#    0.000    1.857    1.429    3.857    2.000    3.714 
#    0.000    0.714    0.000    4.286    0.000    0.000 
#    0.000    0.000    0.000    0.000    0.000    0.000 
#
# Total GULP energy -156077.485346 kJ/mol
# GULP energy per Si atom -5574.195905 kJ/mol
# Density = 1.899031 g / cm^3
# Si number density = 19.033636 Si / 1000 Ang^3
#
#
#
# Elastic Constant Matrix: (Units=GPa)
#
#
# Indices 1 2 3 4 5 6 
#
# 1 139.8910 10.9304 57.4092 0.0001 24.2648 0.0004
# 2 10.9304 25.5444 6.9411 0.0002 5.5209 0.0009
# 3 57.4092 6.9411 112.2299 0.0000 24.9038 0.0000
# 4 0.0001 0.0002 0.0000 22.6920 0.0000 5.4128
# 5 24.2648 5.5209 24.9038 0.0000 25.2111 0.0001
# 6 0.0004 0.0009 0.0000 5.4128 0.0001 25.4044
#
#
#
# Elastic Compliance Matrix: (Units=1/GPa)
#
#
# Indices 1 2 3 4 5 6 
#
# 1 0.009735 -0.002022 -0.003680 0.000000 -0.005291 0.000000
# 2 -0.002022 0.041555 0.000066 0.000000 -0.007219 -0.000001
# 3 -0.003680 0.000066 0.012815 0.000000 -0.009131 0.000000
# 4 0.000000 0.000000 0.000000 0.046428 0.000000 -0.009892
# 5 -0.005291 -0.007219 -0.009131 0.000000 0.055358 0.000000
# 6 0.000000 -0.000001 0.000000 -0.009892 0.000000 0.041471
#
#
# Mechanical properties :
#
#
# Convention : Reuss Voigt Hill
#
# Bulk Modulus (GPa) = 18.92779 47.58074 33.25427
# Shear Modulus (GPa) = 21.16451 28.15380 24.65915
#
# Velocity S-wave (km/s) = 3.33821 3.85016 3.60329
# Velocity P-wave (km/s) = 4.98239 6.69458 5.90092
#
# Compressibility (1/GPa) = 0.05283236
#
# Stress axis : x y z
#
# Youngs Moduli (GPa) = 102.72720 24.06447 78.03330
#
# Poissons Ratio (x) = 0.04865 0.28720
# Poissons Ratio (y) = 0.20769 -0.00516
# Poissons Ratio (z) = 0.37808 -0.00159
#
# Static dielectric constant tensor:
#      x y z
#    x 1.809890 0.000000 -0.353480 
#    y 0.000000 1.680530 0.000000 
#    z -0.353480 0.000000 2.590050 
# 
# From -- ./inp_files/342271.got.cif
#   From: 2010.05.17/outbox.cif.g08.bks.cpg/sg12_172_cif.got.tgz:342271.got - 2010.06.03 13:09:07.
