data_PCOD9198207
_publ_section_title
;
Structure prediction by ZEFSAII (Michael W. Deem and Ramdas Pophale) SiO2 
 PCOD9198207
Probable space group: C 2/M
;
_chemical_formula_sum "Si O2"
_cell_formula_units_Z 64
_cell_length_a 29.850463
_cell_length_b 7.730244
_cell_length_c 15.771077
_cell_angle_alpha 90.000000
_cell_angle_beta 127.918698
_cell_angle_gamma 90.000000
_cell_volume 2870.903142
_symmetry_space_group_name_H-M "C 2/M"
_symmetry_group_IT_number 12
_symmetry_cell_setting 'monoclinic'
loop_
_space_group_symop_operation_xyz
x,y,z
-x,y,-z
-x,-y,-z
x,-y,z
1/2+x,1/2+y,z
1/2-x,1/2+y,-z
1/2-x,1/2-y,-z
1/2+x,1/2-y,z
loop_
_atom_site_type_symbol
_atom_site_label
_atom_site_fract_x
_atom_site_fract_y
_atom_site_fract_z
Si Si1 0.841129 0.702479 0.828194
Si Si2 0.927336 0.205232 0.168801
Si Si3 0.221128 0.296405 0.743428
Si Si4 0.961948 0.801436 0.031648
Si Si5 0.010697 0.709691 0.416826
Si Si6 0.365878 0.788231 0.500271
Si Si7 0.188699 0.793669 0.890747
Si Si8 0.812204 0.292606 0.606917
O O1 0.856230 0.500000 0.840128
O O2 0.784058 0.718090 0.817163
O O3 0.824735 0.771809 0.715643
O O4 0.896193 0.797207 0.927196
O O5 0.959367 0.278674 0.123067
O O6 0.864246 0.275201 0.115705
O O7 0.964334 0.229596 0.295771
O O8 0.921032 0.000000 0.144767
O O9 0.229199 0.500000 0.740405
O O10 0.183688 0.228871 0.621295
O O11 0.188512 0.269485 0.793561
O O12 0.982551 0.000000 0.064365
O O13 0.000000 0.722694 0.000000
O O14 0.009460 0.500000 0.415057
O O15 0.072992 0.766813 0.460712
O O16 0.000000 0.768460 0.500000
O O17 0.354437 0.730854 0.582735
O O18 0.364484 0.000000 0.497239
O O19 0.183408 0.000000 0.882403
O O20 0.250000 0.750000 0.000000
O O21 0.816138 0.500000 0.616275
O O22 0.750000 0.250000 0.500000
#
# Coordination Sequence:
#
# PCOD9198207 Si02
#       8
#     8   8   8   8   8   8   8   8
#     4  11  23  37  59  90 123 155 201 255 304 360
#     4  10  23  42  61  87 121 158 198 248 303 355
#     4  11  21  37  62  87 118 158 196 240 301 362
#     4  10  23  43  64  86 118 161 209 253 301 365
#     4  10  21  38  62  90 120 157 201 245 293 357
#     4   9  19  35  56  83 116 154 195 239 294 355
#     4  11  23  39  61  88 120 153 197 247 299 360
#     4  10  20  36  56  84 120 157 198 246 298 355
#
# _framework density 22.292636000000002
#
# number of rings (size 3 to 8) (size 9 to 14) (size 15 to 20)
#    0.000    1.750    1.250    2.625    1.750    4.500 
#    0.000    1.875    0.000    0.000    0.000    0.000 
#    0.000    0.000    0.000    0.000    0.000    0.000 
#
# Total GULP energy -178861.890027 kJ/mol
# GULP energy per Si atom -5589.434063 kJ/mol
# Density = 2.224190 g / cm^3
# Si number density = 22.292636 Si / 1000 Ang^3
#
#
#
# Elastic Constant Matrix: (Units=GPa)
#
#
# Indices 1 2 3 4 5 6 
#
# 1 172.9622 -1.2514 39.4941 0.0000 -16.7067 0.0000
# 2 -1.2514 42.0530 -6.7304 0.0000 -3.4922 0.0000
# 3 39.4941 -6.7304 93.1642 0.0000 -14.6880 0.0000
# 4 0.0000 0.0000 0.0000 12.8015 0.0000 4.4475
# 5 -16.7067 -3.4922 -14.6880 0.0000 44.6597 0.0000
# 6 0.0000 0.0000 0.0000 4.4475 0.0000 13.5665
#
#
#
# Elastic Compliance Matrix: (Units=1/GPa)
#
#
# Indices 1 2 3 4 5 6 
#
# 1 0.006510 -0.000075 -0.002512 0.000000 0.001603 0.000000
# 2 -0.000075 0.024345 0.002200 0.000000 0.002599 0.000000
# 3 -0.002512 0.002200 0.012484 0.000000 0.003338 0.000000
# 4 0.000000 0.000000 0.000000 0.088156 0.000000 -0.028900
# 5 0.001603 0.002599 0.003338 0.000000 0.024292 0.000000
# 6 0.000000 0.000000 0.000000 -0.028900 0.000000 0.083186
#
#
# Mechanical properties :
#
#
# Convention : Reuss Voigt Hill
#
# Bulk Modulus (GPa) = 23.49361 41.24488 32.36925
# Shear Modulus (GPa) = 19.69004 32.65000 26.17002
#
# Velocity S-wave (km/s) = 2.97518 3.83117 3.42999
# Velocity P-wave (km/s) = 4.72905 6.17351 5.49892
#
# Compressibility (1/GPa) = 0.04256477
#
# Stress axis : x y z
#
# Youngs Moduli (GPa) = 153.62054 41.07568 80.10277
#
# Poissons Ratio (x) = 0.00309 0.20124
# Poissons Ratio (y) = 0.01156 -0.17626
# Poissons Ratio (z) = 0.38593 -0.09039
#
# Static dielectric constant tensor:
#      x y z
#    x 1.905300 0.000000 -0.062440 
#    y 0.000000 1.843190 0.000000 
#    z -0.062440 0.000000 1.800530 
# 
# From -- ./inp_files/250122.got.cif
#   From: 2010.05.17/outbox.cif.g08.bks.cpg/sg12_126_cif.got.tgz:250122.got - 2010.06.03 13:09:07.
