data_PCOD9198975
_publ_section_title
;
Structure prediction by ZEFSAII (Michael W. Deem and Ramdas Pophale) SiO2 
 PCOD9198975
Probable space group: C 2/M
;
_chemical_formula_sum "Si O2"
_cell_formula_units_Z 44
_cell_length_a 14.927225
_cell_length_b 7.730869
_cell_length_c 18.444847
_cell_angle_alpha 90.000000
_cell_angle_beta 66.921023
_cell_angle_gamma 90.000000
_cell_volume 1958.185996
_symmetry_space_group_name_H-M "C 2/M"
_symmetry_group_IT_number 12
_symmetry_cell_setting 'monoclinic'
loop_
_space_group_symop_operation_xyz
x,y,z
-x,y,-z
-x,-y,-z
x,-y,z
1/2+x,1/2+y,z
1/2-x,1/2+y,-z
1/2-x,1/2-y,-z
1/2+x,1/2-y,z
loop_
_atom_site_type_symbol
_atom_site_label
_atom_site_fract_x
_atom_site_fract_y
_atom_site_fract_z
Si Si1 0.538612 0.292584 0.411070
Si Si2 0.256019 0.289355 0.713820
Si Si3 0.000000 0.242532 0.000000
Si Si4 0.706065 0.202558 0.894129
Si Si5 0.443574 0.791345 0.292677
Si Si6 0.592695 0.197605 0.125222
O O1 0.500000 0.224555 0.500000
O O2 0.547847 0.500000 0.415317
O O3 0.643939 0.224635 0.352462
O O4 0.467136 0.256516 0.367064
O O5 0.258400 0.500000 0.710697
O O6 0.241883 0.246980 0.802601
O O7 0.161389 0.229949 0.700397
O O8 0.111433 0.187612 0.945470
O O9 0.970161 0.306959 0.928369
O O10 0.802784 0.212236 0.912190
O O11 0.672486 0.000000 0.905055
O O12 0.526615 0.726247 0.210765
O O13 0.444298 0.000000 0.285849
O O14 0.616577 0.000000 0.135966
#
# Coordination Sequence:
#
# PCOD9198975 Si02
#       6
#     8   8   4   8   8   8
#     4  10  21  38  60  86 115 146 185 233 283 338
#     4   9  18  35  58  81 110 151 186 219 280 344
#     4  12  23  38  61  86 113 152 199 232 271 340
#     4  11  21  37  60  83 111 151 192 232 280 336
#     4  10  20  36  59  83 111 150 192 231 275 334
#     4  11  22  37  57  84 114 148 192 238 279 327
#
# _framework density 22.469774999999998
#
# number of rings (size 3 to 8) (size 9 to 14) (size 15 to 20)
#    0.000    1.636    3.636    2.182    0.000    1.091 
#    0.000    3.636    0.000    0.000    0.000    0.000 
#    0.000    0.000    0.000    0.000    0.000    0.000 
#
# Total GULP energy -122678.464925 kJ/mol
# GULP energy per Si atom -5576.293860 kJ/mol
# Density = 2.241863 g / cm^3
# Si number density = 22.469775 Si / 1000 Ang^3
#
#
#
# Elastic Constant Matrix: (Units=GPa)
#
#
# Indices 1 2 3 4 5 6 
#
# 1 169.4768 7.5378 44.8900 0.0000 12.4901 0.0000
# 2 7.5378 49.7374 7.7738 0.0000 -5.4895 0.0000
# 3 44.8900 7.7738 124.5100 0.0000 25.0551 0.0000
# 4 0.0000 0.0000 0.0000 -23.3990 0.0000 -2.6617
# 5 12.4901 -5.4895 25.0551 0.0000 30.5019 0.0000
# 6 0.0000 0.0000 0.0000 -2.6617 0.0000 16.2889
#
#
#
# Elastic Compliance Matrix: (Units=1/GPa)
#
#
# Indices 1 2 3 4 5 6 
#
# 1 0.006573 -0.000791 -0.002097 0.000000 -0.001112 0.000000
# 2 -0.000791 0.021238 -0.002246 0.000000 0.005991 0.000000
# 3 -0.002097 -0.002246 0.010586 0.000000 -0.008241 0.000000
# 4 0.000000 0.000000 0.000000 -0.041957 0.000000 -0.006856
# 5 -0.001112 0.005991 -0.008241 0.000000 0.041088 0.000000
# 6 0.000000 0.000000 0.000000 -0.006856 0.000000 0.060271
#
#
# Mechanical properties :
#
#
# Convention : Reuss Voigt Hill
#
# Bulk Modulus (GPa) = 35.55115 51.56970 43.56043
# Shear Modulus (GPa) = 42.57355 23.57988 33.07671
#
# Velocity S-wave (km/s) = 4.35754 3.24297 3.84090
# Velocity P-wave (km/s) = 6.41667 6.08465 6.25286
#
# Compressibility (1/GPa) = 0.02812848
#
# Stress axis : x y z
#
# Youngs Moduli (GPa) = 152.13793 47.08565 94.46366
#
# Poissons Ratio (x) = 0.03725 0.19806
# Poissons Ratio (y) = 0.12036 0.21220
# Poissons Ratio (z) = 0.31899 0.10577
#
# Static dielectric constant tensor:
#      x y z
#    x 1.792170 0.000000 -0.019720 
#    y 0.000000 1.866040 0.000000 
#    z -0.019720 0.000000 1.806940 
# 
# From -- ./inp_files/261590.got.cif
#   From: 2010.05.17/outbox.cif.g08.bks.cpg/sg12_131_cif.got.tgz:261590.got - 2010.06.03 13:09:07.
