data_PCOD9198870
_publ_section_title
;
Structure prediction by ZEFSAII (Michael W. Deem and Ramdas Pophale) SiO2 
 PCOD9198870
Probable space group: C 2/M
;
_chemical_formula_sum "Si O2"
_cell_formula_units_Z 48
_cell_length_a 20.500412
_cell_length_b 23.621239
_cell_length_c 9.029515
_cell_angle_alpha 90.000000
_cell_angle_beta 31.194258
_cell_angle_gamma 90.000000
_cell_volume 2264.697584
_symmetry_space_group_name_H-M "C 2/M"
_symmetry_group_IT_number 12
_symmetry_cell_setting 'monoclinic'
loop_
_space_group_symop_operation_xyz
x,y,z
-x,y,-z
-x,-y,-z
x,-y,z
1/2+x,1/2+y,z
1/2-x,1/2+y,-z
1/2-x,1/2-y,-z
1/2+x,1/2-y,z
loop_
_atom_site_type_symbol
_atom_site_label
_atom_site_fract_x
_atom_site_fract_y
_atom_site_fract_z
Si Si1 0.121022 0.749983 0.158168
Si Si2 0.680649 0.628881 0.944699
Si Si3 0.430423 0.432855 0.439782
Si Si4 0.178164 0.373608 0.038901
Si Si5 0.435239 0.937515 0.987021
Si Si6 0.172129 0.062927 0.667019
O O1 0.128723 0.806761 0.046568
O O2 0.000000 0.753234 0.500000
O O3 0.250000 0.750000 0.000000
O O4 0.131819 0.687483 0.069594
O O5 0.567312 0.588619 0.223631
O O6 0.799327 0.626466 0.827332
O O7 0.704157 0.606493 0.734393
O O8 0.409859 0.500000 0.510852
O O9 0.317785 0.392609 0.714646
O O10 0.431325 0.425021 0.258903
O O11 0.080289 0.414634 0.148090
O O12 0.294102 0.941465 0.323771
O O13 0.494940 0.000000 0.860316
O O14 0.500000 0.905951 0.000000
O O15 0.152875 0.000000 0.769801
#
# Coordination Sequence:
#
# PCOD9198870 Si02
#       6
#     8   8   8   8   8   8
#     4  10  22  40  58  82 120 159 195 247 306 346
#     4  11  20  33  56  85 113 148 192 238 288 348
#     4  10  20  36  58  87 124 155 183 236 307 360
#     4  10  21  36  57  81 107 149 198 237 281 347
#     4   9  19  37  55  73 107 149 185 231 293 350
#     4   9  19  34  53  82 118 148 178 231 303 359
#
# _framework density 21.194882
#
# number of rings (size 3 to 8) (size 9 to 14) (size 15 to 20)
#    0.000    2.167    0.000    5.000    0.000    7.333 
#    0.000    5.000    0.000    5.000    0.000    0.000 
#    0.000    0.000    0.000    0.000    0.000    0.000 
#
# Total GULP energy -133613.113950 kJ/mol
# GULP energy per Si atom -5567.213081 kJ/mol
# Density = 2.114664 g / cm^3
# Si number density = 21.194882 Si / 1000 Ang^3
#
#
#
# Elastic Constant Matrix: (Units=GPa)
#
#
# Indices 1 2 3 4 5 6 
#
# 1 131.7494 40.2450 2.7591 -0.0003 7.0347 -0.0031
# 2 40.2450 122.6337 20.4907 0.0001 19.8313 0.0000
# 3 2.7591 20.4907 57.6219 -0.0004 2.0897 -0.0045
# 4 -0.0003 0.0001 -0.0004 30.0773 0.0002 25.9711
# 5 7.0347 19.8313 2.0897 0.0002 25.1080 0.0032
# 6 -0.0031 0.0000 -0.0045 25.9711 0.0032 168.9570
#
#
#
# Elastic Compliance Matrix: (Units=1/GPa)
#
#
# Indices 1 2 3 4 5 6 
#
# 1 0.008457 -0.002851 0.000615 0.000000 -0.000169 0.000000
# 2 -0.002851 0.010882 -0.003461 0.000000 -0.007509 0.000000
# 3 0.000615 -0.003461 0.018519 0.000000 0.001020 0.000001
# 4 0.000000 0.000000 0.000000 0.038336 0.000000 -0.005893
# 5 -0.000169 -0.007509 0.001020 0.000000 0.045721 -0.000001
# 6 0.000000 0.000000 0.000001 -0.005893 -0.000001 0.006824
#
#
# Mechanical properties :
#
#
# Convention : Reuss Voigt Hill
#
# Bulk Modulus (GPa) = 37.78637 48.77718 43.28177
# Shear Modulus (GPa) = 33.56711 61.39580 47.48146
#
# Velocity S-wave (km/s) = 3.98394 5.38796 4.73824
# Velocity P-wave (km/s) = 6.24733 7.85942 7.09928
#
# Compressibility (1/GPa) = 0.02646457
#
# Stress axis : x y z
#
# Youngs Moduli (GPa) = 118.24326 91.89107 53.99906
#
# Poissons Ratio (x) = 0.26196 -0.03321
# Poissons Ratio (y) = 0.33709 0.18689
# Poissons Ratio (z) = -0.07271 0.31804
#
# Static dielectric constant tensor:
#      x y z
#    x 1.828380 0.000000 -0.001510 
#    y 0.000000 1.861580 0.000000 
#    z -0.001510 0.000000 1.836720 
# 
# From -- ./inp_files/89434.got.cif
#   From: 2010.05.17/outbox.cif.g08.bks.cpg/sg12_45_cif.got.tgz:89434.got - 2010.06.03 13:09:07.
