data_PCOD9198588
_publ_section_title
;
Structure prediction by ZEFSAII (Michael W. Deem and Ramdas Pophale) SiO2 
 PCOD9198588
Probable space group: C 2/M
;
_chemical_formula_sum "Si O2"
_cell_formula_units_Z 48
_cell_length_a 16.351571
_cell_length_b 9.037192
_cell_length_c 14.836113
_cell_angle_alpha 90.000000
_cell_angle_beta 100.359946
_cell_angle_gamma 90.000000
_cell_volume 2156.625130
_symmetry_space_group_name_H-M "C 2/M"
_symmetry_group_IT_number 12
_symmetry_cell_setting 'monoclinic'
loop_
_space_group_symop_operation_xyz
x,y,z
-x,y,-z
-x,-y,-z
x,-y,z
1/2+x,1/2+y,z
1/2-x,1/2+y,-z
1/2-x,1/2-y,-z
1/2+x,1/2-y,z
loop_
_atom_site_type_symbol
_atom_site_label
_atom_site_fract_x
_atom_site_fract_y
_atom_site_fract_z
Si Si1 0.595757 0.823278 0.542349
Si Si2 0.860204 0.174023 0.622999
Si Si3 0.205462 0.326150 0.726509
Si Si4 0.598881 0.830172 0.045941
Si Si5 0.027910 0.677441 0.215581
Si Si6 0.144342 0.175269 0.880370
O O1 0.500000 0.791009 0.500000
O O2 0.649122 0.736160 0.479038
O O3 0.625243 0.785982 0.649028
O O4 0.609035 0.000000 0.534766
O O5 0.780745 0.193776 0.671616
O O6 0.933455 0.266435 0.684614
O O7 0.879760 0.000000 0.624357
O O8 0.199967 0.500000 0.749153
O O9 0.209063 0.234751 0.819312
O O10 0.593559 0.784174 0.148791
O O11 0.627034 0.000000 0.044350
O O12 0.500000 0.827621 0.000000
O O13 0.648441 0.734632 0.983400
O O14 0.015850 0.500000 0.212677
O O15 0.942682 0.757560 0.173504
O O16 0.142975 0.000000 0.880546
#
# Coordination Sequence:
#
# PCOD9198588 Si02
#       6
#     8   8   8   8   8   8
#     4  10  21  38  61  84 107 144 188 226 272 333
#     4  11  23  37  56  83 114 147 184 231 279 323
#     4  10  22  39  56  79 115 153 185 222 275 334
#     4   8  16  32  54  79 108 145 185 227 277 328
#     4  10  20  36  58  81 110 149 189 229 276 331
#     4  11  21  33  56  87 114 143 184 233 278 325
#
# _framework density 22.256997999999999
#
# number of rings (size 3 to 8) (size 9 to 14) (size 15 to 20)
#    0.000    2.000    0.000    5.000    0.000    7.333 
#    0.000    0.833    0.000    0.000    0.000    0.000 
#    0.000    0.000    0.000    0.000    0.000    0.000 
#
# Total GULP energy -134202.446364 kJ/mol
# GULP energy per Si atom -5591.768599 kJ/mol
# Density = 2.220634 g / cm^3
# Si number density = 22.256998 Si / 1000 Ang^3
#
#
#
# Elastic Constant Matrix: (Units=GPa)
#
#
# Indices 1 2 3 4 5 6 
#
# 1 58.0000 28.2441 11.0077 0.0000 -12.8945 0.0000
# 2 28.2441 68.0569 54.1341 0.0000 -29.6967 0.0000
# 3 11.0077 54.1341 119.7932 0.0000 -31.6129 0.0000
# 4 0.0000 0.0000 0.0000 35.0168 0.0000 -13.4157
# 5 -12.8945 -29.6967 -31.6129 0.0000 38.1442 0.0000
# 6 0.0000 0.0000 0.0000 -13.4157 0.0000 19.4595
#
#
#
# Elastic Compliance Matrix: (Units=1/GPa)
#
#
# Indices 1 2 3 4 5 6 
#
# 1 0.022502 -0.011435 0.003530 0.000000 0.001629 0.000000
# 2 -0.011435 0.033882 -0.010648 0.000000 0.013688 0.000000
# 3 0.003530 -0.010648 0.014031 0.000000 0.004532 0.000000
# 4 0.000000 0.000000 0.000000 0.038808 0.000000 0.026755
# 5 0.001629 0.013688 0.004532 0.000000 0.041179 0.000000
# 6 0.000000 0.000000 0.000000 0.026755 0.000000 0.069834
#
#
# Mechanical properties :
#
#
# Convention : Reuss Voigt Hill
#
# Bulk Modulus (GPa) = 30.02279 48.06911 39.04595
# Shear Modulus (GPa) = 18.62563 28.68837 23.65700
#
# Velocity S-wave (km/s) = 2.89596 3.59410 3.26375
# Velocity P-wave (km/s) = 4.96997 6.23439 5.63774
#
# Compressibility (1/GPa) = 0.03330803
#
# Stress axis : x y z
#
# Youngs Moduli (GPa) = 44.43984 29.51442 71.26976
#
# Poissons Ratio (x) = 0.33751 -0.25157
# Poissons Ratio (y) = 0.50819 0.75889
# Poissons Ratio (z) = -0.15687 0.31427
#
# Static dielectric constant tensor:
#      x y z
#    x 1.896840 0.000000 -0.014690 
#    y 0.000000 1.731010 0.000000 
#    z -0.014690 0.000000 1.801670 
# 
# From -- ./inp_files/221725.got.cif
#   From: 2010.05.17/outbox.cif.g08.bks.cpg/sg12_111_cif.got.tgz:221725.got - 2010.06.03 13:09:07.
