data_PCOD9198756
_publ_section_title
;
Structure prediction by ZEFSAII (Michael W. Deem and Ramdas Pophale) SiO2 
 PCOD9198756
Probable space group: C 2/M
;
_chemical_formula_sum "Si O2"
_cell_formula_units_Z 56
_cell_length_a 13.126522
_cell_length_b 16.675242
_cell_length_c 13.614555
_cell_angle_alpha 90.000000
_cell_angle_beta 118.482056
_cell_angle_gamma 90.000000
_cell_volume 2619.374489
_symmetry_space_group_name_H-M "C 2/M"
_symmetry_group_IT_number 12
_symmetry_cell_setting 'monoclinic'
loop_
_space_group_symop_operation_xyz
x,y,z
-x,y,-z
-x,-y,-z
x,-y,z
1/2+x,1/2+y,z
1/2-x,1/2+y,-z
1/2-x,1/2-y,-z
1/2+x,1/2-y,z
loop_
_atom_site_type_symbol
_atom_site_label
_atom_site_fract_x
_atom_site_fract_y
_atom_site_fract_z
Si Si1 0.776973 0.804216 0.854666
Si Si2 0.606577 0.903359 0.327432
Si Si3 0.418034 0.820186 0.379050
Si Si4 0.945139 0.096655 0.796722
Si Si5 0.794375 0.091152 0.039153
Si Si6 0.116155 0.363168 0.105665
Si Si7 0.767111 0.096141 0.565821
O O1 0.672016 0.776645 0.735284
O O2 0.857377 0.869152 0.836722
O O3 0.857701 0.728570 0.909870
O O4 0.736456 0.848840 0.934411
O O5 0.501508 0.869700 0.344736
O O6 0.605554 0.871879 0.216925
O O7 0.723546 0.876955 0.439206
O O8 0.600584 0.000000 0.322678
O O9 0.500000 0.779329 0.500000
O O10 0.333512 0.877121 0.404752
O O11 0.888935 0.124619 0.667246
O O12 0.075697 0.121292 0.879570
O O13 0.944466 0.000000 0.798266
O O14 0.723689 0.090926 0.107333
O O15 0.798711 0.000000 0.002203
O O16 0.000000 0.391946 0.000000
O O17 0.770672 0.000000 0.565387
#
# Coordination Sequence:
#
# PCOD9198756 Si02
#       7
#     8   8   8   8   8   8   8
#     4  11  22  38  59  83 112 147 184 229 285 334
#     4  10  20  36  58  84 115 151 188 226 275 331
#     4   9  18  34  58  88 114 142 185 234 277 321
#     4   9  18  35  60  87 110 137 184 240 282 320
#     4  11  23  39  60  84 110 145 191 236 277 327
#     4  12  26  40  54  79 116 153 186 224 277 342
#     4   8  15  31  57  87 115 143 182 234 280 318
#
# _framework density 21.379151
#
# number of rings (size 3 to 8) (size 9 to 14) (size 15 to 20)
#    0.000    2.000    0.000    3.857    0.000    8.000 
#    0.000    8.571    0.000    3.429    0.000    0.000 
#    0.000    0.000    0.000    0.000    0.000    0.000 
#
# Total GULP energy -156246.653241 kJ/mol
# GULP energy per Si atom -5580.237616 kJ/mol
# Density = 2.133049 g / cm^3
# Si number density = 21.379151 Si / 1000 Ang^3
#
#
#
# Elastic Constant Matrix: (Units=GPa)
#
#
# Indices 1 2 3 4 5 6 
#
# 1 54.5714 0.4320 42.6224 0.0000 5.1789 0.0000
# 2 0.4320 17.1192 13.9431 0.0000 -1.2360 0.0000
# 3 42.6224 13.9431 132.6903 0.0000 -5.3209 0.0000
# 4 0.0000 0.0000 0.0000 6.6664 0.0000 -5.2451
# 5 5.1789 -1.2360 -5.3209 0.0000 33.5632 0.0000
# 6 0.0000 0.0000 0.0000 -5.2451 0.0000 31.9538
#
#
#
# Elastic Compliance Matrix: (Units=1/GPa)
#
#
# Indices 1 2 3 4 5 6 
#
# 1 0.025986 0.006491 -0.009239 0.000000 -0.005235 0.000000
# 2 0.006491 0.065559 -0.008975 0.000000 -0.000010 0.000000
# 3 -0.009239 -0.008975 0.011565 0.000000 0.002929 0.000000
# 4 0.000000 0.000000 0.000000 0.172253 0.000000 0.028275
# 5 -0.005235 -0.000010 0.002929 0.000000 0.031066 0.000000
# 6 0.000000 0.000000 0.000000 0.028275 0.000000 0.035937
#
#
# Mechanical properties :
#
#
# Convention : Reuss Voigt Hill
#
# Bulk Modulus (GPa) = 12.55255 35.37511 23.96383
# Shear Modulus (GPa) = 12.74322 24.26224 18.50273
#
# Velocity S-wave (km/s) = 2.44408 3.37242 2.94506
# Velocity P-wave (km/s) = 3.72140 5.63442 4.77470
#
# Compressibility (1/GPa) = 0.07966506
#
# Stress axis : x y z
#
# Youngs Moduli (GPa) = 38.48168 15.25348 86.47030
#
# Poissons Ratio (x) = -0.09902 0.79893
# Poissons Ratio (y) = -0.24980 0.77603
# Poissons Ratio (z) = 0.35555 0.13689
#
# Static dielectric constant tensor:
#      x y z
#    x 1.749560 0.000000 0.028960 
#    y 0.000000 1.752980 0.000000 
#    z 0.028960 0.000000 1.839890 
# 
# From -- ./inp_files/133953.got.cif
#   From: 2010.05.17/outbox.cif.g08.bks.cpg/sg12_67_cif.got.tgz:133953.got - 2010.06.03 13:09:07.
