data_PCOD9198894
_publ_section_title
;
Structure prediction by ZEFSAII (Michael W. Deem and Ramdas Pophale) SiO2 
 PCOD9198894
Probable space group: C 2/M
;
_chemical_formula_sum "Si O2"
_cell_formula_units_Z 58
_cell_length_a 25.937992
_cell_length_b 7.381931
_cell_length_c 23.444501
_cell_angle_alpha 90.000000
_cell_angle_beta 36.195200
_cell_angle_gamma 90.000000
_cell_volume 2650.911452
_symmetry_space_group_name_H-M "C 2/M"
_symmetry_group_IT_number 12
_symmetry_cell_setting 'monoclinic'
loop_
_space_group_symop_operation_xyz
x,y,z
-x,y,-z
-x,-y,-z
x,-y,z
1/2+x,1/2+y,z
1/2-x,1/2+y,-z
1/2-x,1/2-y,-z
1/2+x,1/2-y,z
loop_
_atom_site_type_symbol
_atom_site_label
_atom_site_fract_x
_atom_site_fract_y
_atom_site_fract_z
Si Si1 0.481653 0.716376 0.683851
Si Si2 0.326895 0.785355 0.976181
Si Si3 0.440211 0.278931 0.139337
Si Si4 0.000000 0.500000 0.000000
Si Si5 0.209986 0.219635 0.181619
Si Si6 0.748556 0.791123 0.277562
Si Si7 0.980703 0.797270 0.228603
Si Si8 0.069887 0.717174 0.484511
O O1 0.474084 0.500000 0.698796
O O2 0.382998 0.782719 0.760497
O O3 0.523834 0.789217 0.704609
O O4 0.536250 0.747603 0.577941
O O5 0.415806 0.696325 0.876804
O O6 0.343009 0.000000 0.964404
O O7 0.250000 0.750000 0.000000
O O8 0.288774 0.722150 0.070630
O O9 0.452883 0.500000 0.123482
O O10 0.345765 0.218627 0.199028
O O11 0.442009 0.224472 0.204314
O O12 0.507536 0.160996 0.042811
O O13 0.222053 0.281336 0.235231
O O14 0.208909 0.000000 0.182814
O O15 0.666805 0.711435 0.385019
O O16 0.756811 0.000000 0.288214
O O17 0.943678 0.000000 0.266351
O O18 0.073753 0.500000 0.473292
O O19 0.000000 0.785240 0.500000
#
# Coordination Sequence:
#
# PCOD9198894 Si02
#       8
#     8   8   8   2   8   8   8   8
#     4  10  20  37  58  86 119 159 203 253 313 376
#     4  11  22  35  54  83 119 157 199 247 303 370
#     4  10  25  45  66  94 130 172 211 265 322 369
#     4  12  26  44  72  94 126 164 228 260 300 388
#     4  10  21  34  53  83 119 153 197 251 307 366
#     4  10  22  40  60  85 123 159 200 257 320 377
#     4  10  22  42  61  82 123 165 206 255 313 379
#     4  10  20  36  58  88 122 158 203 258 319 376
#
# _framework density 21.879266000000001
#
# number of rings (size 3 to 8) (size 9 to 14) (size 15 to 20)
#    0.000    1.793    2.759    0.621    3.862    2.483 
#    0.000    0.690    0.000    0.000    0.000    0.000 
#    0.000    0.000    0.000    0.000    0.000    0.000 
#
# Total GULP energy -161706.977539 kJ/mol
# GULP energy per Si atom -5576.102674 kJ/mol
# Density = 2.182947 g / cm^3
# Si number density = 21.879266 Si / 1000 Ang^3
#
#
#
# Elastic Constant Matrix: (Units=GPa)
#
#
# Indices 1 2 3 4 5 6 
#
# 1 112.9826 4.9445 13.4413 -0.0075 29.0476 0.0098
# 2 4.9445 99.5591 2.2086 -0.0322 0.1170 0.0373
# 3 13.4413 2.2086 75.4528 -0.0134 31.8165 0.0229
# 4 -0.0075 -0.0322 -0.0134 8.8284 0.0092 8.4648
# 5 29.0476 0.1170 31.8165 0.0092 39.8728 -0.0146
# 6 0.0098 0.0373 0.0229 8.4648 -0.0146 10.3582
#
#
#
# Elastic Compliance Matrix: (Units=1/GPa)
#
#
# Indices 1 2 3 4 5 6 
#
# 1 0.011155 -0.000591 0.002195 0.000217 -0.009876 -0.000205
# 2 -0.000591 0.010085 -0.000541 0.000308 0.000832 -0.000285
# 3 0.002195 -0.000541 0.020424 0.000541 -0.017895 -0.000512
# 4 0.000217 0.000308 0.000541 0.523348 -0.000868 -0.427688
# 5 -0.009876 0.000832 -0.017895 -0.000868 0.046552 0.000821
# 6 -0.000205 -0.000285 -0.000512 -0.427688 0.000821 0.446056
#
#
# Mechanical properties :
#
#
# Convention : Reuss Voigt Hill
#
# Bulk Modulus (GPa) = 22.83616 36.57593 29.70605
# Shear Modulus (GPa) = 4.67250 29.63854 17.15552
#
# Velocity S-wave (km/s) = 1.46295 3.68454 2.80322
# Velocity P-wave (km/s) = 3.64879 5.90377 4.90755
#
# Compressibility (1/GPa) = 0.04379020
#
# Stress axis : x y z
#
# Youngs Moduli (GPa) = 89.64737 99.15853 48.96116
#
# Poissons Ratio (x) = 0.05860 -0.10746
# Poissons Ratio (y) = 0.05298 0.02647
# Poissons Ratio (z) = -0.19675 0.05361
#
# Static dielectric constant tensor:
#      x y z
#    x 1.801740 -0.000010 -0.003750 
#    y -0.000010 1.866970 0.000010 
#    z -0.003750 0.000010 1.807130 
# 
# From -- ./inp_files/324643.got.cif
#   From: 2010.05.17/outbox.cif.g08.bks.cpg/sg12_163_cif.got.tgz:324643.got - 2010.06.03 13:09:07.
