data_PCOD9198784
_publ_section_title
;
Structure prediction by ZEFSAII (Michael W. Deem and Ramdas Pophale) SiO2 
 PCOD9198784
Probable space group: C 2/M
;
_chemical_formula_sum "Si O2"
_cell_formula_units_Z 64
_cell_length_a 9.333356
_cell_length_b 19.335886
_cell_length_c 19.219479
_cell_angle_alpha 90.000000
_cell_angle_beta 100.432661
_cell_angle_gamma 90.000000
_cell_volume 3411.174467
_symmetry_space_group_name_H-M "C 2/M"
_symmetry_group_IT_number 12
_symmetry_cell_setting 'monoclinic'
loop_
_space_group_symop_operation_xyz
x,y,z
-x,y,-z
-x,-y,-z
x,-y,z
1/2+x,1/2+y,z
1/2-x,1/2+y,-z
1/2-x,1/2-y,-z
1/2+x,1/2-y,z
loop_
_atom_site_type_symbol
_atom_site_label
_atom_site_fract_x
_atom_site_fract_y
_atom_site_fract_z
Si Si1 0.440333 0.175652 0.725694
Si Si2 0.717308 0.918267 0.563097
Si Si3 0.685738 0.080773 0.811836
Si Si4 0.571746 0.711398 0.913665
Si Si5 0.085722 0.082856 0.292950
Si Si6 0.725982 0.663694 0.052826
Si Si7 0.631366 0.697087 0.756239
Si Si8 0.386887 0.917988 0.591033
O O1 0.546601 0.126771 0.779931
O O2 0.540258 0.240661 0.713332
O O3 0.301184 0.202499 0.755407
O O4 0.378837 0.130421 0.656803
O O5 0.829070 0.891779 0.630482
O O6 0.554933 0.913080 0.580314
O O7 0.710453 0.893096 0.482997
O O8 0.747083 0.000000 0.559501
O O9 0.811271 0.096411 0.765387
O O10 0.737496 0.099986 0.894040
O O11 0.651665 0.000000 0.802209
O O12 0.403088 0.703897 0.917521
O O13 0.635840 0.785970 0.939931
O O14 0.602289 0.702301 0.835775
O O15 0.658486 0.656229 0.969976
O O16 0.937139 0.124574 0.273408
O O17 0.065234 0.000000 0.294708
O O18 0.359262 0.000000 0.602639
#
# Coordination Sequence:
#
# PCOD9198784 Si02
#       8
#     8   8   8   8   8   8   8   8
#     4  12  24  37  59  85 116 155 193 244 286 342
#     4   8  15  31  60  88 112 149 192 234 279 346
#     4  11  21  37  60  87 118 151 193 238 289 344
#     4  10  20  36  58  85 113 148 191 238 282 337
#     4  10  20  37  61  87 117 150 191 238 288 345
#     4  10  20  36  59  87 111 147 194 236 287 340
#     4  12  24  39  59  85 118 151 195 239 290 344
#     4   9  17  33  59  89 115 148 194 236 284 342
#
# _framework density 18.761866999999999
#
# number of rings (size 3 to 8) (size 9 to 14) (size 15 to 20)
#    0.000    1.750    3.750    2.625    0.000    1.000 
#    0.000    3.125    0.000    3.000    0.000    0.000 
#    0.000    0.000    0.000    0.000    0.000    0.000 
#
# Total GULP energy -178479.800728 kJ/mol
# GULP energy per Si atom -5577.493773 kJ/mol
# Density = 1.871916 g / cm^3
# Si number density = 18.761867 Si / 1000 Ang^3
#
#
#
# Elastic Constant Matrix: (Units=GPa)
#
#
# Indices 1 2 3 4 5 6 
#
# 1 64.2727 27.1804 -20.7784 0.0000 -0.3575 0.0000
# 2 27.1804 58.4397 14.5496 0.0000 1.4398 0.0000
# 3 -20.7784 14.5496 72.6441 0.0000 -1.4528 0.0000
# 4 0.0000 0.0000 0.0000 26.1739 0.0000 3.3920
# 5 -0.3575 1.4398 -1.4528 0.0000 19.3436 0.0000
# 6 0.0000 0.0000 0.0000 3.3920 0.0000 25.1820
#
#
#
# Elastic Compliance Matrix: (Units=1/GPa)
#
#
# Indices 1 2 3 4 5 6 
#
# 1 0.024704 -0.014014 0.009918 0.000000 0.002245 0.000000
# 2 -0.014014 0.026010 -0.009276 0.000000 -0.002892 0.000000
# 3 0.009918 -0.009276 0.018506 0.000000 0.002264 0.000000
# 4 0.000000 0.000000 0.000000 0.038885 0.000000 -0.005238
# 5 0.002245 -0.002892 0.002264 0.000000 0.052123 0.000000
# 6 0.000000 0.000000 0.000000 -0.005238 0.000000 0.040416
#
#
# Mechanical properties :
#
#
# Convention : Reuss Voigt Hill
#
# Bulk Modulus (GPa) = 23.54311 26.36218 24.95264
# Shear Modulus (GPa) = 20.69981 25.76689 23.23335
#
# Velocity S-wave (km/s) = 3.32519 3.70991 3.52281
# Velocity P-wave (km/s) = 5.22667 5.69497 5.46584
#
# Compressibility (1/GPa) = 0.04247528
#
# Stress axis : x y z
#
# Youngs Moduli (GPa) = 40.47917 38.44612 54.03753
#
# Poissons Ratio (x) = 0.53880 -0.53594
# Poissons Ratio (y) = 0.56729 0.50125
# Poissons Ratio (z) = -0.40147 0.35662
#
# Static dielectric constant tensor:
#      x y z
#    x 1.627320 0.000000 0.008060 
#    y 0.000000 1.641520 0.000000 
#    z 0.008060 0.000000 1.705670 
# 
# From -- ./inp_files/301437.got.cif
#   From: 2010.05.17/outbox.cif.g08.bks.cpg/sg12_151_cif.got.tgz:301437.got - 2010.06.03 13:09:07.
