data_PCOD9198709
_publ_section_title
;
Structure prediction by ZEFSAII (Michael W. Deem and Ramdas Pophale) SiO2 
 PCOD9198709
Probable space group: C 2/M
;
_chemical_formula_sum "Si O2"
_cell_formula_units_Z 64
_cell_length_a 13.732521
_cell_length_b 13.265301
_cell_length_c 17.591831
_cell_angle_alpha 90.000000
_cell_angle_beta 75.733236
_cell_angle_gamma 90.000000
_cell_volume 3105.799313
_symmetry_space_group_name_H-M "C 2/M"
_symmetry_group_IT_number 12
_symmetry_cell_setting 'monoclinic'
loop_
_space_group_symop_operation_xyz
x,y,z
-x,y,-z
-x,-y,-z
x,-y,z
1/2+x,1/2+y,z
1/2-x,1/2+y,-z
1/2-x,1/2-y,-z
1/2+x,1/2-y,z
loop_
_atom_site_type_symbol
_atom_site_label
_atom_site_fract_x
_atom_site_fract_y
_atom_site_fract_z
Si Si1 0.807690 0.610393 0.728192
Si Si2 0.653000 0.175438 0.108539
Si Si3 0.070594 0.886809 0.780852
Si Si4 0.637212 0.257547 0.414790
Si Si5 0.541070 0.618651 0.616150
Si Si6 0.241094 0.616724 0.504732
Si Si7 0.249524 0.117473 0.064823
Si Si8 0.048093 0.717200 0.911824
O O1 0.850727 0.500000 0.701155
O O2 0.825918 0.635951 0.812341
O O3 0.688571 0.604946 0.740864
O O4 0.845244 0.695569 0.664925
O O5 0.667904 0.297426 0.102401
O O6 0.540138 0.148761 0.105906
O O7 0.727246 0.131644 0.029758
O O8 0.026039 0.854526 0.707919
O O9 0.063231 0.807203 0.849819
O O10 0.033951 0.000000 0.807692
O O11 0.535508 0.317677 0.419285
O O12 0.724915 0.336676 0.421314
O O13 0.652155 0.177139 0.480422
O O14 0.517728 0.500000 0.612451
O O15 0.656712 0.629138 0.566069
O O16 0.217857 0.500000 0.514614
O O17 0.350827 0.156651 0.087830
O O18 0.228255 0.000000 0.084870
O O19 0.000000 0.755930 0.000000
#
# Coordination Sequence:
#
# PCOD9198709 Si02
#       8
#     8   8   8   8   8   8   8   8
#     4  11  21  37  60  84 114 156 199 240 289 351
#     4  10  21  37  59  85 112 154 195 241 293 351
#     4  10  20  36  58  83 116 154 197 247 293 342
#     4  11  21  34  62  91 114 150 194 241 283 340
#     4  10  20  38  63  89 117 155 201 240 286 346
#     4  10  21  39  61  90 121 151 192 238 288 347
#     4  10  21  38  58  84 118 152 193 243 294 349
#     4  10  21  37  57  84 117 151 198 245 295 351
#
# _framework density 20.606611000000001
#
# number of rings (size 3 to 8) (size 9 to 14) (size 15 to 20)
#    0.000    1.750    2.500    2.250    0.000    4.500 
#    0.000    1.250    0.000   15.750    0.000    0.000 
#    0.000    0.000    0.000    0.000    0.000    0.000 
#
# Total GULP energy -178609.866354 kJ/mol
# GULP energy per Si atom -5581.558324 kJ/mol
# Density = 2.055971 g / cm^3
# Si number density = 20.606611 Si / 1000 Ang^3
#
#
#
# Elastic Constant Matrix: (Units=GPa)
#
#
# Indices 1 2 3 4 5 6 
#
# 1 57.8457 22.0578 32.1920 0.0000 24.5282 0.0000
# 2 22.0578 120.4021 45.6130 0.0000 12.6561 0.0000
# 3 32.1920 45.6130 107.3775 0.0000 32.5624 0.0000
# 4 0.0000 0.0000 0.0000 17.5802 0.0000 0.9009
# 5 24.5282 12.6561 32.5624 0.0000 31.1324 0.0000
# 6 0.0000 0.0000 0.0000 0.9009 0.0000 21.4182
#
#
#
# Elastic Compliance Matrix: (Units=1/GPa)
#
#
# Indices 1 2 3 4 5 6 
#
# 1 0.026954 -0.002456 -0.001319 0.000000 -0.018859 0.000000
# 2 -0.002456 0.010129 -0.004253 0.000000 0.002266 0.000000
# 3 -0.001319 -0.004253 0.015635 0.000000 -0.013585 0.000000
# 4 0.000000 0.000000 0.000000 0.057005 0.000000 -0.002398
# 5 -0.018859 0.002266 -0.013585 0.000000 0.060266 0.000000
# 6 0.000000 0.000000 0.000000 -0.002398 0.000000 0.046790
#
#
# Mechanical properties :
#
#
# Convention : Reuss Voigt Hill
#
# Bulk Modulus (GPa) = 27.27686 53.92788 40.60237
# Shear Modulus (GPa) = 20.40345 26.41032 23.40689
#
# Velocity S-wave (km/s) = 3.15006 3.58389 3.37396
# Velocity P-wave (km/s) = 5.14745 6.58427 5.90969
#
# Compressibility (1/GPa) = 0.03666111
#
# Stress axis : x y z
#
# Youngs Moduli (GPa) = 37.09959 98.73009 63.96022
#
# Poissons Ratio (x) = 0.24250 0.08434
# Poissons Ratio (y) = 0.09112 0.27205
# Poissons Ratio (z) = 0.04892 0.41995
#
# Static dielectric constant tensor:
#      x y z
#    x 1.743810 0.000000 0.004990 
#    y 0.000000 1.749290 0.000000 
#    z 0.004990 0.000000 1.753950 
# 
# From -- ./inp_files/269282.got.cif
#   From: 2010.05.17/outbox.cif.g08.bks.cpg/sg12_135_cif.got.tgz:269282.got - 2010.06.03 13:09:07.
