data_PCOD9198892
_publ_section_title
;
Structure prediction by ZEFSAII (Michael W. Deem and Ramdas Pophale) SiO2 
 PCOD9198892
Probable space group: C 2/M
;
_chemical_formula_sum "Si O2"
_cell_formula_units_Z 48
_cell_length_a 24.762400
_cell_length_b 9.260774
_cell_length_c 11.112855
_cell_angle_alpha 90.000000
_cell_angle_beta 77.346830
_cell_angle_gamma 90.000000
_cell_volume 2486.498280
_symmetry_space_group_name_H-M "C 2/M"
_symmetry_group_IT_number 12
_symmetry_cell_setting 'monoclinic'
loop_
_space_group_symop_operation_xyz
x,y,z
-x,y,-z
-x,-y,-z
x,-y,z
1/2+x,1/2+y,z
1/2-x,1/2+y,-z
1/2-x,1/2-y,-z
1/2+x,1/2-y,z
loop_
_atom_site_type_symbol
_atom_site_label
_atom_site_fract_x
_atom_site_fract_y
_atom_site_fract_z
Si Si1 0.692741 0.334152 0.512912
Si Si2 0.629226 0.669770 0.312985
Si Si3 0.245239 0.831245 0.126572
Si Si4 0.156130 0.834128 0.798542
Si Si5 0.542844 0.173442 0.869783
Si Si6 0.983718 0.326209 0.646045
O O1 0.706620 0.500000 0.471747
O O2 0.750000 0.250000 0.500000
O O3 0.652950 0.275300 0.428960
O O4 0.659492 0.335870 0.652724
O O5 0.614115 0.500000 0.330802
O O6 0.682360 0.681532 0.201892
O O7 0.576520 0.760031 0.300487
O O8 0.289467 0.753125 0.189708
O O9 0.258754 0.000000 0.111160
O O10 0.250000 0.750000 0.000000
O O11 0.100232 0.755570 0.865338
O O12 0.158533 0.000000 0.841175
O O13 0.520837 0.213297 0.745488
O O14 0.551609 0.000000 0.865685
O O15 0.500000 0.205428 0.000000
O O16 0.981741 0.500000 0.645424
O O17 0.000000 0.280361 0.500000
#
# Coordination Sequence:
#
# PCOD9198892 Si02
#       6
#     8   8   8   8   8   8
#     4  10  20  36  58  88 122 155 195 241 297 361
#     4  10  22  39  61  90 122 157 198 247 305 359
#     4  11  24  41  61  88 124 163 203 249 303 362
#     4  11  23  39  63  93 122 157 202 250 304 365
#     4  10  23  42  62  87 119 161 206 252 309 366
#     4  10  22  40  62  89 120 159 207 253 302 361
#
# _framework density 19.304255999999999
#
# number of rings (size 3 to 8) (size 9 to 14) (size 15 to 20)
#    0.000    1.667    1.667    2.000    2.333    4.000 
#    0.000    0.000    0.000    0.000    0.000    0.000 
#    0.000    0.000    0.000    0.000    0.000    0.000 
#
# Total GULP energy -133955.118458 kJ/mol
# GULP energy per Si atom -5581.463269 kJ/mol
# Density = 1.926032 g / cm^3
# Si number density = 19.304256 Si / 1000 Ang^3
#
#
#
# Elastic Constant Matrix: (Units=GPa)
#
#
# Indices 1 2 3 4 5 6 
#
# 1 70.3303 30.2563 2.0294 0.0000 -13.1582 0.0000
# 2 30.2563 51.4506 22.3170 0.0000 -11.4811 0.0000
# 3 2.0294 22.3170 73.0878 0.0000 -0.0685 0.0000
# 4 0.0000 0.0000 0.0000 24.0455 0.0000 -5.0853
# 5 -13.1582 -11.4811 -0.0685 0.0000 29.5878 0.0000
# 6 0.0000 0.0000 0.0000 -5.0853 0.0000 35.3977
#
#
#
# Elastic Compliance Matrix: (Units=1/GPa)
#
#
# Indices 1 2 3 4 5 6 
#
# 1 0.020226 -0.012348 0.003213 0.000000 0.004211 0.000000
# 2 -0.012348 0.032416 -0.009549 0.000000 0.007065 0.000000
# 3 0.003213 -0.009549 0.016506 0.000000 -0.002238 0.000000
# 4 0.000000 0.000000 0.000000 0.042891 0.000000 0.006162
# 5 0.004211 0.007065 -0.002238 0.000000 0.038407 0.000000
# 6 0.000000 0.000000 0.000000 0.006162 0.000000 0.029136
#
#
# Mechanical properties :
#
#
# Convention : Reuss Voigt Hill
#
# Bulk Modulus (GPa) = 31.46581 33.78600 32.62590
# Shear Modulus (GPa) = 21.97393 27.15727 24.56560
#
# Velocity S-wave (km/s) = 3.37752 3.75480 3.57115
# Velocity P-wave (km/s) = 5.61654 6.02809 5.82595
#
# Compressibility (1/GPa) = 0.03178053
#
# Stress axis : x y z
#
# Youngs Moduli (GPa) = 49.44164 30.84915 60.58230
#
# Poissons Ratio (x) = 0.38093 -0.19464
# Poissons Ratio (y) = 0.61051 0.57847
# Poissons Ratio (z) = -0.15884 0.29456
#
# Static dielectric constant tensor:
#      x y z
#    x 1.683310 0.000000 0.059080 
#    y 0.000000 1.646850 0.000000 
#    z 0.059080 0.000000 1.689080 
# 
# From -- ./inp_files/172084.got.cif
#   From: 2010.05.17/outbox.cif.g08.bks.cpg/sg12_87_cif.got.tgz:172084.got - 2010.06.03 13:09:07.
