data_PCOD9198091
_publ_section_title
;
Structure prediction by ZEFSAII (Michael W. Deem and Ramdas Pophale) SiO2 
 PCOD9198091
Probable space group: C 2/M
;
_chemical_formula_sum "Si O2"
_cell_formula_units_Z 56
_cell_length_a 19.028081
_cell_length_b 24.992318
_cell_length_c 8.699462
_cell_angle_alpha 90.000000
_cell_angle_beta 42.787342
_cell_angle_gamma 90.000000
_cell_volume 2810.232387
_symmetry_space_group_name_H-M "C 2/M"
_symmetry_group_IT_number 12
_symmetry_cell_setting 'monoclinic'
loop_
_space_group_symop_operation_xyz
x,y,z
-x,y,-z
-x,-y,-z
x,-y,z
1/2+x,1/2+y,z
1/2-x,1/2+y,-z
1/2-x,1/2-y,-z
1/2+x,1/2-y,z
loop_
_atom_site_type_symbol
_atom_site_label
_atom_site_fract_x
_atom_site_fract_y
_atom_site_fract_z
Si Si1 0.304339 0.436876 0.950346
Si Si2 0.013447 0.063802 0.794594
Si Si3 0.889522 0.773557 0.145382
Si Si4 0.287480 0.621097 0.653100
Si Si5 0.890344 0.622188 0.634570
Si Si6 0.313278 0.790322 0.999659
Si Si7 0.821480 0.669283 0.437580
O O1 0.308699 0.500000 0.937816
O O2 0.411270 0.419627 0.861469
O O3 0.283885 0.415397 0.811136
O O4 0.206985 0.417030 0.204014
O O5 0.106891 0.102115 0.594263
O O6 0.034535 0.000000 0.725635
O O7 0.000000 0.066695 0.000000
O O8 0.888661 0.745209 0.981473
O O9 0.870735 0.723167 0.289056
O O10 0.792229 0.812843 0.318746
O O11 0.000000 0.799286 0.000000
O O12 0.269050 0.679939 0.755661
O O13 0.200050 0.624666 0.659858
O O14 0.888896 0.648368 0.469407
O O15 0.000000 0.596790 0.500000
O O16 0.867850 0.666938 0.801620
O O17 0.250000 0.750000 0.000000
#
# Coordination Sequence:
#
# PCOD9198091 Si02
#       7
#     8   8   8   8   8   8   8
#     4  10  22  40  60  85 119 153 192 244 296 354
#     4  10  20  37  62  91 122 154 189 239 305 363
#     4  10  20  36  56  78 114 155 190 236 286 337
#     4  10  21  36  59  84 119 156 191 235 292 354
#     4  11  22  38  62  85 113 153 199 248 291 347
#     4  10  20  39  56  81 119 158 196 237 286 343
#     4  10  21  36  55  83 114 147 194 239 285 337
#
# _framework density 19.927177
#
# number of rings (size 3 to 8) (size 9 to 14) (size 15 to 20)
#    0.000    1.857    1.429    2.571    0.000    3.143 
#    2.571    0.714    0.000    0.857    0.000    0.000 
#    0.000    0.000    0.000    0.000    0.000    0.000 
#
# Total GULP energy -156193.985104 kJ/mol
# GULP energy per Si atom -5578.356611 kJ/mol
# Density = 1.988182 g / cm^3
# Si number density = 19.927177 Si / 1000 Ang^3
#
#
#
# Elastic Constant Matrix: (Units=GPa)
#
#
# Indices 1 2 3 4 5 6 
#
# 1 109.4505 21.8062 22.1175 0.0000 4.3507 0.0000
# 2 21.8062 26.7669 0.7996 0.0000 0.6766 0.0000
# 3 22.1175 0.7996 30.8736 0.0000 0.6107 0.0000
# 4 0.0000 0.0000 0.0000 14.1068 0.0000 1.8149
# 5 4.3507 0.6766 0.6107 0.0000 35.5982 0.0000
# 6 0.0000 0.0000 0.0000 1.8149 0.0000 30.9105
#
#
#
# Elastic Compliance Matrix: (Units=1/GPa)
#
#
# Indices 1 2 3 4 5 6 
#
# 1 0.013085 -0.010357 -0.009081 0.000000 -0.001247 0.000000
# 2 -0.010357 0.045603 0.006233 0.000000 0.000292 0.000000
# 3 -0.009081 0.006233 0.038728 0.000000 0.000327 0.000000
# 4 0.000000 0.000000 0.000000 0.071427 0.000000 -0.004194
# 5 -0.001247 0.000292 0.000327 0.000000 0.028232 0.000000
# 6 0.000000 0.000000 0.000000 -0.004194 0.000000 0.032598
#
#
# Mechanical properties :
#
#
# Convention : Reuss Voigt Hill
#
# Bulk Modulus (GPa) = 14.08340 28.50418 21.29379
# Shear Modulus (GPa) = 17.87301 24.28094 21.07698
#
# Velocity S-wave (km/s) = 2.99811 3.49447 3.25576
# Velocity P-wave (km/s) = 4.36665 5.53326 4.98420
#
# Compressibility (1/GPa) = 0.07100559
#
# Stress axis : x y z
#
# Youngs Moduli (GPa) = 76.42623 21.92822 25.82144
#
# Poissons Ratio (x) = 0.22711 0.23448
# Poissons Ratio (y) = 0.79153 -0.16093
# Poissons Ratio (z) = 0.69400 -0.13667
#
# Static dielectric constant tensor:
#      x y z
#    x 2.615630 0.000000 0.415520 
#    y 0.000000 1.694410 0.000000 
#    z 0.415520 0.000000 1.900530 
# 
# From -- ./inp_files/80018.got.cif
#   From: 2010.05.17/outbox.cif.g08.bks.cpg/sg12_41_cif.got.tgz:80018.got - 2010.06.03 13:09:07.
