data_PCOD9198708
_publ_section_title
;
Structure prediction by ZEFSAII (Michael W. Deem and Ramdas Pophale) SiO2 
 PCOD9198708
Probable space group: C 2/M
;
_chemical_formula_sum "Si O2"
_cell_formula_units_Z 56
_cell_length_a 13.947164
_cell_length_b 13.079414
_cell_length_c 18.226024
_cell_angle_alpha 90.000000
_cell_angle_beta 124.147014
_cell_angle_gamma 90.000000
_cell_volume 2751.608401
_symmetry_space_group_name_H-M "C 2/M"
_symmetry_group_IT_number 12
_symmetry_cell_setting 'monoclinic'
loop_
_space_group_symop_operation_xyz
x,y,z
-x,y,-z
-x,-y,-z
x,-y,z
1/2+x,1/2+y,z
1/2-x,1/2+y,-z
1/2-x,1/2-y,-z
1/2+x,1/2-y,z
loop_
_atom_site_type_symbol
_atom_site_label
_atom_site_fract_x
_atom_site_fract_y
_atom_site_fract_z
Si Si1 0.713647 0.884401 0.426519
Si Si2 0.417016 0.768537 0.030827
Si Si3 0.095214 0.828664 0.374380
Si Si4 0.826763 0.613691 0.269397
Si Si5 0.290196 0.117447 0.094606
Si Si6 0.903752 0.198324 0.398059
Si Si7 0.938956 0.113649 0.808988
O O1 0.794637 0.873822 0.534031
O O2 0.619148 0.794036 0.388157
O O3 0.800278 0.859535 0.395386
O O4 0.669401 0.000000 0.402218
O O5 0.365981 0.861851 0.055175
O O6 0.483834 0.697029 0.117750
O O7 0.500000 0.797971 0.000000
O O8 0.313132 0.698901 0.954774
O O9 0.083771 0.862881 0.286160
O O10 0.978836 0.858785 0.368180
O O11 0.866515 0.500000 0.307596
O O12 0.861308 0.636271 0.200317
O O13 0.859748 0.699407 0.341063
O O14 0.687058 0.612591 0.207955
O O15 0.249939 0.000000 0.080088
O O16 0.000000 0.223784 0.500000
O O17 0.990548 0.000000 0.838501
#
# Coordination Sequence:
#
# PCOD9198708 Si02
#       7
#     8   8   8   8   8   8   8
#     4  10  21  38  58  82 114 152 195 240 289 342
#     4  11  22  38  63  90 116 149 191 239 286 345
#     4  10  21  37  57  82 114 152 193 240 288 340
#     4  10  20  36  58  83 116 153 190 236 287 341
#     4  10  22  40  62  88 119 153 190 235 290 346
#     4  10  21  37  57  82 115 152 194 241 286 339
#     4  11  21  35  60  86 114 153 194 236 284 342
#
# _framework density 20.351734
#
# number of rings (size 3 to 8) (size 9 to 14) (size 15 to 20)
#    0.000    1.714    2.857    1.714    0.000    4.857 
#    0.000    0.714    0.000    0.857    0.000    0.000 
#    0.000    0.000    0.000    0.000    0.000    0.000 
#
# Total GULP energy -156381.706833 kJ/mol
# GULP energy per Si atom -5585.060958 kJ/mol
# Density = 2.030541 g / cm^3
# Si number density = 20.351734 Si / 1000 Ang^3
#
#
#
# Elastic Constant Matrix: (Units=GPa)
#
#
# Indices 1 2 3 4 5 6 
#
# 1 65.8892 -4.5400 12.7084 0.0000 -20.0164 0.0000
# 2 -4.5400 70.8809 8.3475 0.0000 -6.2170 0.0000
# 3 12.7084 8.3475 49.1611 0.0000 -28.1485 0.0000
# 4 0.0000 0.0000 0.0000 19.4756 0.0000 -13.1943
# 5 -20.0164 -6.2170 -28.1485 0.0000 33.0217 0.0000
# 6 0.0000 0.0000 0.0000 -13.1943 0.0000 1.4373
#
#
#
# Elastic Compliance Matrix: (Units=1/GPa)
#
#
# Indices 1 2 3 4 5 6 
#
# 1 0.019183 0.002153 0.003058 0.000000 0.014640 0.000000
# 2 0.002153 0.014663 -0.001403 0.000000 0.002869 0.000000
# 3 0.003058 -0.001403 0.040434 0.000000 0.036057 0.000000
# 4 0.000000 0.000000 0.000000 -0.009838 0.000000 -0.090311
# 5 0.014640 0.002869 0.036057 0.000000 0.070433 0.000000
# 6 0.000000 0.000000 0.000000 -0.090311 0.000000 -0.133304
#
#
# Mechanical properties :
#
#
# Convention : Reuss Voigt Hill
#
# Bulk Modulus (GPa) = 12.21082 24.32923 18.27002
# Shear Modulus (GPa) = 235.24163 22.08127 128.66145
#
# Velocity S-wave (km/s) = 10.76285 3.29748 7.95966
# Velocity P-wave (km/s) = 12.66747 5.14569 9.66807
#
# Compressibility (1/GPa) = 0.08189461
#
# Stress axis : x y z
#
# Youngs Moduli (GPa) = 52.12966 68.19894 24.73155
#
# Poissons Ratio (x) = -0.14681 -0.07563
# Poissons Ratio (y) = -0.11222 0.03471
# Poissons Ratio (z) = -0.15942 0.09571
#
# Static dielectric constant tensor:
#      x y z
#    x 1.775050 0.000000 -0.016090 
#    y 0.000000 1.698370 0.000000 
#    z -0.016090 0.000000 1.702290 
# 
# From -- ./inp_files/269177.got.cif
#   From: 2010.05.17/outbox.cif.g08.bks.cpg/sg12_135_cif.got.tgz:269177.got - 2010.06.03 13:09:07.
