data_PCOD9198032
_publ_section_title
;
Structure prediction by ZEFSAII (Michael W. Deem and Ramdas Pophale) SiO2 
 PCOD9198032
Probable space group: C 2/M
;
_chemical_formula_sum "Si O2"
_cell_formula_units_Z 56
_cell_length_a 14.593566
_cell_length_b 27.074180
_cell_length_c 14.411067
_cell_angle_alpha 90.000000
_cell_angle_beta 29.032712
_cell_angle_gamma 90.000000
_cell_volume 2763.319632
_symmetry_space_group_name_H-M "C 2/M"
_symmetry_group_IT_number 12
_symmetry_cell_setting 'monoclinic'
loop_
_space_group_symop_operation_xyz
x,y,z
-x,y,-z
-x,-y,-z
x,-y,z
1/2+x,1/2+y,z
1/2-x,1/2+y,-z
1/2-x,1/2-y,-z
1/2+x,1/2-y,z
loop_
_atom_site_type_symbol
_atom_site_label
_atom_site_fract_x
_atom_site_fract_y
_atom_site_fract_z
Si Si1 0.304485 0.310505 0.224111
Si Si2 0.762810 0.136779 0.455844
Si Si3 0.888072 0.683222 0.797686
Si Si4 0.724078 0.298792 0.283784
Si Si5 0.586248 0.295074 0.208597
Si Si6 0.294727 0.909388 0.214338
Si Si7 0.048308 0.942972 0.601781
O O1 0.273085 0.344516 0.340787
O O2 0.151432 0.316006 0.277490
O O3 0.304045 0.252327 0.252272
O O4 0.500000 0.321709 0.000000
O O5 0.546524 0.142987 0.678019
O O6 0.856846 0.084648 0.395623
O O7 0.895833 0.175079 0.394072
O O8 0.961163 0.737626 0.761448
O O9 0.693511 0.680451 0.026818
O O10 0.500000 0.299335 0.500000
O O11 0.732713 0.295735 0.163988
O O12 0.807536 0.351917 0.233500
O O13 0.200098 0.938062 0.383649
O O14 0.139956 0.915323 0.269005
O O15 0.500000 0.926387 0.000000
O O16 0.004540 0.000000 0.657016
#
# Coordination Sequence:
#
# PCOD9198032 Si02
#       7
#     8   8   8   8   8   8   8
#     4  11  22  38  58  91 133 170 207 252 299 374
#     4  12  22  39  64  84 121 169 206 259 314 363
#     4  10  22  36  57  90 125 166 206 244 303 370
#     4  11  20  37  57  94 135 167 202 238 299 379
#     4  10  20  36  55  89 127 161 203 247 290 372
#     4  11  22  41  69  93 128 164 197 251 324 384
#     4  11  26  45  63  93 122 157 219 273 316 368
#
# _framework density 20.26548
#
# number of rings (size 3 to 8) (size 9 to 14) (size 15 to 20)
#    0.000    1.143    4.286    3.857    2.000    2.286 
#    0.000    0.000    0.000    2.143    0.000    0.000 
#    0.000    0.000    0.000    0.000    0.000    0.000 
#
# Total GULP energy -156498.275221 kJ/mol
# GULP energy per Si atom -5589.224115 kJ/mol
# Density = 2.021935 g / cm^3
# Si number density = 20.265480 Si / 1000 Ang^3
#
#
#
# Elastic Constant Matrix: (Units=GPa)
#
#
# Indices 1 2 3 4 5 6 
#
# 1 107.1595 35.6113 29.6996 0.0098 6.1942 -0.0092
# 2 35.6113 73.4516 12.6286 0.0098 0.0406 -0.0130
# 3 29.6996 12.6286 93.0018 0.0184 -9.9044 -0.0293
# 4 0.0098 0.0098 0.0184 2.5423 -0.0054 1.2064
# 5 6.1942 0.0406 -9.9044 -0.0054 26.8636 0.0045
# 6 -0.0092 -0.0130 -0.0293 1.2064 0.0045 21.0326
#
#
#
# Elastic Compliance Matrix: (Units=1/GPa)
#
#
# Indices 1 2 3 4 5 6 
#
# 1 0.012375 -0.005366 -0.003670 -0.000008 -0.004199 -0.000002
# 2 -0.005366 0.016281 -0.000383 -0.000042 0.001072 0.000009
# 3 -0.003670 -0.000383 0.012560 -0.000072 0.005478 0.000019
# 4 -0.000008 -0.000042 -0.000072 0.404346 0.000061 -0.023192
# 5 -0.004199 0.001072 0.005478 0.000061 0.040211 -0.000006
# 6 -0.000002 0.000009 0.000019 -0.023192 -0.000006 0.048876
#
#
# Mechanical properties :
#
#
# Convention : Reuss Voigt Hill
#
# Bulk Modulus (GPa) = 44.68865 47.72131 46.20498
# Shear Modulus (GPa) = 8.91348 23.13260 16.02304
#
# Velocity S-wave (km/s) = 2.09950 3.38224 2.81491
# Velocity P-wave (km/s) = 5.28930 6.23313 5.78051
#
# Compressibility (1/GPa) = 0.02237705
#
# Stress axis : x y z
#
# Youngs Moduli (GPa) = 80.80655 61.41950 79.61801
#
# Poissons Ratio (x) = 0.32961 0.29223
# Poissons Ratio (y) = 0.43365 0.03049
# Poissons Ratio (z) = 0.29659 0.02352
#
# Static dielectric constant tensor:
#      x y z
#    x 1.790450 0.000000 0.025490 
#    y 0.000000 1.693870 0.000000 
#    z 0.025490 0.000000 1.756030 
# 
# From -- ./inp_files/219052.got.cif
#   From: 2010.05.17/outbox.cif.g08.bks.cpg/sg12_110_cif.got.tgz:219052.got - 2010.06.03 13:09:07.
