data_PCOD9198971
_publ_section_title
;
Structure prediction by ZEFSAII (Michael W. Deem and Ramdas Pophale) SiO2 
 PCOD9198971
Probable space group: C 2/M
;
_chemical_formula_sum "Si O2"
_cell_formula_units_Z 48
_cell_length_a 26.760509
_cell_length_b 7.542687
_cell_length_c 15.002006
_cell_angle_alpha 90.000000
_cell_angle_beta 39.437928
_cell_angle_gamma 90.000000
_cell_volume 1923.574124
_symmetry_space_group_name_H-M "C 2/M"
_symmetry_group_IT_number 12
_symmetry_cell_setting 'monoclinic'
loop_
_space_group_symop_operation_xyz
x,y,z
-x,y,-z
-x,-y,-z
x,-y,z
1/2+x,1/2+y,z
1/2-x,1/2+y,-z
1/2-x,1/2-y,-z
1/2+x,1/2-y,z
loop_
_atom_site_type_symbol
_atom_site_label
_atom_site_fract_x
_atom_site_fract_y
_atom_site_fract_z
Si Si1 0.922901 0.286945 0.812749
Si Si2 0.584038 0.282590 0.848375
Si Si3 0.908212 0.208839 0.504348
Si Si4 0.668870 0.711830 0.562304
Si Si5 0.822680 0.703370 0.790303
Si Si6 0.325370 0.706398 0.110175
O O1 0.920356 0.500000 0.818696
O O2 0.856345 0.218990 0.835021
O O3 0.006887 0.234302 0.657119
O O4 0.900397 0.218132 0.941176
O O5 0.585137 0.500000 0.847391
O O6 0.603050 0.223636 0.722561
O O7 0.650027 0.220032 0.827885
O O8 0.500000 0.225730 0.000000
O O9 0.846027 0.279882 0.516460
O O10 0.892458 0.295074 0.621193
O O11 0.896805 0.000000 0.534832
O O12 0.661222 0.500000 0.565675
O O13 0.750000 0.750000 0.500000
O O14 0.801731 0.500000 0.839721
O O15 0.747947 0.786895 0.842839
O O16 0.306359 0.500000 0.151027
#
# Coordination Sequence:
#
# PCOD9198971 Si02
#       6
#     8   8   8   8   8   8
#     4  11  23  38  57  82 114 150 189 236 287 338
#     4   9  17  32  55  80 107 141 180 221 268 327
#     4  11  23  38  59  86 114 148 191 235 279 333
#     4  10  21  37  58  84 113 146 184 226 275 333
#     4  10  22  39  58  82 113 151 191 232 286 344
#     4  10  20  36  59  83 110 147 188 231 281 338
#
# _framework density 24.953548000000001
#
# number of rings (size 3 to 8) (size 9 to 14) (size 15 to 20)
#    0.000    1.833    0.000    4.000    0.000    9.333 
#    0.000    0.833    0.000    2.000    0.000    0.000 
#    0.000    0.000    0.000    0.000    0.000    0.000 
#
# Total GULP energy -134295.487271 kJ/mol
# GULP energy per Si atom -5595.645303 kJ/mol
# Density = 2.489675 g / cm^3
# Si number density = 24.953548 Si / 1000 Ang^3
#
#
#
# Elastic Constant Matrix: (Units=GPa)
#
#
# Indices 1 2 3 4 5 6 
#
# 1 87.7304 4.2171 -14.4049 0.0032 10.6292 -0.0010
# 2 4.2171 80.1192 -5.4476 0.0042 1.8979 -0.0057
# 3 -14.4049 -5.4476 73.9344 0.0101 5.8367 -0.0063
# 4 0.0032 0.0042 0.0101 18.2281 -0.0028 -2.5161
# 5 10.6292 1.8979 5.8367 -0.0028 49.2836 0.0014
# 6 -0.0010 -0.0057 -0.0063 -2.5161 0.0014 5.6332
#
#
#
# Elastic Compliance Matrix: (Units=1/GPa)
#
#
# Indices 1 2 3 4 5 6 
#
# 1 0.012195 -0.000397 0.002577 -0.000003 -0.002920 0.000004
# 2 -0.000397 0.012575 0.000889 -0.000002 -0.000504 0.000013
# 3 0.002577 0.000889 0.014273 -0.000007 -0.002280 0.000015
# 4 -0.000003 -0.000002 -0.000007 0.058465 0.000004 0.026113
# 5 -0.002920 -0.000504 -0.002280 0.000004 0.021210 -0.000007
# 6 0.000004 0.000013 0.000015 0.026113 -0.000007 0.189184
#
#
# Mechanical properties :
#
#
# Convention : Reuss Voigt Hill
#
# Bulk Modulus (GPa) = 22.13391 23.39034 22.76213
# Shear Modulus (GPa) = 15.78165 31.79026 23.78596
#
# Velocity S-wave (km/s) = 2.51757 3.57315 3.09076
# Velocity P-wave (km/s) = 4.16415 5.13976 4.67746
#
# Compressibility (1/GPa) = 0.04517954
#
# Stress axis : x y z
#
# Youngs Moduli (GPa) = 82.00354 79.52474 70.06164
#
# Poissons Ratio (x) = 0.03161 -0.18056
# Poissons Ratio (y) = 0.03259 -0.06228
# Poissons Ratio (z) = -0.21134 -0.07069
#
# Static dielectric constant tensor:
#      x y z
#    x 2.037170 0.000000 -0.021770 
#    y 0.000000 1.932990 0.000000 
#    z -0.021770 0.000000 1.970270 
# 
# From -- ./inp_files/244633.got.cif
#   From: 2010.05.17/outbox.cif.g08.bks.cpg/sg12_123_cif.got.tgz:244633.got - 2010.06.03 13:09:07.
