data_PCOD9198041
_publ_section_title
;
Structure prediction by ZEFSAII (Michael W. Deem and Ramdas Pophale) SiO2 
 PCOD9198041
Probable space group: C 2/M
;
_chemical_formula_sum "Si O2"
_cell_formula_units_Z 48
_cell_length_a 14.391171
_cell_length_b 9.230539
_cell_length_c 28.650553
_cell_angle_alpha 90.000000
_cell_angle_beta 42.535238
_cell_angle_gamma 90.000000
_cell_volume 2572.947106
_symmetry_space_group_name_H-M "C 2/M"
_symmetry_group_IT_number 12
_symmetry_cell_setting 'monoclinic'
loop_
_space_group_symop_operation_xyz
x,y,z
-x,y,-z
-x,-y,-z
x,-y,z
1/2+x,1/2+y,z
1/2-x,1/2+y,-z
1/2-x,1/2-y,-z
1/2+x,1/2-y,z
loop_
_atom_site_type_symbol
_atom_site_label
_atom_site_fract_x
_atom_site_fract_y
_atom_site_fract_z
Si Si1 0.460812 0.670181 0.621708
Si Si2 0.698678 0.828492 0.652741
Si Si3 0.074505 0.172591 0.255633
Si Si4 0.632962 0.834751 0.485297
Si Si5 0.669378 0.673804 0.886021
Si Si6 0.644385 0.326912 0.005044
O O1 0.494271 0.500000 0.603751
O O2 0.318154 0.694954 0.646725
O O3 0.438482 0.701576 0.684148
O O4 0.577787 0.763345 0.552994
O O5 0.558389 0.748466 0.717733
O O6 0.756079 0.759114 0.583621
O O7 0.677155 0.000000 0.655445
O O8 0.212986 0.241092 0.184368
O O9 0.071539 0.000000 0.249680
O O10 0.500000 0.837195 0.500000
O O11 0.679980 0.000000 0.474310
O O12 0.685734 0.500000 0.874019
O O13 0.514920 0.713503 0.927273
O O14 0.676018 0.704585 0.939016
O O15 0.654087 0.500000 0.007111
O O16 0.750000 0.250000 0.000000
#
# Coordination Sequence:
#
# PCOD9198041 Si02
#       6
#     8   8   8   8   8   8
#     4   9  20  37  54  74 104 142 182 223 272 326
#     4  10  20  36  56  76 104 144 183 222 274 329
#     4  11  23  37  54  80 111 142 180 225 267 313
#     4   9  17  31  53  79 104 133 178 233 276 315
#     4   9  20  39  57  79 114 148 176 212 262 320
#     4   9  19  37  62  87 111 142 179 216 258 312
#
# _framework density 18.655649
#
# number of rings (size 3 to 8) (size 9 to 14) (size 15 to 20)
#    0.000    2.500    0.000    2.500    0.000    7.333 
#    0.000    6.667    0.000    0.000    0.000    0.000 
#    0.000    0.000    0.000    0.000    0.000    0.000 
#
# Total GULP energy -134045.686789 kJ/mol
# GULP energy per Si atom -5585.236950 kJ/mol
# Density = 1.861319 g / cm^3
# Si number density = 18.655649 Si / 1000 Ang^3
#
#
#
# Elastic Constant Matrix: (Units=GPa)
#
#
# Indices 1 2 3 4 5 6 
#
# 1 106.1950 44.6402 44.2072 0.0000 -18.6137 0.0001
# 2 44.6402 65.5913 52.8774 0.0000 -12.5182 0.0002
# 3 44.2072 52.8774 98.9698 0.0000 -27.9758 -0.0001
# 4 0.0000 0.0000 0.0000 39.1983 0.0000 -1.6030
# 5 -18.6137 -12.5182 -27.9758 0.0000 18.4030 0.0000
# 6 0.0001 0.0002 -0.0001 -1.6030 0.0000 27.2195
#
#
#
# Elastic Compliance Matrix: (Units=1/GPa)
#
#
# Indices 1 2 3 4 5 6 
#
# 1 0.014452 -0.008817 0.001213 0.000000 0.010464 0.000000
# 2 -0.008817 0.032569 -0.017046 0.000000 -0.012676 0.000000
# 3 0.001213 -0.017046 0.027598 0.000000 0.031585 0.000000
# 4 0.000000 0.000000 0.000000 0.025573 0.000000 0.001506
# 5 0.010464 -0.012676 0.031585 0.000000 0.104316 0.000000
# 6 0.000000 0.000000 0.000000 0.001506 0.000000 0.036827
#
#
# Mechanical properties :
#
#
# Convention : Reuss Voigt Hill
#
# Bulk Modulus (GPa) = 39.49451 61.57842 50.53647
# Shear Modulus (GPa) = 16.71836 25.56625 21.14230
#
# Velocity S-wave (km/s) = 2.99683 3.70595 3.37009
# Velocity P-wave (km/s) = 5.76115 7.16880 6.50317
#
# Compressibility (1/GPa) = 0.02531998
#
# Stress axis : x y z
#
# Youngs Moduli (GPa) = 69.19483 30.70430 36.23511
#
# Poissons Ratio (x) = 0.27071 -0.04396
# Poissons Ratio (y) = 0.61006 0.61765
# Poissons Ratio (z) = -0.08394 0.52338
#
# Static dielectric constant tensor:
#      x y z
#    x 1.670580 0.000000 -0.009610 
#    y 0.000000 1.620850 0.000000 
#    z -0.009610 0.000000 1.610470 
# 
# From -- ./inp_files/308585.got.cif
#   From: 2010.05.17/outbox.cif.g08.bks.cpg/sg12_155_cif.got.tgz:308585.got - 2010.06.03 13:09:07.
