data_PCOD9198212
_publ_section_title
;
Structure prediction by ZEFSAII (Michael W. Deem and Ramdas Pophale) SiO2 
 PCOD9198212
Probable space group: C 2/M
;
_chemical_formula_sum "Si O2"
_cell_formula_units_Z 56
_cell_length_a 15.082841
_cell_length_b 27.935968
_cell_length_c 9.654255
_cell_angle_alpha 90.000000
_cell_angle_beta 46.949288
_cell_angle_gamma 90.000000
_cell_volume 2972.585390
_symmetry_space_group_name_H-M "C 2/M"
_symmetry_group_IT_number 12
_symmetry_cell_setting 'monoclinic'
loop_
_space_group_symop_operation_xyz
x,y,z
-x,y,-z
-x,-y,-z
x,-y,z
1/2+x,1/2+y,z
1/2-x,1/2+y,-z
1/2-x,1/2-y,-z
1/2+x,1/2-y,z
loop_
_atom_site_type_symbol
_atom_site_label
_atom_site_fract_x
_atom_site_fract_y
_atom_site_fract_z
Si Si1 0.753249 0.554661 0.108834
Si Si2 0.134572 0.238408 0.361703
Si Si3 0.514801 0.056328 0.326885
Si Si4 0.386642 0.894449 0.209134
Si Si5 0.862302 0.804220 0.113696
Si Si6 0.174609 0.831566 0.540843
Si Si7 0.410381 0.644298 0.778732
O O1 0.708681 0.500000 0.157090
O O2 0.826128 0.566129 0.172747
O O3 0.654936 0.596130 0.196767
O O4 0.849571 0.560087 0.880053
O O5 0.254046 0.267535 0.192947
O O6 0.152942 0.220808 0.499625
O O7 0.123814 0.190148 0.280181
O O8 0.000000 0.262100 0.500000
O O9 0.500000 0.073945 0.500000
O O10 0.432022 0.083194 0.304000
O O11 0.482874 0.000000 0.360109
O O12 0.291588 0.853751 0.346467
O O13 0.500000 0.875204 0.000000
O O14 0.820363 0.829374 0.299972
O O15 0.876358 0.840221 0.970855
O O16 0.000000 0.784947 0.000000
O O17 0.055332 0.860971 0.623385
#
# Coordination Sequence:
#
# PCOD9198212 Si02
#       7
#     8   8   8   8   8   8   8
#     4  10  20  37  60  85 116 155 201 242 288 352
#     4  10  20  39  60  85 119 157 196 246 296 354
#     4   9  19  35  56  82 117 153 189 243 298 341
#     4  10  20  36  56  85 114 154 194 243 289 348
#     4  10  22  39  60  86 120 161 196 239 303 365
#     4  10  21  38  59  82 122 153 186 243 301 348
#     4  10  21  39  60  84 121 158 190 243 301 344
#
# _framework density 18.838819999999998
#
# number of rings (size 3 to 8) (size 9 to 14) (size 15 to 20)
#    0.000    2.143    1.429    1.286    2.000    2.286 
#    5.143    2.143    0.000    3.857    0.000    0.000 
#    0.000    0.000    0.000    0.000    0.000    0.000 
#
# Total GULP energy -156168.889113 kJ/mol
# GULP energy per Si atom -5577.460325 kJ/mol
# Density = 1.879594 g / cm^3
# Si number density = 18.838820 Si / 1000 Ang^3
#
#
#
# Elastic Constant Matrix: (Units=GPa)
#
#
# Indices 1 2 3 4 5 6 
#
# 1 110.5696 50.0408 62.0541 0.0000 -6.0526 0.0000
# 2 50.0408 53.4399 35.7440 0.0000 -23.1391 0.0000
# 3 62.0541 35.7440 114.0662 0.0000 6.8448 0.0000
# 4 0.0000 0.0000 0.0000 18.8034 0.0000 2.6221
# 5 -6.0526 -23.1391 6.8448 0.0000 43.1719 0.0000
# 6 0.0000 0.0000 0.0000 2.6221 0.0000 8.8148
#
#
#
# Elastic Compliance Matrix: (Units=1/GPa)
#
#
# Indices 1 2 3 4 5 6 
#
# 1 0.019227 -0.017484 -0.004624 0.000000 -0.005942 0.000000
# 2 -0.017484 0.052543 -0.008578 0.000000 0.027071 0.000000
# 3 -0.004624 -0.008578 0.014423 0.000000 -0.007533 0.000000
# 4 0.000000 0.000000 0.000000 0.055484 0.000000 -0.016504
# 5 -0.005942 0.027071 -0.007533 0.000000 0.038034 0.000000
# 6 0.000000 0.000000 0.000000 -0.016504 0.000000 0.118355
#
#
# Mechanical properties :
#
#
# Convention : Reuss Voigt Hill
#
# Bulk Modulus (GPa) = 40.28950 63.75038 52.01994
# Shear Modulus (GPa) = 13.59769 22.84048 18.21908
#
# Velocity S-wave (km/s) = 2.68953 3.48575 3.11320
# Velocity P-wave (km/s) = 5.57473 7.07912 6.37148
#
# Compressibility (1/GPa) = 0.02482036
#
# Stress axis : x y z
#
# Youngs Moduli (GPa) = 52.01088 19.03202 69.33532
#
# Poissons Ratio (x) = 0.33275 0.32064
# Poissons Ratio (y) = 0.90933 0.59476
# Poissons Ratio (z) = 0.24052 0.16326
#
# Static dielectric constant tensor:
#      x y z
#    x 1.689220 0.000000 -0.005460 
#    y 0.000000 1.629170 0.000000 
#    z -0.005460 0.000000 1.671720 
# 
# From -- ./inp_files/68150.got.cif
#   From: 2010.05.17/outbox.cif.g08.bks.cpg/sg12_35_cif.got.tgz:68150.got - 2010.06.03 13:09:07.
