data_PCOD9198186
_publ_section_title
;
Structure prediction by ZEFSAII (Michael W. Deem and Ramdas Pophale) SiO2 
 PCOD9198186
Probable space group: C 2/M
;
_chemical_formula_sum "Si O2"
_cell_formula_units_Z 58
_cell_length_a 20.185918
_cell_length_b 9.331308
_cell_length_c 23.944222
_cell_angle_alpha 90.000000
_cell_angle_beta 137.229038
_cell_angle_gamma 90.000000
_cell_volume 3062.710113
_symmetry_space_group_name_H-M "C 2/M"
_symmetry_group_IT_number 12
_symmetry_cell_setting 'monoclinic'
loop_
_space_group_symop_operation_xyz
x,y,z
-x,y,-z
-x,-y,-z
x,-y,z
1/2+x,1/2+y,z
1/2-x,1/2+y,-z
1/2-x,1/2-y,-z
1/2+x,1/2-y,z
loop_
_atom_site_type_symbol
_atom_site_label
_atom_site_fract_x
_atom_site_fract_y
_atom_site_fract_z
Si Si1 0.725268 0.835724 0.090744
Si Si2 0.605723 0.337116 0.534445
Si Si3 0.439881 0.834138 0.094861
Si Si4 0.000000 0.000000 0.000000
Si Si5 0.986372 0.827954 0.355710
Si Si6 0.426720 0.173025 0.212435
Si Si7 0.683681 0.831471 0.680605
Si Si8 0.621857 0.750391 0.135839
O O1 0.816557 0.730387 0.153011
O O2 0.668369 0.839953 0.114124
O O3 0.756111 0.000000 0.096564
O O4 0.650361 0.775310 0.997528
O O5 0.500000 0.337156 0.500000
O O6 0.643908 0.500000 0.562051
O O7 0.578303 0.302812 0.453666
O O8 0.670784 0.228386 0.609861
O O9 0.451933 0.778363 0.164970
O O10 0.538874 0.823987 0.121463
O O11 0.414130 0.000000 0.085884
O O12 0.067045 0.877654 0.071462
O O13 0.991233 0.751360 0.299100
O O14 0.893156 0.757357 0.329127
O O15 0.972710 0.000000 0.342635
O O16 0.432133 0.000000 0.221406
O O17 0.790347 0.802034 0.770740
O O18 0.660806 0.000000 0.669250
#
# Coordination Sequence:
#
# PCOD9198186 Si02
#       8
#     8   8   8   2   8   8   8   8
#     4  11  22  38  60  84 109 151 197 243 287 344
#     4   8  17  33  53  79 115 149 183 231 289 346
#     4  10  23  41  56  80 111 153 197 240 289 341
#     4  12  24  40  54  88 118 164 190 242 306 324
#     4  10  20  36  56  83 116 152 189 231 288 350
#     4  11  23  37  58  84 117 150 190 240 291 345
#     4  11  21  32  54  88 116 145 190 239 288 337
#     4  12  23  38  59  82 117 154 197 240 284 343
#
# _framework density 18.937477000000001
#
# number of rings (size 3 to 8) (size 9 to 14) (size 15 to 20)
#    0.000    1.517    3.448    2.897    0.966    5.793 
#    2.483    0.000    0.000    0.828    0.000    0.000 
#    0.000    0.000    0.000    0.000    0.000    0.000 
#
# Total GULP energy -161500.042041 kJ/mol
# GULP energy per Si atom -5568.966967 kJ/mol
# Density = 1.889437 g / cm^3
# Si number density = 18.937477 Si / 1000 Ang^3
#
#
#
# Elastic Constant Matrix: (Units=GPa)
#
#
# Indices 1 2 3 4 5 6 
#
# 1 39.6451 2.8102 13.8566 0.0000 -23.4738 0.0000
# 2 2.8102 88.6315 58.4006 0.0000 -14.6700 0.0000
# 3 13.8566 58.4006 137.7219 0.0000 -23.3776 0.0000
# 4 0.0000 0.0000 0.0000 40.8639 0.0000 -0.8873
# 5 -23.4738 -14.6700 -23.3776 0.0000 26.5956 0.0000
# 6 0.0000 0.0000 0.0000 -0.8873 0.0000 31.4729
#
#
#
# Elastic Compliance Matrix: (Units=1/GPa)
#
#
# Indices 1 2 3 4 5 6 
#
# 1 0.056694 0.006769 0.000650 0.000000 0.054345 0.000000
# 2 0.006769 0.016715 -0.006100 0.000000 0.009832 0.000000
# 3 0.000650 -0.006100 0.010941 0.000000 0.006826 0.000000
# 4 0.000000 0.000000 0.000000 0.024486 0.000000 0.000690
# 5 0.054345 0.009832 0.006826 0.000000 0.096990 0.000000
# 6 0.000000 0.000000 0.000000 0.000690 0.000000 0.031793
#
#
# Mechanical properties :
#
#
# Convention : Reuss Voigt Hill
#
# Bulk Modulus (GPa) = 11.49578 46.23705 28.86641
# Shear Modulus (GPa) = 18.94106 32.51522 25.72814
#
# Velocity S-wave (km/s) = 3.16601 4.14814 3.68990
# Velocity P-wave (km/s) = 4.41003 6.88559 5.78186
#
# Compressibility (1/GPa) = 0.08698843
#
# Stress axis : x y z
#
# Youngs Moduli (GPa) = 17.63850 59.82725 91.39953
#
# Poissons Ratio (x) = -0.40497 -0.05943
# Poissons Ratio (y) = -0.11939 0.55753
# Poissons Ratio (z) = -0.01147 0.36494
#
# Static dielectric constant tensor:
#      x y z
#    x 1.673380 0.000000 -0.045070 
#    y 0.000000 1.657980 0.000000 
#    z -0.045070 0.000000 1.685570 
# 
# From -- ./inp_files/281126.got.cif
#   From: 2010.05.17/outbox.cif.g08.bks.cpg/sg12_141_cif.got.tgz:281126.got - 2010.06.03 13:09:07.
