data_PCOD9198526
_publ_section_title
;
Structure prediction by ZEFSAII (Michael W. Deem and Ramdas Pophale) SiO2 
 PCOD9198526
Probable space group: C 2/M
;
_chemical_formula_sum "Si O2"
_cell_formula_units_Z 36
_cell_length_a 10.864548
_cell_length_b 30.464436
_cell_length_c 5.070223
_cell_angle_alpha 90.000000
_cell_angle_beta 105.785108
_cell_angle_gamma 90.000000
_cell_volume 1614.868883
_symmetry_space_group_name_H-M "C 2/M"
_symmetry_group_IT_number 12
_symmetry_cell_setting 'monoclinic'
loop_
_space_group_symop_operation_xyz
x,y,z
-x,y,-z
-x,-y,-z
x,-y,z
1/2+x,1/2+y,z
1/2-x,1/2+y,-z
1/2-x,1/2-y,-z
1/2+x,1/2-y,z
loop_
_atom_site_type_symbol
_atom_site_label
_atom_site_fract_x
_atom_site_fract_y
_atom_site_fract_z
Si Si1 0.793952 0.605349 0.765075
Si Si2 0.000000 0.666426 0.000000
Si Si3 0.148851 0.551104 0.678893
Si Si4 0.641491 0.681193 0.968878
Si Si5 0.634491 0.775022 0.716723
O O1 0.767334 0.578263 0.485701
O O2 0.920231 0.634235 0.767440
O O3 0.833835 0.572591 0.024379
O O4 0.692368 0.638531 0.841086
O O5 0.108207 0.699272 0.971647
O O6 0.185284 0.500000 0.705546
O O7 0.000000 0.552740 0.500000
O O8 0.732796 0.699940 0.265497
O O9 0.500000 0.673801 0.000000
O O10 0.639012 0.723952 0.777919
O O11 0.500000 0.784545 0.500000
#
# Coordination Sequence:
#
# PCOD9198526 Si02
#       5
#     8   4   8   8   8
#     4  11  23  37  66  95 133 170 214 269 338 403
#     4  10  20  36  57  94 130 168 217 264 322 388
#     4  11  22  41  67 100 130 160 213 286 350 400
#     4  10  23  42  58  98 134 177 236 270 321 397
#     4  10  22  39  64  87 130 184 228 278 326 368
#
# _framework density 22.292833000000002
#
# number of rings (size 3 to 8) (size 9 to 14) (size 15 to 20)
#    0.000    1.556    3.333    0.667    6.222    4.444 
#    0.000    0.000    0.000    4.000    0.000    0.000 
#    0.000    0.000    0.000    0.000    0.000    0.000 
#
# Total GULP energy -100275.685863 kJ/mol
# GULP energy per Si atom -5570.871437 kJ/mol
# Density = 2.224209 g / cm^3
# Si number density = 22.292833 Si / 1000 Ang^3
#
#
#
# Elastic Constant Matrix: (Units=GPa)
#
#
# Indices 1 2 3 4 5 6 
#
# 1 115.1717 50.0789 21.2415 0.0000 8.0682 0.0000
# 2 50.0789 155.4427 21.6326 0.0000 -17.9255 0.0000
# 3 21.2415 21.6326 63.5609 0.0000 -11.0540 0.0000
# 4 0.0000 0.0000 0.0000 -2.6461 0.0000 0.6514
# 5 8.0682 -17.9255 -11.0540 0.0000 32.1366 0.0000
# 6 0.0000 0.0000 0.0000 0.6514 0.0000 17.5542
#
#
#
# Elastic Compliance Matrix: (Units=1/GPa)
#
#
# Indices 1 2 3 4 5 6 
#
# 1 0.011500 -0.003932 -0.003604 0.000000 -0.006320 0.000000
# 2 -0.003932 0.008415 -0.000598 0.000000 0.005475 0.000000
# 3 -0.003604 -0.000598 0.018337 0.000000 0.006879 0.000000
# 4 0.000000 0.000000 0.000000 -0.374490 0.000000 0.013897
# 5 -0.006320 0.005475 0.006879 0.000000 0.038124 0.000000
# 6 0.000000 0.000000 0.000000 0.013897 0.000000 0.056451
#
#
# Mechanical properties :
#
#
# Convention : Reuss Voigt Hill
#
# Bulk Modulus (GPa) = 45.48746 57.78682 51.63714
# Shear Modulus (GPa) = -22.92864 25.49043 1.28089
#
# Velocity S-wave (km/s) = -3.21054 3.38514 0.75883
# Velocity P-wave (km/s) = 2.58949 6.42315 4.89706
#
# Compressibility (1/GPa) = 0.02198408
#
# Stress axis : x y z
#
# Youngs Moduli (GPa) = 86.95693 118.84040 54.53431
#
# Poissons Ratio (x) = 0.46731 0.19654
# Poissons Ratio (y) = 0.34193 0.03259
# Poissons Ratio (z) = 0.31340 0.07101
#
# Static dielectric constant tensor:
#      x y z
#    x 2.144130 0.000000 0.055520 
#    y 0.000000 1.792970 0.000000 
#    z 0.055520 0.000000 1.975610 
# 
# From -- ./inp_files/7802.got.cif
#   From: 2010.05.17/outbox.cif.g08.bks.cpg/sg12_4_cif.got.tgz:7802.got - 2010.06.03 13:09:07.
