data_PCOD9198765
_publ_section_title
;
Structure prediction by ZEFSAII (Michael W. Deem and Ramdas Pophale) SiO2 
 PCOD9198765
Probable space group: C 2/M
;
_chemical_formula_sum "Si O2"
_cell_formula_units_Z 56
_cell_length_a 15.516757
_cell_length_b 25.756989
_cell_length_c 10.093213
_cell_angle_alpha 90.000000
_cell_angle_beta 48.616294
_cell_angle_gamma 90.000000
_cell_volume 3026.634085
_symmetry_space_group_name_H-M "C 2/M"
_symmetry_group_IT_number 12
_symmetry_cell_setting 'monoclinic'
loop_
_space_group_symop_operation_xyz
x,y,z
-x,y,-z
-x,-y,-z
x,-y,z
1/2+x,1/2+y,z
1/2-x,1/2+y,-z
1/2-x,1/2-y,-z
1/2+x,1/2-y,z
loop_
_atom_site_type_symbol
_atom_site_label
_atom_site_fract_x
_atom_site_fract_y
_atom_site_fract_z
Si Si1 0.814390 0.441330 0.038442
Si Si2 0.136038 0.236576 0.364270
Si Si3 0.478636 0.939105 0.377542
Si Si4 0.300153 0.939084 0.348566
Si Si5 0.864895 0.808138 0.144636
Si Si6 0.115257 0.856498 0.589535
Si Si7 0.355682 0.650077 0.861294
O O1 0.763922 0.500000 0.081372
O O2 0.858381 0.436038 0.144808
O O3 0.730638 0.393925 0.096807
O O4 0.911289 0.437999 0.828400
O O5 0.249224 0.272518 0.267811
O O6 0.139485 0.195148 0.480210
O O7 0.156276 0.203579 0.208881
O O8 0.000000 0.256479 0.500000
O O9 0.500000 0.915251 0.500000
O O10 0.377591 0.917603 0.389357
O O11 0.449446 0.000000 0.428946
O O12 0.189357 0.903696 0.461398
O O13 0.276014 0.000000 0.395430
O O14 0.864737 0.843134 0.276724
O O15 0.848686 0.839028 0.024375
O O16 0.000000 0.786231 0.000000
O O17 0.983046 0.869287 0.702666
#
# Coordination Sequence:
#
# PCOD9198765 Si02
#       7
#     8   8   8   8   8   8   8
#     4  10  20  36  58  84 116 153 193 232 281 347
#     4  10  20  40  63  83 114 150 193 247 297 348
#     4   9  19  35  55  79 115 155 189 235 285 329
#     4  10  20  36  58  84 116 153 193 232 281 347
#     4  10  22  40  59  81 118 156 193 243 301 352
#     4  10  21  38  58  84 118 151 186 238 295 343
#     4  10  21  38  58  84 118 151 186 238 295 343
#
# _framework density 18.502403000000001
#
# number of rings (size 3 to 8) (size 9 to 14) (size 15 to 20)
#    0.000    2.143    1.429    1.286    2.000    2.286 
#    5.143    1.429    0.000    2.571    0.000    0.000 
#    0.000    0.000    0.000    0.000    0.000    0.000 
#
# Total GULP energy -155868.495888 kJ/mol
# GULP energy per Si atom -5566.731996 kJ/mol
# Density = 1.846029 g / cm^3
# Si number density = 18.502403 Si / 1000 Ang^3
#
#
#
# Elastic Constant Matrix: (Units=GPa)
#
#
# Indices 1 2 3 4 5 6 
#
# 1 61.8885 14.7365 8.5401 0.0000 -5.1743 0.0000
# 2 14.7365 22.0494 6.9026 0.0000 -18.2239 0.0000
# 3 8.5401 6.9026 63.2405 0.0000 10.9643 0.0000
# 4 0.0000 0.0000 0.0000 13.5412 0.0000 -7.0900
# 5 -5.1743 -18.2239 10.9643 0.0000 40.3041 0.0000
# 6 0.0000 0.0000 0.0000 -7.0900 0.0000 17.5204
#
#
#
# Elastic Compliance Matrix: (Units=1/GPa)
#
#
# Indices 1 2 3 4 5 6 
#
# 1 0.019966 -0.018163 0.000279 0.000000 -0.005725 0.000000
# 2 -0.018163 0.103670 -0.017406 0.000000 0.049279 0.000000
# 3 0.000279 -0.017406 0.019975 0.000000 -0.013269 0.000000
# 4 0.000000 0.000000 0.000000 0.093703 0.000000 0.037919
# 5 -0.005725 0.049279 -0.013269 0.000000 0.049968 0.000000
# 6 0.000000 0.000000 0.000000 0.037919 0.000000 0.072421
#
#
# Mechanical properties :
#
#
# Convention : Reuss Voigt Hill
#
# Bulk Modulus (GPa) = 13.69303 23.05963 18.37633
# Shear Modulus (GPa) = 10.99799 22.07307 16.53553
#
# Velocity S-wave (km/s) = 2.44069 3.45771 2.99272
# Velocity P-wave (km/s) = 3.91911 5.33208 4.67923
#
# Compressibility (1/GPa) = 0.07302987
#
# Stress axis : x y z
#
# Youngs Moduli (GPa) = 50.08549 9.64598 50.06175
#
# Poissons Ratio (x) = 0.17520 -0.01396
# Poissons Ratio (y) = 0.90972 0.87139
# Poissons Ratio (z) = -0.01397 0.16790
#
# Static dielectric constant tensor:
#      x y z
#    x 1.664400 0.000000 0.006570 
#    y 0.000000 1.615910 0.000000 
#    z 0.006570 0.000000 1.659250 
# 
# From -- ./inp_files/68149.got.cif
#   From: 2010.05.17/outbox.cif.g08.bks.cpg/sg12_35_cif.got.tgz:68149.got - 2010.06.03 13:09:07.
