data_PCOD9198980
_publ_section_title
;
Structure prediction by ZEFSAII (Michael W. Deem and Ramdas Pophale) SiO2 
 PCOD9198980
Probable space group: C 2/M
;
_chemical_formula_sum "Si O2"
_cell_formula_units_Z 56
_cell_length_a 26.018239
_cell_length_b 7.579643
_cell_length_c 13.992308
_cell_angle_alpha 90.000000
_cell_angle_beta 67.700662
_cell_angle_gamma 90.000000
_cell_volume 2553.043707
_symmetry_space_group_name_H-M "C 2/M"
_symmetry_group_IT_number 12
_symmetry_cell_setting 'monoclinic'
loop_
_space_group_symop_operation_xyz
x,y,z
-x,y,-z
-x,-y,-z
x,-y,z
1/2+x,1/2+y,z
1/2-x,1/2+y,-z
1/2-x,1/2-y,-z
1/2+x,1/2-y,z
loop_
_atom_site_type_symbol
_atom_site_label
_atom_site_fract_x
_atom_site_fract_y
_atom_site_fract_z
Si Si1 0.920352 0.786400 0.811999
Si Si2 0.296896 0.288457 0.889773
Si Si3 0.981196 0.293737 0.114843
Si Si4 0.836769 0.704155 0.517486
Si Si5 0.365629 0.782749 0.284472
Si Si6 0.439736 0.713605 0.579106
Si Si7 0.254423 0.795497 0.269682
O O1 0.857740 0.724637 0.878049
O O2 0.931872 0.734339 0.694427
O O3 0.967618 0.718902 0.848700
O O4 0.922641 0.000000 0.815429
O O5 0.303039 0.500000 0.876232
O O6 0.277222 0.218575 0.800040
O O7 0.250000 0.250000 0.000000
O O8 0.968759 0.500000 0.105936
O O9 0.924983 0.221666 0.202584
O O10 0.000000 0.215248 0.000000
O O11 0.821446 0.500000 0.516457
O O12 0.852611 0.775387 0.402010
O O13 0.890591 0.718805 0.546971
O O14 0.785675 0.788786 0.610243
O O15 0.314542 0.722209 0.254397
O O16 0.366142 0.000000 0.286656
O O17 0.500000 0.769746 0.500000
O O18 0.436986 0.500000 0.577170
O O19 0.264331 0.000000 0.239047
#
# Coordination Sequence:
#
# PCOD9198980 Si02
#       7
#     8   8   8   8   8   8   8
#     4  10  21  39  58  84 117 147 185 233 283 332
#     4  10  22  38  60  86 114 149 190 236 285 337
#     4  10  22  39  61  86 111 148 196 235 277 340
#     4  11  21  34  55  86 120 147 184 237 287 337
#     4   9  20  37  57  84 116 149 189 237 284 331
#     4  10  20  36  59  83 112 153 194 228 275 345
#     4  10  20  39  62  81 114 156 189 231 283 338
#
# _framework density 21.934602999999999
#
# number of rings (size 3 to 8) (size 9 to 14) (size 15 to 20)
#    0.000    2.000    1.429    1.714    2.000    2.286 
#    0.000    2.143    0.000    0.000    0.000    0.000 
#    0.000    0.000    0.000    0.000    0.000    0.000 
#
# Total GULP energy -156476.146297 kJ/mol
# GULP energy per Si atom -5588.433796 kJ/mol
# Density = 2.188468 g / cm^3
# Si number density = 21.934603 Si / 1000 Ang^3
#
#
#
# Elastic Constant Matrix: (Units=GPa)
#
#
# Indices 1 2 3 4 5 6 
#
# 1 174.2440 -9.5801 64.4335 0.0000 -18.3758 0.0000
# 2 -9.5801 41.6423 -1.8671 0.0000 2.7268 0.0000
# 3 64.4335 -1.8671 103.6275 0.0000 -21.2518 0.0000
# 4 0.0000 0.0000 0.0000 14.3583 0.0000 -1.2652
# 5 -18.3758 2.7268 -21.2518 0.0000 37.5128 0.0000
# 6 0.0000 0.0000 0.0000 -1.2652 0.0000 18.0510
#
#
#
# Elastic Compliance Matrix: (Units=1/GPa)
#
#
# Indices 1 2 3 4 5 6 
#
# 1 0.007587 0.001474 -0.004470 0.000000 0.001077 0.000000
# 2 0.001474 0.024416 -0.000784 0.000000 -0.001497 0.000000
# 3 -0.004470 -0.000784 0.013552 0.000000 0.005545 0.000000
# 4 0.000000 0.000000 0.000000 0.070079 0.000000 0.004912
# 5 0.001077 -0.001497 0.005545 0.000000 0.030435 0.000000
# 6 0.000000 0.000000 0.000000 0.004912 0.000000 0.055743
#
#
# Mechanical properties :
#
#
# Convention : Reuss Voigt Hill
#
# Bulk Modulus (GPa) = 26.31808 47.27626 36.79717
# Shear Modulus (GPa) = 22.51889 31.75292 27.13590
#
# Velocity S-wave (km/s) = 3.20759 3.80888 3.52110
# Velocity P-wave (km/s) = 5.07373 6.39871 5.77435
#
# Compressibility (1/GPa) = 0.03799670
#
# Stress axis : x y z
#
# Youngs Moduli (GPa) = 131.81158 40.95656 73.78872
#
# Poissons Ratio (x) = -0.06039 0.32982
# Poissons Ratio (y) = -0.19435 0.05783
# Poissons Ratio (z) = 0.58917 0.03210
#
# Static dielectric constant tensor:
#      x y z
#    x 1.771720 0.000000 -0.006770 
#    y 0.000000 1.897010 0.000000 
#    z -0.006770 0.000000 1.772220 
# 
# From -- ./inp_files/180678.got.cif
#   From: 2010.05.17/outbox.cif.g08.bks.cpg/sg12_91_cif.got.tgz:180678.got - 2010.06.03 13:09:07.
