data_PCOD9198473
_publ_section_title
;
Structure prediction by ZEFSAII (Michael W. Deem and Ramdas Pophale) SiO2 
 PCOD9198473
Probable space group: C 2/M
;
_chemical_formula_sum "Si O2"
_cell_formula_units_Z 64
_cell_length_a 24.018169
_cell_length_b 11.986158
_cell_length_c 11.643944
_cell_angle_alpha 90.000000
_cell_angle_beta 73.099100
_cell_angle_gamma 90.000000
_cell_volume 3207.341934
_symmetry_space_group_name_H-M "C 2/M"
_symmetry_group_IT_number 12
_symmetry_cell_setting 'monoclinic'
loop_
_space_group_symop_operation_xyz
x,y,z
-x,y,-z
-x,-y,-z
x,-y,z
1/2+x,1/2+y,z
1/2-x,1/2+y,-z
1/2-x,1/2-y,-z
1/2+x,1/2-y,z
loop_
_atom_site_type_symbol
_atom_site_label
_atom_site_fract_x
_atom_site_fract_y
_atom_site_fract_z
Si Si1 0.454680 0.698343 0.351087
Si Si2 0.688417 0.279703 0.216260
Si Si3 0.810144 0.622231 0.196111
Si Si4 0.134193 0.623151 0.076478
Si Si5 0.331906 0.697660 0.374344
Si Si6 0.001201 0.630516 0.863203
Si Si7 0.570139 0.627940 0.387283
Si Si8 0.794659 0.624424 0.581452
O O1 0.394809 0.641039 0.343930
O O2 0.463322 0.798209 0.253035
O O3 0.518025 0.641591 0.326124
O O4 0.440627 0.709325 0.496912
O O5 0.745648 0.355180 0.185078
O O6 0.671243 0.222372 0.107839
O O7 0.632242 0.345513 0.295692
O O8 0.699941 0.176947 0.296042
O O9 0.810600 0.500000 0.253552
O O10 0.825875 0.723814 0.267669
O O11 0.854981 0.621169 0.065319
O O12 0.151942 0.500000 0.109838
O O13 0.065817 0.636855 0.138535
O O14 0.273598 0.624974 0.413030
O O15 0.325800 0.786861 0.480921
O O16 0.019573 0.500000 0.851330
O O17 0.000000 0.666110 0.000000
O O18 0.568688 0.500000 0.430658
O O19 0.818273 0.500000 0.560112
#
# Coordination Sequence:
#
# PCOD9198473 Si02
#       8
#     8   8   8   8   8   8   8   8
#     4  11  21  40  59  89 118 156 203 242 288 349
#     4  11  20  39  58  88 116 154 195 244 296 351
#     4  10  21  36  60  88 116 152 196 242 292 352
#     4  10  20  36  57  85 117 152 193 243 297 348
#     4  10  21  36  56  85 114 150 193 234 287 348
#     4  10  21  37  60  89 123 162 198 239 292 350
#     4  11  24  41  62  86 118 159 203 249 296 350
#     4  10  21  36  55  82 116 150 185 238 296 349
#
# _framework density 19.954218000000001
#
# number of rings (size 3 to 8) (size 9 to 14) (size 15 to 20)
#    0.000    1.625    2.500    3.000    0.000    3.000 
#    0.000    1.250    0.000    2.250    0.000    0.000 
#    0.000    0.000    0.000    0.000    0.000    0.000 
#
# Total GULP energy -178275.964231 kJ/mol
# GULP energy per Si atom -5571.123882 kJ/mol
# Density = 1.990880 g / cm^3
# Si number density = 19.954218 Si / 1000 Ang^3
#
#
#
# Elastic Constant Matrix: (Units=GPa)
#
#
# Indices 1 2 3 4 5 6 
#
# 1 110.2595 5.5839 -6.3032 0.0000 -5.3725 0.0000
# 2 5.5839 69.3462 22.6635 0.0000 4.3694 0.0000
# 3 -6.3032 22.6635 57.4707 0.0000 0.6642 0.0000
# 4 0.0000 0.0000 0.0000 25.2453 0.0000 -0.7119
# 5 -5.3725 4.3694 0.6642 0.0000 30.3079 0.0000
# 6 0.0000 0.0000 0.0000 -0.7119 0.0000 12.9603
#
#
#
# Elastic Compliance Matrix: (Units=1/GPa)
#
#
# Indices 1 2 3 4 5 6 
#
# 1 0.009315 -0.001368 0.001540 0.000000 0.001815 0.000000
# 2 -0.001368 0.016909 -0.006789 0.000000 -0.002531 0.000000
# 3 0.001540 -0.006789 0.020237 0.000000 0.000808 0.000000
# 4 0.000000 0.000000 0.000000 0.039673 0.000000 0.002179
# 5 0.001815 -0.002531 0.000808 0.000000 0.033664 0.000000
# 6 0.000000 0.000000 0.000000 0.002179 0.000000 0.077279
#
#
# Mechanical properties :
#
#
# Convention : Reuss Voigt Hill
#
# Bulk Modulus (GPa) = 30.09506 31.21833 30.65669
# Shear Modulus (GPa) = 22.58512 28.04482 25.31497
#
# Velocity S-wave (km/s) = 3.36794 3.75301 3.56568
# Velocity P-wave (km/s) = 5.49899 5.87018 5.68761
#
# Compressibility (1/GPa) = 0.03322805
#
# Stress axis : x y z
#
# Youngs Moduli (GPa) = 107.35089 59.14118 49.41475
#
# Poissons Ratio (x) = 0.08089 -0.07610
# Poissons Ratio (y) = 0.14683 0.33546
# Poissons Ratio (z) = -0.16533 0.40149
#
# Static dielectric constant tensor:
#      x y z
#    x 1.744400 0.000000 0.024450 
#    y 0.000000 1.692840 0.000000 
#    z 0.024450 0.000000 1.715200 
# 
# From -- ./inp_files/174606.got.cif
#   From: 2010.05.17/outbox.cif.g08.bks.cpg/sg12_88_cif.got.tgz:174606.got - 2010.06.03 13:09:07.
