data_PCOD9198008
_publ_section_title
;
Structure prediction by ZEFSAII (Michael W. Deem and Ramdas Pophale) SiO2 
 PCOD9198008
Probable space group: C 2/M
;
_chemical_formula_sum "Si O2"
_cell_formula_units_Z 52
_cell_length_a 12.254965
_cell_length_b 19.638907
_cell_length_c 12.232064
_cell_angle_alpha 90.000000
_cell_angle_beta 111.758447
_cell_angle_gamma 90.000000
_cell_volume 2734.199863
_symmetry_space_group_name_H-M "C 2/M"
_symmetry_group_IT_number 12
_symmetry_cell_setting 'monoclinic'
loop_
_space_group_symop_operation_xyz
x,y,z
-x,y,-z
-x,-y,-z
x,-y,z
1/2+x,1/2+y,z
1/2-x,1/2+y,-z
1/2-x,1/2-y,-z
1/2+x,1/2-y,z
loop_
_atom_site_type_symbol
_atom_site_label
_atom_site_fract_x
_atom_site_fract_y
_atom_site_fract_z
Si Si1 0.852142 0.134470 0.823041
Si Si2 0.058467 0.748545 0.406477
Si Si3 0.866396 0.867329 0.084885
Si Si4 0.143720 0.000000 0.296165
Si Si5 0.195602 0.000000 0.567023
Si Si6 0.774274 0.846346 0.429955
Si Si7 0.183275 0.237536 0.770995
Si Si8 0.876398 0.000000 0.212476
O O1 0.774213 0.202325 0.778130
O O2 0.991651 0.143851 0.850325
O O3 0.806615 0.069997 0.735815
O O4 0.844044 0.119211 0.949478
O O5 0.119489 0.823124 0.448317
O O6 0.162406 0.696772 0.423249
O O7 0.000000 0.731160 0.500000
O O8 0.953090 0.740267 0.282630
O O9 0.800231 0.802028 0.109744
O O10 0.825512 0.931254 0.142646
O O11 0.007665 0.000000 0.212892
O O12 0.139965 0.000000 0.425563
O O13 0.254393 0.074336 0.587697
O O14 0.126162 0.000000 0.656753
O O15 0.810769 0.817464 0.325152
#
# Coordination Sequence:
#
# PCOD9198008 Si02
#       8
#     8   8   8   4   4   8   8   4
#     4  10  22  38  57  85 114 149 192 231 285 332
#     4   9  21  36  57  78 115 153 185 227 285 336
#     4  10  20  37  59  84 114 148 188 238 280 334
#     4  10  24  34  56  81 118 147 184 241 278 339
#     4  12  23  34  58  87 113 146 189 234 280 345
#     4  10  22  37  55  85 116 147 185 231 285 336
#     4  11  20  35  60  83 113 148 189 233 279 337
#     4  10  20  36  55  83 116 147 182 235 297 329
#
# _framework density 19.018362
#
# number of rings (size 3 to 8) (size 9 to 14) (size 15 to 20)
#    0.000    1.846    1.538    2.077   10.769    3.077 
#    0.000    1.154    0.000    0.000    0.000    1.077 
#    0.000    0.000    0.000    0.000    0.000    0.000 
#
# Total GULP energy -144847.483607 kJ/mol
# GULP energy per Si atom -5571.057062 kJ/mol
# Density = 1.897508 g / cm^3
# Si number density = 19.018362 Si / 1000 Ang^3
#
#
#
# Elastic Constant Matrix: (Units=GPa)
#
#
# Indices 1 2 3 4 5 6 
#
# 1 39.4487 24.0536 -1.3870 0.0000 -2.6148 0.0000
# 2 24.0536 137.7347 29.1764 0.0000 -5.0079 0.0000
# 3 -1.3870 29.1764 59.5134 0.0000 -5.5706 0.0000
# 4 0.0000 0.0000 0.0000 22.1127 0.0000 -14.2198
# 5 -2.6148 -5.0079 -5.5706 0.0000 21.9440 0.0000
# 6 0.0000 0.0000 0.0000 -14.2198 0.0000 23.0901
#
#
#
# Elastic Compliance Matrix: (Units=1/GPa)
#
#
# Indices 1 2 3 4 5 6 
#
# 1 0.029227 -0.005799 0.003817 0.000000 0.003128 0.000000
# 2 -0.005799 0.009268 -0.004656 0.000000 0.000242 0.000000
# 3 0.003817 -0.004656 0.019583 0.000000 0.004363 0.000000
# 4 0.000000 0.000000 0.000000 0.074875 0.000000 0.046111
# 5 0.003128 0.000242 0.004363 0.000000 0.047106 0.000000
# 6 0.000000 0.000000 0.000000 0.046111 0.000000 0.071705
#
#
# Mechanical properties :
#
#
# Convention : Reuss Voigt Hill
#
# Bulk Modulus (GPa) = 22.32070 37.82031 30.07050
# Shear Modulus (GPa) = 17.85878 25.75297 21.80588
#
# Velocity S-wave (km/s) = 3.06768 3.68382 3.38978
# Velocity P-wave (km/s) = 4.93046 6.16631 5.58269
#
# Compressibility (1/GPa) = 0.04480146
#
# Stress axis : x y z
#
# Youngs Moduli (GPa) = 34.21529 107.89628 51.06468
#
# Poissons Ratio (x) = 0.62567 -0.19491
# Poissons Ratio (y) = 0.19841 0.23777
# Poissons Ratio (z) = -0.13059 0.50239
#
# Static dielectric constant tensor:
#      x y z
#    x 1.649930 0.000000 0.000430 
#    y 0.000000 1.695780 0.000000 
#    z 0.000430 0.000000 1.715330 
# 
# From -- ./inp_files/133375.got.cif
#   From: 2010.05.17/outbox.cif.g08.bks.cpg/sg12_67_cif.got.tgz:133375.got - 2010.06.03 13:09:07.
