data_PCOD9198822
_publ_section_title
;
Structure prediction by ZEFSAII (Michael W. Deem and Ramdas Pophale) SiO2 
 PCOD9198822
Probable space group: C 2/M
;
_chemical_formula_sum "Si O2"
_cell_formula_units_Z 32
_cell_length_a 8.955882
_cell_length_b 23.029240
_cell_length_c 7.533751
_cell_angle_alpha 90.000000
_cell_angle_beta 121.195242
_cell_angle_gamma 90.000000
_cell_volume 1329.144414
_symmetry_space_group_name_H-M "C 2/M"
_symmetry_group_IT_number 12
_symmetry_cell_setting 'monoclinic'
loop_
_space_group_symop_operation_xyz
x,y,z
-x,y,-z
-x,-y,-z
x,-y,z
1/2+x,1/2+y,z
1/2-x,1/2+y,-z
1/2-x,1/2-y,-z
1/2+x,1/2-y,z
loop_
_atom_site_type_symbol
_atom_site_label
_atom_site_fract_x
_atom_site_fract_y
_atom_site_fract_z
Si Si1 0.284159 0.435077 0.188510
Si Si2 0.960360 0.816870 0.244500
Si Si3 0.788550 0.294925 0.246267
Si Si4 0.015626 0.591214 0.712559
O O1 0.355255 0.500000 0.248007
O O2 0.420267 0.382993 0.266640
O O3 0.151998 0.422261 0.270103
O O4 0.173353 0.431645 0.935062
O O5 0.866053 0.768964 0.307250
O O6 0.165305 0.810273 0.335149
O O7 0.848903 0.802396 0.998484
O O8 0.939471 0.340481 0.286249
O O9 0.000000 0.568721 0.500000
#
# Coordination Sequence:
#
# PCOD9198822 Si02
#       4
#     8   8   8   8
#     4  10  21  37  58  83 114 153 189 227 279 334
#     4   9  17  33  56  82 113 146 187 234 280 335
#     4   9  17  32  57  84 111 147 185 233 290 331
#     4  10  20  36  58  86 113 146 189 233 282 334
#
# _framework density 24.075638000000001
#
# number of rings (size 3 to 8) (size 9 to 14) (size 15 to 20)
#    0.000    2.500    0.000    3.000    0.000    8.000 
#    0.000   17.500    0.000    1.500    0.000    0.000 
#    0.000    0.000    0.000    0.000    0.000    0.000 
#
# Total GULP energy -89361.090298 kJ/mol
# GULP energy per Si atom -5585.068144 kJ/mol
# Density = 2.402084 g / cm^3
# Si number density = 24.075638 Si / 1000 Ang^3
#
#
#
# Elastic Constant Matrix: (Units=GPa)
#
#
# Indices 1 2 3 4 5 6 
#
# 1 115.0211 106.6270 34.7324 0.0000 -10.9900 0.0000
# 2 106.6270 247.9691 2.5491 0.0000 -17.1700 0.0000
# 3 34.7324 2.5491 167.6615 0.0000 -21.7215 0.0000
# 4 0.0000 0.0000 0.0000 -15.3504 0.0000 -18.1037
# 5 -10.9900 -17.1700 -21.7215 0.0000 31.7282 0.0000
# 6 0.0000 0.0000 0.0000 -18.1037 0.0000 5.7811
#
#
#
# Elastic Compliance Matrix: (Units=1/GPa)
#
#
# Indices 1 2 3 4 5 6 
#
# 1 0.016025 -0.006886 -0.003268 0.000000 -0.000413 0.000000
# 2 -0.006886 0.007158 0.001657 0.000000 0.002623 0.000000
# 3 -0.003268 0.001657 0.007227 0.000000 0.004712 0.000000
# 4 0.000000 0.000000 0.000000 -0.013881 0.000000 -0.043468
# 5 -0.000413 0.002623 0.004712 0.000000 0.036020 0.000000
# 6 0.000000 0.000000 0.000000 -0.043468 0.000000 0.036857
#
#
# Mechanical properties :
#
#
# Convention : Reuss Voigt Hill
#
# Bulk Modulus (GPa) = 74.53597 90.94097 82.73847
# Shear Modulus (GPa) = 45.09714 30.21467 37.65590
#
# Velocity S-wave (km/s) = 4.33268 3.54643 3.95912
# Velocity P-wave (km/s) = 7.48704 7.39084 7.43910
#
# Compressibility (1/GPa) = 0.01341634
#
# Stress axis : x y z
#
# Youngs Moduli (GPa) = 62.40368 139.69964 138.37363
#
# Poissons Ratio (x) = 0.96192 0.45227
# Poissons Ratio (y) = 0.42969 -0.22935
# Poissons Ratio (z) = 0.20397 -0.23155
#
# Static dielectric constant tensor:
#      x y z
#    x 1.870390 0.000000 -0.013060 
#    y 0.000000 1.886070 0.000000 
#    z -0.013060 0.000000 2.024280 
# 
# From -- ./inp_files/38531.got.cif
#   From: 2010.05.17/outbox.cif.g08.bks.cpg/sg12_20_cif.got.tgz:38531.got - 2010.06.03 13:09:07.
