data_PCOD9198664
_publ_section_title
;
Structure prediction by ZEFSAII (Michael W. Deem and Ramdas Pophale) SiO2 
 PCOD9198664
Probable space group: C 2/M
;
_chemical_formula_sum "Si O2"
_cell_formula_units_Z 52
_cell_length_a 12.917934
_cell_length_b 13.261577
_cell_length_c 19.322411
_cell_angle_alpha 90.000000
_cell_angle_beta 58.017368
_cell_angle_gamma 90.000000
_cell_volume 2807.710113
_symmetry_space_group_name_H-M "C 2/M"
_symmetry_group_IT_number 12
_symmetry_cell_setting 'monoclinic'
loop_
_space_group_symop_operation_xyz
x,y,z
-x,y,-z
-x,-y,-z
x,-y,z
1/2+x,1/2+y,z
1/2-x,1/2+y,-z
1/2-x,1/2-y,-z
1/2+x,1/2-y,z
loop_
_atom_site_type_symbol
_atom_site_label
_atom_site_fract_x
_atom_site_fract_y
_atom_site_fract_z
Si Si1 0.696126 0.678904 0.817581
Si Si2 0.000000 0.255674 0.500000
Si Si3 0.046421 0.118270 0.614256
Si Si4 0.084669 0.825854 0.090969
Si Si5 0.691140 0.112876 0.082953
Si Si6 0.314660 0.614168 0.795509
Si Si7 0.770369 0.620049 0.636282
O O1 0.554777 0.651014 0.876513
O O2 0.779190 0.626847 0.846477
O O3 0.715497 0.798583 0.821834
O O4 0.738075 0.650360 0.725994
O O5 0.954498 0.185903 0.453275
O O6 0.889726 0.323294 0.567344
O O7 0.155935 0.145734 0.627407
O O8 0.919475 0.129533 0.700823
O O9 0.059421 0.000000 0.591786
O O10 0.105568 0.704882 0.089144
O O11 0.121844 0.870543 0.152391
O O12 0.180799 0.868547 0.001963
O O13 0.646533 0.000000 0.084340
O O14 0.267923 0.500000 0.806888
O O15 0.787951 0.500000 0.627218
#
# Coordination Sequence:
#
# PCOD9198664 Si02
#       7
#     8   4   8   8   8   8   8
#     4  11  21  37  58  84 115 149 190 231 277 332
#     4  12  22  40  60  84 114 146 186 242 278 336
#     4  10  21  38  60  84 110 145 188 232 284 336
#     4  10  21  37  59  82 116 153 187 231 280 329
#     4  10  22  37  56  87 117 148 190 233 275 328
#     4  10  20  36  58  83 111 147 189 232 280 333
#     4  11  23  38  58  84 115 152 186 228 285 339
#
# _framework density 18.520430999999999
#
# number of rings (size 3 to 8) (size 9 to 14) (size 15 to 20)
#    0.000    1.538    3.077    2.308    0.000    3.077 
#    0.000    0.000    0.000    6.462    0.000    0.000 
#    0.000    0.000    0.000    0.000    0.000    0.000 
#
# Total GULP energy -145268.361602 kJ/mol
# GULP energy per Si atom -5587.244677 kJ/mol
# Density = 1.847828 g / cm^3
# Si number density = 18.520431 Si / 1000 Ang^3
#
#
#
# Elastic Constant Matrix: (Units=GPa)
#
#
# Indices 1 2 3 4 5 6 
#
# 1 32.0491 -3.8048 -3.7522 0.0000 9.8542 0.0000
# 2 -3.8048 72.0829 6.9875 0.0000 15.7939 0.0000
# 3 -3.7522 6.9875 35.2569 0.0000 7.9325 0.0000
# 4 0.0000 0.0000 0.0000 -2.5225 0.0000 8.2509
# 5 9.8542 15.7939 7.9325 0.0000 28.9183 0.0000
# 6 0.0000 0.0000 0.0000 8.2509 0.0000 11.9231
#
#
#
# Elastic Compliance Matrix: (Units=1/GPa)
#
#
# Indices 1 2 3 4 5 6 
#
# 1 0.038105 0.005223 0.007016 0.000000 -0.017762 0.000000
# 2 0.005223 0.016528 -0.000307 0.000000 -0.010722 0.000000
# 3 0.007016 -0.000307 0.031623 0.000000 -0.010897 0.000000
# 4 0.000000 0.000000 0.000000 -0.121475 0.000000 0.084062
# 5 -0.017762 -0.010722 -0.010897 0.000000 0.049478 0.000000
# 6 0.000000 0.000000 0.000000 0.084062 0.000000 0.025699
#
#
# Mechanical properties :
#
#
# Convention : Reuss Voigt Hill
#
# Bulk Modulus (GPa) = 9.08107 15.36111 12.22109
# Shear Modulus (GPa) = 94.69631 16.99435 55.84533
#
# Velocity S-wave (km/s) = 7.15833 3.03248 5.49717
# Velocity P-wave (km/s) = 8.55782 4.53579 6.84871
#
# Compressibility (1/GPa) = 0.11011923
#
# Stress axis : x y z
#
# Youngs Moduli (GPa) = 26.24336 60.50453 31.62285
#
# Poissons Ratio (x) = -0.31601 -0.22188
# Poissons Ratio (y) = -0.13707 0.00972
# Poissons Ratio (z) = -0.18414 0.01860
#
# Static dielectric constant tensor:
#      x y z
#    x 1.603460 0.000000 0.008270 
#    y 0.000000 1.642270 0.000000 
#    z 0.008270 0.000000 1.611920 
# 
# From -- ./inp_files/304636.got.cif
#   From: 2010.05.17/outbox.cif.g08.bks.cpg/sg12_153_cif.got.tgz:304636.got - 2010.06.03 13:09:07.
