data_PCOD9198200
_publ_section_title
;
Structure prediction by ZEFSAII (Michael W. Deem and Ramdas Pophale) SiO2 
 PCOD9198200
Probable space group: C 2/M
;
_chemical_formula_sum "Si O2"
_cell_formula_units_Z 48
_cell_length_a 14.214532
_cell_length_b 18.776607
_cell_length_c 11.730102
_cell_angle_alpha 90.000000
_cell_angle_beta 47.099989
_cell_angle_gamma 90.000000
_cell_volume 2293.424543
_symmetry_space_group_name_H-M "C 2/M"
_symmetry_group_IT_number 12
_symmetry_cell_setting 'monoclinic'
loop_
_space_group_symop_operation_xyz
x,y,z
-x,y,-z
-x,-y,-z
x,-y,z
1/2+x,1/2+y,z
1/2-x,1/2+y,-z
1/2-x,1/2-y,-z
1/2+x,1/2-y,z
loop_
_atom_site_type_symbol
_atom_site_label
_atom_site_fract_x
_atom_site_fract_y
_atom_site_fract_z
Si Si1 0.083890 0.811580 0.236916
Si Si2 0.687603 0.317165 0.613497
Si Si3 0.752288 0.918459 0.057079
Si Si4 0.355581 0.916443 0.604598
Si Si5 0.964180 0.334134 0.850219
Si Si6 0.814309 0.294230 0.200867
O O1 0.060760 0.728667 0.220805
O O2 0.168169 0.810091 0.283265
O O3 0.938967 0.840425 0.349285
O O4 0.161012 0.859109 0.078730
O O5 0.750000 0.250000 0.500000
O O6 0.786875 0.378403 0.557393
O O7 0.660882 0.281852 0.760375
O O8 0.729519 0.908110 0.210505
O O9 0.609367 0.904608 0.125682
O O10 0.794992 0.000000 0.001138
O O11 0.500000 0.887191 0.500000
O O12 0.366437 0.000000 0.574243
O O13 0.109378 0.344599 0.773323
O O14 0.888711 0.302333 0.021300
#
# Coordination Sequence:
#
# PCOD9198200 Si02
#       6
#     8   8   8   8   8   8
#     4  10  20  36  56  84 114 149 190 252 297 348
#     4  11  24  35  59  87 115 157 202 249 299 359
#     4  10  20  36  62  89 114 153 195 246 300 357
#     4  10  23  40  60  86 123 160 195 244 302 366
#     4   9  17  32  55  81 114 147 187 238 293 352
#     4   9  18  32  52  81 113 146 186 240 291 339
#
# _framework density 20.929399
#
# number of rings (size 3 to 8) (size 9 to 14) (size 15 to 20)
#    0.000    2.167    0.000    4.000    7.000    2.667 
#    0.000    8.333    0.000    4.000    0.000    5.833 
#    0.000    0.000    0.000    0.000    0.000    0.000 
#
# Total GULP energy -133691.418848 kJ/mol
# GULP energy per Si atom -5570.475785 kJ/mol
# Density = 2.088176 g / cm^3
# Si number density = 20.929399 Si / 1000 Ang^3
#
#
#
# Elastic Constant Matrix: (Units=GPa)
#
#
# Indices 1 2 3 4 5 6 
#
# 1 193.4485 38.9961 31.0561 0.0000 -30.6976 0.0000
# 2 38.9961 49.2329 15.4817 0.0000 0.9756 0.0000
# 3 31.0561 15.4817 44.6054 0.0000 1.4627 0.0000
# 4 0.0000 0.0000 0.0000 23.7425 0.0000 0.0385
# 5 -30.6976 0.9756 1.4627 0.0000 31.9006 0.0000
# 6 0.0000 0.0000 0.0000 0.0385 0.0000 29.4196
#
#
#
# Elastic Compliance Matrix: (Units=1/GPa)
#
#
# Indices 1 2 3 4 5 6 
#
# 1 0.008231 -0.005384 -0.004134 0.000000 0.008275 0.000000
# 2 -0.005384 0.026325 -0.005200 0.000000 -0.005748 0.000000
# 3 -0.004134 -0.005200 0.027268 0.000000 -0.005069 0.000000
# 4 0.000000 0.000000 0.000000 0.042119 0.000000 -0.000055
# 5 0.008275 -0.005748 -0.005069 0.000000 0.039719 0.000000
# 6 0.000000 0.000000 0.000000 -0.000055 0.000000 0.033991
#
#
# Mechanical properties :
#
#
# Convention : Reuss Voigt Hill
#
# Bulk Modulus (GPa) = 30.87447 50.92826 40.90137
# Shear Modulus (GPa) = 22.94789 30.46273 26.70531
#
# Velocity S-wave (km/s) = 3.31485 3.81924 3.57595
# Velocity P-wave (km/s) = 5.42538 6.62080 6.05267
#
# Compressibility (1/GPa) = 0.03238922
#
# Stress axis : x y z
#
# Youngs Moduli (GPa) = 121.48495 37.98635 36.67312
#
# Poissons Ratio (x) = 0.20452 0.15160
# Poissons Ratio (y) = 0.65408 0.19070
# Poissons Ratio (z) = 0.50219 0.19753
#
# Static dielectric constant tensor:
#      x y z
#    x 1.818810 0.000000 -0.029200 
#    y 0.000000 1.721410 0.000000 
#    z -0.029200 0.000000 1.866470 
# 
# From -- ./inp_files/132985.got.cif
#   From: 2010.05.17/outbox.cif.g08.bks.cpg/sg12_67_cif.got.tgz:132985.got - 2010.06.03 13:09:07.
