data_PCOD9198458
_publ_section_title
;
Structure prediction by ZEFSAII (Michael W. Deem and Ramdas Pophale) SiO2 
 PCOD9198458
Probable space group: C 2/M
;
_chemical_formula_sum "Si O2"
_cell_formula_units_Z 58
_cell_length_a 28.646773
_cell_length_b 8.698001
_cell_length_c 12.591905
_cell_angle_alpha 90.000000
_cell_angle_beta 84.644115
_cell_angle_gamma 90.000000
_cell_volume 3123.822678
_symmetry_space_group_name_H-M "C 2/M"
_symmetry_group_IT_number 12
_symmetry_cell_setting 'monoclinic'
loop_
_space_group_symop_operation_xyz
x,y,z
-x,y,-z
-x,-y,-z
x,-y,z
1/2+x,1/2+y,z
1/2-x,1/2+y,-z
1/2-x,1/2-y,-z
1/2+x,1/2-y,z
loop_
_atom_site_type_symbol
_atom_site_label
_atom_site_fract_x
_atom_site_fract_y
_atom_site_fract_z
Si Si1 0.475318 0.685640 0.393998
Si Si2 0.363397 0.317083 0.856043
Si Si3 0.789202 0.812656 0.296717
Si Si4 0.536646 0.168913 0.195522
Si Si5 0.000000 0.500000 0.000000
Si Si6 0.683411 0.816229 0.341795
Si Si7 0.205091 0.814681 0.947855
Si Si8 0.867965 0.814166 0.445790
O O1 0.500000 0.728101 0.500000
O O2 0.477006 0.500000 0.385349
O O3 0.502723 0.756275 0.289049
O O4 0.420960 0.734205 0.409275
O O5 0.359108 0.500000 0.844387
O O6 0.416967 0.267485 0.833487
O O7 0.333498 0.236854 0.770102
O O8 0.340747 0.273094 0.974036
O O9 0.737444 0.765203 0.345941
O O10 0.796150 0.761458 0.173615
O O11 0.830652 0.761147 0.365202
O O12 0.789853 0.000000 0.296321
O O13 0.552168 0.000000 0.233656
O O14 0.511480 0.131440 0.089433
O O15 0.649818 0.745403 0.437461
O O16 0.681988 0.000000 0.348422
O O17 0.208797 0.000000 0.945681
O O18 0.250000 0.750000 0.000000
O O19 0.867578 0.000000 0.448233
#
# Coordination Sequence:
#
# PCOD9198458 Si02
#       8
#     8   8   8   8   2   8   8   8
#     4  10  21  38  63  93 123 156 205 260 310 362
#     4  11  22  36  62  93 117 152 202 248 298 358
#     4   9  19  36  56  81 118 162 199 242 298 352
#     4  10  22  42  64  85 124 160 197 249 308 363
#     4   8  24  44  60  88 124 156 206 246 308 360
#     4  11  21  35  58  85 123 161 198 245 297 362
#     4  10  20  36  57  84 120 154 200 246 293 350
#     4  10  21  37  58  85 121 160 200 251 300 357
#
# _framework density 18.566994000000001
#
# number of rings (size 3 to 8) (size 9 to 14) (size 15 to 20)
#    0.414    1.517    1.379    2.483    0.000    3.586 
#    0.000    4.138    0.000    0.000    0.000    0.000 
#    0.000    0.000    0.000    0.000    0.000    0.000 
#
# Total GULP energy -161575.559863 kJ/mol
# GULP energy per Si atom -5571.571030 kJ/mol
# Density = 1.852473 g / cm^3
# Si number density = 18.566994 Si / 1000 Ang^3
#
#
#
# Elastic Constant Matrix: (Units=GPa)
#
#
# Indices 1 2 3 4 5 6 
#
# 1 102.8213 17.8060 32.5890 0.0000 -23.6404 0.0000
# 2 17.8060 14.8005 10.8717 0.0000 -6.8201 0.0000
# 3 32.5890 10.8717 61.0513 0.0000 -16.5223 0.0000
# 4 0.0000 0.0000 0.0000 16.3883 0.0000 -3.8463
# 5 -23.6404 -6.8201 -16.5223 0.0000 37.5726 0.0000
# 6 0.0000 0.0000 0.0000 -3.8463 0.0000 13.7753
#
#
#
# Elastic Compliance Matrix: (Units=1/GPa)
#
#
# Indices 1 2 3 4 5 6 
#
# 1 0.014225 -0.011768 -0.004147 0.000000 0.004991 0.000000
# 2 -0.011768 0.090314 -0.008363 0.000000 0.005311 0.000000
# 3 -0.004147 -0.008363 0.021528 0.000000 0.005339 0.000000
# 4 0.000000 0.000000 0.000000 0.065298 0.000000 0.018232
# 5 0.004991 0.005311 0.005339 0.000000 0.033067 0.000000
# 6 0.000000 0.000000 0.000000 0.018232 0.000000 0.077684
#
#
# Mechanical properties :
#
#
# Convention : Reuss Voigt Hill
#
# Bulk Modulus (GPa) = 12.90165 33.46741 23.18453
# Shear Modulus (GPa) = 13.27983 21.37434 17.32709
#
# Velocity S-wave (km/s) = 2.67730 3.39662 3.05818
# Velocity P-wave (km/s) = 4.06460 5.78334 4.99840
#
# Compressibility (1/GPa) = 0.07750946
#
# Stress axis : x y z
#
# Youngs Moduli (GPa) = 70.29643 11.07248 46.45181
#
# Poissons Ratio (x) = 0.13030 0.19265
# Poissons Ratio (y) = 0.82726 0.38850
# Poissons Ratio (z) = 0.29154 0.09260
#
# Static dielectric constant tensor:
#      x y z
#    x 1.634580 0.000000 -0.007710 
#    y 0.000000 1.633750 0.000000 
#    z -0.007710 0.000000 1.623880 
# 
# From -- ./inp_files/186583.got.cif
#   From: 2010.05.17/outbox.cif.g08.bks.cpg/sg12_94_cif.got.tgz:186583.got - 2010.06.03 13:09:07.
