data_PCOD9198139
_publ_section_title
;
Structure prediction by ZEFSAII (Michael W. Deem and Ramdas Pophale) SiO2 
 PCOD9198139
Probable space group: C 2/M
;
_chemical_formula_sum "Si O2"
_cell_formula_units_Z 64
_cell_length_a 19.250265
_cell_length_b 8.126076
_cell_length_c 29.932558
_cell_angle_alpha 90.000000
_cell_angle_beta 136.743342
_cell_angle_gamma 90.000000
_cell_volume 3208.644774
_symmetry_space_group_name_H-M "C 2/M"
_symmetry_group_IT_number 12
_symmetry_cell_setting 'monoclinic'
loop_
_space_group_symop_operation_xyz
x,y,z
-x,y,-z
-x,-y,-z
x,-y,z
1/2+x,1/2+y,z
1/2-x,1/2+y,-z
1/2-x,1/2-y,-z
1/2+x,1/2-y,z
loop_
_atom_site_type_symbol
_atom_site_label
_atom_site_fract_x
_atom_site_fract_y
_atom_site_fract_z
Si Si1 0.100487 0.798103 0.520670
Si Si2 0.397327 0.301205 0.928361
Si Si3 0.677654 0.195096 0.363872
Si Si4 0.680665 0.689621 0.834840
Si Si5 0.485138 0.194741 0.783682
Si Si6 0.916148 0.191179 0.589095
Si Si7 0.858306 0.199208 0.807913
Si Si8 0.633892 0.808636 0.715764
O O1 0.208421 0.742400 0.591142
O O2 0.099783 0.745399 0.468527
O O3 0.000000 0.744133 0.500000
O O4 0.099128 0.000000 0.520205
O O5 0.395858 0.500000 0.928946
O O6 0.293590 0.238633 0.901863
O O7 0.390145 0.251393 0.872941
O O8 0.500000 0.243892 0.000000
O O9 0.590442 0.262003 0.290429
O O10 0.645059 0.222396 0.399860
O O11 0.680529 0.000000 0.357055
O O12 0.680239 0.500000 0.820917
O O13 0.593900 0.721237 0.830164
O O14 0.650393 0.793850 0.776802
O O15 0.430683 0.227557 0.804758
O O16 0.499366 0.000000 0.783669
O O17 0.035353 0.209791 0.655472
O O18 0.887083 0.000000 0.576459
O O19 0.740890 0.248549 0.745474
O O20 0.861169 0.000000 0.807290
O O21 0.616964 0.000000 0.696680
#
# Coordination Sequence:
#
# PCOD9198139 Si02
#       8
#     8   8   8   8   8   8   8   8
#     4   9  20  37  55  78 108 143 187 238 290 346
#     4   9  19  39  65  89 118 157 193 226 275 336
#     4  10  21  37  57  77 107 150 188 232 286 345
#     4  11  21  35  58  87 118 148 188 237 278 327
#     4  11  22  35  56  84 116 153 191 233 286 344
#     4  11  21  33  57  83 106 142 189 239 286 341
#     4   9  20  36  56  83 116 148 184 234 281 326
#     4  10  20  36  56  80 112 149 187 232 287 343
#
# _framework density 19.946114999999999
#
# number of rings (size 3 to 8) (size 9 to 14) (size 15 to 20)
#    0.000    2.000    1.250    3.375    1.750    3.250 
#    0.000    1.250    0.000    1.875    0.000    0.000 
#    0.000    0.000    0.000    0.000    0.000    0.000 
#
# Total GULP energy -178706.357615 kJ/mol
# GULP energy per Si atom -5584.573675 kJ/mol
# Density = 1.990072 g / cm^3
# Si number density = 19.946115 Si / 1000 Ang^3
#
#
#
# Elastic Constant Matrix: (Units=GPa)
#
#
# Indices 1 2 3 4 5 6 
#
# 1 121.5367 3.3111 45.5105 0.0000 28.3912 0.0000
# 2 3.3111 16.2068 9.4699 0.0000 4.5981 0.0001
# 3 45.5105 9.4699 94.3713 0.0000 30.6427 0.0000
# 4 0.0000 0.0000 0.0000 8.5560 0.0000 0.1342
# 5 28.3912 4.5981 30.6427 0.0000 28.5191 0.0000
# 6 0.0000 0.0001 0.0000 0.1342 0.0000 25.3700
#
#
#
# Elastic Compliance Matrix: (Units=1/GPa)
#
#
# Indices 1 2 3 4 5 6 
#
# 1 0.011206 0.001757 -0.002866 0.000000 -0.008360 0.000000
# 2 0.001757 0.066362 -0.005321 0.000000 -0.006732 0.000000
# 3 -0.002866 -0.005321 0.017366 0.000000 -0.014948 0.000000
# 4 0.000000 0.000000 0.000000 0.116887 0.000000 -0.000618
# 5 -0.008360 -0.006732 -0.014948 0.000000 0.060533 0.000000
# 6 0.000000 0.000000 0.000000 -0.000618 0.000000 0.039420
#
#
# Mechanical properties :
#
#
# Convention : Reuss Voigt Hill
#
# Bulk Modulus (GPa) = 12.18396 38.74419 25.46407
# Shear Modulus (GPa) = 14.20485 24.07725 19.14105
#
# Velocity S-wave (km/s) = 2.67153 3.47813 3.10116
# Velocity P-wave (km/s) = 3.95447 5.96627 5.06133
#
# Compressibility (1/GPa) = 0.08207514
#
# Stress axis : x y z
#
# Youngs Moduli (GPa) = 89.23659 15.06878 57.58279
#
# Poissons Ratio (x) = -0.02648 0.16504
# Poissons Ratio (y) = -0.15679 0.30639
# Poissons Ratio (z) = 0.25576 0.08018
#
# Static dielectric constant tensor:
#      x y z
#    x 1.690680 0.000000 0.014500 
#    y 0.000000 1.694180 0.000000 
#    z 0.014500 0.000000 1.704900 
# 
# From -- ./inp_files/378391.got.cif
#   From: 2010.05.17/outbox.cif.g08.bks.cpg/sg12_190_cif.got.tgz:378391.got - 2010.06.03 13:09:07.
