data_PCOD9198927
_publ_section_title
;
Structure prediction by ZEFSAII (Michael W. Deem and Ramdas Pophale) SiO2 
 PCOD9198927
Probable space group: C 2/M
;
_chemical_formula_sum "Si O2"
_cell_formula_units_Z 38
_cell_length_a 23.992767
_cell_length_b 13.825527
_cell_length_c 5.017052
_cell_angle_alpha 90.000000
_cell_angle_beta 99.742132
_cell_angle_gamma 90.000000
_cell_volume 1640.220401
_symmetry_space_group_name_H-M "C 2/M"
_symmetry_group_IT_number 12
_symmetry_cell_setting 'monoclinic'
loop_
_space_group_symop_operation_xyz
x,y,z
-x,y,-z
-x,-y,-z
x,-y,z
1/2+x,1/2+y,z
1/2-x,1/2+y,-z
1/2-x,1/2-y,-z
1/2+x,1/2-y,z
loop_
_atom_site_type_symbol
_atom_site_label
_atom_site_fract_x
_atom_site_fract_y
_atom_site_fract_z
Si Si1 0.304082 0.500000 0.548577
Si Si2 0.860321 0.318770 0.169736
Si Si3 0.500000 0.000000 0.500000
Si Si4 0.565364 0.170272 0.263030
Si Si5 0.122289 0.105532 0.754457
Si Si6 0.000000 0.169030 0.500000
Si Si7 0.222230 0.500000 0.978890
O O1 0.345357 0.589055 0.502241
O O2 0.268242 0.500000 0.783535
O O3 0.255273 0.500000 0.282107
O O4 0.880945 0.325040 0.491683
O O5 0.850948 0.204000 0.108193
O O6 0.814567 0.401699 0.078709
O O7 0.912530 0.342310 0.016264
O O8 0.528942 0.082589 0.335866
O O9 0.528835 0.265003 0.296116
O O10 0.055060 0.116725 0.662011
O O11 0.129798 0.000000 0.896797
#
# Coordination Sequence:
#
# PCOD9198927 Si02
#       7
#     4   8   2   8   8   4   4
#     4  10  26  42  66 100 124 170 232 256 336 380
#     4  11  23  42  65  92 131 165 221 262 328 381
#     4  10  20  36  58  90 142 160 210 268 316 378
#     4  10  22  36  62  99 124 173 210 258 322 402
#     4   9  22  44  64 100 129 172 217 272 316 400
#     4   9  19  39  69  90 136 165 211 261 337 374
#     4  12  24  44  68  94 128 176 210 282 328 378
#
# _framework density 23.167619999999999
#
# number of rings (size 3 to 8) (size 9 to 14) (size 15 to 20)
#    0.632    1.263    0.000    2.842    0.000   13.474 
#    0.000    2.105    0.000    0.000    0.000    0.000 
#    0.000    0.000    0.000    0.000    0.000    0.000 
#
# Total GULP energy -105795.011532 kJ/mol
# GULP energy per Si atom -5568.158502 kJ/mol
# Density = 2.311489 g / cm^3
# Si number density = 23.167620 Si / 1000 Ang^3
#
#
#
# Elastic Constant Matrix: (Units=GPa)
#
#
# Indices 1 2 3 4 5 6 
#
# 1 140.6104 68.3965 24.6374 0.0000 -1.4775 0.0000
# 2 68.3965 182.3735 11.2982 0.0000 -2.3495 0.0000
# 3 24.6374 11.2982 52.0446 0.0000 7.8066 0.0000
# 4 0.0000 0.0000 0.0000 -34.9434 0.0000 -43.4146
# 5 -1.4775 -2.3495 7.8066 0.0000 45.7709 0.0000
# 6 0.0000 0.0000 0.0000 -43.4146 0.0000 177.1381
#
#
#
# Elastic Compliance Matrix: (Units=1/GPa)
#
#
# Indices 1 2 3 4 5 6 
#
# 1 0.009386 -0.003271 -0.003852 0.000000 0.000792 0.000000
# 2 -0.003271 0.006710 0.000058 0.000000 0.000229 0.000000
# 3 -0.003852 0.000058 0.021596 0.000000 -0.003805 0.000000
# 4 0.000000 0.000000 0.000000 -0.021938 0.000000 -0.005377
# 5 0.000792 0.000229 -0.003805 0.000000 0.022534 0.000000
# 6 0.000000 0.000000 0.000000 -0.005377 0.000000 0.004328
#
#
# Mechanical properties :
#
#
# Convention : Reuss Voigt Hill
#
# Bulk Modulus (GPa) = 42.44393 64.85476 53.64934
# Shear Modulus (GPa) = 77.39821 55.63956 66.51888
#
# Velocity S-wave (km/s) = 5.78623 4.90594 5.36417
# Velocity P-wave (km/s) = 7.93730 7.75535 7.84685
#
# Compressibility (1/GPa) = 0.02356050
#
# Stress axis : x y z
#
# Youngs Moduli (GPa) = 106.53693 149.04215 46.30487
#
# Poissons Ratio (x) = 0.48758 0.17837
# Poissons Ratio (y) = 0.34852 -0.00267
# Poissons Ratio (z) = 0.41039 -0.00861
#
# Static dielectric constant tensor:
#      x y z
#    x 1.863120 0.000000 0.062820 
#    y 0.000000 1.897920 0.000000 
#    z 0.062820 0.000000 1.907420 
# 
# From -- ./inp_files/24114.got.cif
#   From: 2010.05.17/outbox.cif.g08.bks.cpg/sg12_13_cif.got.tgz:24114.got - 2010.06.03 13:09:07.
