data_PCOD9198772
_publ_section_title
;
Structure prediction by ZEFSAII (Michael W. Deem and Ramdas Pophale) SiO2 
 PCOD9198772
Probable space group: C 2/M
;
_chemical_formula_sum "Si O2"
_cell_formula_units_Z 56
_cell_length_a 29.698173
_cell_length_b 8.907456
_cell_length_c 12.959036
_cell_angle_alpha 90.000000
_cell_angle_beta 124.430705
_cell_angle_gamma 90.000000
_cell_volume 2827.550401
_symmetry_space_group_name_H-M "C 2/M"
_symmetry_group_IT_number 12
_symmetry_cell_setting 'monoclinic'
loop_
_space_group_symop_operation_xyz
x,y,z
-x,y,-z
-x,-y,-z
x,-y,z
1/2+x,1/2+y,z
1/2-x,1/2+y,-z
1/2-x,1/2-y,-z
1/2+x,1/2-y,z
loop_
_atom_site_type_symbol
_atom_site_label
_atom_site_fract_x
_atom_site_fract_y
_atom_site_fract_z
Si Si1 0.452351 0.176190 0.018327
Si Si2 0.340652 0.320855 0.557596
Si Si3 0.367420 0.175384 0.266631
Si Si4 0.937251 0.675477 0.567195
Si Si5 0.770157 0.680475 0.280966
Si Si6 0.832185 0.323493 0.769035
Si Si7 0.047980 0.823880 0.761679
O O1 0.454711 0.275627 0.123049
O O2 0.459347 0.000000 0.056420
O O3 0.500000 0.214731 0.000000
O O4 0.393800 0.192072 0.888531
O O5 0.336376 0.500000 0.548883
O O6 0.401304 0.267481 0.603028
O O7 0.301039 0.247035 0.421196
O O8 0.326930 0.258618 0.652490
O O9 0.406402 0.189193 0.418021
O O10 0.307706 0.219412 0.231036
O O11 0.394964 0.271820 0.213658
O O12 0.366677 0.000000 0.235597
O O13 0.937004 0.500000 0.595813
O O14 0.998278 0.736693 0.642247
O O15 0.769132 0.500000 0.287558
O O16 0.710282 0.749754 0.206694
O O17 0.819969 0.500000 0.740745
O O18 0.040478 0.000000 0.738769
#
# Coordination Sequence:
#
# PCOD9198772 Si02
#       7
#     8   8   8   8   8   8   8
#     4  10  23  43  64  83 109 149 192 233 279 337
#     4  11  21  34  56  87 121 152 187 235 286 339
#     4   9  20  38  59  82 112 152 192 231 279 338
#     4  10  20  36  58  84 117 155 192 231 281 340
#     4  10  21  38  59  84 116 153 191 234 284 337
#     4  11  22  37  59  85 113 150 194 238 286 339
#     4  12  24  36  57  87 117 149 187 236 287 337
#
# _framework density 19.805126999999999
#
# number of rings (size 3 to 8) (size 9 to 14) (size 15 to 20)
#    0.000    1.571    0.000    6.429    0.000    7.714 
#    0.000    0.714    0.000    0.000    0.000    0.000 
#    0.000    0.000    0.000    0.000    0.000    0.000 
#
# Total GULP energy -156577.391375 kJ/mol
# GULP energy per Si atom -5592.049692 kJ/mol
# Density = 1.976005 g / cm^3
# Si number density = 19.805127 Si / 1000 Ang^3
#
#
#
# Elastic Constant Matrix: (Units=GPa)
#
#
# Indices 1 2 3 4 5 6 
#
# 1 155.1803 58.3051 20.3573 0.0000 -0.4578 0.0000
# 2 58.3051 102.5403 19.1606 0.0000 -4.7245 0.0000
# 3 20.3573 19.1606 13.9634 0.0000 -1.5946 0.0000
# 4 0.0000 0.0000 0.0000 13.5954 0.0000 2.7565
# 5 -0.4578 -4.7245 -1.5946 0.0000 17.5059 0.0000
# 6 0.0000 0.0000 0.0000 2.7565 0.0000 29.9391
#
#
#
# Elastic Compliance Matrix: (Units=1/GPa)
#
#
# Indices 1 2 3 4 5 6 
#
# 1 0.008856 -0.003576 -0.008172 0.000000 -0.001478 0.000000
# 2 -0.003576 0.014624 -0.014564 0.000000 0.002526 0.000000
# 3 -0.008172 -0.014564 0.104124 0.000000 0.005341 0.000000
# 4 0.000000 0.000000 0.000000 0.074954 0.000000 -0.006901
# 5 -0.001478 0.002526 0.005341 0.000000 0.058253 0.000000
# 6 0.000000 0.000000 0.000000 -0.006901 0.000000 0.034037
#
#
# Mechanical properties :
#
#
# Convention : Reuss Voigt Hill
#
# Bulk Modulus (GPa) = 13.33707 51.92555 32.63131
# Shear Modulus (GPa) = 13.42412 23.79881 18.61146
#
# Velocity S-wave (km/s) = 2.60630 3.47024 3.06883
# Velocity P-wave (km/s) = 3.97566 6.50630 5.39156
#
# Compressibility (1/GPa) = 0.07497900
#
# Stress axis : x y z
#
# Youngs Moduli (GPa) = 112.92388 68.38221 9.60392
#
# Poissons Ratio (x) = 0.24457 0.07848
# Poissons Ratio (y) = 0.40387 0.13987
# Poissons Ratio (z) = 0.92278 0.99592
#
# Static dielectric constant tensor:
#      x y z
#    x 1.721180 0.000000 0.009470 
#    y 0.000000 1.658940 0.000000 
#    z 0.009470 0.000000 1.673270 
# 
# From -- ./inp_files/181109.got.cif
#   From: 2010.05.17/outbox.cif.g08.bks.cpg/sg12_91_cif.got.tgz:181109.got - 2010.06.03 13:09:07.
