data_PCOD9198453
_publ_section_title
;
Structure prediction by ZEFSAII (Michael W. Deem and Ramdas Pophale) SiO2 
 PCOD9198453
Probable space group: C 2/M
;
_chemical_formula_sum "Si O2"
_cell_formula_units_Z 48
_cell_length_a 25.483715
_cell_length_b 8.936157
_cell_length_c 20.848360
_cell_angle_alpha 90.000000
_cell_angle_beta 35.486475
_cell_angle_gamma 90.000000
_cell_volume 2756.104648
_symmetry_space_group_name_H-M "C 2/M"
_symmetry_group_IT_number 12
_symmetry_cell_setting 'monoclinic'
loop_
_space_group_symop_operation_xyz
x,y,z
-x,y,-z
-x,-y,-z
x,-y,z
1/2+x,1/2+y,z
1/2-x,1/2+y,-z
1/2-x,1/2-y,-z
1/2+x,1/2-y,z
loop_
_atom_site_type_symbol
_atom_site_label
_atom_site_fract_x
_atom_site_fract_y
_atom_site_fract_z
Si Si1 0.946534 0.821059 0.231429
Si Si2 0.061553 0.320001 0.623689
Si Si3 0.059799 0.680046 0.378150
Si Si4 0.750035 0.319734 0.627623
Si Si5 0.057375 0.320020 0.006295
Si Si6 0.243386 0.820810 0.237633
O O1 0.963689 0.755753 0.284592
O O2 0.844503 0.778656 0.311307
O O3 0.014271 0.756336 0.111019
O O4 0.951987 0.000000 0.227036
O O5 0.059615 0.500000 0.632967
O O6 0.163093 0.276850 0.501078
O O7 0.994781 0.280509 0.631724
O O8 0.070827 0.500000 0.368850
O O9 0.156712 0.756545 0.287426
O O10 0.000000 0.721434 0.500000
O O11 0.752717 0.500000 0.633046
O O12 0.756564 0.245599 0.690735
O O13 0.050788 0.500000 0.019659
O O14 0.161629 0.280036 0.890138
O O15 0.000000 0.277881 0.000000
O O16 0.238610 0.000000 0.245901
#
# Coordination Sequence:
#
# PCOD9198453 Si02
#       6
#     8   8   8   8   8   8
#     4  11  23  36  57  88 118 149 189 241 285 330
#     4  10  21  38  59  81 115 159 189 223 283 350
#     4  10  20  38  61  83 113 153 192 229 280 343
#     4  10  20  36  57  84 118 152 186 228 285 346
#     4  10  21  39  59  81 114 153 191 231 283 345
#     4  11  22  35  58  89 115 145 188 241 284 325
#
# _framework density 17.415883000000001
#
# number of rings (size 3 to 8) (size 9 to 14) (size 15 to 20)
#    0.000    1.667    3.333    1.500    0.000    4.000 
#    0.000    0.833    0.000    0.000    0.000    0.000 
#    0.000    0.000    0.000    0.000    0.000    0.000 
#
# Total GULP energy -134075.292674 kJ/mol
# GULP energy per Si atom -5586.470528 kJ/mol
# Density = 1.737624 g / cm^3
# Si number density = 17.415883 Si / 1000 Ang^3
#
#
#
# Elastic Constant Matrix: (Units=GPa)
#
#
# Indices 1 2 3 4 5 6 
#
# 1 109.4815 37.2694 89.6312 -0.0004 11.0856 0.0006
# 2 37.2694 20.2163 46.2190 0.0017 3.9711 -0.0005
# 3 89.6312 46.2190 160.0869 -0.0005 7.8157 0.0005
# 4 -0.0004 0.0017 -0.0005 27.4841 0.0003 -0.3101
# 5 11.0856 3.9711 7.8157 0.0003 36.5702 -0.0002
# 6 0.0006 -0.0005 0.0005 -0.3101 -0.0002 29.2945
#
#
#
# Elastic Compliance Matrix: (Units=1/GPa)
#
#
# Indices 1 2 3 4 5 6 
#
# 1 0.025002 -0.040770 -0.002096 0.000003 -0.002704 -0.000001
# 2 -0.040770 0.213733 -0.038755 -0.000015 -0.002568 0.000005
# 3 -0.002096 -0.038755 0.018566 0.000003 0.000876 -0.000001
# 4 0.000003 -0.000015 0.000003 0.036389 0.000000 0.000385
# 5 -0.002704 -0.002568 0.000876 0.000000 0.028256 0.000000
# 6 -0.000001 0.000005 -0.000001 0.000385 0.000000 0.034140
#
#
# Mechanical properties :
#
#
# Convention : Reuss Voigt Hill
#
# Bulk Modulus (GPa) = 10.63153 70.66932 40.65043
# Shear Modulus (GPa) = 9.07964 26.44744 17.76354
#
# Velocity S-wave (km/s) = 2.28577 3.90113 3.19715
# Velocity P-wave (km/s) = 3.61719 7.80752 6.08446
#
# Compressibility (1/GPa) = 0.09405981
#
# Stress axis : x y z
#
# Youngs Moduli (GPa) = 39.99602 4.67873 53.86107
#
# Poissons Ratio (x) = 0.19075 0.11288
# Poissons Ratio (y) = 1.63065 2.08738
# Poissons Ratio (z) = 0.08382 0.18132
#
# Static dielectric constant tensor:
#      x y z
#    x 1.569940 0.000000 -0.015220 
#    y 0.000000 1.579180 0.000000 
#    z -0.015220 0.000000 1.568470 
# 
# From -- ./inp_files/180252.got.cif
#   From: 2010.05.17/outbox.cif.g08.bks.cpg/sg12_91_cif.got.tgz:180252.got - 2010.06.03 13:09:07.
