data_PCOD9198846
_publ_section_title
;
Structure prediction by ZEFSAII (Michael W. Deem and Ramdas Pophale) SiO2 
 PCOD9198846
Probable space group: C 2/M
;
_chemical_formula_sum "Si O2"
_cell_formula_units_Z 64
_cell_length_a 28.619123
_cell_length_b 14.275943
_cell_length_c 20.737292
_cell_angle_alpha 90.000000
_cell_angle_beta 159.042471
_cell_angle_gamma 90.000000
_cell_volume 3030.419548
_symmetry_space_group_name_H-M "C 2/M"
_symmetry_group_IT_number 12
_symmetry_cell_setting 'monoclinic'
loop_
_space_group_symop_operation_xyz
x,y,z
-x,y,-z
-x,-y,-z
x,-y,z
1/2+x,1/2+y,z
1/2-x,1/2+y,-z
1/2-x,1/2-y,-z
1/2+x,1/2-y,z
loop_
_atom_site_type_symbol
_atom_site_label
_atom_site_fract_x
_atom_site_fract_y
_atom_site_fract_z
Si Si1 0.610518 0.797710 0.086164
Si Si2 0.910407 0.894543 0.321888
Si Si3 0.149858 0.103989 0.169325
Si Si4 0.507542 0.613200 0.221520
Si Si5 0.807648 0.736164 0.003110
Si Si6 0.278565 0.386806 0.598534
Si Si7 0.147372 0.891584 0.530310
Si Si8 0.996059 0.612300 0.808916
O O1 0.652325 0.690889 0.124891
O O2 0.738432 0.843799 0.282472
O O3 0.500000 0.797537 0.000000
O O4 0.554880 0.849991 0.951909
O O5 0.000000 0.890381 0.500000
O O6 0.010224 0.885873 0.391285
O O7 0.849964 0.000000 0.241939
O O8 0.806921 0.811541 0.186284
O O9 0.228210 0.135238 0.334595
O O10 0.190137 0.000000 0.199075
O O11 0.000000 0.095145 0.000000
O O12 0.488420 0.500000 0.197760
O O13 0.375465 0.669215 0.065288
O O14 0.584556 0.642350 0.256344
O O15 0.610819 0.639109 0.411326
O O16 0.921923 0.658808 0.143287
O O17 0.750000 0.750000 0.000000
O O18 0.281689 0.500000 0.600502
O O19 0.153737 0.358361 0.396218
O O20 0.186133 0.000000 0.575539
O O21 0.003535 0.500000 0.817767
#
# Coordination Sequence:
#
# PCOD9198846 Si02
#       8
#     8   8   8   8   8   8   8   8
#     4  11  23  37  62 100 133 174 215 269 332 400
#     4  10  21  41  65  88 121 165 214 268 324 387
#     4   9  20  38  59  86 125 173 218 256 304 382
#     4  10  22  39  63  93 128 171 218 271 328 391
#     4  12  25  40  65  95 126 173 225 275 322 387
#     4   9  20  40  65  92 127 171 213 265 333 400
#     4  10  20  36  58  86 124 168 212 263 325 390
#     4  11  25  43  65  98 136 170 214 278 345 395
#
# _framework density 21.119188000000001
#
# number of rings (size 3 to 8) (size 9 to 14) (size 15 to 20)
#    0.000    1.750    1.250    2.250    5.250    4.000 
#    0.000    0.000    0.000    1.125    0.000    0.000 
#    0.000    0.000    0.000    0.000    0.000    0.000 
#
# Total GULP energy -178752.481266 kJ/mol
# GULP energy per Si atom -5586.015040 kJ/mol
# Density = 2.107112 g / cm^3
# Si number density = 21.119188 Si / 1000 Ang^3
#
#
#
# Elastic Constant Matrix: (Units=GPa)
#
#
# Indices 1 2 3 4 5 6 
#
# 1 89.0157 36.3145 30.0391 0.0000 1.4067 0.0000
# 2 36.3145 128.8141 61.1512 0.0000 -5.3643 0.0000
# 3 30.0391 61.1512 123.8543 0.0000 -7.5347 0.0000
# 4 0.0000 0.0000 0.0000 34.8060 0.0000 0.9918
# 5 1.4067 -5.3643 -7.5347 0.0000 23.4385 0.0000
# 6 0.0000 0.0000 0.0000 0.9918 0.0000 27.3897
#
#
#
# Elastic Compliance Matrix: (Units=1/GPa)
#
#
# Indices 1 2 3 4 5 6 
#
# 1 0.013074 -0.002882 -0.001872 0.000000 -0.002046 0.000000
# 2 -0.002882 0.010787 -0.004555 0.000000 0.001177 0.000000
# 3 -0.001872 -0.004555 0.010935 0.000000 0.002585 0.000000
# 4 0.000000 0.000000 0.000000 0.028760 0.000000 -0.001041
# 5 -0.002046 0.001177 0.002585 0.000000 0.043888 0.000000
# 6 0.000000 0.000000 0.000000 -0.001041 0.000000 0.036548
#
#
# Mechanical properties :
#
#
# Convention : Reuss Voigt Hill
#
# Bulk Modulus (GPa) = 61.82014 66.29931 64.05972
# Shear Modulus (GPa) = 29.76128 31.40547 30.58337
#
# Velocity S-wave (km/s) = 3.75801 3.86042 3.80956
# Velocity P-wave (km/s) = 6.94016 7.16461 7.05327
#
# Compressibility (1/GPa) = 0.01617596
#
# Stress axis : x y z
#
# Youngs Moduli (GPa) = 76.48821 92.70239 91.45333
#
# Poissons Ratio (x) = 0.26717 0.17124
# Poissons Ratio (y) = 0.22044 0.41661
# Poissons Ratio (z) = 0.14322 0.42230
#
# Static dielectric constant tensor:
#      x y z
#    x 1.851460 0.000000 -0.028510 
#    y 0.000000 1.793030 0.000000 
#    z -0.028510 0.000000 1.769440 
# 
# From -- ./inp_files/330385.got.cif
#   From: 2010.05.17/outbox.cif.g08.bks.cpg/sg12_166_cif.got.tgz:330385.got - 2010.06.03 13:09:07.
