data_PCOD9198337
_publ_section_title
;
Structure prediction by ZEFSAII (Michael W. Deem and Ramdas Pophale) SiO2 
 PCOD9198337
Probable space group: C 2/M
;
_chemical_formula_sum "Si O2"
_cell_formula_units_Z 40
_cell_length_a 28.157329
_cell_length_b 8.236487
_cell_length_c 19.167002
_cell_angle_alpha 90.000000
_cell_angle_beta 26.984309
_cell_angle_gamma 90.000000
_cell_volume 2016.976890
_symmetry_space_group_name_H-M "C 2/M"
_symmetry_group_IT_number 12
_symmetry_cell_setting 'monoclinic'
loop_
_space_group_symop_operation_xyz
x,y,z
-x,y,-z
-x,-y,-z
x,-y,z
1/2+x,1/2+y,z
1/2-x,1/2+y,-z
1/2-x,1/2-y,-z
1/2+x,1/2-y,z
loop_
_atom_site_type_symbol
_atom_site_label
_atom_site_fract_x
_atom_site_fract_y
_atom_site_fract_z
Si Si1 0.633941 0.696302 0.131725
Si Si2 0.732359 0.194304 0.734653
Si Si3 0.033854 0.801523 0.533007
Si Si4 0.167316 0.194535 0.666067
Si Si5 0.565750 0.304061 0.067469
O O1 0.631691 0.500000 0.134115
O O2 0.549862 0.751396 0.299455
O O3 0.601789 0.753933 0.096638
O O4 0.750000 0.750000 0.000000
O O5 0.849124 0.252607 0.601186
O O6 0.700871 0.246988 0.698415
O O7 0.733666 0.000000 0.735398
O O8 0.648475 0.255234 0.900475
O O9 0.000000 0.749533 0.500000
O O10 0.034079 0.000000 0.532969
O O11 0.250000 0.250000 0.500000
O O12 0.050701 0.254119 0.799389
O O13 0.164756 0.000000 0.669894
O O14 0.562056 0.500000 0.074803
#
# Coordination Sequence:
#
# PCOD9198337 Si02
#       5
#     8   8   8   8   8
#     4  10  20  36  57  81 111 146 186 232 283 337
#     4  11  22  37  60  87 113 146 191 237 281 333
#     4   9  18  34  56  81 111 148 187 228 278 336
#     4  11  23  40  61  84 114 151 189 230 281 337
#     4  10  22  39  57  80 115 155 189 229 284 340
#
# _framework density 19.831659999999999
#
# number of rings (size 3 to 8) (size 9 to 14) (size 15 to 20)
#    0.000    1.800    0.000    4.200    0.000    9.600 
#    0.000    4.000    0.000    5.400    0.000    0.000 
#    0.000    0.000    0.000    0.000    0.000    0.000 
#
# Total GULP energy -111804.861962 kJ/mol
# GULP energy per Si atom -5590.243098 kJ/mol
# Density = 1.978652 g / cm^3
# Si number density = 19.831660 Si / 1000 Ang^3
#
#
#
# Elastic Constant Matrix: (Units=GPa)
#
#
# Indices 1 2 3 4 5 6 
#
# 1 244.9882 14.3916 148.4459 -0.0005 -1.8531 -0.0001
# 2 14.3916 8.3140 11.4176 -0.0025 -3.6553 0.0003
# 3 148.4459 11.4176 240.4428 -0.0041 -2.9952 0.0003
# 4 -0.0005 -0.0025 -0.0041 32.9384 0.0004 -1.2337
# 5 -1.8531 -3.6553 -2.9952 0.0004 47.3612 0.0001
# 6 -0.0001 0.0003 0.0003 -1.2337 0.0001 25.1007
#
#
#
# Elastic Compliance Matrix: (Units=1/GPa)
#
#
# Indices 1 2 3 4 5 6 
#
# 1 0.006842 -0.006688 -0.003913 -0.000001 -0.000496 0.000000
# 2 -0.006688 0.139675 -0.002374 0.000010 0.010368 -0.000001
# 3 -0.003913 -0.002374 0.006688 0.000001 0.000087 0.000000
# 4 -0.000001 0.000010 0.000001 0.030416 0.000001 0.001495
# 5 -0.000496 0.010368 0.000087 0.000001 0.021901 0.000000
# 6 0.000000 -0.000001 0.000000 0.001495 0.000000 0.039913
#
#
# Mechanical properties :
#
#
# Convention : Reuss Voigt Hill
#
# Bulk Modulus (GPa) = 7.85821 93.58391 50.72106
# Shear Modulus (GPa) = 15.93357 42.37938 29.15648
#
# Velocity S-wave (km/s) = 2.83758 4.62774 3.83848
# Velocity P-wave (km/s) = 3.83495 8.70897 6.72878
#
# Compressibility (1/GPa) = 0.12725548
#
# Stress axis : x y z
#
# Youngs Moduli (GPa) = 146.16247 7.15947 149.51303
#
# Poissons Ratio (x) = 0.04788 0.58498
# Poissons Ratio (y) = 0.97753 0.35500
# Poissons Ratio (z) = 0.57187 0.01700
#
# Static dielectric constant tensor:
#      x y z
#    x 1.660800 0.000000 -0.017470 
#    y 0.000000 1.708100 0.000000 
#    z -0.017470 0.000000 1.655440 
# 
# From -- ./inp_files/151743.got.cif
#   From: 2010.05.17/outbox.cif.g08.bks.cpg/sg12_76_cif.got.tgz:151743.got - 2010.06.03 13:09:07.
