data_PCOD9198848
_publ_section_title
;
Structure prediction by ZEFSAII (Michael W. Deem and Ramdas Pophale) SiO2 
 PCOD9198848
Probable space group: C 2/M
;
_chemical_formula_sum "Si O2"
_cell_formula_units_Z 64
_cell_length_a 8.886753
_cell_length_b 28.918953
_cell_length_c 14.980700
_cell_angle_alpha 90.000000
_cell_angle_beta 56.195844
_cell_angle_gamma 90.000000
_cell_volume 3199.113133
_symmetry_space_group_name_H-M "C 2/M"
_symmetry_group_IT_number 12
_symmetry_cell_setting 'monoclinic'
loop_
_space_group_symop_operation_xyz
x,y,z
-x,y,-z
-x,-y,-z
x,-y,z
1/2+x,1/2+y,z
1/2-x,1/2+y,-z
1/2-x,1/2-y,-z
1/2+x,1/2-y,z
loop_
_atom_site_type_symbol
_atom_site_label
_atom_site_fract_x
_atom_site_fract_y
_atom_site_fract_z
Si Si1 0.810164 0.765387 0.079411
Si Si2 0.451183 0.809161 0.176435
Si Si3 0.259284 0.051255 0.130710
Si Si4 0.240648 0.551797 0.578424
Si Si5 0.611511 0.353826 0.381942
Si Si6 0.122778 0.594299 0.076678
Si Si7 0.406253 0.417730 0.338404
Si Si8 0.313425 0.053931 0.757079
O O1 0.622850 0.788204 0.173657
O O2 0.870853 0.724908 0.127141
O O3 0.750000 0.750000 0.000000
O O4 0.000000 0.792972 0.000000
O O5 0.284220 0.825962 0.291751
O O6 0.541230 0.854619 0.103659
O O7 0.445983 0.061791 0.120077
O O8 0.090466 0.056302 0.250788
O O9 0.264632 0.000000 0.091033
O O10 0.251386 0.086139 0.050240
O O11 0.297927 0.500000 0.588439
O O12 0.322362 0.595685 0.603615
O O13 0.300056 0.559224 0.456018
O O14 0.026023 0.554059 0.662846
O O15 0.500000 0.331894 0.500000
O O16 0.473735 0.367304 0.348191
O O17 0.209867 0.579378 0.140854
O O18 0.287448 0.420231 0.289280
O O19 0.254351 0.000000 0.781307
#
# Coordination Sequence:
#
# PCOD9198848 Si02
#       8
#     8   8   8   8   8   8   8   8
#     4   9  22  40  72  96 121 152 190 255 320 397
#     4  11  21  46  64  97 122 156 204 259 327 386
#     4  11  22  37  57  85 121 173 217 252 301 363
#     4  10  20  36  58  86 124 175 222 261 305 354
#     4  10  22  40  65  93 128 167 217 265 304 373
#     4  11  23  38  60  84 121 164 204 257 304 379
#     4  11  22  35  55  87 124 176 215 268 299 353
#     4  11  21  36  54  84 126 169 213 261 310 352
#
# _framework density 20.005545000000001
#
# number of rings (size 3 to 8) (size 9 to 14) (size 15 to 20)
#    0.000    1.500    2.500    3.000    5.250    5.750 
#    6.750    1.875    0.000    0.000    0.000    0.000 
#    0.000    0.000    0.000    0.000    0.000    0.000 
#
# Total GULP energy -178578.733205 kJ/mol
# GULP energy per Si atom -5580.585413 kJ/mol
# Density = 1.996001 g / cm^3
# Si number density = 20.005545 Si / 1000 Ang^3
#
#
#
# Elastic Constant Matrix: (Units=GPa)
#
#
# Indices 1 2 3 4 5 6 
#
# 1 99.6991 27.3454 38.9560 0.0000 14.8711 0.0000
# 2 27.3454 66.8281 44.2904 0.0000 -2.8906 0.0000
# 3 38.9560 44.2904 101.9301 0.0000 15.1404 0.0000
# 4 0.0000 0.0000 0.0000 15.4555 0.0000 0.1611
# 5 14.8711 -2.8906 15.1404 0.0000 27.9847 0.0000
# 6 0.0000 0.0000 0.0000 0.1611 0.0000 19.9324
#
#
#
# Elastic Compliance Matrix: (Units=1/GPa)
#
#
# Indices 1 2 3 4 5 6 
#
# 1 0.012935 -0.004036 -0.002291 0.000000 -0.006051 0.000000
# 2 -0.004036 0.023936 -0.010378 0.000000 0.010232 0.000000
# 3 -0.002291 -0.010378 0.016500 0.000000 -0.008781 0.000000
# 4 0.000000 0.000000 0.000000 0.064707 0.000000 -0.000523
# 5 -0.006051 0.010232 -0.008781 0.000000 0.044757 0.000000
# 6 0.000000 0.000000 0.000000 -0.000523 0.000000 0.050174
#
#
# Mechanical properties :
#
#
# Convention : Reuss Voigt Hill
#
# Bulk Modulus (GPa) = 50.09821 54.40456 52.25138
# Shear Modulus (GPa) = 19.75720 23.19890 21.47805
#
# Velocity S-wave (km/s) = 3.14600 3.40902 3.28015
# Velocity P-wave (km/s) = 6.18813 6.53827 6.36561
#
# Compressibility (1/GPa) = 0.01996079
#
# Stress axis : x y z
#
# Youngs Moduli (GPa) = 77.30976 41.77837 60.60668
#
# Poissons Ratio (x) = 0.16863 0.13884
# Poissons Ratio (y) = 0.31205 0.62896
# Poissons Ratio (z) = 0.17710 0.43356
#
# Static dielectric constant tensor:
#      x y z
#    x 1.747380 0.000000 -0.007270 
#    y 0.000000 1.738900 0.000000 
#    z -0.007270 0.000000 1.736160 
# 
# From -- ./inp_files/200915.got.cif
#   From: 2010.05.17/outbox.cif.g08.bks.cpg/sg12_101_cif.got.tgz:200915.got - 2010.06.03 13:09:07.
