data_PCOD9198783
_publ_section_title
;
Structure prediction by ZEFSAII (Michael W. Deem and Ramdas Pophale) SiO2 
 PCOD9198783
Probable space group: C 2/M
;
_chemical_formula_sum "Si O2"
_cell_formula_units_Z 60
_cell_length_a 8.440485
_cell_length_b 11.869186
_cell_length_c 32.333075
_cell_angle_alpha 90.000000
_cell_angle_beta 117.495428
_cell_angle_gamma 90.000000
_cell_volume 2873.308848
_symmetry_space_group_name_H-M "C 2/M"
_symmetry_group_IT_number 12
_symmetry_cell_setting 'monoclinic'
loop_
_space_group_symop_operation_xyz
x,y,z
-x,y,-z
-x,-y,-z
x,-y,z
1/2+x,1/2+y,z
1/2-x,1/2+y,-z
1/2-x,1/2-y,-z
1/2+x,1/2-y,z
loop_
_atom_site_type_symbol
_atom_site_label
_atom_site_fract_x
_atom_site_fract_y
_atom_site_fract_z
Si Si1 0.189395 0.320845 0.322550
Si Si2 0.949681 0.500000 0.759742
Si Si3 0.601315 0.369568 0.251046
Si Si4 0.576437 0.129399 0.093580
Si Si5 0.813768 0.313840 0.802406
Si Si6 0.927204 0.790106 0.610808
Si Si7 0.959905 0.373473 0.447075
Si Si8 0.685755 0.304088 0.035017
O O1 0.082921 0.402765 0.279937
O O2 0.187392 0.200139 0.298803
O O3 0.107065 0.300898 0.357252
O O4 0.394465 0.355088 0.354070
O O5 0.944715 0.400683 0.795038
O O6 0.650916 0.500000 0.256088
O O7 0.387177 0.357429 0.230546
O O8 0.657816 0.306931 0.215571
O O9 0.653172 0.181606 0.144995
O O10 0.638518 0.207222 0.062834
O O11 0.360691 0.130392 0.070918
O O12 0.637406 0.000000 0.096163
O O13 0.752284 0.865031 0.585765
O O14 0.958210 0.721796 0.572370
O O15 0.023307 0.500000 0.444585
O O16 0.000000 0.352252 0.500000
O O17 0.500000 0.363978 0.000000
O O18 0.750000 0.250000 0.000000
#
# Coordination Sequence:
#
# PCOD9198783 Si02
#       8
#     8   4   8   8   8   8   8   8
#     4  10  22  37  60  90 120 168 208 253 311 363
#     4  10  20  36  58  84 127 156 203 254 301 356
#     4  11  23  42  61  85 128 165 207 260 308 362
#     4  11  21  39  66  89 123 164 207 256 309 374
#     4  11  22  41  62  92 120 170 212 254 311 367
#     4  10  22  39  59  93 121 159 208 255 302 373
#     4  10  22  41  65  90 123 163 201 255 318 374
#     4   9  21  39  60  93 125 157 204 257 308 379
#
# _framework density 20.881848999999999
#
# number of rings (size 3 to 8) (size 9 to 14) (size 15 to 20)
#    0.000    1.733    1.333    2.800    1.867    4.800 
#    9.600    2.667    0.000    4.000    0.000    0.000 
#    0.000    0.000    0.000    0.000    0.000    0.000 
#
# Total GULP energy -167061.087875 kJ/mol
# GULP energy per Si atom -5568.702929 kJ/mol
# Density = 2.083432 g / cm^3
# Si number density = 20.881849 Si / 1000 Ang^3
#
#
#
# Elastic Constant Matrix: (Units=GPa)
#
#
# Indices 1 2 3 4 5 6 
#
# 1 40.2570 -1.5560 2.3128 0.0000 -1.2647 0.0000
# 2 -1.5560 125.2420 22.8035 0.0000 -21.1013 0.0000
# 3 2.3128 22.8035 94.5312 0.0000 -19.1001 0.0000
# 4 0.0000 0.0000 0.0000 -24.1140 0.0000 17.5759
# 5 -1.2647 -21.1013 -19.1001 0.0000 32.8101 0.0000
# 6 0.0000 0.0000 0.0000 17.5759 0.0000 -5.2114
#
#
#
# Elastic Compliance Matrix: (Units=1/GPa)
#
#
# Indices 1 2 3 4 5 6 
#
# 1 0.024926 0.000580 -0.000544 0.000000 0.001017 0.000000
# 2 0.000580 0.009076 -0.001156 0.000000 0.005187 0.000000
# 3 -0.000544 -0.001156 0.012145 0.000000 0.006306 0.000000
# 4 0.000000 0.000000 0.000000 0.028440 0.000000 0.095915
# 5 0.001017 0.005187 0.006306 0.000000 0.037524 0.000000
# 6 0.000000 0.000000 0.000000 0.095915 0.000000 0.131595
#
#
# Mechanical properties :
#
#
# Convention : Reuss Voigt Hill
#
# Bulk Modulus (GPa) = 22.77528 34.12787 28.45157
# Shear Modulus (GPa) = 19.18787 16.46159 17.82473
#
# Velocity S-wave (km/s) = 3.03459 2.81075 2.92481
# Velocity P-wave (km/s) = 4.81754 5.18773 5.00606
#
# Compressibility (1/GPa) = 0.04390726
#
# Stress axis : x y z
#
# Youngs Moduli (GPa) = 40.11872 110.18018 82.34061
#
# Poissons Ratio (x) = -0.06392 0.04482
# Poissons Ratio (y) = -0.02327 0.09515
# Poissons Ratio (z) = 0.02184 0.12732
#
# Static dielectric constant tensor:
#      x y z
#    x 1.817690 0.000000 0.025050 
#    y 0.000000 1.738950 0.000000 
#    z 0.025050 0.000000 1.722160 
# 
# From -- ./inp_files/371995.got.cif
#   From: 2010.05.17/outbox.cif.g08.bks.cpg/sg12_186_cif.got.tgz:371995.got - 2010.06.03 13:09:07.
