data_PCOD9198985
_publ_section_title
;
Structure prediction by ZEFSAII (Michael W. Deem and Ramdas Pophale) SiO2 
 PCOD9198985
Probable space group: C 2/M
;
_chemical_formula_sum "Si O2"
_cell_formula_units_Z 32
_cell_length_a 8.368006
_cell_length_b 12.103477
_cell_length_c 22.403358
_cell_angle_alpha 90.000000
_cell_angle_beta 142.438206
_cell_angle_gamma 90.000000
_cell_volume 1383.254578
_symmetry_space_group_name_H-M "C 2/M"
_symmetry_group_IT_number 12
_symmetry_cell_setting 'monoclinic'
loop_
_space_group_symop_operation_xyz
x,y,z
-x,y,-z
-x,-y,-z
x,-y,z
1/2+x,1/2+y,z
1/2-x,1/2+y,-z
1/2-x,1/2-y,-z
1/2+x,1/2-y,z
loop_
_atom_site_type_symbol
_atom_site_label
_atom_site_fract_x
_atom_site_fract_y
_atom_site_fract_z
Si Si1 0.376725 0.625060 0.154696
Si Si2 0.824339 0.317340 0.706096
Si Si3 0.724207 0.302628 0.427452
Si Si4 0.897892 0.161443 0.905006
O O1 0.351771 0.500000 0.167032
O O2 0.626763 0.691944 0.254482
O O3 0.140723 0.704776 0.105145
O O4 0.422354 0.628709 0.096969
O O5 0.558154 0.361639 0.656228
O O6 0.792494 0.295338 0.626595
O O7 0.097059 0.374938 0.803679
O O8 0.750000 0.250000 0.500000
O O9 0.000000 0.364216 0.500000
O O10 0.000000 0.128200 0.000000
#
# Coordination Sequence:
#
# PCOD9198985 Si02
#       4
#     8   8   8   8
#     4  10  21  36  58  82 117 153 187 231 281 332
#     4   9  16  32  51  81 108 143 183 226 277 329
#     4   9  16  27  53  82 103 144 188 223 285 336
#     4  10  20  36  59  83 117 152 187 234 278 333
#
# _framework density 23.133848
#
# number of rings (size 3 to 8) (size 9 to 14) (size 15 to 20)
#    1.500    1.000    2.500    0.750    0.000    1.000 
#    0.000    1.250    0.000    7.500    0.000    0.000 
#    0.000    0.000    0.000    0.000    0.000    0.000 
#
# Total GULP energy -89106.293891 kJ/mol
# GULP energy per Si atom -5569.143368 kJ/mol
# Density = 2.308119 g / cm^3
# Si number density = 23.133848 Si / 1000 Ang^3
#
#
#
# Elastic Constant Matrix: (Units=GPa)
#
#
# Indices 1 2 3 4 5 6 
#
# 1 71.7984 7.8271 35.4820 0.0000 9.1536 0.0001
# 2 7.8271 123.6995 6.7142 0.0000 -0.7284 0.0000
# 3 35.4820 6.7142 138.5104 0.0000 4.2904 0.0007
# 4 0.0000 0.0000 0.0000 -10.1067 0.0000 9.7272
# 5 9.1536 -0.7284 4.2904 0.0000 59.2639 0.0003
# 6 0.0001 0.0000 0.0007 9.7272 0.0003 -250.0724
#
#
#
# Elastic Compliance Matrix: (Units=1/GPa)
#
#
# Indices 1 2 3 4 5 6 
#
# 1 0.016314 -0.000825 -0.004070 0.000000 -0.002235 0.000000
# 2 -0.000825 0.008148 -0.000191 0.000000 0.000241 0.000000
# 3 -0.004070 -0.000191 0.008271 0.000000 0.000028 0.000000
# 4 0.000000 0.000000 0.000000 -0.102792 0.000000 -0.003998
# 5 -0.002235 0.000241 0.000028 0.000000 0.017220 0.000000
# 6 0.000000 0.000000 0.000000 -0.003998 0.000000 -0.004154
#
#
# Mechanical properties :
#
#
# Convention : Reuss Voigt Hill
#
# Bulk Modulus (GPa) = 44.32345 48.22834 46.27590
# Shear Modulus (GPa) = -127.22017 -21.25071 -74.23544
#
# Velocity S-wave (km/s) = -7.42378 -3.03413 -5.67091
# Velocity P-wave (km/s) = 7.36764 2.93568 4.77828
#
# Compressibility (1/GPa) = 0.02256142
#
# Stress axis : x y z
#
# Youngs Moduli (GPa) = 61.29671 122.72830 120.90898
#
# Poissons Ratio (x) = 0.10119 0.49209
# Poissons Ratio (y) = 0.05054 0.02312
# Poissons Ratio (z) = 0.24947 0.02347
#
# Static dielectric constant tensor:
#      x y z
#    x 1.896940 0.000000 0.042080 
#    y 0.000000 1.851130 0.000000 
#    z 0.042080 0.000000 1.941110 
# 
# From -- ./inp_files/193732.got.cif
#   From: 2010.05.17/outbox.cif.g08.bks.cpg/sg12_97_cif.got.tgz:193732.got - 2010.06.03 13:09:07.
