data_PCOD9198776
_publ_section_title
;
Structure prediction by ZEFSAII (Michael W. Deem and Ramdas Pophale) SiO2 
 PCOD9198776
Probable space group: C 2/M
;
_chemical_formula_sum "Si O2"
_cell_formula_units_Z 58
_cell_length_a 29.530990
_cell_length_b 7.384539
_cell_length_c 12.113648
_cell_angle_alpha 90.000000
_cell_angle_beta 83.957136
_cell_angle_gamma 90.000000
_cell_volume 2626.977918
_symmetry_space_group_name_H-M "C 2/M"
_symmetry_group_IT_number 12
_symmetry_cell_setting 'monoclinic'
loop_
_space_group_symop_operation_xyz
x,y,z
-x,y,-z
-x,-y,-z
x,-y,z
1/2+x,1/2+y,z
1/2-x,1/2+y,-z
1/2-x,1/2-y,-z
1/2+x,1/2-y,z
loop_
_atom_site_type_symbol
_atom_site_label
_atom_site_fract_x
_atom_site_fract_y
_atom_site_fract_z
Si Si1 0.103265 0.789593 0.293603
Si Si2 0.000000 0.500000 0.500000
Si Si3 0.581743 0.722270 0.537222
Si Si4 0.319204 0.203723 0.899771
Si Si5 0.470620 0.278966 0.843968
Si Si6 0.780609 0.287877 0.136253
Si Si7 0.641859 0.282608 0.733152
Si Si8 0.934544 0.779659 0.089833
O O1 0.108946 0.729040 0.417017
O O2 0.143944 0.778306 0.195246
O O3 0.057610 0.707639 0.251601
O O4 0.093310 0.000000 0.307813
O O5 0.964436 0.338909 0.460532
O O6 0.573303 0.500000 0.547311
O O7 0.615021 0.771693 0.630145
O O8 0.269622 0.206063 0.855313
O O9 0.334871 0.000000 0.915512
O O10 0.309515 0.287461 0.023505
O O11 0.471040 0.500000 0.842193
O O12 0.522506 0.223520 0.846507
O O13 0.444323 0.224728 0.962481
O O14 0.773944 0.500000 0.115140
O O15 0.807362 0.269115 0.243924
O O16 0.641508 0.500000 0.732320
O O17 0.611019 0.215003 0.842758
O O18 0.933959 0.000000 0.088899
#
# Coordination Sequence:
#
# PCOD9198776 Si02
#       8
#     8   2   8   8   8   8   8   8
#     4  10  20  36  58  84 120 157 201 258 305 369
#     4  12  26  44  68  86 126 180 214 280 308 360
#     4  10  25  43  64  95 124 166 223 261 313 374
#     4  10  21  37  60  90 122 157 201 251 311 382
#     4   8  14  25  45  75 108 145 186 230 289 356
#     4  10  21  37  60  90 122 157 201 251 311 382
#     4  10  20  36  58  84 120 157 201 258 305 369
#     4   8  14  25  45  75 108 145 186 230 289 356
#
# _framework density 22.078603000000001
#
# number of rings (size 3 to 8) (size 9 to 14) (size 15 to 20)
#    0.000    2.483    0.000    2.690    3.862    2.759 
#    0.000    0.690    0.000    0.000    0.000    5.793 
#    0.000    0.000    0.000    0.000    0.000    0.000 
#
# Total GULP energy -161496.128771 kJ/mol
# GULP energy per Si atom -5568.832027 kJ/mol
# Density = 2.202835 g / cm^3
# Si number density = 22.078603 Si / 1000 Ang^3
#
#
#
# Elastic Constant Matrix: (Units=GPa)
#
#
# Indices 1 2 3 4 5 6 
#
# 1 93.4153 -0.7341 56.4101 0.0000 34.0432 0.0000
# 2 -0.7341 95.5550 2.9110 0.0000 6.8762 0.0000
# 3 56.4101 2.9110 56.6351 0.0000 31.6725 0.0000
# 4 0.0000 0.0000 0.0000 2.9499 0.0000 4.5047
# 5 34.0432 6.8762 31.6725 0.0000 35.8779 0.0000
# 6 0.0000 0.0000 0.0000 4.5047 0.0000 15.8908
#
#
#
# Elastic Compliance Matrix: (Units=1/GPa)
#
#
# Indices 1 2 3 4 5 6 
#
# 1 0.027260 0.001264 -0.024917 0.000000 -0.004112 0.000000
# 2 0.001264 0.010710 0.000018 0.000000 -0.003268 0.000000
# 3 -0.024917 0.000018 0.057779 0.000000 -0.027367 0.000000
# 4 0.000000 0.000000 0.000000 0.597762 0.000000 -0.169451
# 5 -0.004112 -0.003268 -0.027367 0.000000 0.056559 0.000000
# 6 0.000000 0.000000 0.000000 -0.169451 0.000000 0.110965
#
#
# Mechanical properties :
#
#
# Convention : Reuss Voigt Hill
#
# Bulk Modulus (GPa) = 20.62795 40.30882 30.46838
# Shear Modulus (GPa) = 5.40855 23.41161 14.41008
#
# Velocity S-wave (km/s) = 1.56684 3.25987 2.55752
# Velocity P-wave (km/s) = 3.55480 5.69786 4.74880
#
# Compressibility (1/GPa) = 0.04847791
#
# Stress axis : x y z
#
# Youngs Moduli (GPa) = 36.68421 93.37493 17.30746
#
# Poissons Ratio (x) = -0.11806 0.43125
# Poissons Ratio (y) = -0.04638 -0.00031
# Poissons Ratio (z) = 0.91406 -0.00166
#
# Static dielectric constant tensor:
#      x y z
#    x 1.794350 0.000000 0.009700 
#    y 0.000000 1.890230 0.000000 
#    z 0.009700 0.000000 1.848130 
# 
# From -- ./inp_files/186670.got.cif
#   From: 2010.05.17/outbox.cif.g08.bks.cpg/sg12_94_cif.got.tgz:186670.got - 2010.06.03 13:09:07.
