data_PCOD9198739
_publ_section_title
;
Structure prediction by ZEFSAII (Michael W. Deem and Ramdas Pophale) SiO2 
 PCOD9198739
Probable space group: C 2/M
;
_chemical_formula_sum "Si O2"
_cell_formula_units_Z 64
_cell_length_a 26.108113
_cell_length_b 7.562192
_cell_length_c 16.943675
_cell_angle_alpha 90.000000
_cell_angle_beta 49.186623
_cell_angle_gamma 90.000000
_cell_volume 2531.840225
_symmetry_space_group_name_H-M "C 2/M"
_symmetry_group_IT_number 12
_symmetry_cell_setting 'monoclinic'
loop_
_space_group_symop_operation_xyz
x,y,z
-x,y,-z
-x,-y,-z
x,-y,z
1/2+x,1/2+y,z
1/2-x,1/2+y,-z
1/2-x,1/2-y,-z
1/2+x,1/2-y,z
loop_
_atom_site_type_symbol
_atom_site_label
_atom_site_fract_x
_atom_site_fract_y
_atom_site_fract_z
Si Si1 0.084248 0.705652 0.744844
Si Si2 0.219521 0.715741 0.198178
Si Si3 0.087017 0.706124 0.256675
Si Si4 0.838625 0.296338 0.483738
Si Si5 0.713904 0.715140 0.704336
Si Si6 0.156359 0.785367 0.021970
Si Si7 0.539003 0.298200 0.033925
Si Si8 0.041065 0.201768 0.533591
O O1 0.067188 0.500000 0.746624
O O2 0.122567 0.783565 0.630023
O O3 0.139515 0.719164 0.758868
O O4 0.015841 0.797845 0.840672
O O5 0.217233 0.500000 0.200146
O O6 0.143063 0.776513 0.261838
O O7 0.254864 0.769774 0.243550
O O8 0.268046 0.770589 0.076917
O O9 0.074641 0.500000 0.283824
O O10 0.123315 0.723386 0.136074
O O11 0.014804 0.794782 0.340441
O O12 0.825742 0.500000 0.475531
O O13 0.767268 0.221746 0.584099
O O14 0.891212 0.292398 0.503771
O O15 0.712093 0.500000 0.705719
O O16 0.107452 0.722717 0.000267
O O17 0.154713 0.000000 0.024739
O O18 0.555610 0.500000 0.992811
O O19 0.500000 0.211857 0.000000
O O20 0.000000 0.277592 0.500000
O O21 0.058653 0.000000 0.497258
#
# Coordination Sequence:
#
# PCOD9198739 Si02
#       8
#     8   8   8   8   8   8   8   8
#     4  11  23  37  55  85 120 149 184 232 285 336
#     4   9  19  36  59  85 111 146 191 234 277 333
#     4  11  22  37  59  85 115 151 189 229 279 338
#     4  10  22  39  60  86 116 151 189 230 277 336
#     4  10  20  38  62  84 110 148 193 233 275 333
#     4  10  20  36  58  84 114 146 187 237 283 330
#     4  10  21  38  60  82 107 148 196 236 280 337
#     4  11  24  40  59  85 116 149 188 235 283 331
#
# _framework density 25.278054999999998
#
# number of rings (size 3 to 8) (size 9 to 14) (size 15 to 20)
#    0.000    1.750    0.000    4.125    0.000    8.250 
#    0.000    3.750    0.000    0.000    0.000    0.000 
#    0.000    0.000    0.000    0.000    0.000    0.000 
#
# Total GULP energy -179121.656139 kJ/mol
# GULP energy per Si atom -5597.551754 kJ/mol
# Density = 2.522052 g / cm^3
# Si number density = 25.278055 Si / 1000 Ang^3
#
#
#
# Elastic Constant Matrix: (Units=GPa)
#
#
# Indices 1 2 3 4 5 6 
#
# 1 83.7600 -6.1242 -7.6724 0.0012 -10.9998 0.0005
# 2 -6.1242 75.1023 0.6013 0.0111 0.1328 -0.0113
# 3 -7.6724 0.6013 87.7401 0.0004 -10.7609 0.0006
# 4 0.0012 0.0111 0.0004 13.8046 0.0009 4.1770
# 5 -10.9998 0.1328 -10.7609 0.0009 49.5467 0.0002
# 6 0.0005 -0.0113 0.0006 4.1770 0.0002 11.0049
#
#
#
# Elastic Compliance Matrix: (Units=1/GPa)
#
#
# Indices 1 2 3 4 5 6 
#
# 1 0.012555 0.001007 0.001472 -0.000003 0.003104 0.000001
# 2 0.001007 0.013397 0.000020 -0.000017 0.000192 0.000020
# 3 0.001472 0.000020 0.011882 -0.000001 0.002907 0.000000
# 4 -0.000003 -0.000017 -0.000001 0.081838 -0.000002 -0.031063
# 5 0.003104 0.000192 0.002907 -0.000002 0.021503 0.000000
# 6 0.000001 0.000020 0.000000 -0.031063 0.000000 0.102659
#
#
# Mechanical properties :
#
#
# Convention : Reuss Voigt Hill
#
# Bulk Modulus (GPa) = 23.34813 24.46798 23.90806
# Shear Modulus (GPa) = 19.75385 32.19109 25.97247
#
# Velocity S-wave (km/s) = 2.79850 3.57246 3.20890
# Velocity P-wave (km/s) = 4.43832 5.16886 4.81746
#
# Compressibility (1/GPa) = 0.04282998
#
# Stress axis : x y z
#
# Youngs Moduli (GPa) = 79.64992 74.64498 84.15788
#
# Poissons Ratio (x) = -0.07513 -0.12385
# Poissons Ratio (y) = -0.08017 -0.00166
# Poissons Ratio (z) = -0.11722 -0.00147
#
# Static dielectric constant tensor:
#      x y z
#    x 1.978230 0.000000 0.071510 
#    y 0.000000 1.970360 0.000000 
#    z 0.071510 0.000000 1.992800 
# 
# From -- ./inp_files/295468.got.cif
#   From: 2010.05.17/outbox.cif.g08.bks.cpg/sg12_148_cif.got.tgz:295468.got - 2010.06.03 13:09:07.
