data_PCOD9198594
_publ_section_title
;
Structure prediction by ZEFSAII (Michael W. Deem and Ramdas Pophale) SiO2 
 PCOD9198594
Probable space group: C 2/M
;
_chemical_formula_sum "Si O2"
_cell_formula_units_Z 40
_cell_length_a 16.685659
_cell_length_b 19.508055
_cell_length_c 7.145023
_cell_angle_alpha 90.000000
_cell_angle_beta 140.267432
_cell_angle_gamma 90.000000
_cell_volume 1486.624095
_symmetry_space_group_name_H-M "C 2/M"
_symmetry_group_IT_number 12
_symmetry_cell_setting 'monoclinic'
loop_
_space_group_symop_operation_xyz
x,y,z
-x,y,-z
-x,-y,-z
x,-y,z
1/2+x,1/2+y,z
1/2-x,1/2+y,-z
1/2-x,1/2-y,-z
1/2+x,1/2-y,z
loop_
_atom_site_type_symbol
_atom_site_label
_atom_site_fract_x
_atom_site_fract_y
_atom_site_fract_z
Si Si1 0.392066 0.919754 0.053837
Si Si2 0.833110 0.418150 0.502286
Si Si3 0.177551 0.212264 0.133346
Si Si4 0.912066 0.783970 0.617088
Si Si5 0.378809 0.422594 0.414993
O O1 0.358322 0.912339 0.772054
O O2 0.259575 0.903444 0.915085
O O3 0.411646 0.000000 0.125044
O O4 0.532124 0.891986 0.339267
O O5 0.810868 0.500000 0.422832
O O6 0.725217 0.365552 0.247338
O O7 0.126044 0.239925 0.243315
O O8 0.298363 0.254894 0.293842
O O9 0.051548 0.226807 0.794553
O O10 0.905202 0.866036 0.615597
O O11 0.500000 0.420926 0.500000
O O12 0.367025 0.500000 0.465167
#
# Coordination Sequence:
#
# PCOD9198594 Si02
#       5
#     8   8   8   8   8
#     4   8  15  27  49  81 108 138 179 222 273 326
#     4   9  16  28  52  82 109 138 177 228 281 326
#     4  10  21  34  55  80 116 148 174 234 286 327
#     4  10  22  36  52  83 112 147 189 222 280 335
#     4  10  20  36  58  81 111 149 188 228 268 326
#
# _framework density 26.906600000000001
#
# number of rings (size 3 to 8) (size 9 to 14) (size 15 to 20)
#    0.000    2.600    2.000    1.200    2.800    2.400 
#    0.000    3.000    0.000    0.000    0.000    5.600 
#    0.000    0.000    0.000    0.000    0.000    0.000 
#
# Total GULP energy -111624.118097 kJ/mol
# GULP energy per Si atom -5581.205905 kJ/mol
# Density = 2.684536 g / cm^3
# Si number density = 26.906600 Si / 1000 Ang^3
#
#
#
# Elastic Constant Matrix: (Units=GPa)
#
#
# Indices 1 2 3 4 5 6 
#
# 1 116.5045 15.0733 63.7961 0.0000 34.2317 0.0000
# 2 15.0733 126.5328 59.7179 0.0000 15.9206 0.0000
# 3 63.7961 59.7179 238.8572 0.0000 82.8228 0.0000
# 4 0.0000 0.0000 0.0000 29.2197 0.0000 21.2737
# 5 34.2317 15.9206 82.8228 0.0000 61.6549 0.0000
# 6 0.0000 0.0000 0.0000 21.2737 0.0000 3.9999
#
#
#
# Elastic Compliance Matrix: (Units=1/GPa)
#
#
# Indices 1 2 3 4 5 6 
#
# 1 0.010526 -0.000084 -0.001444 0.000000 -0.003882 0.000000
# 2 -0.000084 0.009017 -0.002697 0.000000 0.001341 0.000000
# 3 -0.001444 -0.002697 0.008849 0.000000 -0.010389 0.000000
# 4 0.000000 0.000000 0.000000 -0.011915 0.000000 0.063372
# 5 -0.003882 0.001341 -0.010389 0.000000 0.031984 0.000000
# 6 0.000000 0.000000 0.000000 0.063372 0.000000 -0.087043
#
#
# Mechanical properties :
#
#
# Convention : Reuss Voigt Hill
#
# Bulk Modulus (GPa) = 50.14611 84.34103 67.24357
# Shear Modulus (GPa) = -212.90380 41.86203 -85.52088
#
# Velocity S-wave (km/s) = -8.90498 3.94868 -5.64388
# Velocity P-wave (km/s) = 9.33028 7.22519 4.17437
#
# Compressibility (1/GPa) = 0.01994173
#
# Stress axis : x y z
#
# Youngs Moduli (GPa) = 95.00511 110.89869 113.00878
#
# Poissons Ratio (x) = 0.00930 0.16320
# Poissons Ratio (y) = 0.00796 0.30480
# Poissons Ratio (z) = 0.13720 0.29911
#
# Static dielectric constant tensor:
#      x y z
#    x 2.167040 0.000000 0.017660 
#    y 0.000000 2.073600 0.000000 
#    z 0.017660 0.000000 2.255150 
# 
# From -- ./inp_files/168651.got.cif
#   From: 2010.05.17/outbox.cif.g08.bks.cpg/sg12_85_cif.got.tgz:168651.got - 2010.06.03 13:09:07.
