data_PCOD9198321
_publ_section_title
;
Structure prediction by ZEFSAII (Michael W. Deem and Ramdas Pophale) SiO2 
 PCOD9198321
Probable space group: C 2/M
;
_chemical_formula_sum "Si O2"
_cell_formula_units_Z 64
_cell_length_a 14.883079
_cell_length_b 19.661601
_cell_length_c 24.601451
_cell_angle_alpha 90.000000
_cell_angle_beta 30.478607
_cell_angle_gamma 90.000000
_cell_volume 3651.454209
_symmetry_space_group_name_H-M "C 2/M"
_symmetry_group_IT_number 12
_symmetry_cell_setting 'monoclinic'
loop_
_space_group_symop_operation_xyz
x,y,z
-x,y,-z
-x,-y,-z
x,-y,z
1/2+x,1/2+y,z
1/2-x,1/2+y,-z
1/2-x,1/2-y,-z
1/2+x,1/2-y,z
loop_
_atom_site_type_symbol
_atom_site_label
_atom_site_fract_x
_atom_site_fract_y
_atom_site_fract_z
Si Si1 0.012348 0.811402 0.262612
Si Si2 0.258114 0.830246 0.508811
Si Si3 0.676892 0.861364 0.045321
Si Si4 0.979008 0.774316 0.153916
Si Si5 0.367393 0.818064 0.728304
Si Si6 0.198044 0.578231 0.917509
Si Si7 0.157816 0.081170 0.459787
Si Si8 0.935187 0.420830 0.782748
O O1 0.078345 0.748733 0.265245
O O2 0.162005 0.869139 0.180358
O O3 0.837825 0.839797 0.383709
O O4 0.978092 0.784523 0.219557
O O5 0.250000 0.750000 0.500000
O O6 0.466719 0.844494 0.394105
O O7 0.157898 0.873757 0.514450
O O8 0.526244 0.803685 0.115965
O O9 0.632842 0.901369 0.122589
O O10 0.693174 0.908841 0.984575
O O11 0.859780 0.819318 0.953773
O O12 0.798069 0.798938 0.221979
O O13 0.336566 0.875804 0.789293
O O14 0.243402 0.500000 0.881520
O O15 0.000000 0.591853 0.000000
O O16 0.352906 0.093696 0.332416
O O17 0.000000 0.098446 0.500000
O O18 0.143946 0.000000 0.478858
O O19 0.910877 0.500000 0.784534
#
# Coordination Sequence:
#
# PCOD9198321 Si02
#       8
#     8   8   8   8   8   8   8   8
#     4  10  20  38  54  81 111 145 187 226 280 329
#     4   9  20  36  52  81 116 144 183 230 276 334
#     4  10  20  37  54  82 108 143 186 229 280 331
#     4  10  21  35  58  80 108 147 185 230 276 331
#     4  10  20  38  56  81 112 145 189 230 277 335
#     4  10  21  35  54  83 114 144 182 230 284 342
#     4   9  19  35  57  84 113 147 186 231 286 341
#     4  10  20  36  57  80 113 146 182 237 281 326
#
# _framework density 17.527263000000001
#
# number of rings (size 3 to 8) (size 9 to 14) (size 15 to 20)
#    0.000    2.250    1.250    1.125    0.000    4.500 
#    0.000    6.250    0.000    0.000    0.000    7.000 
#    0.000    0.000    0.000    0.000    0.000    0.000 
#
# Total GULP energy -178469.016950 kJ/mol
# GULP energy per Si atom -5577.156780 kJ/mol
# Density = 1.748737 g / cm^3
# Si number density = 17.527263 Si / 1000 Ang^3
#
#
#
# Elastic Constant Matrix: (Units=GPa)
#
#
# Indices 1 2 3 4 5 6 
#
# 1 65.0039 31.6806 33.9374 0.0018 -19.0882 0.0009
# 2 31.6806 65.8735 33.1019 -0.0025 -0.8171 0.0020
# 3 33.9374 33.1019 90.5892 -0.0152 15.1502 0.0089
# 4 0.0018 -0.0025 -0.0152 16.0963 0.0029 -2.5932
# 5 -19.0882 -0.8171 15.1502 0.0029 25.9194 -0.0010
# 6 0.0009 0.0020 0.0089 -2.5932 -0.0010 16.5277
#
#
#
# Elastic Compliance Matrix: (Units=1/GPa)
#
#
# Indices 1 2 3 4 5 6 
#
# 1 0.043403 -0.010467 -0.019647 -0.000031 0.043118 0.000007
# 2 -0.010467 0.021736 -0.003155 0.000002 -0.005179 0.000000
# 3 -0.019647 -0.003155 0.024371 0.000028 -0.028813 -0.000009
# 4 -0.000031 0.000002 0.000028 0.063737 -0.000046 0.010000
# 5 0.043118 -0.005179 -0.028813 -0.000046 0.087014 0.000012
# 6 0.000007 0.000000 -0.000009 0.010000 0.000012 0.062074
#
#
# Mechanical properties :
#
#
# Convention : Reuss Voigt Hill
#
# Bulk Modulus (GPa) = 43.52976 46.54514 45.03745
# Shear Modulus (GPa) = 13.27919 19.89178 16.58549
#
# Velocity S-wave (km/s) = 2.75550 3.37249 3.07948
# Velocity P-wave (km/s) = 5.91718 6.46362 6.19643
#
# Compressibility (1/GPa) = 0.02297279
#
# Stress axis : x y z
#
# Youngs Moduli (GPa) = 23.03963 46.00754 41.03272
#
# Poissons Ratio (x) = 0.48154 0.80616
# Poissons Ratio (y) = 0.24115 0.12946
# Poissons Ratio (z) = 0.45265 0.14516
#
# Static dielectric constant tensor:
#      x y z
#    x 1.562580 0.000000 -0.002070 
#    y 0.000000 1.596060 0.000000 
#    z -0.002070 0.000000 1.613200 
# 
# From -- ./inp_files/340831.got.cif
#   From: 2010.05.17/outbox.cif.g08.bks.cpg/sg12_171_cif.got.tgz:340831.got - 2010.06.03 13:09:07.
