data_PCOD9198084
_publ_section_title
;
Structure prediction by ZEFSAII (Michael W. Deem and Ramdas Pophale) SiO2 
 PCOD9198084
Probable space group: C 2/M
;
_chemical_formula_sum "Si O2"
_cell_formula_units_Z 56
_cell_length_a 28.008817
_cell_length_b 10.748450
_cell_length_c 27.214417
_cell_angle_alpha 90.000000
_cell_angle_beta 20.569401
_cell_angle_gamma 90.000000
_cell_volume 2878.520527
_symmetry_space_group_name_H-M "C 2/M"
_symmetry_group_IT_number 12
_symmetry_cell_setting 'monoclinic'
loop_
_space_group_symop_operation_xyz
x,y,z
-x,y,-z
-x,-y,-z
x,-y,z
1/2+x,1/2+y,z
1/2-x,1/2+y,-z
1/2-x,1/2-y,-z
1/2+x,1/2-y,z
loop_
_atom_site_type_symbol
_atom_site_label
_atom_site_fract_x
_atom_site_fract_y
_atom_site_fract_z
Si Si1 0.206266 0.294742 0.987943
Si Si2 0.440210 0.864479 0.293743
Si Si3 0.998345 0.137282 0.310723
Si Si4 0.757277 0.141292 0.604482
Si Si5 0.139410 0.855407 0.786894
Si Si6 0.170357 0.148081 0.925428
Si Si7 0.362557 0.854213 0.657452
O O1 0.339707 0.362685 0.839851
O O2 0.176820 0.191324 0.975478
O O3 0.250000 0.250000 0.000000
O O4 0.066358 0.363599 0.134002
O O5 0.460029 0.750546 0.311574
O O6 0.309755 0.850698 0.385101
O O7 0.438032 0.000000 0.321006
O O8 0.916994 0.155029 0.439685
O O9 0.959345 0.000000 0.328558
O O10 0.696919 0.252479 0.694289
O O11 0.730106 0.000000 0.649181
O O12 0.238789 0.851491 0.737828
O O13 0.142855 0.000000 0.765267
O O14 0.981015 0.824056 0.949120
O O15 0.293968 0.199633 0.773018
O O16 0.182924 0.000000 0.911739
O O17 0.500000 0.800868 0.500000
O O18 0.395432 0.000000 0.636146
#
# Coordination Sequence:
#
# PCOD9198084 Si02
#       7
#     8   8   8   8   8   8   8
#     4  10  21  35  53  82 116 155 198 241 286 347
#     4  10  20  36  56  78 110 152 200 248 294 349
#     4  10  22  36  54  79 114 155 198 246 298 347
#     4  10  21  37  55  81 118 155 193 242 297 351
#     4  10  20  36  61  90 118 153 197 242 292 355
#     4  10  20  36  59  88 121 159 198 245 300 353
#     4   9  19  35  59  93 126 151 188 248 305 351
#
# _framework density 19.454439000000001
#
# number of rings (size 3 to 8) (size 9 to 14) (size 15 to 20)
#    0.000    2.143    1.429    1.286    2.000    7.429 
#    0.000    0.000    0.000    3.857    0.000    0.000 
#    0.000    0.000    0.000    0.000    0.000    0.000 
#
# Total GULP energy -155904.722854 kJ/mol
# GULP energy per Si atom -5568.025816 kJ/mol
# Density = 1.941016 g / cm^3
# Si number density = 19.454439 Si / 1000 Ang^3
#
#
#
# Elastic Constant Matrix: (Units=GPa)
#
#
# Indices 1 2 3 4 5 6 
#
# 1 37.1148 2.3755 26.1448 0.0011 -0.3046 -0.0007
# 2 2.3755 77.6471 38.1502 0.0032 16.2315 -0.0029
# 3 26.1448 38.1502 140.9049 0.0007 -1.5816 -0.0010
# 4 0.0011 0.0032 0.0007 23.7737 -0.0003 4.3034
# 5 -0.3046 16.2315 -1.5816 -0.0003 23.7718 0.0003
# 6 -0.0007 -0.0029 -0.0010 4.3034 0.0003 15.0328
#
#
#
# Elastic Compliance Matrix: (Units=1/GPa)
#
#
# Indices 1 2 3 4 5 6 
#
# 1 0.031380 0.002648 -0.006560 -0.000002 -0.001843 0.000002
# 2 0.002648 0.018198 -0.005562 -0.000003 -0.012762 0.000004
# 3 -0.006560 -0.005562 0.009869 0.000001 0.004370 -0.000001
# 4 -0.000002 -0.000003 0.000001 0.044362 0.000003 -0.012699
# 5 -0.001843 -0.012762 0.004370 0.000003 0.051048 -0.000004
# 6 0.000002 0.000004 -0.000001 -0.012699 -0.000004 0.070157
#
#
# Mechanical properties :
#
#
# Convention : Reuss Voigt Hill
#
# Bulk Modulus (GPa) = 24.69134 43.22310 33.95722
# Shear Modulus (GPa) = 19.42039 25.11541 22.26790
#
# Velocity S-wave (km/s) = 3.16294 3.59693 3.38689
# Velocity P-wave (km/s) = 5.10474 6.28620 5.72602
#
# Compressibility (1/GPa) = 0.04050003
#
# Stress axis : x y z
#
# Youngs Moduli (GPa) = 31.86737 54.95030 101.32552
#
# Poissons Ratio (x) = -0.14553 0.66473
# Poissons Ratio (y) = -0.08440 0.56356
# Poissons Ratio (z) = 0.20906 0.30563
#
# Static dielectric constant tensor:
#      x y z
#    x -1.246120 0.000000 0.716460 
#    y 0.000000 1.676870 0.000000 
#    z 0.716460 0.000000 1.564600 
# 
# From -- ./inp_files/370751.got.cif
#   From: 2010.05.17/outbox.cif.g08.bks.cpg/sg12_186_cif.got.tgz:370751.got - 2010.06.03 13:09:07.
