data_PCOD9198913
_publ_section_title
;
Structure prediction by ZEFSAII (Michael W. Deem and Ramdas Pophale) SiO2 
 PCOD9198913
Probable space group: C 2/M
;
_chemical_formula_sum "Si O2"
_cell_formula_units_Z 48
_cell_length_a 24.909974
_cell_length_b 8.562027
_cell_length_c 14.033131
_cell_angle_alpha 90.000000
_cell_angle_beta 49.580046
_cell_angle_gamma 90.000000
_cell_volume 2278.596537
_symmetry_space_group_name_H-M "C 2/M"
_symmetry_group_IT_number 12
_symmetry_cell_setting 'monoclinic'
loop_
_space_group_symop_operation_xyz
x,y,z
-x,y,-z
-x,-y,-z
x,-y,z
1/2+x,1/2+y,z
1/2-x,1/2+y,-z
1/2-x,1/2-y,-z
1/2+x,1/2-y,z
loop_
_atom_site_type_symbol
_atom_site_label
_atom_site_fract_x
_atom_site_fract_y
_atom_site_fract_z
Si Si1 0.048921 0.812668 0.148149
Si Si2 0.518238 0.816392 0.583600
Si Si3 0.910531 0.184523 0.208855
Si Si4 0.838490 0.682108 0.477821
Si Si5 0.782361 0.315455 0.256350
Si Si6 0.289851 0.312403 0.046682
O O1 0.021053 0.768249 0.284889
O O2 0.989824 0.757349 0.140128
O O3 0.049645 0.000000 0.138420
O O4 0.128704 0.756694 0.047278
O O5 0.500000 0.755481 0.500000
O O6 0.601183 0.806650 0.510796
O O7 0.498457 0.000000 0.610181
O O8 0.868414 0.218037 0.355748
O O9 0.863117 0.266736 0.184269
O O10 0.912489 0.000000 0.185968
O O11 0.832875 0.500000 0.454814
O O12 0.766326 0.742129 0.605294
O O13 0.775279 0.500000 0.266136
O O14 0.758743 0.248315 0.181840
O O15 0.288511 0.500000 0.047446
O O16 0.250000 0.250000 0.000000
#
# Coordination Sequence:
#
# PCOD9198913 Si02
#       6
#     8   8   8   8   8   8
#     4   9  21  40  62  87 117 154 197 246 298 353
#     4   9  19  34  56  87 118 154 196 242 297 351
#     4  10  20  39  64  91 122 157 197 248 304 359
#     4  10  20  36  58  89 126 160 197 246 300 357
#     4  12  25  40  60  89 122 162 205 247 298 356
#     4  11  25  45  64  88 120 159 203 248 298 354
#
# _framework density 21.065598999999999
#
# number of rings (size 3 to 8) (size 9 to 14) (size 15 to 20)
#    0.000    1.833    0.000    3.500    2.333    3.667 
#    0.000    3.333    0.000    0.000    0.000    0.000 
#    0.000    0.000    0.000    0.000    0.000    0.000 
#
# Total GULP energy -134153.419392 kJ/mol
# GULP energy per Si atom -5589.725808 kJ/mol
# Density = 2.101765 g / cm^3
# Si number density = 21.065599 Si / 1000 Ang^3
#
#
#
# Elastic Constant Matrix: (Units=GPa)
#
#
# Indices 1 2 3 4 5 6 
#
# 1 93.7213 8.4771 21.7075 0.0000 8.9177 0.0000
# 2 8.4771 38.9286 -1.0373 0.0000 -6.6786 0.0000
# 3 21.7075 -1.0373 53.3144 0.0000 -16.3138 0.0000
# 4 0.0000 0.0000 0.0000 20.6361 0.0000 2.6496
# 5 8.9177 -6.6786 -16.3138 0.0000 32.6471 0.0000
# 6 0.0000 0.0000 0.0000 2.6496 0.0000 33.8523
#
#
#
# Elastic Compliance Matrix: (Units=1/GPa)
#
#
# Indices 1 2 3 4 5 6 
#
# 1 0.013949 -0.004821 -0.008548 0.000000 -0.009068 0.000000
# 2 -0.004821 0.028592 0.005562 0.000000 0.009946 0.000000
# 3 -0.008548 0.005562 0.027633 0.000000 0.017281 0.000000
# 4 0.000000 0.000000 0.000000 0.048951 0.000000 -0.003831
# 5 -0.009068 0.009946 0.017281 0.000000 0.043777 0.000000
# 6 0.000000 0.000000 0.000000 -0.003831 0.000000 0.029840
#
#
# Mechanical properties :
#
#
# Convention : Reuss Voigt Hill
#
# Bulk Modulus (GPa) = 18.32793 27.13987 22.73390
# Shear Modulus (GPa) = 22.07101 27.88156 24.97629
#
# Velocity S-wave (km/s) = 3.24037 3.64202 3.44705
# Velocity P-wave (km/s) = 4.76648 5.53148 5.16317
#
# Compressibility (1/GPa) = 0.05456154
#
# Stress axis : x y z
#
# Youngs Moduli (GPa) = 71.69191 34.97446 36.18862
#
# Poissons Ratio (x) = 0.16861 0.30933
# Poissons Ratio (y) = 0.34562 -0.20130
# Poissons Ratio (z) = 0.61280 -0.19454
#
# Static dielectric constant tensor:
#      x y z
#    x 1.776030 0.000000 -0.010630 
#    y 0.000000 1.717970 0.000000 
#    z -0.010630 0.000000 1.764030 
# 
# From -- ./inp_files/244676.got.cif
#   From: 2010.05.17/outbox.cif.g08.bks.cpg/sg12_123_cif.got.tgz:244676.got - 2010.06.03 13:09:07.
