data_PCOD9198257
_publ_section_title
;
Structure prediction by ZEFSAII (Michael W. Deem and Ramdas Pophale) SiO2 
 PCOD9198257
Probable space group: C 2/M
;
_chemical_formula_sum "Si O2"
_cell_formula_units_Z 64
_cell_length_a 14.696734
_cell_length_b 9.115619
_cell_length_c 33.239785
_cell_angle_alpha 90.000000
_cell_angle_beta 135.194583
_cell_angle_gamma 90.000000
_cell_volume 3138.125248
_symmetry_space_group_name_H-M "C 2/M"
_symmetry_group_IT_number 12
_symmetry_cell_setting 'monoclinic'
loop_
_space_group_symop_operation_xyz
x,y,z
-x,y,-z
-x,-y,-z
x,-y,z
1/2+x,1/2+y,z
1/2-x,1/2+y,-z
1/2-x,1/2-y,-z
1/2+x,1/2-y,z
loop_
_atom_site_type_symbol
_atom_site_label
_atom_site_fract_x
_atom_site_fract_y
_atom_site_fract_z
Si Si1 0.186581 0.823388 0.918789
Si Si2 0.530383 0.669715 0.573824
Si Si3 0.253662 0.675224 0.687362
Si Si4 0.936147 0.327366 0.048090
Si Si5 0.202315 0.324337 0.757281
Si Si6 0.425351 0.324069 0.664245
Si Si7 0.270436 0.173516 0.861376
Si Si8 0.291122 0.329055 0.450895
O O1 0.081793 0.757598 0.915790
O O2 0.183463 0.775798 0.871512
O O3 0.179678 0.000000 0.916716
O O4 0.324018 0.780080 0.982228
O O5 0.519748 0.500000 0.583066
O O6 0.614740 0.759539 0.631579
O O7 0.617624 0.672276 0.560463
O O8 0.387740 0.722886 0.516505
O O9 0.244061 0.500000 0.682597
O O10 0.283794 0.716345 0.742797
O O11 0.355764 0.716978 0.684921
O O12 0.915601 0.500000 0.049210
O O13 0.081019 0.310466 0.078201
O O14 0.197243 0.500000 0.758291
O O15 0.251617 0.258138 0.814292
O O16 0.060654 0.257644 0.705812
O O17 0.440269 0.500000 0.667365
O O18 0.330780 0.268755 0.599108
O O19 0.246490 0.000000 0.846901
O O20 0.255821 0.500000 0.446771
#
# Coordination Sequence:
#
# PCOD9198257 Si02
#       8
#     8   8   8   8   8   8   8   8
#     4   9  18  34  57  84 114 145 175 213 262 311
#     4   8  14  26  49  78 105 133 168 210 260 319
#     4   9  20  37  55  75 103 137 173 218 270 317
#     4   9  18  34  57  85 114 143 177 215 258 311
#     4  11  24  40  55  75 105 141 181 224 267 312
#     4  10  20  36  57  79 103 136 177 220 266 317
#     4  10  21  37  56  78 107 144 182 219 260 309
#     4   8  14  27  48  77 108 135 165 208 264 320
#
# _framework density 20.394341000000001
#
# number of rings (size 3 to 8) (size 9 to 14) (size 15 to 20)
#    0.000    2.750    0.000    1.875    0.000    5.500 
#    0.000    6.875    0.000    3.750    0.000    0.000 
#    0.000    0.000    0.000    0.000    0.000    0.000 
#
# Total GULP energy -178560.541102 kJ/mol
# GULP energy per Si atom -5580.016909 kJ/mol
# Density = 2.034792 g / cm^3
# Si number density = 20.394341 Si / 1000 Ang^3
#
#
#
# Elastic Constant Matrix: (Units=GPa)
#
#
# Indices 1 2 3 4 5 6 
#
# 1 55.0070 16.0639 15.0459 0.0000 -23.2379 0.0000
# 2 16.0639 15.6288 4.7964 0.0000 -7.1763 0.0000
# 3 15.0459 4.7964 34.6581 0.0000 -22.8202 0.0000
# 4 0.0000 0.0000 0.0000 32.2631 0.0000 0.7510
# 5 -23.2379 -7.1763 -22.8202 0.0000 33.6967 0.0000
# 6 0.0000 0.0000 0.0000 0.7510 0.0000 18.4418
#
#
#
# Elastic Compliance Matrix: (Units=1/GPa)
#
#
# Indices 1 2 3 4 5 6 
#
# 1 0.033114 -0.026098 0.001106 0.000000 0.018027 0.000000
# 2 -0.026098 0.091489 -0.000636 0.000000 0.001056 0.000000
# 3 0.001106 -0.000636 0.052111 0.000000 0.035918 0.000000
# 4 0.000000 0.000000 0.000000 0.031025 0.000000 -0.001263
# 5 0.018027 0.001056 0.035918 0.000000 0.066658 0.000000
# 6 0.000000 0.000000 0.000000 -0.001263 0.000000 0.054276
#
#
# Mechanical properties :
#
#
# Convention : Reuss Voigt Hill
#
# Bulk Modulus (GPa) = 7.97086 19.67847 13.82466
# Shear Modulus (GPa) = 11.85543 21.50617 16.68080
#
# Velocity S-wave (km/s) = 2.41365 3.25086 2.86302
# Velocity P-wave (km/s) = 3.41826 4.87449 4.20982
#
# Compressibility (1/GPa) = 0.12545700
#
# Stress axis : x y z
#
# Youngs Moduli (GPa) = 30.19872 10.93030 19.18983
#
# Poissons Ratio (x) = 0.28526 -0.02122
# Poissons Ratio (y) = 0.78812 0.01221
# Poissons Ratio (z) = -0.03339 0.00696
#
# Static dielectric constant tensor:
#      x y z
#    x 1.764320 0.000000 -0.022460 
#    y 0.000000 1.676280 0.000000 
#    z -0.022460 0.000000 1.738480 
# 
# From -- ./inp_files/375689.got.cif
#   From: 2010.05.17/outbox.cif.g08.bks.cpg/sg12_188_cif.got.tgz:375689.got - 2010.06.03 13:09:07.
