data_PCOD9198880
_publ_section_title
;
Structure prediction by ZEFSAII (Michael W. Deem and Ramdas Pophale) SiO2 
 PCOD9198880
Probable space group: C 2/M
;
_chemical_formula_sum "Si O2"
_cell_formula_units_Z 50
_cell_length_a 32.441814
_cell_length_b 15.800984
_cell_length_c 9.376341
_cell_angle_alpha 90.000000
_cell_angle_beta 24.382672
_cell_angle_gamma 90.000000
_cell_volume 1984.233814
_symmetry_space_group_name_H-M "C 2/M"
_symmetry_group_IT_number 12
_symmetry_cell_setting 'monoclinic'
loop_
_space_group_symop_operation_xyz
x,y,z
-x,y,-z
-x,-y,-z
x,-y,z
1/2+x,1/2+y,z
1/2-x,1/2+y,-z
1/2-x,1/2-y,-z
1/2+x,1/2-y,z
loop_
_atom_site_type_symbol
_atom_site_label
_atom_site_fract_x
_atom_site_fract_y
_atom_site_fract_z
Si Si1 0.964243 0.165106 0.412635
Si Si2 0.272417 0.688235 0.201857
Si Si3 0.734124 0.362811 0.486129
Si Si4 0.039970 0.657250 0.215223
Si Si5 0.345182 0.594710 0.549405
Si Si6 0.849184 0.599446 0.650602
Si Si7 0.500000 0.500000 0.500000
O O1 0.043546 0.241191 0.174810
O O2 0.926365 0.152303 0.370780
O O3 0.984332 0.076498 0.427313
O O4 0.867216 0.201708 0.803033
O O5 0.300205 0.625311 0.243410
O O6 0.239068 0.770575 0.393192
O O7 0.185222 0.652214 0.377927
O O8 0.665657 0.407387 0.585854
O O9 0.851492 0.384563 0.129013
O O10 0.958217 0.621318 0.364549
O O11 0.000000 0.644245 0.500000
O O12 0.366741 0.500000 0.530577
O O13 0.235576 0.616793 0.960857
O O14 0.843194 0.500000 0.636507
#
# Coordination Sequence:
#
# PCOD9198880 Si02
#       7
#     8   8   8   8   8   8   2
#     4  11  21  39  65  92 123 158 212 254 300 361
#     4  10  22  40  59  87 120 164 199 250 306 372
#     4  11  22  38  61  89 121 157 203 248 314 363
#     4  12  21  37  62  92 118 157 205 261 302 356
#     4  10  20  36  58  88 118 159 200 247 298 366
#     4  10  22  38  61  86 120 161 210 254 301 359
#     4  12  20  36  68  98 118 160 206 264 288 360
#
# _framework density 25.198643000000001
#
# number of rings (size 3 to 8) (size 9 to 14) (size 15 to 20)
#    0.000    1.280    4.800    0.960    1.120    4.800 
#    0.000    0.800    0.000    1.920    0.000    0.000 
#    0.000    0.000    0.000    0.000    0.000    0.000 
#
# Total GULP energy -139666.012366 kJ/mol
# GULP energy per Si atom -5586.640495 kJ/mol
# Density = 2.514129 g / cm^3
# Si number density = 25.198643 Si / 1000 Ang^3
#
#
#
# Elastic Constant Matrix: (Units=GPa)
#
#
# Indices 1 2 3 4 5 6 
#
# 1 187.3638 0.0055 31.1750 0.0000 -6.8369 0.0000
# 2 0.0055 64.7012 -5.4385 0.0000 -6.7771 0.0000
# 3 31.1750 -5.4385 84.0962 0.0000 -10.8113 0.0000
# 4 0.0000 0.0000 0.0000 1.4791 0.0000 -10.1044
# 5 -6.8369 -6.7771 -10.8113 0.0000 37.6655 0.0000
# 6 0.0000 0.0000 0.0000 -10.1044 0.0000 40.0767
#
#
#
# Elastic Compliance Matrix: (Units=1/GPa)
#
#
# Indices 1 2 3 4 5 6 
#
# 1 0.005696 -0.000130 -0.002066 0.000000 0.000417 0.000000
# 2 -0.000130 0.015924 0.001499 0.000000 0.003272 0.000000
# 3 -0.002066 0.001499 0.013229 0.000000 0.003692 0.000000
# 4 0.000000 0.000000 0.000000 -0.935905 0.000000 -0.235967
# 5 0.000417 0.003272 0.003692 0.000000 0.028274 0.000000
# 6 0.000000 0.000000 0.000000 -0.235967 0.000000 -0.034542
#
#
# Mechanical properties :
#
#
# Convention : Reuss Voigt Hill
#
# Bulk Modulus (GPa) = 29.89254 43.07169 36.48211
# Shear Modulus (GPa) = -5.58799 36.53887 15.47544
#
# Velocity S-wave (km/s) = -1.49077 3.81206 2.48087
# Velocity P-wave (km/s) = 2.98753 6.04200 4.76608
#
# Compressibility (1/GPa) = 0.03345317
#
# Stress axis : x y z
#
# Youngs Moduli (GPa) = 175.55343 62.79686 75.59322
#
# Poissons Ratio (x) = 0.00819 0.15621
# Poissons Ratio (y) = 0.02290 -0.11330
# Poissons Ratio (z) = 0.36277 -0.09412
#
# Static dielectric constant tensor:
#      x y z
#    x 1.999350 0.000000 -0.015200 
#    y 0.000000 2.081740 0.000000 
#    z -0.015200 0.000000 2.026560 
# 
# From -- ./inp_files/105767.got.cif
#   From: 2010.05.17/outbox.cif.g08.bks.cpg/sg12_53_cif.got.tgz:105767.got - 2010.06.03 13:09:07.
