data_PCOD9198369
_publ_section_title
;
Structure prediction by ZEFSAII (Michael W. Deem and Ramdas Pophale) SiO2 
 PCOD9198369
Probable space group: C 2/M
;
_chemical_formula_sum "Si O2"
_cell_formula_units_Z 64
_cell_length_a 29.099557
_cell_length_b 7.520993
_cell_length_c 13.119987
_cell_angle_alpha 90.000000
_cell_angle_beta 83.877269
_cell_angle_gamma 90.000000
_cell_volume 2855.029048
_symmetry_space_group_name_H-M "C 2/M"
_symmetry_group_IT_number 12
_symmetry_cell_setting 'monoclinic'
loop_
_space_group_symop_operation_xyz
x,y,z
-x,y,-z
-x,-y,-z
x,-y,z
1/2+x,1/2+y,z
1/2-x,1/2+y,-z
1/2-x,1/2-y,-z
1/2+x,1/2-y,z
loop_
_atom_site_type_symbol
_atom_site_label
_atom_site_fract_x
_atom_site_fract_y
_atom_site_fract_z
Si Si1 0.137343 0.205366 0.854759
Si Si2 0.930670 0.710675 0.766357
Si Si3 0.299254 0.713396 0.539259
Si Si4 0.378871 0.718525 0.366567
Si Si5 0.169182 0.794126 0.254520
Si Si6 0.482395 0.713474 0.394533
Si Si7 0.303610 0.713277 0.972781
Si Si8 0.947512 0.715507 0.991838
O O1 0.136551 0.281374 0.741809
O O2 0.151904 0.000000 0.839702
O O3 0.168945 0.286635 0.936075
O O4 0.086141 0.213236 0.913676
O O5 0.923925 0.500000 0.771044
O O6 0.886221 0.787982 0.719282
O O7 0.932185 0.776204 0.882844
O O8 0.978865 0.746031 0.698832
O O9 0.304052 0.500000 0.543961
O O10 0.250000 0.750000 0.500000
O O11 0.341460 0.776176 0.458619
O O12 0.305599 0.783956 0.652758
O O13 0.379516 0.500000 0.364950
O O14 0.431052 0.777373 0.378961
O O15 0.180118 0.715117 0.140827
O O16 0.183784 0.000000 0.245032
O O17 0.500000 0.780627 0.500000
O O18 0.479349 0.500000 0.402294
O O19 0.312028 0.500000 0.969811
O O20 0.250000 0.750000 0.000000
O O21 0.945291 0.500000 0.994528
O O22 0.000000 0.768134 0.000000
#
# Coordination Sequence:
#
# PCOD9198369 Si02
#       8
#     8   8   8   8   8   8   8   8
#     4  10  20  36  57  82 111 145 187 233 276 328
#     4  11  22  35  56  86 116 148 186 234 286 332
#     4  10  22  40  62  85 112 147 187 233 282 333
#     4   9  19  36  57  83 112 145 188 232 278 332
#     4  10  21  40  61  83 114 151 192 233 276 340
#     4  10  20  36  59  83 110 152 195 231 278 335
#     4  10  22  37  57  84 112 146 188 234 287 338
#     4  10  21  36  53  79 116 153 186 224 280 339
#
# _framework density 22.416585000000001
#
# number of rings (size 3 to 8) (size 9 to 14) (size 15 to 20)
#    0.000    2.000    1.250    1.875    1.750    4.500 
#    0.000    1.250    0.000    0.000    0.000    0.000 
#    0.000    0.000    0.000    0.000    0.000    0.000 
#
# Total GULP energy -178867.985682 kJ/mol
# GULP energy per Si atom -5589.624553 kJ/mol
# Density = 2.236556 g / cm^3
# Si number density = 22.416585 Si / 1000 Ang^3
#
#
#
# Elastic Constant Matrix: (Units=GPa)
#
#
# Indices 1 2 3 4 5 6 
#
# 1 128.8673 -7.7429 59.9621 0.0000 14.2033 0.0000
# 2 -7.7429 59.5294 15.1205 0.0000 6.3404 0.0000
# 3 59.9621 15.1205 165.0334 0.0000 22.2349 0.0000
# 4 0.0000 0.0000 0.0000 -15.2297 0.0000 11.7434
# 5 14.2033 6.3404 22.2349 0.0000 42.4467 0.0000
# 6 0.0000 0.0000 0.0000 11.7434 0.0000 -0.6921
#
#
#
# Elastic Compliance Matrix: (Units=1/GPa)
#
#
# Indices 1 2 3 4 5 6 
#
# 1 0.009730 0.002346 -0.003512 0.000000 -0.001766 0.000000
# 2 0.002346 0.017904 -0.002180 0.000000 -0.002317 0.000000
# 3 -0.003512 -0.002180 0.007890 0.000000 -0.002632 0.000000
# 4 0.000000 0.000000 0.000000 0.005434 0.000000 0.092202
# 5 -0.001766 -0.002317 -0.002632 0.000000 0.025875 0.000000
# 6 0.000000 0.000000 0.000000 0.092202 0.000000 0.119574
#
#
# Mechanical properties :
#
#
# Convention : Reuss Voigt Hill
#
# Bulk Modulus (GPa) = 34.68608 54.23440 44.46024
# Shear Modulus (GPa) = 24.66566 24.37766 24.52166
#
# Velocity S-wave (km/s) = 3.32072 3.30128 3.31101
# Velocity P-wave (km/s) = 5.49635 6.22717 5.87314
#
# Compressibility (1/GPa) = 0.02883001
#
# Stress axis : x y z
#
# Youngs Moduli (GPa) = 102.77802 55.85298 126.74557
#
# Poissons Ratio (x) = -0.13102 0.44514
# Poissons Ratio (y) = -0.24109 0.27637
# Poissons Ratio (z) = 0.36096 0.12179
#
# Static dielectric constant tensor:
#      x y z
#    x 1.766490 0.000000 0.025590 
#    y 0.000000 1.848910 0.000000 
#    z 0.025590 0.000000 1.829890 
# 
# From -- ./inp_files/187491.got.cif
#   From: 2010.05.17/outbox.cif.g08.bks.cpg/sg12_94_cif.got.tgz:187491.got - 2010.06.03 13:09:07.
