data_PCOD9198573
_publ_section_title
;
Structure prediction by ZEFSAII (Michael W. Deem and Ramdas Pophale) SiO2 
 PCOD9198573
Probable space group: C 2/M
;
_chemical_formula_sum "Si O2"
_cell_formula_units_Z 64
_cell_length_a 15.022801
_cell_length_b 8.317236
_cell_length_c 27.384616
_cell_angle_alpha 90.000000
_cell_angle_beta 105.559238
_cell_angle_gamma 90.000000
_cell_volume 3296.266658
_symmetry_space_group_name_H-M "C 2/M"
_symmetry_group_IT_number 12
_symmetry_cell_setting 'monoclinic'
loop_
_space_group_symop_operation_xyz
x,y,z
-x,y,-z
-x,-y,-z
x,-y,z
1/2+x,1/2+y,z
1/2-x,1/2+y,-z
1/2-x,1/2-y,-z
1/2+x,1/2-y,z
loop_
_atom_site_type_symbol
_atom_site_label
_atom_site_fract_x
_atom_site_fract_y
_atom_site_fract_z
Si Si1 0.503201 0.693345 0.945284
Si Si2 0.539815 0.305219 0.580335
Si Si3 0.310650 0.810671 0.748522
Si Si4 0.352437 0.306362 0.501008
Si Si5 0.491886 0.311229 0.233332
Si Si6 0.379877 0.813656 0.306352
Si Si7 0.625808 0.303779 0.877181
Si Si8 0.820733 0.305416 0.863551
O O1 0.510430 0.500000 0.949003
O O2 0.587621 0.751077 0.923732
O O3 0.410562 0.736301 0.902623
O O4 0.500000 0.757003 0.000000
O O5 0.541052 0.500000 0.582838
O O6 0.435603 0.255935 0.549741
O O7 0.610111 0.256507 0.547088
O O8 0.572437 0.236402 0.636346
O O9 0.412235 0.777593 0.743105
O O10 0.229281 0.720848 0.708592
O O11 0.312994 0.757189 0.805694
O O12 0.290317 0.000000 0.744400
O O13 0.351294 0.500000 0.501074
O O14 0.250000 0.250000 0.500000
O O15 0.511515 0.500000 0.230485
O O16 0.421934 0.285466 0.267452
O O17 0.443698 0.252478 0.176274
O O18 0.396596 0.000000 0.298852
O O19 0.625645 0.500000 0.876483
O O20 0.728514 0.252787 0.878244
O O21 0.825855 0.500000 0.865234
#
# Coordination Sequence:
#
# PCOD9198573 Si02
#       8
#     8   8   8   8   8   8   8   8
#     4  10  21  37  57  83 114 147 187 237 290 350
#     4   9  20  40  60  84 121 162 197 240 296 352
#     4  11  22  38  59  86 115 152 198 245 295 353
#     4   9  19  37  64  90 116 155 201 244 294 348
#     4  11  21  38  61  84 114 155 195 243 298 352
#     4  12  25  39  58  89 124 159 200 247 297 354
#     4   9  18  35  57  80 109 146 184 228 290 349
#     4  10  20  36  58  81 108 145 188 233 287 349
#
# _framework density 19.415906
#
# number of rings (size 3 to 8) (size 9 to 14) (size 15 to 20)
#    0.000    1.875    2.500    2.625    0.000    3.250 
#    0.000    4.375    0.000    0.000    0.000    0.000 
#    0.000    0.000    0.000    0.000    0.000    0.000 
#
# Total GULP energy -178700.686854 kJ/mol
# GULP energy per Si atom -5584.396464 kJ/mol
# Density = 1.937171 g / cm^3
# Si number density = 19.415906 Si / 1000 Ang^3
#
#
#
# Elastic Constant Matrix: (Units=GPa)
#
#
# Indices 1 2 3 4 5 6 
#
# 1 81.4924 -5.2298 -19.0556 0.0000 4.4382 0.0000
# 2 -5.2298 16.1760 2.5405 0.0000 -1.0250 0.0000
# 3 -19.0556 2.5405 43.2957 0.0000 1.6244 0.0000
# 4 0.0000 0.0000 0.0000 18.2794 0.0000 6.1378
# 5 4.4382 -1.0250 1.6244 0.0000 16.8833 0.0000
# 6 0.0000 0.0000 0.0000 6.1378 0.0000 30.3731
#
#
#
# Elastic Compliance Matrix: (Units=1/GPa)
#
#
# Indices 1 2 3 4 5 6 
#
# 1 0.014157 0.003344 0.006189 0.000000 -0.004114 0.000000
# 2 0.003344 0.063477 -0.002373 0.000000 0.003203 0.000000
# 3 0.006189 -0.002373 0.026121 0.000000 -0.004284 0.000000
# 4 0.000000 0.000000 0.000000 0.058689 0.000000 -0.011860
# 5 -0.004114 0.003203 -0.004284 0.000000 0.060918 0.000000
# 6 0.000000 0.000000 0.000000 -0.011860 0.000000 0.035321
#
#
# Mechanical properties :
#
#
# Convention : Reuss Voigt Hill
#
# Bulk Modulus (GPa) = 8.46917 10.83048 9.64982
# Shear Modulus (GPa) = 17.62302 23.95443 20.78872
#
# Velocity S-wave (km/s) = 3.01601 3.51629 3.27571
# Velocity P-wave (km/s) = 4.06200 4.69851 4.39180
#
# Compressibility (1/GPa) = 0.11807539
#
# Stress axis : x y z
#
# Youngs Moduli (GPa) = 70.63677 15.75378 38.28356
#
# Poissons Ratio (x) = -0.05269 -0.23694
# Poissons Ratio (y) = -0.23623 0.09084
# Poissons Ratio (z) = -0.43717 0.03738
#
# Static dielectric constant tensor:
#      x y z
#    x 1.663390 0.000000 -0.013160 
#    y 0.000000 1.664750 0.000000 
#    z -0.013160 0.000000 1.654740 
# 
# From -- ./inp_files/359991.got.cif
#   From: 2010.05.17/outbox.cif.g08.bks.cpg/sg12_180_cif.got.tgz:359991.got - 2010.06.03 13:09:07.
