data_PCOD9198732
_publ_section_title
;
Structure prediction by ZEFSAII (Michael W. Deem and Ramdas Pophale) SiO2 
 PCOD9198732
Probable space group: C 2/M
;
_chemical_formula_sum "Si O2"
_cell_formula_units_Z 56
_cell_length_a 29.134318
_cell_length_b 15.222568
_cell_length_c 9.188207
_cell_angle_alpha 90.000000
_cell_angle_beta 140.568329
_cell_angle_gamma 90.000000
_cell_volume 2588.242820
_symmetry_space_group_name_H-M "C 2/M"
_symmetry_group_IT_number 12
_symmetry_cell_setting 'monoclinic'
loop_
_space_group_symop_operation_xyz
x,y,z
-x,y,-z
-x,-y,-z
x,-y,z
1/2+x,1/2+y,z
1/2-x,1/2+y,-z
1/2-x,1/2-y,-z
1/2+x,1/2-y,z
loop_
_atom_site_type_symbol
_atom_site_label
_atom_site_fract_x
_atom_site_fract_y
_atom_site_fract_z
Si Si1 0.500409 0.893834 0.670861
Si Si2 0.923401 0.893419 0.736414
Si Si3 0.299703 0.655749 0.916990
Si Si4 0.565691 0.397112 0.566309
Si Si5 0.343842 0.100763 0.297260
Si Si6 0.279325 0.349122 0.547459
Si Si7 0.655934 0.855020 0.037096
O O1 0.500000 0.866837 0.500000
O O2 0.422648 0.866397 0.541750
O O3 0.577173 0.862491 0.917625
O O4 0.500680 0.000000 0.675873
O O5 0.926454 0.861597 0.577056
O O6 0.855934 0.851699 0.654748
O O7 0.912544 0.000000 0.712886
O O8 0.000000 0.875427 0.000000
O O9 0.222889 0.656129 0.808577
O O10 0.289611 0.612501 0.733807
O O11 0.360064 0.610888 0.164084
O O12 0.327547 0.753896 0.957607
O O13 0.500000 0.357654 0.500000
O O14 0.548243 0.500000 0.502922
O O15 0.344867 0.100325 0.123609
O O16 0.333479 0.000000 0.320343
O O17 0.250000 0.250000 0.500000
O O18 0.218725 0.390826 0.294958
#
# Coordination Sequence:
#
# PCOD9198732 Si02
#       7
#     8   8   8   8   8   8   8
#     4   8  16  33  57  81 105 136 180 233 278 324
#     4  10  21  39  64  89 114 151 196 241 292 350
#     4  11  22  36  54  82 118 151 186 235 289 339
#     4  10  21  37  59  89 120 150 191 243 297 351
#     4  10  20  36  58  84 113 144 184 236 291 344
#     4  10  23  40  54  80 120 158 195 233 283 341
#     4  10  20  37  58  81 108 146 196 237 279 342
#
# _framework density 21.636302000000001
#
# number of rings (size 3 to 8) (size 9 to 14) (size 15 to 20)
#    0.000    2.143    0.000    3.857    0.000    7.429 
#    0.000    6.429    0.000    1.714    0.000    0.000 
#    0.000    0.000    0.000    0.000    0.000    0.000 
#
# Total GULP energy -156365.685153 kJ/mol
# GULP energy per Si atom -5584.488755 kJ/mol
# Density = 2.158706 g / cm^3
# Si number density = 21.636302 Si / 1000 Ang^3
#
#
#
# Elastic Constant Matrix: (Units=GPa)
#
#
# Indices 1 2 3 4 5 6 
#
# 1 150.9647 12.4954 97.5300 0.0000 25.4125 0.0000
# 2 12.4954 53.3206 5.1271 0.0000 11.4384 0.0000
# 3 97.5300 5.1271 153.6674 0.0000 23.2094 0.0000
# 4 0.0000 0.0000 0.0000 18.3467 0.0000 14.1210
# 5 25.4125 11.4384 23.2094 0.0000 52.3234 0.0000
# 6 0.0000 0.0000 0.0000 14.1210 0.0000 21.6891
#
#
#
# Elastic Compliance Matrix: (Units=1/GPa)
#
#
# Indices 1 2 3 4 5 6 
#
# 1 0.011657 -0.001584 -0.007012 0.000000 -0.002205 0.000000
# 2 -0.001584 0.019893 0.000946 0.000000 -0.003999 0.000000
# 3 -0.007012 0.000946 0.011193 0.000000 -0.001766 0.000000
# 4 0.000000 0.000000 0.000000 0.109254 0.000000 -0.071131
# 5 -0.002205 -0.003999 -0.001766 0.000000 0.021840 0.000000
# 6 0.000000 0.000000 0.000000 -0.071131 0.000000 0.092417
#
#
# Mechanical properties :
#
#
# Convention : Reuss Voigt Hill
#
# Bulk Modulus (GPa) = 36.44228 65.36195 50.90212
# Shear Modulus (GPa) = 17.19970 34.65853 25.92911
#
# Velocity S-wave (km/s) = 2.82254 4.00668 3.46556
# Velocity P-wave (km/s) = 5.24423 7.18885 6.29212
#
# Compressibility (1/GPa) = 0.02744065
#
# Stress axis : x y z
#
# Youngs Moduli (GPa) = 85.78785 50.26979 89.33816
#
# Poissons Ratio (x) = 0.07965 0.62648
# Poissons Ratio (y) = 0.13593 -0.08450
# Poissons Ratio (z) = 0.60158 -0.04755
#
# Static dielectric constant tensor:
#      x y z
#    x 1.784530 0.000000 -0.012100 
#    y 0.000000 1.834700 0.000000 
#    z -0.012100 0.000000 1.810220 
# 
# From -- ./inp_files/106043.got.cif
#   From: 2010.05.17/outbox.cif.g08.bks.cpg/sg12_54_cif.got.tgz:106043.got - 2010.06.03 13:09:07.
