data_PCOD9198287
_publ_section_title
;
Structure prediction by ZEFSAII (Michael W. Deem and Ramdas Pophale) SiO2 
 PCOD9198287
Probable space group: C 2/M
;
_chemical_formula_sum "Si O2"
_cell_formula_units_Z 40
_cell_length_a 28.154886
_cell_length_b 8.738089
_cell_length_c 32.695661
_cell_angle_alpha 90.000000
_cell_angle_beta 16.014838
_cell_angle_gamma 90.000000
_cell_volume 2219.169486
_symmetry_space_group_name_H-M "C 2/M"
_symmetry_group_IT_number 12
_symmetry_cell_setting 'monoclinic'
loop_
_space_group_symop_operation_xyz
x,y,z
-x,y,-z
-x,-y,-z
x,-y,z
1/2+x,1/2+y,z
1/2-x,1/2+y,-z
1/2-x,1/2-y,-z
1/2+x,1/2-y,z
loop_
_atom_site_type_symbol
_atom_site_label
_atom_site_fract_x
_atom_site_fract_y
_atom_site_fract_z
Si Si1 0.490148 0.316384 0.461550
Si Si2 0.399278 0.816771 0.758074
Si Si3 0.220959 0.684107 0.435304
Si Si4 0.684895 0.183809 0.864267
Si Si5 0.597929 0.683926 0.153635
O O1 0.500000 0.261661 0.500000
O O2 0.468807 0.500000 0.479747
O O3 0.340036 0.246755 0.557929
O O4 0.668041 0.281761 0.290879
O O5 0.576123 0.768214 0.588471
O O6 0.245147 0.763936 0.855977
O O7 0.386513 0.742012 0.812897
O O8 0.400036 0.000000 0.761189
O O9 0.217868 0.500000 0.436455
O O10 0.411061 0.733494 0.291055
O O11 0.682608 0.000000 0.872652
O O12 0.500000 0.230613 0.000000
O O13 0.604364 0.500000 0.147605
O O14 0.750000 0.750000 0.000000
#
# Coordination Sequence:
#
# PCOD9198287 Si02
#       5
#     8   8   8   8   8
#     4   9  18  32  51  76 104 136 175 215 256 306
#     4  10  20  36  57  80 106 139 179 219 263 315
#     4   9  20  37  56  78 105 139 178 218 261 313
#     4   9  18  33  52  75 105 140 177 216 259 308
#     4  11  23  38  55  79 109 139 175 219 268 317
#
# _framework density 18.024761999999999
#
# number of rings (size 3 to 8) (size 9 to 14) (size 15 to 20)
#    0.000    2.400    0.000    1.800    0.000    4.800 
#    0.000    2.000    0.000    0.000    0.000    0.000 
#    0.000    0.000    0.000    0.000    0.000    0.000 
#
# Total GULP energy -111627.773676 kJ/mol
# GULP energy per Si atom -5581.388684 kJ/mol
# Density = 1.798374 g / cm^3
# Si number density = 18.024762 Si / 1000 Ang^3
#
#
#
# Elastic Constant Matrix: (Units=GPa)
#
#
# Indices 1 2 3 4 5 6 
#
# 1 198.3678 48.7498 99.6386 -0.0644 -7.8882 0.0754
# 2 48.7498 28.7568 39.7867 -0.0345 -5.1966 0.0694
# 3 99.6386 39.7867 124.8173 -0.0420 -28.5483 0.0103
# 4 -0.0644 -0.0345 -0.0420 24.3210 0.0137 -6.2713
# 5 -7.8882 -5.1966 -28.5483 0.0137 27.6127 -0.0233
# 6 0.0754 0.0694 0.0103 -6.2713 -0.0233 19.9718
#
#
#
# Elastic Compliance Matrix: (Units=1/GPa)
#
#
# Indices 1 2 3 4 5 6 
#
# 1 0.010515 -0.009746 -0.006574 0.000004 -0.005627 -0.000008
# 2 -0.009746 0.074175 -0.017429 -0.000004 -0.006845 -0.000221
# 3 -0.006574 -0.017429 0.023097 0.000013 0.018722 0.000099
# 4 0.000004 -0.000004 0.000013 0.044739 0.000003 0.014048
# 5 -0.005627 -0.006845 0.018722 0.000003 0.052676 0.000098
# 6 -0.000008 -0.000221 0.000099 0.014048 0.000098 0.054483
#
#
# Mechanical properties :
#
#
# Convention : Reuss Voigt Hill
#
# Bulk Modulus (GPa) = 24.82135 80.92133 52.87134
# Shear Modulus (GPa) = 14.67946 25.29889 19.98917
#
# Velocity S-wave (km/s) = 2.85687 3.75048 3.33375
# Velocity P-wave (km/s) = 4.96819 7.98416 6.64942
#
# Compressibility (1/GPa) = 0.04028789
#
# Stress axis : x y z
#
# Youngs Moduli (GPa) = 95.10618 13.48169 43.29539
#
# Poissons Ratio (x) = 0.13140 0.28461
# Poissons Ratio (y) = 0.92694 0.75460
# Poissons Ratio (z) = 0.62521 0.23497
#
# Static dielectric constant tensor:
#      x y z
#    x 1.587950 -0.000020 -0.001450 
#    y -0.000020 1.609120 0.000030 
#    z -0.001450 0.000030 1.610010 
# 
# From -- ./inp_files/92788.got.cif
#   From: 2010.05.17/outbox.cif.g08.bks.cpg/sg12_47_cif.got.tgz:92788.got - 2010.06.03 13:09:07.
