data_PCOD9198507
_publ_section_title
;
Structure prediction by ZEFSAII (Michael W. Deem and Ramdas Pophale) SiO2 
 PCOD9198507
Probable space group: C 2/M
;
_chemical_formula_sum "Si O2"
_cell_formula_units_Z 52
_cell_length_a 12.589387
_cell_length_b 24.033986
_cell_length_c 11.477192
_cell_angle_alpha 90.000000
_cell_angle_beta 52.596067
_cell_angle_gamma 90.000000
_cell_volume 2758.611033
_symmetry_space_group_name_H-M "C 2/M"
_symmetry_group_IT_number 12
_symmetry_cell_setting 'monoclinic'
loop_
_space_group_symop_operation_xyz
x,y,z
-x,y,-z
-x,-y,-z
x,-y,z
1/2+x,1/2+y,z
1/2-x,1/2+y,-z
1/2-x,1/2-y,-z
1/2+x,1/2-y,z
loop_
_atom_site_type_symbol
_atom_site_label
_atom_site_fract_x
_atom_site_fract_y
_atom_site_fract_z
Si Si1 0.101198 0.376341 0.321693
Si Si2 0.804380 0.806776 0.323964
Si Si3 0.885815 0.691534 0.333207
Si Si4 0.355113 0.000000 0.800480
Si Si5 0.707734 0.403090 0.346115
Si Si6 0.410622 0.000000 0.172208
Si Si7 0.473960 0.404691 0.322030
Si Si8 0.938544 0.000000 0.911435
O O1 0.229067 0.338002 0.268559
O O2 0.143259 0.440320 0.267425
O O3 0.000000 0.379335 0.500000
O O4 0.017851 0.344648 0.275217
O O5 0.886015 0.749169 0.261741
O O6 0.681817 0.795551 0.495980
O O7 0.904640 0.851127 0.313421
O O8 0.782322 0.652010 0.336345
O O9 0.491725 0.000000 0.782551
O O10 0.221636 0.000000 0.967946
O O11 0.816220 0.446948 0.234865
O O12 0.603390 0.391538 0.313342
O O13 0.630702 0.426901 0.511209
O O14 0.500000 0.000000 0.000000
O O15 0.511545 0.447523 0.196493
O O16 0.000000 0.000000 0.000000
#
# Coordination Sequence:
#
# PCOD9198507 Si02
#       8
#     8   8   8   4   8   4   8   4
#     4  10  20  36  57  88 123 153 194 245 298 355
#     4   9  19  32  56  86 119 154 191 243 291 351
#     4   9  18  33  54  88 118 151 191 240 300 346
#     4  12  23  38  58  86 117 159 197 239 299 362
#     4  10  20  37  61  87 120 151 198 249 291 360
#     4  12  23  37  57  85 119 152 192 242 304 352
#     4  10  21  38  60  88 115 158 199 242 298 344
#     4  12  25  41  59  84 119 159 202 246 293 358
#
# _framework density 18.850066000000002
#
# number of rings (size 3 to 8) (size 9 to 14) (size 15 to 20)
#    0.000    1.846    1.538    3.000    2.154    1.231 
#    2.769    0.000    0.000    3.692    0.000    0.000 
#    0.000    0.000    0.000    0.000    0.000    0.000 
#
# Total GULP energy -144953.529885 kJ/mol
# GULP energy per Si atom -5575.135765 kJ/mol
# Density = 1.880716 g / cm^3
# Si number density = 18.850066 Si / 1000 Ang^3
#
#
#
# Elastic Constant Matrix: (Units=GPa)
#
#
# Indices 1 2 3 4 5 6 
#
# 1 133.1838 59.2605 39.3416 0.0000 -1.7927 0.0000
# 2 59.2605 131.5733 38.3834 0.0000 -3.4368 0.0000
# 3 39.3416 38.3834 58.6169 0.0000 -7.3175 0.0000
# 4 0.0000 0.0000 0.0000 17.2624 0.0000 -6.4612
# 5 -1.7927 -3.4368 -7.3175 0.0000 23.2023 0.0000
# 6 0.0000 0.0000 0.0000 -6.4612 0.0000 9.6259
#
#
#
# Elastic Compliance Matrix: (Units=1/GPa)
#
#
# Indices 1 2 3 4 5 6 
#
# 1 0.010426 -0.003265 -0.005017 0.000000 -0.001260 0.000000
# 2 -0.003265 0.010425 -0.004657 0.000000 -0.000177 0.000000
# 3 -0.005017 -0.004657 0.024299 0.000000 0.006586 0.000000
# 4 0.000000 0.000000 0.000000 0.077367 0.000000 0.051931
# 5 -0.001260 -0.000177 0.006586 0.000000 0.045053 0.000000
# 6 0.000000 0.000000 0.000000 0.051931 0.000000 0.138743
#
#
# Mechanical properties :
#
#
# Convention : Reuss Voigt Hill
#
# Bulk Modulus (GPa) = 51.88983 66.37166 59.13074
# Shear Modulus (GPa) = 14.76605 22.44402 18.60503
#
# Velocity S-wave (km/s) = 2.80186 3.45434 3.14507
# Velocity P-wave (km/s) = 6.16885 7.15519 6.68024
#
# Compressibility (1/GPa) = 0.01927160
#
# Stress axis : x y z
#
# Youngs Moduli (GPa) = 95.91071 95.92343 41.15445
#
# Poissons Ratio (x) = 0.31323 0.20647
# Poissons Ratio (y) = 0.31318 0.19165
# Poissons Ratio (z) = 0.48118 0.44671
#
# Static dielectric constant tensor:
#      x y z
#    x 1.649660 0.000000 0.009480 
#    y 0.000000 1.667200 0.000000 
#    z 0.009480 0.000000 1.646570 
# 
# From -- ./inp_files/135892.got.cif
#   From: 2010.05.17/outbox.cif.g08.bks.cpg/sg12_68_cif.got.tgz:135892.got - 2010.06.03 13:09:07.
