data_PCOD9198412
_publ_section_title
;
Structure prediction by ZEFSAII (Michael W. Deem and Ramdas Pophale) SiO2 
 PCOD9198412
Probable space group: C 2/M
;
_chemical_formula_sum "Si O2"
_cell_formula_units_Z 56
_cell_length_a 30.206067
_cell_length_b 7.605787
_cell_length_c 22.269272
_cell_angle_alpha 90.000000
_cell_angle_beta 28.661729
_cell_angle_gamma 90.000000
_cell_volume 2453.903541
_symmetry_space_group_name_H-M "C 2/M"
_symmetry_group_IT_number 12
_symmetry_cell_setting 'monoclinic'
loop_
_space_group_symop_operation_xyz
x,y,z
-x,y,-z
-x,-y,-z
x,-y,z
1/2+x,1/2+y,z
1/2-x,1/2+y,-z
1/2-x,1/2-y,-z
1/2+x,1/2-y,z
loop_
_atom_site_type_symbol
_atom_site_label
_atom_site_fract_x
_atom_site_fract_y
_atom_site_fract_z
Si Si1 0.208475 0.710936 0.113996
Si Si2 0.601637 0.203619 0.879171
Si Si3 0.714521 0.700327 0.856747
Si Si4 0.898325 0.702575 0.352564
Si Si5 0.409084 0.707028 0.573017
Si Si6 0.796603 0.285072 0.358198
Si Si7 0.998489 0.286492 0.658050
O O1 0.204437 0.500000 0.126863
O O2 0.270099 0.779741 0.095555
O O3 0.102926 0.775444 0.240912
O O4 0.250000 0.750000 0.000000
O O5 0.646616 0.209800 0.890916
O O6 0.670783 0.274495 0.746100
O O7 0.590309 0.000000 0.874515
O O8 0.500000 0.284879 0.000000
O O9 0.682182 0.500000 0.900976
O O10 0.816472 0.703479 0.705942
O O11 0.924729 0.500000 0.311329
O O12 0.872253 0.773131 0.317994
O O13 0.801661 0.711967 0.503971
O O14 0.972886 0.779413 0.309914
O O15 0.500000 0.772778 0.500000
O O16 0.398765 0.500000 0.598068
O O17 0.429047 0.730970 0.478947
O O18 0.788025 0.500000 0.371231
O O19 0.998162 0.500000 0.659987
#
# Coordination Sequence:
#
# PCOD9198412 Si02
#       7
#     8   8   8   8   8   8   8
#     4  10  23  40  58  81 112 151 192 236 287 343
#     4  10  22  39  60  85 113 150 195 242 290 341
#     4  11  23  40  61  86 118 154 192 241 297 350
#     4   9  18  32  54  80 106 141 181 224 279 335
#     4  11  22  35  57  88 118 151 191 237 288 343
#     4   9  18  34  53  78 111 141 179 229 280 334
#     4  10  20  36  57  83 114 149 189 233 285 346
#
# _framework density 22.820782000000001
#
# number of rings (size 3 to 8) (size 9 to 14) (size 15 to 20)
#    0.000    2.000    1.429    1.714    0.000    7.143 
#    0.000    2.857    0.000    3.429    0.000    0.000 
#    0.000    0.000    0.000    0.000    0.000    0.000 
#
# Total GULP energy -156442.204957 kJ/mol
# GULP energy per Si atom -5587.221606 kJ/mol
# Density = 2.276884 g / cm^3
# Si number density = 22.820782 Si / 1000 Ang^3
#
#
#
# Elastic Constant Matrix: (Units=GPa)
#
#
# Indices 1 2 3 4 5 6 
#
# 1 144.2508 -9.8288 21.4360 -0.0062 9.4697 0.0049
# 2 -9.8288 52.0227 -12.1108 -0.0436 -2.0291 0.0262
# 3 21.4360 -12.1108 51.2135 -0.0264 15.2574 0.0202
# 4 -0.0062 -0.0436 -0.0264 12.6523 0.0136 8.4642
# 5 9.4697 -2.0291 15.2574 0.0136 33.5471 -0.0101
# 6 0.0049 0.0262 0.0202 8.4642 -0.0101 26.3180
#
#
#
# Elastic Compliance Matrix: (Units=1/GPa)
#
#
# Indices 1 2 3 4 5 6 
#
# 1 0.007437 0.000747 -0.002689 0.000002 -0.000831 -0.000001
# 2 0.000747 0.020453 0.004880 0.000126 -0.001193 -0.000065
# 3 -0.002689 0.004880 0.024860 0.000123 -0.010252 -0.000067
# 4 0.000002 0.000126 0.000123 0.100706 -0.000100 -0.032388
# 5 -0.000831 -0.001193 -0.010252 -0.000100 0.034634 0.000055
# 6 -0.000001 -0.000065 -0.000067 -0.032388 0.000055 0.048413
#
#
# Mechanical properties :
#
#
# Convention : Reuss Voigt Hill
#
# Bulk Modulus (GPa) = 17.05736 27.38663 22.22200
# Shear Modulus (GPa) = 19.98641 31.03618 25.51129
#
# Velocity S-wave (km/s) = 2.96260 3.69181 3.34712
# Velocity P-wave (km/s) = 4.38102 5.49540 4.96955
#
# Compressibility (1/GPa) = 0.05862573
#
# Stress axis : x y z
#
# Youngs Moduli (GPa) = 134.45590 48.89248 40.22552
#
# Poissons Ratio (x) = -0.03651 0.10815
# Poissons Ratio (y) = -0.10041 -0.19628
# Poissons Ratio (z) = 0.36151 -0.23858
#
# Static dielectric constant tensor:
#      x y z
#    x 1.876190 0.000000 0.000110 
#    y 0.000000 1.873060 0.000010 
#    z 0.000110 0.000010 1.808570 
# 
# From -- ./inp_files/329566.got.cif
#   From: 2010.05.17/outbox.cif.g08.bks.cpg/sg12_165_cif.got.tgz:329566.got - 2010.06.03 13:09:07.
