data_PCOD9198897
_publ_section_title
;
Structure prediction by ZEFSAII (Michael W. Deem and Ramdas Pophale) SiO2 
 PCOD9198897
Probable space group: C 2/M
;
_chemical_formula_sum "Si O2"
_cell_formula_units_Z 48
_cell_length_a 22.510756
_cell_length_b 8.657048
_cell_length_c 12.731707
_cell_angle_alpha 90.000000
_cell_angle_beta 78.089502
_cell_angle_gamma 90.000000
_cell_volume 2427.697567
_symmetry_space_group_name_H-M "C 2/M"
_symmetry_group_IT_number 12
_symmetry_cell_setting 'monoclinic'
loop_
_space_group_symop_operation_xyz
x,y,z
-x,y,-z
-x,-y,-z
x,-y,z
1/2+x,1/2+y,z
1/2-x,1/2+y,-z
1/2-x,1/2-y,-z
1/2+x,1/2-y,z
loop_
_atom_site_type_symbol
_atom_site_label
_atom_site_fract_x
_atom_site_fract_y
_atom_site_fract_z
Si Si1 0.686198 0.185176 0.568030
Si Si2 0.571485 0.188671 0.464792
Si Si3 0.316343 0.814890 0.989317
Si Si4 0.148829 0.822207 0.800340
Si Si5 0.506860 0.678123 0.876145
Si Si6 0.905670 0.316446 0.776961
O O1 0.750000 0.250000 0.500000
O O2 0.624100 0.236140 0.528641
O O3 0.678887 0.238334 0.690941
O O4 0.688450 0.000000 0.560253
O O5 0.500000 0.236884 0.500000
O O6 0.593948 0.242458 0.341714
O O7 0.570148 0.000000 0.468716
O O8 0.356219 0.755432 0.876948
O O9 0.317340 0.000000 0.987531
O O10 0.250000 0.750000 0.000000
O O11 0.339619 0.757076 0.092609
O O12 0.076255 0.820730 0.815955
O O13 0.169881 0.000000 0.796613
O O14 0.484503 0.500000 0.881484
O O15 0.468826 0.780380 0.810591
O O16 0.500000 0.730478 0.000000
O O17 0.897212 0.500000 0.772327
#
# Coordination Sequence:
#
# PCOD9198897 Si02
#       6
#     8   8   8   8   8   8
#     4  11  24  42  66  94 126 164 212 261 318 382
#     4   9  19  38  63  90 122 161 204 255 310 367
#     4  11  24  39  59  89 123 161 207 255 312 374
#     4  11  23  41  64  88 124 163 205 257 312 373
#     4  10  20  36  58  88 123 160 197 246 311 365
#     4  10  21  37  61  91 120 156 202 252 306 371
#
# _framework density 19.771819000000001
#
# number of rings (size 3 to 8) (size 9 to 14) (size 15 to 20)
#    0.000    1.667    1.667    2.500    2.333    3.667 
#    0.000    1.667    0.000    4.500    0.000    0.000 
#    0.000    0.000    0.000    0.000    0.000    0.000 
#
# Total GULP energy -133956.598211 kJ/mol
# GULP energy per Si atom -5581.524925 kJ/mol
# Density = 1.972682 g / cm^3
# Si number density = 19.771819 Si / 1000 Ang^3
#
#
#
# Elastic Constant Matrix: (Units=GPa)
#
#
# Indices 1 2 3 4 5 6 
#
# 1 96.5601 21.6042 46.1753 0.0000 -15.6901 0.0000
# 2 21.6042 33.0167 29.1495 0.0000 -9.7724 0.0000
# 3 46.1753 29.1495 148.8618 0.0000 -12.9928 0.0000
# 4 0.0000 0.0000 0.0000 16.4068 0.0000 0.0759
# 5 -15.6901 -9.7724 -12.9928 0.0000 24.1295 0.0000
# 6 0.0000 0.0000 0.0000 0.0759 0.0000 29.8274
#
#
#
# Elastic Compliance Matrix: (Units=1/GPa)
#
#
# Indices 1 2 3 4 5 6 
#
# 1 0.013668 -0.004857 -0.002817 0.000000 0.005404 0.000000
# 2 -0.004857 0.041667 -0.005724 0.000000 0.010635 0.000000
# 3 -0.002817 -0.005724 0.008762 0.000000 0.000568 0.000000
# 4 0.000000 0.000000 0.000000 0.060951 0.000000 -0.000155
# 5 0.005404 0.010635 0.000568 0.000000 0.049570 0.000000
# 6 0.000000 0.000000 0.000000 -0.000155 0.000000 0.033527
#
#
# Mechanical properties :
#
#
# Convention : Reuss Voigt Hill
#
# Bulk Modulus (GPa) = 26.80928 52.47740 39.64334
# Shear Modulus (GPa) = 20.21222 26.17337 23.19279
#
# Velocity S-wave (km/s) = 3.20077 3.64231 3.42866
# Velocity P-wave (km/s) = 5.22003 6.65490 5.98065
#
# Compressibility (1/GPa) = 0.03730052
#
# Stress axis : x y z
#
# Youngs Moduli (GPa) = 73.16305 23.99958 114.13041
#
# Poissons Ratio (x) = 0.11657 0.32150
# Poissons Ratio (y) = 0.35537 0.65332
# Poissons Ratio (z) = 0.20610 0.13738
#
# Static dielectric constant tensor:
#      x y z
#    x 1.739590 0.000000 -0.016010 
#    y 0.000000 1.692910 0.000000 
#    z -0.016010 0.000000 1.719630 
# 
# From -- ./inp_files/172894.got.cif
#   From: 2010.05.17/outbox.cif.g08.bks.cpg/sg12_87_cif.got.tgz:172894.got - 2010.06.03 13:09:07.
