data_PCOD9198931
_publ_section_title
;
Structure prediction by ZEFSAII (Michael W. Deem and Ramdas Pophale) SiO2 
 PCOD9198931
Probable space group: C 2/M
;
_chemical_formula_sum "Si O2"
_cell_formula_units_Z 32
_cell_length_a 10.328379
_cell_length_b 30.710068
_cell_length_c 5.066892
_cell_angle_alpha 90.000000
_cell_angle_beta 84.680447
_cell_angle_gamma 90.000000
_cell_volume 1600.221484
_symmetry_space_group_name_H-M "C 2/M"
_symmetry_group_IT_number 12
_symmetry_cell_setting 'monoclinic'
loop_
_space_group_symop_operation_xyz
x,y,z
-x,y,-z
-x,-y,-z
x,-y,z
1/2+x,1/2+y,z
1/2-x,1/2+y,-z
1/2-x,1/2-y,-z
1/2+x,1/2-y,z
loop_
_atom_site_type_symbol
_atom_site_label
_atom_site_fract_x
_atom_site_fract_y
_atom_site_fract_z
Si Si1 0.638509 0.769616 0.830398
Si Si2 0.095307 0.000000 0.734069
Si Si3 0.350187 0.593733 0.135179
Si Si4 0.712244 0.646512 0.326716
Si Si5 0.500000 0.296005 0.500000
O O1 0.678480 0.816677 0.711537
O O2 0.607467 0.734229 0.612670
O O3 0.500000 0.773936 0.000000
O O4 0.750000 0.750000 0.000000
O O5 0.172509 0.045175 0.747363
O O6 0.000000 0.000000 0.500000
O O7 0.000000 0.000000 0.000000
O O8 0.316217 0.626197 0.381615
O O9 0.500000 0.594072 0.000000
O O10 0.270451 0.609402 0.895147
O O11 0.579831 0.673478 0.286650
#
# Coordination Sequence:
#
# PCOD9198931 Si02
#       5
#     8   4   8   8   4
#     4  12  27  44  63  92 131 181 230 276 325 380
#     4  10  20  36  58  92 129 167 202 264 343 404
#     4  11  21  38  60  93 129 165 209 268 330 401
#     4  12  24  38  63  93 126 174 217 261 324 392
#     4  12  24  42  62  89 136 175 224 266 328 380
#
# _framework density 19.997233999999999
#
# number of rings (size 3 to 8) (size 9 to 14) (size 15 to 20)
#    0.000    0.500    5.000    5.250    3.500    0.000 
#    0.000    0.000    0.000    0.000    0.000    5.250 
#    0.000    0.000    0.000    0.000    0.000    0.000 
#
# Total GULP energy -89341.326368 kJ/mol
# GULP energy per Si atom -5583.832898 kJ/mol
# Density = 1.995172 g / cm^3
# Si number density = 19.997234 Si / 1000 Ang^3
#
#
#
# Elastic Constant Matrix: (Units=GPa)
#
#
# Indices 1 2 3 4 5 6 
#
# 1 72.7368 35.5151 24.1403 0.0000 -4.7367 0.0000
# 2 35.5151 126.3690 40.4282 0.0000 -12.0737 0.0000
# 3 24.1403 40.4282 119.6506 0.0000 0.5321 0.0000
# 4 0.0000 0.0000 0.0000 38.0408 0.0000 0.4528
# 5 -4.7367 -12.0737 0.5321 0.0000 28.9315 0.0000
# 6 0.0000 0.0000 0.0000 0.4528 0.0000 27.0565
#
#
#
# Elastic Compliance Matrix: (Units=1/GPa)
#
#
# Indices 1 2 3 4 5 6 
#
# 1 0.016367 -0.003852 -0.002005 0.000000 0.001109 0.000000
# 2 -0.003852 0.010207 -0.002688 0.000000 0.003678 0.000000
# 3 -0.002005 -0.002688 0.009678 0.000000 -0.001628 0.000000
# 4 0.000000 0.000000 0.000000 0.026293 0.000000 -0.000440
# 5 0.001109 0.003678 -0.001628 0.000000 0.036311 0.000000
# 6 0.000000 0.000000 0.000000 -0.000440 0.000000 0.036967
#
#
# Mechanical properties :
#
#
# Convention : Reuss Voigt Hill
#
# Bulk Modulus (GPa) = 52.19060 57.65818 54.92439
# Shear Modulus (GPa) = 31.38704 33.38394 32.38549
#
# Velocity S-wave (km/s) = 3.96608 4.09030 4.02867
# Velocity P-wave (km/s) = 6.86503 7.15563 7.01183
#
# Compressibility (1/GPa) = 0.01916054
#
# Stress axis : x y z
#
# Youngs Moduli (GPa) = 61.09880 97.96793 103.32948
#
# Poissons Ratio (x) = 0.37740 0.20722
# Poissons Ratio (y) = 0.23537 0.27776
# Poissons Ratio (z) = 0.12253 0.26335
#
# Static dielectric constant tensor:
#      x y z
#    x 1.716300 0.000000 -0.024560 
#    y 0.000000 1.779880 0.000000 
#    z -0.024560 0.000000 1.784210 
# 
# From -- ./inp_files/6682.got.cif
#   From: 2010.05.17/outbox.cif.g08.bks.cpg/sg12_4_cif.got.tgz:6682.got - 2010.06.03 13:09:07.
