data_PCOD9198810
_publ_section_title
;
Structure prediction by ZEFSAII (Michael W. Deem and Ramdas Pophale) SiO2 
 PCOD9198810
Probable space group: C 2/M
;
_chemical_formula_sum "Si O2"
_cell_formula_units_Z 58
_cell_length_a 21.139814
_cell_length_b 9.015310
_cell_length_c 23.836121
_cell_angle_alpha 90.000000
_cell_angle_beta 137.808241
_cell_angle_gamma 90.000000
_cell_volume 3050.964599
_symmetry_space_group_name_H-M "C 2/M"
_symmetry_group_IT_number 12
_symmetry_cell_setting 'monoclinic'
loop_
_space_group_symop_operation_xyz
x,y,z
-x,y,-z
-x,-y,-z
x,-y,z
1/2+x,1/2+y,z
1/2-x,1/2+y,-z
1/2-x,1/2-y,-z
1/2+x,1/2-y,z
loop_
_atom_site_type_symbol
_atom_site_label
_atom_site_fract_x
_atom_site_fract_y
_atom_site_fract_z
Si Si1 0.333420 0.178796 0.591412
Si Si2 0.955225 0.678601 0.306448
Si Si3 0.681364 0.676996 0.873429
Si Si4 0.500000 0.500000 0.000000
Si Si5 0.567383 0.333867 0.141159
Si Si6 0.622327 0.176148 0.951598
Si Si7 0.218295 0.676353 0.314481
Si Si8 0.094390 0.326967 0.598169
O O1 0.250000 0.250000 0.500000
O O2 0.437949 0.224525 0.639604
O O3 0.318191 0.215642 0.647058
O O4 0.327525 0.000000 0.582063
O O5 0.951722 0.500000 0.298103
O O6 0.878532 0.750026 0.215132
O O7 0.930010 0.715022 0.354026
O O8 0.670491 0.500000 0.864559
O O9 0.643901 0.740667 0.907726
O O10 0.793135 0.711360 0.949531
O O11 0.565041 0.372529 0.074032
O O12 0.550354 0.500000 0.155263
O O13 0.477976 0.232080 0.094294
O O14 0.657503 0.261069 0.227810
O O15 0.622805 0.000000 0.942079
O O16 0.208387 0.500000 0.301286
O O17 0.325062 0.727219 0.375924
O O18 0.125605 0.500000 0.618358
O O19 0.000000 0.317315 0.500000
#
# Coordination Sequence:
#
# PCOD9198810 Si02
#       8
#     8   8   8   2   8   8   8   8
#     4  10  22  39  61  91 123 156 202 254 312 369
#     4  10  21  38  60  87 119 157 201 257 304 361
#     4  10  21  35  55  88 120 156 200 243 301 370
#     4   8  24  40  58  84 114 148 210 256 302 366
#     4  10  21  40  61  85 115 156 207 259 308 365
#     4  10  20  36  58  85 120 157 197 250 309 365
#     4  11  23  39  63  94 127 166 207 261 319 382
#     4  10  22  41  63  88 121 167 214 256 310 373
#
# _framework density 19.010380999999999
#
# number of rings (size 3 to 8) (size 9 to 14) (size 15 to 20)
#    0.414    1.517    0.000    3.310    0.000    7.448 
#    2.483    2.759    0.000    0.000    0.000    0.000 
#    0.000    0.000    0.000    0.000    0.000    0.000 
#
# Total GULP energy -161526.384859 kJ/mol
# GULP energy per Si atom -5569.875340 kJ/mol
# Density = 1.896711 g / cm^3
# Si number density = 19.010381 Si / 1000 Ang^3
#
#
#
# Elastic Constant Matrix: (Units=GPa)
#
#
# Indices 1 2 3 4 5 6 
#
# 1 39.5978 7.6242 -7.9684 0.0000 -2.3608 0.0000
# 2 7.6242 19.9670 19.9298 0.0000 -6.9186 0.0000
# 3 -7.9684 19.9298 75.4481 0.0000 -14.0086 0.0000
# 4 0.0000 0.0000 0.0000 40.3268 0.0000 4.0392
# 5 -2.3608 -6.9186 -14.0086 0.0000 28.6685 0.0000
# 6 0.0000 0.0000 0.0000 4.0392 0.0000 22.8814
#
#
#
# Elastic Compliance Matrix: (Units=1/GPa)
#
#
# Indices 1 2 3 4 5 6 
#
# 1 0.031053 -0.020090 0.008976 0.000000 0.002095 0.000000
# 2 -0.020090 0.082903 -0.022670 0.000000 0.007275 0.000000
# 3 0.008976 -0.022670 0.021239 0.000000 0.005646 0.000000
# 4 0.000000 0.000000 0.000000 0.025244 0.000000 -0.004456
# 5 0.002095 0.007275 0.005646 0.000000 0.039569 0.000000
# 6 0.000000 0.000000 0.000000 -0.004456 0.000000 0.044490
#
#
# Mechanical properties :
#
#
# Convention : Reuss Voigt Hill
#
# Bulk Modulus (GPa) = 14.78750 19.35380 17.07065
# Shear Modulus (GPa) = 14.94281 26.07048 20.50665
#
# Velocity S-wave (km/s) = 2.80667 3.70723 3.28793
# Velocity P-wave (km/s) = 4.27770 5.34112 4.83871
#
# Compressibility (1/GPa) = 0.06762467
#
# Stress axis : x y z
#
# Youngs Moduli (GPa) = 32.20274 12.06234 47.08361
#
# Poissons Ratio (x) = 0.24234 -0.42260
# Poissons Ratio (y) = 0.64697 1.06739
# Poissons Ratio (z) = -0.28904 0.27345
#
# Static dielectric constant tensor:
#      x y z
#    x 1.660350 0.000000 -0.004790 
#    y 0.000000 1.666750 0.000000 
#    z -0.004790 0.000000 1.637120 
# 
# From -- ./inp_files/346540.got.cif
#   From: 2010.05.17/outbox.cif.g08.bks.cpg/sg12_174_cif.got.tgz:346540.got - 2010.06.03 13:09:07.
