data_PCOD9198130
_publ_section_title
;
Structure prediction by ZEFSAII (Michael W. Deem and Ramdas Pophale) SiO2 
 PCOD9198130
Probable space group: C 2/M
;
_chemical_formula_sum "Si O2"
_cell_formula_units_Z 50
_cell_length_a 10.260264
_cell_length_b 27.349635
_cell_length_c 12.670213
_cell_angle_alpha 90.000000
_cell_angle_beta 130.244502
_cell_angle_gamma 90.000000
_cell_volume 2713.851630
_symmetry_space_group_name_H-M "C 2/M"
_symmetry_group_IT_number 12
_symmetry_cell_setting 'monoclinic'
loop_
_space_group_symop_operation_xyz
x,y,z
-x,y,-z
-x,-y,-z
x,-y,z
1/2+x,1/2+y,z
1/2-x,1/2+y,-z
1/2-x,1/2-y,-z
1/2+x,1/2-y,z
loop_
_atom_site_type_symbol
_atom_site_label
_atom_site_fract_x
_atom_site_fract_y
_atom_site_fract_z
Si Si1 0.803217 0.683556 0.928756
Si Si2 0.148298 0.624321 0.666147
Si Si3 0.922467 0.556603 0.690964
Si Si4 0.000000 0.500000 0.000000
Si Si5 0.737570 0.419627 0.806824
Si Si6 0.206874 0.207876 0.115464
Si Si7 0.141505 0.946684 0.359749
O O1 0.718563 0.634075 0.844760
O O2 0.743566 0.735023 0.847328
O O3 0.779151 0.689860 0.041010
O O4 0.000000 0.678262 0.000000
O O5 0.216750 0.673747 0.754026
O O6 0.301541 0.595439 0.689908
O O7 0.000000 0.631888 0.500000
O O8 0.070806 0.588667 0.716129
O O9 0.968845 0.500000 0.744934
O O10 0.838538 0.581049 0.748982
O O11 0.776773 0.554002 0.525603
O O12 0.148172 0.456840 0.065614
O O13 0.547884 0.440439 0.695565
O O14 0.000000 0.205181 0.000000
O O15 0.157560 0.000000 0.315625
#
# Coordination Sequence:
#
# PCOD9198130 Si02
#       7
#     8   8   8   2   8   8   8
#     4  10  21  36  59  79 109 146 187 224 272 336
#     4  10  21  37  58  83 113 146 186 233 277 321
#     4  10  20  36  57  79 111 148 187 221 275 337
#     4  12  24  32  54  86 116 148 168 240 278 324
#     4  12  21  36  55  84 114 140 185 229 281 319
#     4  10  21  39  59  82 106 148 189 226 276 332
#     4  10  20  36  56  80 110 151 184 224 269 338
#
# _framework density 18.423998999999998
#
# number of rings (size 3 to 8) (size 9 to 14) (size 15 to 20)
#    0.000    1.600    2.400    2.880    0.000    3.200 
#    0.000    1.600    0.000   15.360    0.000    0.000 
#    0.000    0.000    0.000    0.000    0.000    0.000 
#
# Total GULP energy -139251.367058 kJ/mol
# GULP energy per Si atom -5570.054682 kJ/mol
# Density = 1.838207 g / cm^3
# Si number density = 18.423999 Si / 1000 Ang^3
#
#
#
# Elastic Constant Matrix: (Units=GPa)
#
#
# Indices 1 2 3 4 5 6 
#
# 1 74.3567 5.4592 12.7944 0.0000 -5.2862 0.0000
# 2 5.4592 130.0402 36.6858 0.0000 -14.8043 0.0000
# 3 12.7944 36.6858 24.2085 0.0000 -2.7819 0.0000
# 4 0.0000 0.0000 0.0000 25.8252 0.0000 -8.0693
# 5 -5.2862 -14.8043 -2.7819 0.0000 23.4294 0.0000
# 6 0.0000 0.0000 0.0000 -8.0693 0.0000 26.4008
#
#
#
# Elastic Compliance Matrix: (Units=1/GPa)
#
#
# Indices 1 2 3 4 5 6 
#
# 1 0.015765 0.003551 -0.013227 0.000000 0.004230 0.000000
# 2 0.003551 0.015169 -0.023998 0.000000 0.007537 0.000000
# 3 -0.013227 -0.023998 0.083722 0.000000 -0.008207 0.000000
# 4 0.000000 0.000000 0.000000 0.042810 0.000000 0.013085
# 5 0.004230 0.007537 -0.008207 0.000000 0.047424 0.000000
# 6 0.000000 0.000000 0.000000 0.013085 0.000000 0.041877
#
#
# Mechanical properties :
#
#
# Convention : Reuss Voigt Hill
#
# Bulk Modulus (GPa) = 21.13817 37.60936 29.37377
# Shear Modulus (GPa) = 15.15684 26.70883 20.93283
#
# Velocity S-wave (km/s) = 2.87133 3.81159 3.37437
# Velocity P-wave (km/s) = 4.74245 6.31098 5.58208
#
# Compressibility (1/GPa) = 0.04730777
#
# Stress axis : x y z
#
# Youngs Moduli (GPa) = 63.43288 65.92413 11.94426
#
# Poissons Ratio (x) = -0.23412 0.15799
# Poissons Ratio (y) = -0.22527 0.28664
# Poissons Ratio (z) = 0.83905 1.58205
#
# Static dielectric constant tensor:
#      x y z
#    x 1.617120 0.000000 -0.029280 
#    y 0.000000 1.649010 0.000000 
#    z -0.029280 0.000000 1.698660 
# 
# From -- ./inp_files/124179.got.cif
#   From: 2010.05.17/outbox.cif.g08.bks.cpg/sg12_63_cif.got.tgz:124179.got - 2010.06.03 13:09:07.
