data_PCOD9198195
_publ_section_title
;
Structure prediction by ZEFSAII (Michael W. Deem and Ramdas Pophale) SiO2 
 PCOD9198195
Probable space group: C 2/M
;
_chemical_formula_sum "Si O2"
_cell_formula_units_Z 40
_cell_length_a 18.014629
_cell_length_b 10.405284
_cell_length_c 27.779650
_cell_angle_alpha 90.000000
_cell_angle_beta 152.146199
_cell_angle_gamma 90.000000
_cell_volume 2432.902602
_symmetry_space_group_name_H-M "C 2/M"
_symmetry_group_IT_number 12
_symmetry_cell_setting 'monoclinic'
loop_
_space_group_symop_operation_xyz
x,y,z
-x,y,-z
-x,-y,-z
x,-y,z
1/2+x,1/2+y,z
1/2-x,1/2+y,-z
1/2-x,1/2-y,-z
1/2+x,1/2-y,z
loop_
_atom_site_type_symbol
_atom_site_label
_atom_site_fract_x
_atom_site_fract_y
_atom_site_fract_z
Si Si1 0.692659 0.261847 0.201202
Si Si2 0.272425 0.500000 0.049716
Si Si3 0.647900 0.847013 0.617702
Si Si4 0.009288 0.774749 0.190193
Si Si5 0.935484 0.500000 0.908978
Si Si6 0.369324 0.000000 0.132665
Si Si7 0.821218 0.000000 0.878080
O O1 0.836214 0.273998 0.322081
O O2 0.542559 0.280958 0.151552
O O3 0.666813 0.125996 0.161424
O O4 0.702810 0.374937 0.168722
O O5 0.369977 0.374291 0.121828
O O6 0.258883 0.500000 0.984068
O O7 0.093877 0.500000 0.966962
O O8 0.500000 0.809737 0.500000
O O9 0.819133 0.818943 0.691387
O O10 0.639413 0.000000 0.622334
O O11 0.968352 0.630624 0.181625
O O12 0.000000 0.500000 0.000000
O O13 0.291683 0.000000 0.140420
O O14 0.000000 0.000000 0.000000
#
# Coordination Sequence:
#
# PCOD9198195 Si02
#       7
#     8   4   8   8   4   4   4
#     4  10  20  41  52  86 114 147 196 239 277 351
#     4  12  20  36  52  78 114 159 187 235 283 342
#     4   9  17  35  64  90 106 145 197 250 287 335
#     4  10  20  36  56  84 108 146 190 239 285 334
#     4  12  26  34  54  81 124 158 192 233 288 349
#     4  12  24  34  56  83 120 150 189 244 277 344
#     4  12  24  34  56  82 117 161 194 222 288 350
#
# _framework density 16.441267
#
# number of rings (size 3 to 8) (size 9 to 14) (size 15 to 20)
#    1.200    0.200    4.000    3.000    5.600    0.000 
#    0.000    2.000    0.000    1.200    5.200    0.000 
#    0.000    0.000    0.000    0.000    0.000    0.000 
#
# Total GULP energy -111398.604145 kJ/mol
# GULP energy per Si atom -5569.930207 kJ/mol
# Density = 1.640385 g / cm^3
# Si number density = 16.441267 Si / 1000 Ang^3
#
#
#
# Elastic Constant Matrix: (Units=GPa)
#
#
# Indices 1 2 3 4 5 6 
#
# 1 90.3179 42.9092 27.4291 0.0000 -13.1656 0.0000
# 2 42.9092 139.3147 68.9695 -0.0001 -11.4945 0.0000
# 3 27.4291 68.9695 137.9928 0.0002 -19.8982 0.0001
# 4 0.0000 -0.0001 0.0002 7.8305 0.0001 1.1225
# 5 -13.1656 -11.4945 -19.8982 0.0001 19.7713 0.0000
# 6 0.0000 0.0000 0.0001 1.1225 0.0000 18.9843
#
#
#
# Elastic Compliance Matrix: (Units=1/GPa)
#
#
# Indices 1 2 3 4 5 6 
#
# 1 0.013857 -0.003753 0.000161 0.000000 0.007207 0.000000
# 2 -0.003753 0.010567 -0.004691 0.000000 -0.001076 0.000000
# 3 0.000161 -0.004691 0.010740 0.000000 0.008189 0.000000
# 4 0.000000 0.000000 0.000000 0.128797 -0.000001 -0.007615
# 5 0.007207 -0.001076 0.008189 -0.000001 0.062993 0.000000
# 6 0.000000 0.000000 0.000000 -0.007615 0.000000 0.053125
#
#
# Mechanical properties :
#
#
# Convention : Reuss Voigt Hill
#
# Bulk Modulus (GPa) = 53.76912 71.80458 62.78685
# Shear Modulus (GPa) = 16.51011 24.53840 20.52425
#
# Velocity S-wave (km/s) = 3.17233 3.86746 3.53702
# Velocity P-wave (km/s) = 6.79654 7.98193 7.41297
#
# Compressibility (1/GPa) = 0.01859804
#
# Stress axis : x y z
#
# Youngs Moduli (GPa) = 72.16732 94.63146 93.10839
#
# Poissons Ratio (x) = 0.35513 -0.01495
# Poissons Ratio (y) = 0.27082 0.43676
# Poissons Ratio (z) = -0.01159 0.44390
#
# Static dielectric constant tensor:
#      x y z
#    x 1.581670 0.000000 0.002160 
#    y 0.000000 1.554590 0.000000 
#    z 0.002160 0.000000 1.547020 
# 
# From -- ./inp_files/362859.got.cif
#   From: 2010.05.17/outbox.cif.g08.bks.cpg/sg12_182_cif.got.tgz:362859.got - 2010.06.03 13:09:07.
