data_PCOD9198668
_publ_section_title
;
Structure prediction by ZEFSAII (Michael W. Deem and Ramdas Pophale) SiO2 
 PCOD9198668
Probable space group: C 2/M
;
_chemical_formula_sum "Si O2"
_cell_formula_units_Z 44
_cell_length_a 18.235003
_cell_length_b 11.891028
_cell_length_c 32.145388
_cell_angle_alpha 90.000000
_cell_angle_beta 21.326582
_cell_angle_gamma 90.000000
_cell_volume 2534.938593
_symmetry_space_group_name_H-M "C 2/M"
_symmetry_group_IT_number 12
_symmetry_cell_setting 'monoclinic'
loop_
_space_group_symop_operation_xyz
x,y,z
-x,y,-z
-x,-y,-z
x,-y,z
1/2+x,1/2+y,z
1/2-x,1/2+y,-z
1/2-x,1/2-y,-z
1/2+x,1/2-y,z
loop_
_atom_site_type_symbol
_atom_site_label
_atom_site_fract_x
_atom_site_fract_y
_atom_site_fract_z
Si Si1 0.265040 0.871521 0.688699
Si Si2 0.066631 0.237709 0.322633
Si Si3 0.292342 0.628724 0.955502
Si Si4 0.433716 0.870701 0.079265
Si Si5 0.000000 0.219037 0.500000
Si Si6 0.279292 0.626042 0.537551
O O1 0.354997 0.827903 0.684928
O O2 0.352813 0.795464 0.605615
O O3 0.326154 0.000000 0.649704
O O4 0.023448 0.865266 0.818724
O O5 0.254155 0.191984 0.197607
O O6 0.898012 0.289016 0.381382
O O7 0.955060 0.145417 0.410408
O O8 0.271995 0.500000 0.986366
O O9 0.130001 0.627425 0.004507
O O10 0.250000 0.750000 0.000000
O O11 0.367521 0.000000 0.107065
O O12 0.500000 0.821022 0.000000
O O13 0.127872 0.149606 0.466186
O O14 0.202007 0.500000 0.575877
#
# Coordination Sequence:
#
# PCOD9198668 Si02
#       6
#     8   8   8   8   4   8
#     4  10  20  36  58  83 112 144 185 232 277 330
#     4  10  20  36  59  79 109 145 187 228 275 338
#     4  10  20  37  60  85 115 151 191 234 282 338
#     4  10  21  36  57  83 113 148 186 232 279 333
#     4  10  22  36  56  84 112 142 180 230 282 342
#     4  10  21  37  56  81 110 146 183 229 281 336
#
# _framework density 17.357422
#
# number of rings (size 3 to 8) (size 9 to 14) (size 15 to 20)
#    0.000    2.000    1.818    1.636    2.545    0.000 
#    0.000    2.727    0.000    2.727    0.000    0.000 
#    0.000    0.000    0.000    0.000    0.000    0.000 
#
# Total GULP energy -122561.338507 kJ/mol
# GULP energy per Si atom -5570.969932 kJ/mol
# Density = 1.731792 g / cm^3
# Si number density = 17.357422 Si / 1000 Ang^3
#
#
#
# Elastic Constant Matrix: (Units=GPa)
#
#
# Indices 1 2 3 4 5 6 
#
# 1 96.5979 21.6531 35.0283 -0.0016 3.3691 0.0020
# 2 21.6531 74.5211 7.1723 -0.0138 10.4538 -0.0005
# 3 35.0283 7.1723 62.3038 -0.0196 -2.1821 -0.0033
# 4 -0.0016 -0.0138 -0.0196 14.0556 -0.0091 -3.7157
# 5 3.3691 10.4538 -2.1821 -0.0091 25.2180 -0.0024
# 6 0.0020 -0.0005 -0.0033 -3.7157 -0.0024 15.1208
#
#
#
# Elastic Compliance Matrix: (Units=1/GPa)
#
#
# Indices 1 2 3 4 5 6 
#
# 1 0.013790 -0.003124 -0.007435 -0.000015 -0.001191 -0.000007
# 2 -0.003124 0.015172 -0.000196 0.000011 -0.005889 0.000003
# 3 -0.007435 -0.000196 0.020352 0.000033 0.002836 0.000014
# 4 -0.000015 0.000011 0.000033 0.076089 0.000029 0.018698
# 5 -0.001191 -0.005889 0.002836 0.000029 0.042500 0.000014
# 6 -0.000007 0.000003 0.000014 0.018698 0.000014 0.070729
#
#
# Mechanical properties :
#
#
# Convention : Reuss Voigt Hill
#
# Bulk Modulus (GPa) = 35.96727 40.12559 38.04643
# Shear Modulus (GPa) = 18.55899 22.18347 20.37123
#
# Velocity S-wave (km/s) = 3.27345 3.57885 3.42955
# Velocity P-wave (km/s) = 5.92063 6.34389 6.13591
#
# Compressibility (1/GPa) = 0.02780306
#
# Stress axis : x y z
#
# Youngs Moduli (GPa) = 72.51542 65.91174 49.13414
#
# Poissons Ratio (x) = 0.20593 0.36532
# Poissons Ratio (y) = 0.22656 0.00964
# Poissons Ratio (z) = 0.53916 0.01294
#
# Static dielectric constant tensor:
#      x y z
#    x 1.574760 0.000000 -0.000320 
#    y 0.000000 1.609530 0.000010 
#    z -0.000320 0.000010 1.565080 
# 
# From -- ./inp_files/153409.got.cif
#   From: 2010.05.17/outbox.cif.g08.bks.cpg/sg12_77_cif.got.tgz:153409.got - 2010.06.03 13:09:07.
