data_PCOD9198074
_publ_section_title
;
Structure prediction by ZEFSAII (Michael W. Deem and Ramdas Pophale) SiO2 
 PCOD9198074
Probable space group: C 2/M
;
_chemical_formula_sum "Si O2"
_cell_formula_units_Z 40
_cell_length_a 8.667356
_cell_length_b 11.217189
_cell_length_c 24.585198
_cell_angle_alpha 90.000000
_cell_angle_beta 57.746901
_cell_angle_gamma 90.000000
_cell_volume 2021.436850
_symmetry_space_group_name_H-M "C 2/M"
_symmetry_group_IT_number 12
_symmetry_cell_setting 'monoclinic'
loop_
_space_group_symop_operation_xyz
x,y,z
-x,y,-z
-x,-y,-z
x,-y,z
1/2+x,1/2+y,z
1/2-x,1/2+y,-z
1/2-x,1/2-y,-z
1/2+x,1/2-y,z
loop_
_atom_site_type_symbol
_atom_site_label
_atom_site_fract_x
_atom_site_fract_y
_atom_site_fract_z
Si Si1 0.868556 0.368847 0.472722
Si Si2 0.944808 0.812945 0.953014
Si Si3 0.333465 0.866388 0.677133
Si Si4 0.728188 0.628702 0.124245
Si Si5 0.574618 0.634677 0.273222
O O1 0.773039 0.500000 0.489287
O O2 0.750000 0.250000 0.500000
O O3 0.000000 0.370473 0.500000
O O4 0.996004 0.361076 0.395609
O O5 0.906499 0.872104 0.902081
O O6 0.112072 0.723468 0.912023
O O7 0.750000 0.750000 0.000000
O O8 0.000000 0.873817 0.000000
O O9 0.341091 0.749275 0.713183
O O10 0.143786 0.860868 0.679899
O O11 0.335319 0.000000 0.703268
O O12 0.821484 0.500000 0.108911
O O13 0.619956 0.645132 0.200612
O O14 0.635416 0.500000 0.279154
#
# Coordination Sequence:
#
# PCOD9198074 Si02
#       5
#     8   8   8   8   8
#     4  10  21  37  57  82 113 148 185 229 279 330
#     4   9  19  34  53  79 107 137 177 219 265 325
#     4  10  21  37  57  83 114 146 185 232 278 328
#     4  10  20  36  56  78 108 142 178 224 273 325
#     4  10  21  37  58  82 111 149 187 227 279 333
#
# _framework density 19.787904000000001
#
# number of rings (size 3 to 8) (size 9 to 14) (size 15 to 20)
#    0.000    2.200    0.000    2.400    0.000    7.600 
#    0.000    4.000    0.000    0.000    0.000    0.000 
#    0.000    0.000    0.000    0.000    0.000    0.000 
#
# Total GULP energy -111357.634654 kJ/mol
# GULP energy per Si atom -5567.881733 kJ/mol
# Density = 1.974287 g / cm^3
# Si number density = 19.787904 Si / 1000 Ang^3
#
#
#
# Elastic Constant Matrix: (Units=GPa)
#
#
# Indices 1 2 3 4 5 6 
#
# 1 55.6584 40.8852 -0.0497 0.0000 2.7917 0.0000
# 2 40.8852 159.6965 25.9658 0.0000 3.4312 0.0000
# 3 -0.0497 25.9658 36.5369 0.0000 1.9630 0.0000
# 4 0.0000 0.0000 0.0000 41.3588 0.0000 13.3460
# 5 2.7917 3.4312 1.9630 0.0000 37.2556 0.0000
# 6 0.0000 0.0000 0.0000 13.3460 0.0000 27.5600
#
#
#
# Elastic Compliance Matrix: (Units=1/GPa)
#
#
# Indices 1 2 3 4 5 6 
#
# 1 0.022898 -0.006614 0.004805 0.000000 -0.001360 0.000000
# 2 -0.006614 0.008996 -0.006403 0.000000 0.000004 0.000000
# 3 0.004805 -0.006403 0.032005 0.000000 -0.001457 0.000000
# 4 0.000000 0.000000 0.000000 0.028657 0.000000 -0.013877
# 5 -0.001360 0.000004 -0.001457 0.000000 0.027020 0.000000
# 6 0.000000 0.000000 0.000000 -0.013877 0.000000 0.043005
#
#
# Mechanical properties :
#
#
# Convention : Reuss Voigt Hill
#
# Bulk Modulus (GPa) = 21.06396 42.83271 31.94833
# Shear Modulus (GPa) = 25.66357 33.57422 29.61890
#
# Velocity S-wave (km/s) = 3.60520 4.12358 3.87307
# Velocity P-wave (km/s) = 5.29131 6.66069 6.01509
#
# Compressibility (1/GPa) = 0.04747446
#
# Stress axis : x y z
#
# Youngs Moduli (GPa) = 43.67206 111.15818 31.24559
#
# Poissons Ratio (x) = 0.73523 -0.15013
# Poissons Ratio (y) = 0.28886 0.20005
# Poissons Ratio (z) = -0.20984 0.71170
#
# Static dielectric constant tensor:
#      x y z
#    x 1.671000 0.000000 0.022930 
#    y 0.000000 1.747940 0.000000 
#    z 0.022930 0.000000 1.702220 
# 
# From -- ./inp_files/299016.got.cif
#   From: 2010.05.17/outbox.cif.g08.bks.cpg/sg12_150_cif.got.tgz:299016.got - 2010.06.03 13:09:07.
