data_PCOD9198672
_publ_section_title
;
Structure prediction by ZEFSAII (Michael W. Deem and Ramdas Pophale) SiO2 
 PCOD9198672
Probable space group: C 2/M
;
_chemical_formula_sum "Si O2"
_cell_formula_units_Z 40
_cell_length_a 17.990536
_cell_length_b 11.343446
_cell_length_c 10.292131
_cell_angle_alpha 90.000000
_cell_angle_beta 138.774753
_cell_angle_gamma 90.000000
_cell_volume 1384.183385
_symmetry_space_group_name_H-M "C 2/M"
_symmetry_group_IT_number 12
_symmetry_cell_setting 'monoclinic'
loop_
_space_group_symop_operation_xyz
x,y,z
-x,y,-z
-x,-y,-z
x,-y,z
1/2+x,1/2+y,z
1/2-x,1/2+y,-z
1/2-x,1/2-y,-z
1/2+x,1/2-y,z
loop_
_atom_site_type_symbol
_atom_site_label
_atom_site_fract_x
_atom_site_fract_y
_atom_site_fract_z
Si Si1 0.941467 0.367661 0.208068
Si Si2 0.423546 0.320504 0.524475
Si Si3 0.857914 0.128320 0.084561
Si Si4 0.666586 0.872588 0.217572
Si Si5 0.132668 0.875955 0.198287
O O1 0.923843 0.500000 0.229784
O O2 0.059177 0.317814 0.418722
O O3 0.857100 0.262257 0.144377
O O4 0.913517 0.366283 0.016480
O O5 0.500000 0.350534 0.500000
O O6 0.503708 0.377444 0.739244
O O7 0.298256 0.366527 0.350056
O O8 0.821898 0.000000 0.094185
O O9 0.816485 0.131361 0.882028
O O10 0.652534 0.753596 0.281159
O O11 0.642767 0.000000 0.246975
O O12 0.172525 0.000000 0.309166
O O13 0.000000 0.882420 0.000000
#
# Coordination Sequence:
#
# PCOD9198672 Si02
#       5
#     8   8   8   8   8
#     4   8  18  35  51  74 111 144 179 230 275 316
#     4  10  21  34  57  80 113 149 191 222 274 327
#     4   8  16  32  52  76 107 140 178 223 266 321
#     4  10  20  36  58  83 112 146 187 231 275 326
#     4   9  18  36  60  82 109 146 184 227 281 335
#
# _framework density 28.897905999999999
#
# number of rings (size 3 to 8) (size 9 to 14) (size 15 to 20)
#    1.200    1.800    0.000    0.600    0.000    4.000 
#    0.000    1.000    0.000    0.000    0.000    0.000 
#    0.000    0.000    0.000    0.000    0.000    0.000 
#
# Total GULP energy -111443.927234 kJ/mol
# GULP energy per Si atom -5572.196362 kJ/mol
# Density = 2.883213 g / cm^3
# Si number density = 28.897906 Si / 1000 Ang^3
#
#
#
# Elastic Constant Matrix: (Units=GPa)
#
#
# Indices 1 2 3 4 5 6 
#
# 1 86.9657 20.3853 30.2991 0.0000 2.6507 0.0000
# 2 20.3853 353.2230 19.0137 0.0000 9.1760 0.0000
# 3 30.2991 19.0137 123.5777 0.0000 -4.4183 0.0000
# 4 0.0000 0.0000 0.0000 61.8778 0.0000 109.4837
# 5 2.6507 9.1760 -4.4183 0.0000 33.6257 0.0000
# 6 0.0000 0.0000 0.0000 109.4837 0.0000 221.4216
#
#
#
# Elastic Compliance Matrix: (Units=1/GPa)
#
#
# Indices 1 2 3 4 5 6 
#
# 1 0.012738 -0.000536 -0.003086 0.000000 -0.001263 0.000000
# 2 -0.000536 0.002901 -0.000343 0.000000 -0.000795 0.000000
# 3 -0.003086 -0.000343 0.008956 0.000000 0.001514 0.000000
# 4 0.000000 0.000000 0.000000 0.129154 0.000000 -0.063861
# 5 -0.001263 -0.000795 0.001514 0.000000 0.030254 0.000000
# 6 0.000000 0.000000 0.000000 -0.063861 0.000000 0.036093
#
#
# Mechanical properties :
#
#
# Convention : Reuss Voigt Hill
#
# Bulk Modulus (GPa) = 60.00909 78.12917 69.06913
# Shear Modulus (GPa) = 21.40579 96.32290 58.86434
#
# Velocity S-wave (km/s) = 2.72460 5.77966 4.51818
# Velocity P-wave (km/s) = 5.54156 8.46370 7.15343
#
# Compressibility (1/GPa) = 0.01666414
#
# Stress axis : x y z
#
# Youngs Moduli (GPa) = 78.50473 344.69221 111.66189
#
# Poissons Ratio (x) = 0.18483 0.34457
# Poissons Ratio (y) = 0.04210 0.03833
# Poissons Ratio (z) = 0.24225 0.11833
#
# Static dielectric constant tensor:
#      x y z
#    x 2.291110 0.000000 0.013820 
#    y 0.000000 2.351150 0.000000 
#    z 0.013820 0.000000 2.259950 
# 
# From -- ./inp_files/240073.got.cif
#   From: 2010.05.17/outbox.cif.g08.bks.cpg/sg12_121_cif.got.tgz:240073.got - 2010.06.03 13:09:07.
