data_PCOD9198244
_publ_section_title
;
Structure prediction by ZEFSAII (Michael W. Deem and Ramdas Pophale) SiO2 
 PCOD9198244
Probable space group: C 2/M
;
_chemical_formula_sum "Si O2"
_cell_formula_units_Z 40
_cell_length_a 15.009167
_cell_length_b 9.016079
_cell_length_c 31.362060
_cell_angle_alpha 90.000000
_cell_angle_beta 147.293715
_cell_angle_gamma 90.000000
_cell_volume 2293.190168
_symmetry_space_group_name_H-M "C 2/M"
_symmetry_group_IT_number 12
_symmetry_cell_setting 'monoclinic'
loop_
_space_group_symop_operation_xyz
x,y,z
-x,y,-z
-x,-y,-z
x,-y,z
1/2+x,1/2+y,z
1/2-x,1/2+y,-z
1/2-x,1/2-y,-z
1/2+x,1/2-y,z
loop_
_atom_site_type_symbol
_atom_site_label
_atom_site_fract_x
_atom_site_fract_y
_atom_site_fract_z
Si Si1 0.520935 0.177576 0.796283
Si Si2 0.151831 0.678829 0.500027
Si Si3 0.780474 0.321259 0.375124
Si Si4 0.361389 0.177001 0.908923
Si Si5 0.080129 0.677085 0.916636
O O1 0.369400 0.248134 0.710090
O O2 0.694492 0.234388 0.848115
O O3 0.524719 0.224324 0.847440
O O4 0.510854 0.000000 0.790054
O O5 0.161507 0.500000 0.500085
O O6 0.250000 0.750000 0.500000
O O7 0.220227 0.719191 0.574785
O O8 0.957382 0.719235 0.425329
O O9 0.768528 0.500000 0.368454
O O10 0.441209 0.208558 0.895469
O O11 0.329587 0.000000 0.899994
O O12 0.500000 0.215147 0.000000
O O13 0.106170 0.500000 0.926400
O O14 0.250000 0.750000 0.000000
#
# Coordination Sequence:
#
# PCOD9198244 Si02
#       5
#     8   8   8   8   8
#     4  11  23  36  54  83 115 143 183 239 280 315
#     4   9  19  37  62  87 112 145 183 224 271 328
#     4   9  20  39  58  80 114 152 184 217 271 339
#     4  10  20  36  57  77 103 146 189 224 277 340
#     4  10  21  36  54  77 105 140 184 230 276 325
#
# _framework density 17.442948999999999
#
# number of rings (size 3 to 8) (size 9 to 14) (size 15 to 20)
#    0.000    2.200    2.000    1.800    0.000    5.200 
#    0.000    8.000    0.000    0.000    0.000    0.000 
#    0.000    0.000    0.000    0.000    0.000    0.000 
#
# Total GULP energy -111596.674482 kJ/mol
# GULP energy per Si atom -5579.833724 kJ/mol
# Density = 1.740325 g / cm^3
# Si number density = 17.442949 Si / 1000 Ang^3
#
#
#
# Elastic Constant Matrix: (Units=GPa)
#
#
# Indices 1 2 3 4 5 6 
#
# 1 157.9435 54.9291 100.5159 0.0000 -7.5231 0.0000
# 2 54.9291 29.8810 57.9833 0.0000 -0.6552 0.0000
# 3 100.5159 57.9833 184.7236 0.0000 -3.6117 0.0000
# 4 0.0000 0.0000 0.0000 29.4919 0.0000 0.3234
# 5 -7.5231 -0.6552 -3.6117 0.0000 16.2259 0.0000
# 6 0.0000 0.0000 0.0000 0.3234 0.0000 31.7607
#
#
#
# Elastic Compliance Matrix: (Units=1/GPa)
#
#
# Indices 1 2 3 4 5 6 
#
# 1 0.018578 -0.037490 0.001806 0.000000 0.007502 0.000000
# 2 -0.037490 0.161372 -0.030599 0.000000 -0.017677 0.000000
# 3 0.001806 -0.030599 0.014089 0.000000 0.002738 0.000000
# 4 0.000000 0.000000 0.000000 0.033911 0.000000 -0.000345
# 5 0.007502 -0.017677 0.002738 0.000000 0.065004 0.000000
# 6 0.000000 0.000000 0.000000 -0.000345 0.000000 0.031489
#
#
# Mechanical properties :
#
#
# Convention : Reuss Voigt Hill
#
# Bulk Modulus (GPa) = 16.26759 88.82273 52.54516
# Shear Modulus (GPa) = 10.47118 26.10367 18.28742
#
# Velocity S-wave (km/s) = 2.45278 3.87268 3.24143
# Velocity P-wave (km/s) = 4.16748 8.42789 6.64820
#
# Compressibility (1/GPa) = 0.06147191
#
# Stress axis : x y z
#
# Youngs Moduli (GPa) = 53.82756 6.19686 70.97561
#
# Poissons Ratio (x) = 0.23232 -0.12815
# Poissons Ratio (y) = 2.01800 2.17179
# Poissons Ratio (z) = -0.09719 0.18962
#
# Static dielectric constant tensor:
#      x y z
#    x 1.586580 0.000000 -0.017320 
#    y 0.000000 1.585060 0.000000 
#    z -0.017320 0.000000 1.565150 
# 
# From -- ./inp_files/211231.got.cif
#   From: 2010.05.17/outbox.cif.g08.bks.cpg/sg12_106_cif.got.tgz:211231.got - 2010.06.03 13:09:07.
