data_PCOD9198438
_publ_section_title
;
Structure prediction by ZEFSAII (Michael W. Deem and Ramdas Pophale) SiO2 
 PCOD9198438
Probable space group: C 2/M
;
_chemical_formula_sum "Si O2"
_cell_formula_units_Z 36
_cell_length_a 19.476658
_cell_length_b 14.416585
_cell_length_c 6.633582
_cell_angle_alpha 90.000000
_cell_angle_beta 122.891553
_cell_angle_gamma 90.000000
_cell_volume 1564.044324
_symmetry_space_group_name_H-M "C 2/M"
_symmetry_group_IT_number 12
_symmetry_cell_setting 'monoclinic'
loop_
_space_group_symop_operation_xyz
x,y,z
-x,y,-z
-x,-y,-z
x,-y,z
1/2+x,1/2+y,z
1/2-x,1/2+y,-z
1/2-x,1/2-y,-z
1/2+x,1/2-y,z
loop_
_atom_site_type_symbol
_atom_site_label
_atom_site_fract_x
_atom_site_fract_y
_atom_site_fract_z
Si Si1 0.445762 0.826932 0.103188
Si Si2 0.806963 0.397060 0.654370
Si Si3 0.828704 0.364950 0.229841
Si Si4 0.500000 0.672545 0.500000
Si Si5 0.675437 0.357007 0.720421
O O1 0.411044 0.887181 0.235720
O O2 0.487437 0.739452 0.281459
O O3 0.500000 0.861343 0.000000
O O4 0.358335 0.816515 0.848745
O O5 0.829894 0.500000 0.767130
O O6 0.826860 0.397721 0.453271
O O7 0.713060 0.379527 0.562428
O O8 0.828443 0.253273 0.248841
O O9 0.745738 0.393176 0.983224
O O10 0.417374 0.614545 0.394163
#
# Coordination Sequence:
#
# PCOD9198438 Si02
#       5
#     8   8   8   4   8
#     4  10  20  36  57  84 115 145 183 232 285 334
#     4  11  23  38  57  83 119 157 189 226 279 344
#     4   9  19  36  58  83 112 149 193 236 277 329
#     4  10  20  36  62  90 114 140 186 248 286 326
#     4   9  19  36  59  84 108 147 194 237 282 328
#
# _framework density 23.017251000000002
#
# number of rings (size 3 to 8) (size 9 to 14) (size 15 to 20)
#    0.000    2.222    0.000    4.667    0.000    9.333 
#    0.000    2.222    0.000    1.333    0.000    0.000 
#    0.000    0.000    0.000    0.000    0.000    0.000 
#
# Total GULP energy -100242.278978 kJ/mol
# GULP energy per Si atom -5569.015499 kJ/mol
# Density = 2.296486 g / cm^3
# Si number density = 23.017251 Si / 1000 Ang^3
#
#
#
# Elastic Constant Matrix: (Units=GPa)
#
#
# Indices 1 2 3 4 5 6 
#
# 1 206.0111 5.8329 69.4014 0.0000 -16.0225 0.0000
# 2 5.8329 75.8856 20.4941 0.0000 -6.2524 0.0000
# 3 69.4014 20.4941 103.7371 0.0000 -21.3435 0.0000
# 4 0.0000 0.0000 0.0000 2.7598 0.0000 -6.4640
# 5 -16.0225 -6.2524 -21.3435 0.0000 54.5610 0.0000
# 6 0.0000 0.0000 0.0000 -6.4640 0.0000 -3.4036
#
#
#
# Elastic Compliance Matrix: (Units=1/GPa)
#
#
# Indices 1 2 3 4 5 6 
#
# 1 0.006304 0.000698 -0.004304 0.000000 0.000247 0.000000
# 2 0.000698 0.014014 -0.003114 0.000000 0.000593 0.000000
# 3 -0.004304 -0.003114 0.013921 0.000000 0.003825 0.000000
# 4 0.000000 0.000000 0.000000 0.066507 0.000000 -0.126308
# 5 0.000247 0.000593 0.003825 0.000000 0.019965 0.000000
# 6 0.000000 0.000000 0.000000 -0.126308 0.000000 -0.053927
#
#
# Mechanical properties :
#
#
# Convention : Reuss Voigt Hill
#
# Bulk Modulus (GPa) = 48.07792 64.12116 56.09954
# Shear Modulus (GPa) = 57.36817 30.11047 43.73932
#
# Velocity S-wave (km/s) = 4.99781 3.62079 4.36395
# Velocity P-wave (km/s) = 7.36459 6.73784 7.05818
#
# Compressibility (1/GPa) = 0.02079957
#
# Stress axis : x y z
#
# Youngs Moduli (GPa) = 158.63962 71.35815 71.83148
#
# Poissons Ratio (x) = -0.04983 0.30918
# Poissons Ratio (y) = -0.11078 0.22366
# Poissons Ratio (z) = 0.68282 0.22219
#
# Static dielectric constant tensor:
#      x y z
#    x 1.955320 0.000000 -0.003250 
#    y 0.000000 1.841800 0.000000 
#    z -0.003250 0.000000 1.895700 
# 
# From -- ./inp_files/15629.got.cif
#   From: 2010.05.17/outbox.cif.g08.bks.cpg/sg12_8_cif.got.tgz:15629.got - 2010.06.03 13:09:07.
