data_PCOD9198821
_publ_section_title
;
Structure prediction by ZEFSAII (Michael W. Deem and Ramdas Pophale) SiO2 
 PCOD9198821
Probable space group: C 2/M
;
_chemical_formula_sum "Si O2"
_cell_formula_units_Z 56
_cell_length_a 17.302237
_cell_length_b 14.358261
_cell_length_c 12.961421
_cell_angle_alpha 90.000000
_cell_angle_beta 109.643186
_cell_angle_gamma 90.000000
_cell_volume 3032.615888
_symmetry_space_group_name_H-M "C 2/M"
_symmetry_group_IT_number 12
_symmetry_cell_setting 'monoclinic'
loop_
_space_group_symop_operation_xyz
x,y,z
-x,y,-z
-x,-y,-z
x,-y,z
1/2+x,1/2+y,z
1/2-x,1/2+y,-z
1/2-x,1/2-y,-z
1/2+x,1/2-y,z
loop_
_atom_site_type_symbol
_atom_site_label
_atom_site_fract_x
_atom_site_fract_y
_atom_site_fract_z
Si Si1 0.578658 0.105202 0.609808
Si Si2 0.982722 0.279005 0.737633
Si Si3 0.290137 0.108591 0.017140
Si Si4 0.870883 0.604908 0.827222
Si Si5 0.357051 0.295364 0.142750
Si Si6 0.843800 0.245000 0.505079
Si Si7 0.192502 0.106553 0.672333
O O1 0.500000 0.097382 0.500000
O O2 0.541268 0.152637 0.695683
O O3 0.638185 0.173100 0.570921
O O4 0.610499 0.000000 0.642311
O O5 0.939370 0.328325 0.814178
O O6 0.911106 0.249402 0.625915
O O7 0.044827 0.203275 0.812010
O O8 0.326084 0.190660 0.103694
O O9 0.298648 0.000000 0.051765
O O10 0.336335 0.119890 0.926901
O O11 0.195069 0.136401 0.954509
O O12 0.903248 0.500000 0.837538
O O13 0.791713 0.610633 0.716079
O O14 0.332445 0.327830 0.245238
O O15 0.750000 0.250000 0.500000
O O16 0.849187 0.147480 0.447146
O O17 0.170464 0.000000 0.683899
#
# Coordination Sequence:
#
# PCOD9198821 Si02
#       7
#     8   8   8   8   8   8   8
#     4   9  19  33  51  77 113 147 181 229 284 330
#     4  11  20  32  56  85 123 148 189 232 284 333
#     4   9  20  39  61  84 113 147 191 240 295 353
#     4   9  18  33  56  84 113 151 191 237 290 339
#     4  10  20  36  58  86 113 145 190 239 295 336
#     4  11  21  36  55  82 120 156 193 227 275 339
#     4  10  20  38  59  82 113 157 200 232 275 337
#
# _framework density 18.465904999999999
#
# number of rings (size 3 to 8) (size 9 to 14) (size 15 to 20)
#    0.000    2.143    2.857    1.714    0.000    2.857 
#    0.000    3.571    0.000    0.000    0.000   26.000 
#    0.000    0.000    0.000    0.000    0.000    0.000 
#
# Total GULP energy -155946.549644 kJ/mol
# GULP energy per Si atom -5569.519630 kJ/mol
# Density = 1.842388 g / cm^3
# Si number density = 18.465905 Si / 1000 Ang^3
#
#
#
# Elastic Constant Matrix: (Units=GPa)
#
#
# Indices 1 2 3 4 5 6 
#
# 1 86.8241 27.9067 24.8369 0.0000 2.7118 0.0000
# 2 27.9067 76.7992 40.3831 0.0000 -8.1421 0.0000
# 3 24.8369 40.3831 60.7448 0.0000 10.9764 0.0000
# 4 0.0000 0.0000 0.0000 17.8539 0.0000 5.7251
# 5 2.7118 -8.1421 10.9764 0.0000 17.1014 0.0000
# 6 0.0000 0.0000 0.0000 5.7251 0.0000 15.6568
#
#
#
# Elastic Compliance Matrix: (Units=1/GPa)
#
#
# Indices 1 2 3 4 5 6 
#
# 1 0.013555 -0.003799 -0.002603 0.000000 -0.002287 0.000000
# 2 -0.003799 0.030317 -0.024115 0.000000 0.030515 0.000000
# 3 -0.002603 -0.024115 0.040224 0.000000 -0.036886 0.000000
# 4 0.000000 0.000000 0.000000 0.063450 0.000000 -0.023201
# 5 -0.002287 0.030515 -0.036886 0.000000 0.097041 0.000000
# 6 0.000000 0.000000 0.000000 -0.023201 0.000000 0.072354
#
#
# Mechanical properties :
#
#
# Convention : Reuss Voigt Hill
#
# Bulk Modulus (GPa) = 43.36468 45.62461 44.49465
# Shear Modulus (GPa) = 12.96467 18.87184 15.91825
#
# Velocity S-wave (km/s) = 2.65257 3.20031 2.93923
# Velocity P-wave (km/s) = 5.73726 6.19816 5.97215
#
# Compressibility (1/GPa) = 0.02306024
#
# Stress axis : x y z
#
# Youngs Moduli (GPa) = 73.77486 32.98457 24.86086
#
# Poissons Ratio (x) = 0.12531 0.06472
# Poissons Ratio (y) = 0.28028 0.59953
# Poissons Ratio (z) = 0.19205 0.79544
#
# Static dielectric constant tensor:
#      x y z
#    x 1.656260 0.000000 0.013770 
#    y 0.000000 1.646300 0.000000 
#    z 0.013770 0.000000 1.671500 
# 
# From -- ./inp_files/156163.got.cif
#   From: 2010.05.17/outbox.cif.g08.bks.cpg/sg12_79_cif.got.tgz:156163.got - 2010.06.03 13:09:07.
