data_PCOD9198600
_publ_section_title
;
Structure prediction by ZEFSAII (Michael W. Deem and Ramdas Pophale) SiO2 
 PCOD9198600
Probable space group: C 2/M
;
_chemical_formula_sum "Si O2"
_cell_formula_units_Z 42
_cell_length_a 27.481295
_cell_length_b 7.874922
_cell_length_c 7.412017
_cell_angle_alpha 90.000000
_cell_angle_beta 81.113414
_cell_angle_gamma 90.000000
_cell_volume 1584.802232
_symmetry_space_group_name_H-M "C 2/M"
_symmetry_group_IT_number 12
_symmetry_cell_setting 'monoclinic'
loop_
_space_group_symop_operation_xyz
x,y,z
-x,y,-z
-x,-y,-z
x,-y,z
1/2+x,1/2+y,z
1/2-x,1/2+y,-z
1/2-x,1/2-y,-z
1/2+x,1/2-y,z
loop_
_atom_site_type_symbol
_atom_site_label
_atom_site_fract_x
_atom_site_fract_y
_atom_site_fract_z
Si Si1 0.960654 0.802299 0.752399
Si Si2 0.000000 0.500000 0.500000
Si Si3 0.572736 0.306153 0.838174
Si Si4 0.281598 0.801041 0.248189
Si Si5 0.352847 0.195593 0.495939
Si Si6 0.819673 0.801099 0.866463
O O1 0.964159 0.651086 0.607652
O O2 0.016730 0.802765 0.800273
O O3 0.952127 0.000000 0.698860
O O4 0.928840 0.759536 0.949880
O O5 0.590830 0.500000 0.819874
O O6 0.604142 0.204465 0.675702
O O7 0.306475 0.725408 0.411821
O O8 0.230410 0.731117 0.200908
O O9 0.274058 0.000000 0.286220
O O10 0.320198 0.784395 0.060585
O O11 0.359658 0.281738 0.685516
O O12 0.343332 0.000000 0.541407
O O13 0.686100 0.500000 0.093203
#
# Coordination Sequence:
#
# PCOD9198600 Si02
#       6
#     8   2   8   8   8   8
#     4   9  21  41  62  88 119 156 197 244 291 353
#     4  12  22  34  68  94 120 154 198 232 308 364
#     4   9  20  41  62  79 113 154 195 241 289 345
#     4   9  20  38  56  81 114 151 195 245 292 347
#     4  11  22  35  58  87 116 151 195 244 293 354
#     4  10  20  36  58  81 113 154 195 239 297 354
#
# _framework density 26.501728
#
# number of rings (size 3 to 8) (size 9 to 14) (size 15 to 20)
#    0.000    2.286    0.000    3.143    2.667    3.048 
#    3.429    0.000    0.000    0.000    0.000    0.000 
#    0.000    0.000    0.000    0.000    0.000    0.000 
#
# Total GULP energy -117254.408773 kJ/mol
# GULP energy per Si atom -5583.543275 kJ/mol
# Density = 2.644141 g / cm^3
# Si number density = 26.501728 Si / 1000 Ang^3
#
#
#
# Elastic Constant Matrix: (Units=GPa)
#
#
# Indices 1 2 3 4 5 6 
#
# 1 60.8566 15.0783 25.4327 0.0000 0.5635 0.0000
# 2 15.0783 108.3481 56.8103 0.0000 -8.7210 0.0000
# 3 25.4327 56.8103 182.1671 0.0000 2.1888 0.0000
# 4 0.0000 0.0000 0.0000 37.7222 0.0000 -17.5958
# 5 0.5635 -8.7210 2.1888 0.0000 54.1521 0.0000
# 6 0.0000 0.0000 0.0000 -17.5958 0.0000 16.8127
#
#
#
# Elastic Compliance Matrix: (Units=1/GPa)
#
#
# Indices 1 2 3 4 5 6 
#
# 1 0.017629 -0.001425 -0.002013 0.000000 -0.000332 0.000000
# 2 -0.001425 0.011351 -0.003365 0.000000 0.001979 0.000000
# 3 -0.002013 -0.003365 0.006829 0.000000 -0.000797 0.000000
# 4 0.000000 0.000000 0.000000 0.051795 0.000000 0.054208
# 5 -0.000332 0.001979 -0.000797 0.000000 0.018821 0.000000
# 6 0.000000 0.000000 0.000000 0.054208 0.000000 0.116212
#
#
# Mechanical properties :
#
#
# Convention : Reuss Voigt Hill
#
# Bulk Modulus (GPa) = 45.03455 60.66826 52.85140
# Shear Modulus (GPa) = 20.52168 38.67410 29.59789
#
# Velocity S-wave (km/s) = 2.78574 3.82423 3.34552
# Velocity P-wave (km/s) = 5.23231 6.51472 5.90841
#
# Compressibility (1/GPa) = 0.02220517
#
# Stress axis : x y z
#
# Youngs Moduli (GPa) = 56.72356 88.09501 146.42456
#
# Poissons Ratio (x) = 0.12550 0.29475
# Poissons Ratio (y) = 0.08081 0.49271
# Poissons Ratio (z) = 0.11419 0.29643
#
# Static dielectric constant tensor:
#      x y z
#    x 2.292610 0.000000 -0.038260 
#    y 0.000000 1.985610 0.000000 
#    z -0.038260 0.000000 2.082640 
# 
# From -- ./inp_files/107901.got.cif
#   From: 2010.05.17/outbox.cif.g08.bks.cpg/sg12_54_cif.got.tgz:107901.got - 2010.06.03 13:09:07.
