data_PCOD9198884
_publ_section_title
;
Structure prediction by ZEFSAII (Michael W. Deem and Ramdas Pophale) SiO2 
 PCOD9198884
Probable space group: C 2/M
;
_chemical_formula_sum "Si O2"
_cell_formula_units_Z 48
_cell_length_a 10.607647
_cell_length_b 17.404218
_cell_length_c 13.854142
_cell_angle_alpha 90.000000
_cell_angle_beta 57.970812
_cell_angle_gamma 90.000000
_cell_volume 2168.379867
_symmetry_space_group_name_H-M "C 2/M"
_symmetry_group_IT_number 12
_symmetry_cell_setting 'monoclinic'
loop_
_space_group_symop_operation_xyz
x,y,z
-x,y,-z
-x,-y,-z
x,-y,z
1/2+x,1/2+y,z
1/2-x,1/2+y,-z
1/2-x,1/2-y,-z
1/2+x,1/2-y,z
loop_
_atom_site_type_symbol
_atom_site_label
_atom_site_fract_x
_atom_site_fract_y
_atom_site_fract_z
Si Si1 0.817240 0.414061 0.987957
Si Si2 0.850668 0.916758 0.150499
Si Si3 0.568773 0.875061 0.372333
Si Si4 0.592462 0.310825 0.368822
Si Si5 0.061873 0.354381 0.774730
Si Si6 0.570922 0.313522 0.165946
O O1 0.790302 0.500000 0.037950
O O2 0.735702 0.410466 0.915429
O O3 0.990676 0.403534 0.890074
O O4 0.736380 0.346251 0.080121
O O5 0.726797 0.910271 0.283190
O O6 0.967934 0.851738 0.127171
O O7 0.924769 0.000000 0.125680
O O8 0.500000 0.902021 0.500000
O O9 0.588202 0.782354 0.371490
O O10 0.470093 0.890064 0.317515
O O11 0.500000 0.337096 0.500000
O O12 0.764836 0.334811 0.295472
O O13 0.525398 0.336974 0.293449
O O14 0.961525 0.276757 0.823469
#
# Coordination Sequence:
#
# PCOD9198884 Si02
#       6
#     8   8   8   8   8   8
#     4  10  22  41  62  86 118 154 195 244 294 341
#     4  10  20  36  58  88 120 150 193 244 290 341
#     4   9  19  33  58  86 115 154 193 240 293 338
#     4  10  22  37  59  88 118 154 195 243 289 341
#     4  10  21  38  59  89 121 151 195 245 285 344
#     4  11  21  36  61  89 119 154 195 237 290 352
#
# _framework density 22.136343
#
# number of rings (size 3 to 8) (size 9 to 14) (size 15 to 20)
#    0.000    2.000    1.667    1.500    2.333    4.333 
#    3.000    2.500    0.000    2.500    0.000    0.000 
#    0.000    0.000    0.000    0.000    0.000    0.000 
#
# Total GULP energy -134004.090977 kJ/mol
# GULP energy per Si atom -5583.503791 kJ/mol
# Density = 2.208596 g / cm^3
# Si number density = 22.136343 Si / 1000 Ang^3
#
#
#
# Elastic Constant Matrix: (Units=GPa)
#
#
# Indices 1 2 3 4 5 6 
#
# 1 46.6211 9.2766 18.8629 0.0000 -1.7851 0.0000
# 2 9.2766 47.9908 22.4365 0.0000 1.1686 0.0000
# 3 18.8629 22.4365 157.7573 0.0000 2.7751 0.0000
# 4 0.0000 0.0000 0.0000 -44.9626 0.0000 2.7420
# 5 -1.7851 1.1686 2.7751 0.0000 34.2012 0.0000
# 6 0.0000 0.0000 0.0000 2.7420 0.0000 15.4624
#
#
#
# Elastic Compliance Matrix: (Units=1/GPa)
#
#
# Indices 1 2 3 4 5 6 
#
# 1 0.023122 -0.003429 -0.002303 0.000000 0.001511 0.000000
# 2 -0.003429 0.022839 -0.002825 0.000000 -0.000730 0.000000
# 3 -0.002303 -0.002825 0.007027 0.000000 -0.000594 0.000000
# 4 0.000000 0.000000 0.000000 -0.022003 0.000000 0.003902
# 5 0.001511 -0.000730 -0.000594 0.000000 0.029391 0.000000
# 6 0.000000 0.000000 0.000000 0.003902 0.000000 0.063981
#
#
# Mechanical properties :
#
#
# Convention : Reuss Voigt Hill
#
# Bulk Modulus (GPa) = 27.87773 39.28014 33.57894
# Shear Modulus (GPa) = 32.58824 14.39308 23.49066
#
# Velocity S-wave (km/s) = 3.84104 2.55267 3.26111
# Velocity P-wave (km/s) = 5.68264 5.14503 5.42050
#
# Compressibility (1/GPa) = 0.03587093
#
# Stress axis : x y z
#
# Youngs Moduli (GPa) = 43.24941 43.78496 142.31755
#
# Poissons Ratio (x) = 0.15015 0.32783
# Poissons Ratio (y) = 0.14832 0.40209
# Poissons Ratio (z) = 0.09962 0.12371
#
# Static dielectric constant tensor:
#      x y z
#    x 1.833200 0.000000 -0.000840 
#    y 0.000000 1.810090 0.000000 
#    z -0.000840 0.000000 1.825430 
# 
# From -- ./inp_files/131085.got.cif
#   From: 2010.05.17/outbox.cif.g08.bks.cpg/sg12_66_cif.got.tgz:131085.got - 2010.06.03 13:09:07.
