data_PCOD9198285
_publ_section_title
;
Structure prediction by ZEFSAII (Michael W. Deem and Ramdas Pophale) SiO2 
 PCOD9198285
Probable space group: C 2/M
;
_chemical_formula_sum "Si O2"
_cell_formula_units_Z 48
_cell_length_a 29.728754
_cell_length_b 7.611113
_cell_length_c 8.327549
_cell_angle_alpha 90.000000
_cell_angle_beta 77.734986
_cell_angle_gamma 90.000000
_cell_volume 1841.257936
_symmetry_space_group_name_H-M "C 2/M"
_symmetry_group_IT_number 12
_symmetry_cell_setting 'monoclinic'
loop_
_space_group_symop_operation_xyz
x,y,z
-x,y,-z
-x,-y,-z
x,-y,z
1/2+x,1/2+y,z
1/2-x,1/2+y,-z
1/2-x,1/2-y,-z
1/2+x,1/2-y,z
loop_
_atom_site_type_symbol
_atom_site_label
_atom_site_fract_x
_atom_site_fract_y
_atom_site_fract_z
Si Si1 0.972720 0.715270 0.364410
Si Si2 0.358964 0.285798 0.775300
Si Si3 0.699014 0.705077 0.868651
Si Si4 0.388122 0.212825 0.248577
Si Si5 0.555332 0.204838 0.102053
Si Si6 0.282868 0.303794 0.619267
O O1 0.972653 0.500000 0.367277
O O2 0.005766 0.772268 0.192185
O O3 0.000000 0.775980 0.500000
O O4 0.920329 0.770955 0.371667
O O5 0.360575 0.500000 0.773349
O O6 0.410073 0.219577 0.772094
O O7 0.329809 0.215768 0.645686
O O8 0.329001 0.231514 0.955058
O O9 0.709078 0.500000 0.879027
O O10 0.663544 0.727005 0.745871
O O11 0.746847 0.798312 0.795328
O O12 0.386301 0.000000 0.249770
O O13 0.416859 0.278121 0.069996
O O14 0.548905 0.000000 0.069493
O O15 0.296590 0.500000 0.572676
O O16 0.250000 0.250000 0.500000
#
# Coordination Sequence:
#
# PCOD9198285 Si02
#       6
#     8   8   8   8   8   8
#     4   9  17  29  47  73 102 132 170 214 256 301
#     4   9  20  37  56  78 105 136 172 217 264 311
#     4  10  20  36  57  80 105 135 174 218 263 310
#     4   9  17  31  51  74 101 133 170 212 258 306
#     4   9  17  30  51  76 100 131 171 213 257 306
#     4  11  23  38  55  78 108 141 175 212 259 312
#
# _framework density 26.069134999999999
#
# number of rings (size 3 to 8) (size 9 to 14) (size 15 to 20)
#    0.000    2.500    0.000    2.000    0.000    5.333 
#    0.000    2.500    0.000    5.000    0.000    0.000 
#    0.000    0.000    0.000    0.000    0.000    0.000 
#
# Total GULP energy -134149.299751 kJ/mol
# GULP energy per Si atom -5589.554156 kJ/mol
# Density = 2.600980 g / cm^3
# Si number density = 26.069135 Si / 1000 Ang^3
#
#
#
# Elastic Constant Matrix: (Units=GPa)
#
#
# Indices 1 2 3 4 5 6 
#
# 1 178.6450 -7.7053 30.9161 0.0000 24.8261 0.0000
# 2 -7.7053 60.3439 1.2298 0.0000 3.7396 0.0000
# 3 30.9161 1.2298 58.4360 0.0000 20.2578 0.0000
# 4 0.0000 0.0000 0.0000 12.1665 0.0000 8.0102
# 5 24.8261 3.7396 20.2578 0.0000 54.9494 0.0000
# 6 0.0000 0.0000 0.0000 8.0102 0.0000 11.4439
#
#
#
# Elastic Compliance Matrix: (Units=1/GPa)
#
#
# Indices 1 2 3 4 5 6 
#
# 1 0.006382 0.000991 -0.002722 0.000000 -0.001947 0.000000
# 2 0.000991 0.016796 -0.000374 0.000000 -0.001453 0.000000
# 3 -0.002722 -0.000374 0.020782 0.000000 -0.006406 0.000000
# 4 0.000000 0.000000 0.000000 0.152446 0.000000 -0.106706
# 5 -0.001947 -0.001453 -0.006406 0.000000 0.021539 0.000000
# 6 0.000000 0.000000 0.000000 -0.106706 0.000000 0.162073
#
#
# Mechanical properties :
#
#
# Convention : Reuss Voigt Hill
#
# Bulk Modulus (GPa) = 25.15793 38.47845 31.81819
# Shear Modulus (GPa) = 12.57930 33.91092 23.24511
#
# Velocity S-wave (km/s) = 2.19905 3.61058 2.98933
# Velocity P-wave (km/s) = 4.01487 5.67221 4.91392
#
# Compressibility (1/GPa) = 0.03974890
#
# Stress axis : x y z
#
# Youngs Moduli (GPa) = 156.68623 59.53837 48.11940
#
# Poissons Ratio (x) = -0.05901 0.13100
# Poissons Ratio (y) = -0.15529 0.01800
# Poissons Ratio (z) = 0.42656 0.02228
#
# Static dielectric constant tensor:
#      x y z
#    x 2.024470 0.000000 0.061980 
#    y 0.000000 1.958970 0.000000 
#    z 0.061980 0.000000 2.191950 
# 
# From -- ./inp_files/108674.got.cif
#   From: 2010.05.17/outbox.cif.g08.bks.cpg/sg12_55_cif.got.tgz:108674.got - 2010.06.03 13:09:07.
