data_PCOD9198857
_publ_section_title
;
Structure prediction by ZEFSAII (Michael W. Deem and Ramdas Pophale) SiO2 
 PCOD9198857
Probable space group: C 2/M
;
_chemical_formula_sum "Si O2"
_cell_formula_units_Z 58
_cell_length_a 16.657186
_cell_length_b 22.042741
_cell_length_c 12.463873
_cell_angle_alpha 90.000000
_cell_angle_beta 138.193544
_cell_angle_gamma 90.000000
_cell_volume 3050.677398
_symmetry_space_group_name_H-M "C 2/M"
_symmetry_group_IT_number 12
_symmetry_cell_setting 'monoclinic'
loop_
_space_group_symop_operation_xyz
x,y,z
-x,y,-z
-x,-y,-z
x,-y,z
1/2+x,1/2+y,z
1/2-x,1/2+y,-z
1/2-x,1/2-y,-z
1/2+x,1/2-y,z
loop_
_atom_site_type_symbol
_atom_site_label
_atom_site_fract_x
_atom_site_fract_y
_atom_site_fract_z
Si Si1 0.612968 0.568149 0.819189
Si Si2 0.628369 0.891802 0.997853
Si Si3 0.029487 0.308539 0.292029
Si Si4 0.245533 0.166548 0.341838
Si Si5 0.798685 0.299538 0.744767
Si Si6 0.000000 0.500000 0.000000
Si Si7 0.630619 0.569951 0.091942
Si Si8 0.928280 0.174408 0.622336
O O1 0.569441 0.500000 0.751632
O O2 0.741636 0.579630 0.894998
O O3 0.517354 0.619109 0.692858
O O4 0.632671 0.573015 0.966565
O O5 0.652030 0.839979 0.110688
O O6 0.573852 0.856210 0.840711
O O7 0.544567 0.945557 0.959906
O O8 0.121610 0.329381 0.476083
O O9 0.110284 0.305882 0.264411
O O10 0.001146 0.238283 0.291649
O O11 0.214166 0.228041 0.246459
O O12 0.228136 0.110003 0.248240
O O13 0.152741 0.164337 0.350726
O O14 0.668313 0.319659 0.569737
O O15 0.640744 0.500000 0.135786
O O16 0.500000 0.592975 0.000000
#
# Coordination Sequence:
#
# PCOD9198857 Si02
#       8
#     8   8   8   8   8   2   8   8
#     4  11  24  39  57  88 125 154 197 250 302 353
#     4  12  23  41  63  85 115 165 202 249 291 356
#     4   9  19  37  61  88 116 152 206 242 290 350
#     4   9  18  36  62  90 115 154 197 247 289 357
#     4   9  19  36  61  87 116 150 204 244 292 349
#     4  12  24  44  60  86 120 160 212 236 290 354
#     4  10  20  36  58  87 118 154 196 239 298 364
#     4   9  19  37  58  89 121 148 190 255 297 350
#
# _framework density 19.012170000000001
#
# number of rings (size 3 to 8) (size 9 to 14) (size 15 to 20)
#    0.000    2.069    3.448    1.655    1.931    1.103 
#    2.483    1.379    0.000    1.655    0.000    0.000 
#    0.000    0.000    0.000    0.000    0.000    0.000 
#
# Total GULP energy -161554.454578 kJ/mol
# GULP energy per Si atom -5570.843261 kJ/mol
# Density = 1.896890 g / cm^3
# Si number density = 19.012170 Si / 1000 Ang^3
#
#
#
# Elastic Constant Matrix: (Units=GPa)
#
#
# Indices 1 2 3 4 5 6 
#
# 1 17.8993 8.9678 -5.5662 0.0000 7.3932 0.0000
# 2 8.9678 113.2148 53.8531 0.0000 14.7686 0.0000
# 3 -5.5662 53.8531 50.5460 0.0000 4.3291 0.0000
# 4 0.0000 0.0000 0.0000 30.7237 0.0000 6.6926
# 5 7.3932 14.7686 4.3291 0.0000 15.9174 0.0000
# 6 0.0000 0.0000 0.0000 6.6926 0.0000 21.6397
#
#
#
# Elastic Compliance Matrix: (Units=1/GPa)
#
#
# Indices 1 2 3 4 5 6 
#
# 1 0.087968 -0.017444 0.031110 0.000000 -0.033135 0.000000
# 2 -0.017444 0.023783 -0.026686 0.000000 -0.006706 0.000000
# 3 0.031110 -0.026686 0.051969 0.000000 -0.003824 0.000000
# 4 0.000000 0.000000 0.000000 0.034899 0.000000 -0.010794
# 5 -0.033135 -0.006706 -0.003824 0.000000 0.085477 0.000000
# 6 0.000000 0.000000 0.000000 -0.010794 0.000000 0.049549
#
#
# Mechanical properties :
#
#
# Convention : Reuss Voigt Hill
#
# Bulk Modulus (GPa) = 7.26313 32.90773 20.08543
# Shear Modulus (GPa) = 12.32809 21.94987 17.13898
#
# Velocity S-wave (km/s) = 2.54919 3.40150 3.00571
# Velocity P-wave (km/s) = 3.53455 5.72480 4.75744
#
# Compressibility (1/GPa) = 0.13768163
#
# Stress axis : x y z
#
# Youngs Moduli (GPa) = 11.36774 42.04701 19.24229
#
# Poissons Ratio (x) = 0.73347 -0.59863
# Poissons Ratio (y) = 0.19830 0.51349
# Poissons Ratio (z) = -0.35365 1.12205
#
# Static dielectric constant tensor:
#      x y z
#    x 1.683290 0.000000 0.014680 
#    y 0.000000 1.659050 0.000000 
#    z 0.014680 0.000000 1.649480 
# 
# From -- ./inp_files/159774.got.cif
#   From: 2010.05.17/outbox.cif.g08.bks.cpg/sg12_80_cif.got.tgz:159774.got - 2010.06.03 13:09:07.
