data_PCOD9198011
_publ_section_title
;
Structure prediction by ZEFSAII (Michael W. Deem and Ramdas Pophale) SiO2 
 PCOD9198011
Probable space group: C 2/M
;
_chemical_formula_sum "Si O2"
_cell_formula_units_Z 52
_cell_length_a 23.394852
_cell_length_b 27.288932
_cell_length_c 10.052136
_cell_angle_alpha 90.000000
_cell_angle_beta 27.482729
_cell_angle_gamma 90.000000
_cell_volume 2961.551060
_symmetry_space_group_name_H-M "C 2/M"
_symmetry_group_IT_number 12
_symmetry_cell_setting 'monoclinic'
loop_
_space_group_symop_operation_xyz
x,y,z
-x,y,-z
-x,-y,-z
x,-y,z
1/2+x,1/2+y,z
1/2-x,1/2+y,-z
1/2-x,1/2-y,-z
1/2+x,1/2-y,z
loop_
_atom_site_type_symbol
_atom_site_label
_atom_site_fract_x
_atom_site_fract_y
_atom_site_fract_z
Si Si1 0.597928 0.163424 0.513386
Si Si2 0.828874 0.769438 0.708942
Si Si3 0.308890 0.854505 0.139585
Si Si4 0.246114 0.100870 0.001410
Si Si5 0.500000 0.653837 0.500000
Si Si6 0.350641 0.893234 0.335726
Si Si7 0.620363 0.000000 0.657120
Si Si8 0.877697 0.500000 0.659428
O O1 0.612795 0.221462 0.476355
O O2 0.665778 0.140570 0.501476
O O3 0.456040 0.147360 0.813325
O O4 0.658823 0.140014 0.257329
O O5 0.742679 0.800756 0.788768
O O6 0.934234 0.808173 0.535156
O O7 0.750000 0.750000 0.000000
O O8 0.251360 0.891350 0.149327
O O9 0.288251 0.872236 0.332235
O O10 0.112211 0.118290 0.225299
O O11 0.295753 0.048009 0.858047
O O12 0.312844 0.948864 0.448012
O O13 0.500000 0.893783 0.000000
O O14 0.586067 0.000000 0.571533
O O15 0.500000 0.000000 0.000000
O O16 0.000000 0.500000 0.500000
#
# Coordination Sequence:
#
# PCOD9198011 Si02
#       8
#     8   8   8   8   4   8   4   4
#     4  11  19  34  55  84 113 147 186 244 287 343
#     4  11  20  33  59  83 110 156 195 241 286 344
#     4  10  21  35  54  85 114 147 188 238 294 347
#     4  11  23  36  60  84 117 150 192 248 283 347
#     4  10  22  39  52  88 118 157 196 228 306 352
#     4   9  20  34  53  78 117 147 178 233 304 351
#     4  10  20  36  55  83 120 151 172 235 310 349
#     4  12  24  37  63  99 110 147 202 248 299 346
#
# _framework density 17.558367000000001
#
# number of rings (size 3 to 8) (size 9 to 14) (size 15 to 20)
#    0.000    1.538    4.615    2.308    4.308    0.923 
#    0.000    0.000    0.000    2.769    0.000    4.308 
#    0.000    0.000    0.000    0.000    0.000    0.000 
#
# Total GULP energy -144943.243439 kJ/mol
# GULP energy per Si atom -5574.740132 kJ/mol
# Density = 1.751840 g / cm^3
# Si number density = 17.558367 Si / 1000 Ang^3
#
#
#
# Elastic Constant Matrix: (Units=GPa)
#
#
# Indices 1 2 3 4 5 6 
#
# 1 113.7819 46.6083 24.1114 0.0007 13.1327 0.0002
# 2 46.6083 129.6762 31.1130 0.0003 -0.8179 0.0002
# 3 24.1114 31.1130 36.6048 0.0012 -10.0298 -0.0001
# 4 0.0007 0.0003 0.0012 23.1244 -0.0009 0.7597
# 5 13.1327 -0.8179 -10.0298 -0.0009 27.1867 -0.0001
# 6 0.0002 0.0002 -0.0001 0.7597 -0.0001 23.8065
#
#
#
# Elastic Compliance Matrix: (Units=1/GPa)
#
#
# Indices 1 2 3 4 5 6 
#
# 1 0.012815 -0.002529 -0.008910 0.000000 -0.009554 0.000000
# 2 -0.002529 0.010420 -0.007531 0.000000 -0.001244 0.000000
# 3 -0.008910 -0.007531 0.045284 -0.000001 0.020784 0.000000
# 4 0.000000 0.000000 -0.000001 0.043290 0.000001 -0.001381
# 5 -0.009554 -0.001244 0.020784 0.000001 0.049028 0.000000
# 6 0.000000 0.000000 0.000000 -0.001381 0.000000 0.042049
#
#
# Mechanical properties :
#
#
# Convention : Reuss Voigt Hill
#
# Bulk Modulus (GPa) = 32.70224 53.74759 43.22492
# Shear Modulus (GPa) = 19.91888 26.70554 23.31221
#
# Velocity S-wave (km/s) = 3.37180 3.90418 3.64771
# Velocity P-wave (km/s) = 5.81584 7.14148 6.51248
#
# Compressibility (1/GPa) = 0.03057894
#
# Stress axis : x y z
#
# Youngs Moduli (GPa) = 78.03188 95.97377 22.08294
#
# Poissons Ratio (x) = 0.24268 0.19675
# Poissons Ratio (y) = 0.19731 0.16632
# Poissons Ratio (z) = 0.69525 0.72282
#
# Static dielectric constant tensor:
#      x y z
#    x 1.622210 0.000000 -0.003250 
#    y 0.000000 1.598990 0.000000 
#    z -0.003250 0.000000 1.604330 
# 
# From -- ./inp_files/91487.got.cif
#   From: 2010.05.17/outbox.cif.g08.bks.cpg/sg12_46_cif.got.tgz:91487.got - 2010.06.03 13:09:07.
