data_PCOD9198885
_publ_section_title
;
Structure prediction by ZEFSAII (Michael W. Deem and Ramdas Pophale) SiO2 
 PCOD9198885
Probable space group: C 2/M
;
_chemical_formula_sum "Si O2"
_cell_formula_units_Z 48
_cell_length_a 12.986362
_cell_length_b 17.269765
_cell_length_c 17.395936
_cell_angle_alpha 90.000000
_cell_angle_beta 39.398786
_cell_angle_gamma 90.000000
_cell_volume 2476.280898
_symmetry_space_group_name_H-M "C 2/M"
_symmetry_group_IT_number 12
_symmetry_cell_setting 'monoclinic'
loop_
_space_group_symop_operation_xyz
x,y,z
-x,y,-z
-x,-y,-z
x,-y,z
1/2+x,1/2+y,z
1/2-x,1/2+y,-z
1/2-x,1/2-y,-z
1/2+x,1/2-y,z
loop_
_atom_site_type_symbol
_atom_site_label
_atom_site_fract_x
_atom_site_fract_y
_atom_site_fract_z
Si Si1 0.765822 0.090580 0.779115
Si Si2 0.000000 0.289520 0.500000
Si Si3 0.389992 0.090687 0.452302
Si Si4 0.453765 0.412081 0.274137
Si Si5 0.000000 0.304791 0.000000
Si Si6 0.298579 0.829933 0.345959
Si Si7 0.937658 0.769401 0.880150
O O1 0.948752 0.103206 0.702675
O O2 0.736464 0.118637 0.709437
O O3 0.727620 0.000000 0.806507
O O4 0.653973 0.138817 0.902457
O O5 0.985561 0.347645 0.581807
O O6 0.153620 0.233660 0.429611
O O7 0.324007 0.120374 0.408168
O O8 0.235317 0.095002 0.598699
O O9 0.442158 0.000000 0.418789
O O10 0.489367 0.500000 0.231459
O O11 0.521683 0.354406 0.171850
O O12 0.011429 0.251207 0.919644
O O13 0.468628 0.785821 0.233644
O O14 0.750000 0.750000 0.000000
#
# Coordination Sequence:
#
# PCOD9198885 Si02
#       7
#     8   4   8   8   4   8   8
#     4  10  20  36  58  88 120 154 197 250 309 363
#     4  12  23  38  65  92 126 164 210 250 311 366
#     4  11  24  43  63  92 130 166 204 256 316 375
#     4  10  21  39  63  88 122 162 200 249 314 371
#     4  10  21  34  59  84 112 158 200 252 291 360
#     4  11  24  37  65  95 122 160 207 259 306 367
#     4  11  22  40  61  86 123 157 209 251 302 364
#
# _framework density 19.383908000000002
#
# number of rings (size 3 to 8) (size 9 to 14) (size 15 to 20)
#    0.000    1.333    3.333    2.500    2.333    0.000 
#    0.000    4.583    0.000    0.000    0.000    0.000 
#    0.000    0.000    0.000    0.000    0.000    0.000 
#
# Total GULP energy -133897.865296 kJ/mol
# GULP energy per Si atom -5579.077721 kJ/mol
# Density = 1.933979 g / cm^3
# Si number density = 19.383908 Si / 1000 Ang^3
#
#
#
# Elastic Constant Matrix: (Units=GPa)
#
#
# Indices 1 2 3 4 5 6 
#
# 1 54.8187 40.0220 7.6466 0.0000 11.1588 0.0001
# 2 40.0220 112.5701 36.9285 -0.0001 17.3145 0.0001
# 3 7.6466 36.9285 66.2661 0.0003 2.2974 0.0000
# 4 0.0000 -0.0001 0.0003 17.9772 0.0000 2.8760
# 5 11.1588 17.3145 2.2974 0.0000 31.8684 -0.0001
# 6 0.0001 0.0001 0.0000 2.8760 -0.0001 33.2670
#
#
#
# Elastic Compliance Matrix: (Units=1/GPa)
#
#
# Indices 1 2 3 4 5 6 
#
# 1 0.025455 -0.009182 0.002322 0.000000 -0.004092 0.000000
# 2 -0.009182 0.015231 -0.007271 0.000000 -0.004536 0.000000
# 3 0.002322 -0.007271 0.018813 0.000000 0.001781 0.000000
# 4 0.000000 0.000000 0.000000 0.056406 0.000000 -0.004876
# 5 -0.004092 -0.004536 0.001781 0.000000 0.035148 0.000000
# 6 0.000000 0.000000 0.000000 -0.004876 0.000000 0.030481
#
#
# Mechanical properties :
#
#
# Convention : Reuss Voigt Hill
#
# Bulk Modulus (GPa) = 32.01499 44.76102 38.38801
# Shear Modulus (GPa) = 22.70577 26.55972 24.63275
#
# Velocity S-wave (km/s) = 3.42624 3.70563 3.56867
# Velocity P-wave (km/s) = 5.67489 6.43824 6.06858
#
# Compressibility (1/GPa) = 0.03123536
#
# Stress axis : x y z
#
# Youngs Moduli (GPa) = 39.28545 65.65667 53.15494
#
# Poissons Ratio (x) = 0.60287 -0.12340
# Poissons Ratio (y) = 0.36073 0.38649
# Poissons Ratio (z) = -0.09120 0.47738
#
# Static dielectric constant tensor:
#      x y z
#    x 1.736660 0.000000 -0.043990 
#    y 0.000000 1.690860 0.000000 
#    z -0.043990 0.000000 1.680970 
# 
# From -- ./inp_files/183925.got.cif
#   From: 2010.05.17/outbox.cif.g08.bks.cpg/sg12_92_cif.got.tgz:183925.got - 2010.06.03 13:09:07.
