data_PCOD9198467
_publ_section_title
;
Structure prediction by ZEFSAII (Michael W. Deem and Ramdas Pophale) SiO2 
 PCOD9198467
Probable space group: C 2/M
;
_chemical_formula_sum "Si O2"
_cell_formula_units_Z 64
_cell_length_a 21.618037
_cell_length_b 16.530618
_cell_length_c 29.616599
_cell_angle_alpha 90.000000
_cell_angle_beta 19.791326
_cell_angle_gamma 90.000000
_cell_volume 3583.617782
_symmetry_space_group_name_H-M "C 2/M"
_symmetry_group_IT_number 12
_symmetry_cell_setting 'monoclinic'
loop_
_space_group_symop_operation_xyz
x,y,z
-x,y,-z
-x,-y,-z
x,-y,z
1/2+x,1/2+y,z
1/2-x,1/2+y,-z
1/2-x,1/2-y,-z
1/2+x,1/2-y,z
loop_
_atom_site_type_symbol
_atom_site_label
_atom_site_fract_x
_atom_site_fract_y
_atom_site_fract_z
Si Si1 0.773239 0.317880 0.881632
Si Si2 0.998947 0.907201 0.678524
Si Si3 0.835181 0.403982 0.389245
Si Si4 0.986876 0.096054 0.140727
Si Si5 0.297369 0.277269 0.587739
Si Si6 0.786738 0.731929 0.693154
Si Si7 0.952670 0.830198 0.804404
Si Si8 0.809868 0.708472 0.144548
O O1 0.807165 0.239348 0.890705
O O2 0.713017 0.283294 0.874503
O O3 0.966627 0.363303 0.743510
O O4 0.627127 0.375572 0.005661
O O5 0.962474 0.891872 0.756184
O O6 0.862155 0.848874 0.745890
O O7 0.206719 0.888499 0.520997
O O8 0.964849 0.000000 0.689958
O O9 0.852206 0.500000 0.371045
O O10 0.728774 0.360211 0.421269
O O11 0.066961 0.127625 0.133733
O O12 0.798344 0.144951 0.261172
O O13 0.962928 0.000000 0.157899
O O14 0.257499 0.285809 0.668446
O O15 0.497200 0.237837 0.445923
O O16 0.145852 0.216447 0.672866
O O17 0.686842 0.763668 0.806184
O O18 0.000000 0.667464 0.000000
#
# Coordination Sequence:
#
# PCOD9198467 Si02
#       8
#     8   8   8   8   8   8   8   8
#     4  10  21  35  58  83 107 146 184 221 269 331
#     4  10  21  36  56  84 112 139 182 233 276 314
#     4  10  20  36  57  85 113 139 180 234 276 311
#     4  11  21  37  56  80 115 144 178 229 275 319
#     4   9  19  36  60  79 107 147 185 228 259 331
#     4  10  20  37  55  82 108 145 187 216 267 326
#     4   9  20  35  59  81 107 144 184 223 275 328
#     4  11  21  37  60  78 109 149 185 219 266 336
#
# _framework density 17.859048000000001
#
# number of rings (size 3 to 8) (size 9 to 14) (size 15 to 20)
#    0.000    2.000    2.500    1.125    1.750    1.750 
#    0.000    9.375    0.000    0.000    0.000    0.000 
#    0.000    0.000    0.000    0.000    0.000    0.000 
#
# Total GULP energy -178435.206873 kJ/mol
# GULP energy per Si atom -5576.100215 kJ/mol
# Density = 1.781840 g / cm^3
# Si number density = 17.859048 Si / 1000 Ang^3
#
#
#
# Elastic Constant Matrix: (Units=GPa)
#
#
# Indices 1 2 3 4 5 6 
#
# 1 57.9901 16.6658 15.1134 -0.0123 12.9746 0.0096
# 2 16.6658 56.6151 18.2484 0.0054 10.9695 0.0414
# 3 15.1134 18.2484 65.5769 -0.0285 5.1418 0.0192
# 4 -0.0123 0.0054 -0.0285 23.6611 -0.0079 4.4709
# 5 12.9746 10.9695 5.1418 -0.0079 28.5491 0.0095
# 6 0.0096 0.0414 0.0192 4.4709 0.0095 8.2801
#
#
#
# Elastic Compliance Matrix: (Units=1/GPa)
#
#
# Indices 1 2 3 4 5 6 
#
# 1 0.020796 -0.003644 -0.003193 0.000004 -0.007476 0.000008
# 2 -0.003644 0.021341 -0.004651 0.000002 -0.005706 -0.000086
# 3 -0.003193 -0.004651 0.017269 0.000025 0.000128 -0.000027
# 4 0.000004 0.000002 0.000025 0.047066 0.000014 -0.025414
# 5 -0.007476 -0.005706 0.000128 0.000014 0.040594 -0.000017
# 6 0.000008 -0.000086 -0.000027 -0.025414 -0.000017 0.134494
#
#
# Mechanical properties :
#
#
# Convention : Reuss Voigt Hill
#
# Bulk Modulus (GPa) = 27.44976 31.13746 29.29361
# Shear Modulus (GPa) = 15.78879 20.77503 18.28191
#
# Velocity S-wave (km/s) = 2.97657 3.41439 3.20297
# Velocity P-wave (km/s) = 5.21698 5.74604 5.48789
#
# Compressibility (1/GPa) = 0.03643019
#
# Stress axis : x y z
#
# Youngs Moduli (GPa) = 48.08525 46.85879 57.90587
#
# Poissons Ratio (x) = 0.17077 0.18487
# Poissons Ratio (y) = 0.17524 0.26934
# Poissons Ratio (z) = 0.15352 0.21795
#
# Static dielectric constant tensor:
#      x y z
#    x 1.613670 0.000010 0.004320 
#    y 0.000010 1.580440 0.000020 
#    z 0.004320 0.000020 1.627700 
# 
# From -- ./inp_files/168493.got.cif
#   From: 2010.05.17/outbox.cif.g08.bks.cpg/sg12_85_cif.got.tgz:168493.got - 2010.06.03 13:09:07.
