data_PCOD9198806
_publ_section_title
;
Structure prediction by ZEFSAII (Michael W. Deem and Ramdas Pophale) SiO2 
 PCOD9198806
Probable space group: C 2/M
;
_chemical_formula_sum "Si O2"
_cell_formula_units_Z 60
_cell_length_a 18.034965
_cell_length_b 27.626083
_cell_length_c 9.290256
_cell_angle_alpha 90.000000
_cell_angle_beta 43.740502
_cell_angle_gamma 90.000000
_cell_volume 3200.276214
_symmetry_space_group_name_H-M "C 2/M"
_symmetry_group_IT_number 12
_symmetry_cell_setting 'monoclinic'
loop_
_space_group_symop_operation_xyz
x,y,z
-x,y,-z
-x,-y,-z
x,-y,z
1/2+x,1/2+y,z
1/2-x,1/2+y,-z
1/2-x,1/2-y,-z
1/2+x,1/2-y,z
loop_
_atom_site_type_symbol
_atom_site_label
_atom_site_fract_x
_atom_site_fract_y
_atom_site_fract_z
Si Si1 0.367583 0.758556 0.396234
Si Si2 0.350891 0.315203 0.652524
Si Si3 0.420980 0.871346 0.310500
Si Si4 0.302150 0.555343 0.897382
Si Si5 0.950741 0.141793 0.780266
Si Si6 0.119729 0.553611 0.397350
Si Si7 0.837751 0.617249 0.112647
Si Si8 0.000000 0.811305 0.000000
O O1 0.250000 0.750000 0.500000
O O2 0.370499 0.736247 0.552247
O O3 0.400651 0.814164 0.348178
O O4 0.436714 0.724919 0.193551
O O5 0.427803 0.351435 0.450215
O O6 0.386624 0.320423 0.767345
O O7 0.229423 0.333005 0.806946
O O8 0.369512 0.902171 0.509364
O O9 0.369904 0.889411 0.232645
O O10 0.548955 0.880357 0.128239
O O11 0.335822 0.500000 0.828138
O O12 0.210321 0.556562 0.148817
O O13 0.398080 0.590584 0.812705
O O14 0.241529 0.577643 0.844003
O O15 0.942632 0.154875 0.960140
O O16 0.128779 0.500000 0.454151
O O17 0.000000 0.556073 0.500000
#
# Coordination Sequence:
#
# PCOD9198806 Si02
#       8
#     8   8   8   8   8   8   8   4
#     4  11  22  37  59  85 123 157 198 242 290 344
#     4   9  19  40  58  82 121 160 190 241 297 351
#     4  11  22  36  59  89 117 155 203 239 286 356
#     4  10  21  39  62  88 116 151 198 250 301 354
#     4   9  20  38  63  81 113 162 196 237 301 358
#     4  10  21  39  57  80 116 152 190 241 295 343
#     4  10  20  36  58  85 120 151 192 244 295 348
#     4  10  22  40  59  84 117 160 194 242 296 346
#
# _framework density 18.748381999999999
#
# number of rings (size 3 to 8) (size 9 to 14) (size 15 to 20)
#    0.000    2.000    2.667    0.800    1.867    0.533 
#    4.800    7.667    0.000    0.000    0.000    0.000 
#    0.000    0.000    0.000    0.000    0.000    0.000 
#
# Total GULP energy -167245.676432 kJ/mol
# GULP energy per Si atom -5574.855881 kJ/mol
# Density = 1.870571 g / cm^3
# Si number density = 18.748382 Si / 1000 Ang^3
#
#
#
# Elastic Constant Matrix: (Units=GPa)
#
#
# Indices 1 2 3 4 5 6 
#
# 1 78.4187 50.3343 19.7844 0.0000 15.4650 0.0000
# 2 50.3343 132.7569 22.1996 0.0000 17.5048 0.0000
# 3 19.7844 22.1996 31.5019 0.0000 14.8559 0.0000
# 4 0.0000 0.0000 0.0000 21.1966 0.0000 4.8080
# 5 15.4650 17.5048 14.8559 0.0000 30.5153 0.0000
# 6 0.0000 0.0000 0.0000 4.8080 0.0000 19.6801
#
#
#
# Elastic Compliance Matrix: (Units=1/GPa)
#
#
# Indices 1 2 3 4 5 6 
#
# 1 0.018515 -0.005563 -0.006214 0.000000 -0.003167 0.000000
# 2 -0.005563 0.010367 -0.003033 0.000000 -0.001651 0.000000
# 3 -0.006214 -0.003033 0.046051 0.000000 -0.017530 0.000000
# 4 0.000000 0.000000 0.000000 0.049945 0.000000 -0.012202
# 5 -0.003167 -0.001651 -0.017530 0.000000 0.043857 0.000000
# 6 0.000000 0.000000 0.000000 -0.012202 0.000000 0.053794
#
#
# Mechanical properties :
#
#
# Convention : Reuss Voigt Hill
#
# Bulk Modulus (GPa) = 22.06926 47.47932 34.77429
# Shear Modulus (GPa) = 18.70876 24.30235 21.50556
#
# Velocity S-wave (km/s) = 3.16236 3.60424 3.39050
# Velocity P-wave (km/s) = 5.01307 6.53454 5.82370
#
# Compressibility (1/GPa) = 0.04531190
#
# Stress axis : x y z
#
# Youngs Moduli (GPa) = 54.00941 96.46258 21.71484
#
# Poissons Ratio (x) = 0.53665 0.13495
# Poissons Ratio (y) = 0.30047 0.06586
# Poissons Ratio (z) = 0.33564 0.29258
#
# Static dielectric constant tensor:
#      x y z
#    x 1.661060 0.000000 0.001780 
#    y 0.000000 1.649890 0.000000 
#    z 0.001780 0.000000 1.640090 
# 
# From -- ./inp_files/79866.got.cif
#   From: 2010.05.17/outbox.cif.g08.bks.cpg/sg12_40_cif.got.tgz:79866.got - 2010.06.03 13:09:07.
