data_PCOD9198662
_publ_section_title
;
Structure prediction by ZEFSAII (Michael W. Deem and Ramdas Pophale) SiO2 
 PCOD9198662
Probable space group: C 2/M
;
_chemical_formula_sum "Si O2"
_cell_formula_units_Z 56
_cell_length_a 14.997032
_cell_length_b 8.594120
_cell_length_c 23.958821
_cell_angle_alpha 90.000000
_cell_angle_beta 117.134562
_cell_angle_gamma 90.000000
_cell_volume 2748.095696
_symmetry_space_group_name_H-M "C 2/M"
_symmetry_group_IT_number 12
_symmetry_cell_setting 'monoclinic'
loop_
_space_group_symop_operation_xyz
x,y,z
-x,y,-z
-x,-y,-z
x,-y,z
1/2+x,1/2+y,z
1/2-x,1/2+y,-z
1/2-x,1/2-y,-z
1/2+x,1/2-y,z
loop_
_atom_site_type_symbol
_atom_site_label
_atom_site_fract_x
_atom_site_fract_y
_atom_site_fract_z
Si Si1 0.430464 0.811465 0.700098
Si Si2 0.021425 0.813413 0.831538
Si Si3 0.317238 0.825714 0.566638
Si Si4 0.129918 0.184720 0.696776
Si Si5 0.729594 0.310826 0.833072
Si Si6 0.049811 0.688601 0.072481
Si Si7 0.467740 0.823713 0.432711
O O1 0.438830 0.761836 0.766570
O O2 0.337213 0.759757 0.634482
O O3 0.528007 0.731806 0.700242
O O4 0.436819 0.000000 0.697729
O O5 0.131319 0.764295 0.840057
O O6 0.005674 0.757116 0.889670
O O7 0.014600 0.000000 0.825666
O O8 0.250000 0.750000 0.500000
O O9 0.429142 0.830728 0.572693
O O10 0.278283 0.000000 0.562884
O O11 0.214355 0.241203 0.764299
O O12 0.115173 0.249759 0.630698
O O13 0.137523 0.000000 0.694544
O O14 0.729468 0.500000 0.832224
O O15 0.834218 0.260943 0.889106
O O16 0.046450 0.500000 0.074596
O O17 0.000000 0.736017 0.000000
O O18 0.500000 0.745069 0.500000
O O19 0.434576 0.000000 0.436329
#
# Coordination Sequence:
#
# PCOD9198662 Si02
#       7
#     8   8   8   8   8   8   8
#     4   9  17  32  53  75 101 137 178 218 264 321
#     4  10  20  36  58  83 111 144 182 230 280 321
#     4   9  18  31  48  70  98 133 169 213 264 312
#     4   9  16  29  51  75 100 133 173 221 269 316
#     4   8  17  35  56  79 111 145 179 224 277 325
#     4  10  21  38  59  83 114 151 186 221 269 335
#     4   9  18  33  49  67  98 135 173 219 265 312
#
# _framework density 20.377746999999999
#
# number of rings (size 3 to 8) (size 9 to 14) (size 15 to 20)
#    0.000    2.857    0.000    3.000    0.000    4.000 
#    2.571    4.286    0.000    0.000    0.000    0.000 
#    0.000    0.000    0.000    0.000    0.000    0.000 
#
# Total GULP energy -156012.639923 kJ/mol
# GULP energy per Si atom -5571.879997 kJ/mol
# Density = 2.033137 g / cm^3
# Si number density = 20.377747 Si / 1000 Ang^3
#
#
#
# Elastic Constant Matrix: (Units=GPa)
#
#
# Indices 1 2 3 4 5 6 
#
# 1 68.5978 4.8622 59.9717 0.0000 6.1924 0.0000
# 2 4.8622 24.7243 43.6271 0.0000 4.7732 0.0000
# 3 59.9717 43.6271 255.5684 0.0000 10.9542 0.0000
# 4 0.0000 0.0000 0.0000 32.5744 0.0000 -7.2754
# 5 6.1924 4.7732 10.9542 0.0000 32.7892 0.0000
# 6 0.0000 0.0000 0.0000 -7.2754 0.0000 5.5300
#
#
#
# Elastic Compliance Matrix: (Units=1/GPa)
#
#
# Indices 1 2 3 4 5 6 
#
# 1 0.019154 0.006417 -0.005473 0.000000 -0.002723 0.000000
# 2 0.006417 0.060918 -0.011639 0.000000 -0.006191 0.000000
# 3 -0.005473 -0.011639 0.007170 0.000000 0.000333 0.000000
# 4 0.000000 0.000000 0.000000 0.043473 0.000000 0.057193
# 5 -0.002723 -0.006191 0.000333 0.000000 0.031802 0.000000
# 6 0.000000 0.000000 0.000000 0.057193 0.000000 0.256074
#
#
# Mechanical properties :
#
#
# Convention : Reuss Voigt Hill
#
# Bulk Modulus (GPa) = 15.18618 62.86808 39.02713
# Shear Modulus (GPa) = 10.82411 30.20736 20.51573
#
# Velocity S-wave (km/s) = 2.30722 3.85433 3.17641
# Velocity P-wave (km/s) = 3.81657 7.12223 5.71368
#
# Compressibility (1/GPa) = 0.06584935
#
# Stress axis : x y z
#
# Youngs Moduli (GPa) = 52.20917 16.41563 139.47263
#
# Poissons Ratio (x) = -0.10534 0.76337
# Poissons Ratio (y) = -0.33502 1.62338
# Poissons Ratio (z) = 0.28576 0.19107
#
# Static dielectric constant tensor:
#      x y z
#    x 1.764670 0.000000 -0.008010 
#    y 0.000000 1.711350 0.000000 
#    z -0.008010 0.000000 1.771470 
# 
# From -- ./inp_files/342041.got.cif
#   From: 2010.05.17/outbox.cif.g08.bks.cpg/sg12_172_cif.got.tgz:342041.got - 2010.06.03 13:09:07.
