data_PCOD9198577
_publ_section_title
;
Structure prediction by ZEFSAII (Michael W. Deem and Ramdas Pophale) SiO2 
 PCOD9198577
Probable space group: C 2/M
;
_chemical_formula_sum "Si O2"
_cell_formula_units_Z 64
_cell_length_a 19.274800
_cell_length_b 7.637500
_cell_length_c 31.160330
_cell_angle_alpha 90.000000
_cell_angle_beta 38.195769
_cell_angle_gamma 90.000000
_cell_volume 2836.467237
_symmetry_space_group_name_H-M "C 2/M"
_symmetry_group_IT_number 12
_symmetry_cell_setting 'monoclinic'
loop_
_space_group_symop_operation_xyz
x,y,z
-x,y,-z
-x,-y,-z
x,-y,z
1/2+x,1/2+y,z
1/2-x,1/2+y,-z
1/2-x,1/2-y,-z
1/2+x,1/2-y,z
loop_
_atom_site_type_symbol
_atom_site_label
_atom_site_fract_x
_atom_site_fract_y
_atom_site_fract_z
Si Si1 0.544453 0.797203 0.933956
Si Si2 0.530054 0.792231 0.703421
Si Si3 0.464517 0.787488 0.155050
Si Si4 0.705851 0.703869 0.692745
Si Si5 0.302091 0.791177 0.929020
Si Si6 0.118296 0.289284 0.568664
Si Si7 0.039925 0.714306 0.433034
Si Si8 0.278616 0.786703 0.848088
O O1 0.509836 0.719939 0.905153
O O2 0.679229 0.786135 0.867686
O O3 0.508267 0.000000 0.951545
O O4 0.500000 0.716071 0.000000
O O5 0.621493 0.771085 0.696831
O O6 0.574137 0.722517 0.636305
O O7 0.404717 0.727861 0.775856
O O8 0.515903 0.000000 0.705305
O O9 0.353165 0.727096 0.232603
O O10 0.569287 0.731669 0.132956
O O11 0.461581 0.000000 0.154954
O O12 0.717497 0.500000 0.677397
O O13 0.831612 0.776835 0.633601
O O14 0.248090 0.726797 0.911472
O O15 0.303331 0.000000 0.925087
O O16 0.250000 0.750000 0.000000
O O17 0.107964 0.500000 0.574152
O O18 0.250000 0.250000 0.500000
O O19 0.042904 0.226598 0.565004
O O20 0.039319 0.500000 0.431583
O O21 0.000000 0.764433 0.500000
O O22 0.274294 0.000000 0.847835
#
# Coordination Sequence:
#
# PCOD9198577 Si02
#       8
#     8   8   8   8   8   8   8   8
#     4  10  22  39  59  82 112 152 193 239 294 347
#     4  10  21  39  60  82 117 159 192 234 295 347
#     4  10  21  39  58  80 117 157 187 232 297 350
#     4  11  22  36  61  90 114 149 197 244 283 337
#     4  10  20  36  58  81 108 147 191 236 289 343
#     4  10  21  38  62  88 118 157 193 232 284 341
#     4   9  19  36  58  86 119 151 185 232 285 330
#     4  10  21  37  58  82 112 151 192 237 289 344
#
# _framework density 22.563279000000001
#
# number of rings (size 3 to 8) (size 9 to 14) (size 15 to 20)
#    0.000    2.000    1.250    1.875    1.750    4.750 
#    0.000    1.250    0.000    3.375    0.000    0.000 
#    0.000    0.000    0.000    0.000    0.000    0.000 
#
# Total GULP energy -178695.747120 kJ/mol
# GULP energy per Si atom -5584.242098 kJ/mol
# Density = 2.251192 g / cm^3
# Si number density = 22.563279 Si / 1000 Ang^3
#
#
#
# Elastic Constant Matrix: (Units=GPa)
#
#
# Indices 1 2 3 4 5 6 
#
# 1 117.1098 -0.9024 36.4364 0.0004 3.5425 0.0018
# 2 -0.9024 42.2814 -2.8435 0.0007 0.7682 -0.0182
# 3 36.4364 -2.8435 123.7314 -0.0001 0.4167 -0.0005
# 4 0.0004 0.0007 -0.0001 21.5397 0.0005 -6.8169
# 5 3.5425 0.7682 0.4167 0.0005 43.4992 0.0001
# 6 0.0018 -0.0182 -0.0005 -6.8169 0.0001 7.2787
#
#
#
# Elastic Compliance Matrix: (Units=1/GPa)
#
#
# Indices 1 2 3 4 5 6 
#
# 1 0.009424 0.000028 -0.002772 -0.000001 -0.000741 -0.000004
# 2 0.000028 0.023696 0.000538 0.000026 -0.000426 0.000083
# 3 -0.002772 0.000538 0.008910 0.000001 0.000131 0.000004
# 4 -0.000001 0.000026 0.000001 0.065983 -0.000001 0.061796
# 5 -0.000741 -0.000426 0.000131 -0.000001 0.023056 -0.000002
# 6 -0.000004 0.000083 0.000004 0.061796 -0.000002 0.195262
#
#
# Mechanical properties :
#
#
# Convention : Reuss Voigt Hill
#
# Bulk Modulus (GPa) = 26.58331 38.72263 32.65297
# Shear Modulus (GPa) = 14.56527 31.15900 22.86213
#
# Velocity S-wave (km/s) = 2.54348 3.72016 3.18660
# Velocity P-wave (km/s) = 4.52029 5.97091 5.29551
#
# Compressibility (1/GPa) = 0.03761759
#
# Stress axis : x y z
#
# Youngs Moduli (GPa) = 106.11077 42.20189 112.23023
#
# Poissons Ratio (x) = -0.00119 0.31111
# Poissons Ratio (y) = -0.00299 -0.06034
# Poissons Ratio (z) = 0.29415 -0.02269
#
# Static dielectric constant tensor:
#      x y z
#    x 4.699860 -0.000160 2.734150 
#    y -0.000160 1.853150 -0.000150 
#    z 2.734150 -0.000150 4.420470 
# 
# From -- ./inp_files/378239.got.cif
#   From: 2010.05.17/outbox.cif.g08.bks.cpg/sg12_190_cif.got.tgz:378239.got - 2010.06.03 13:09:07.
