data_PCOD9198637
_publ_section_title
;
Structure prediction by ZEFSAII (Michael W. Deem and Ramdas Pophale) SiO2 
 PCOD9198637
Probable space group: C 2/M
;
_chemical_formula_sum "Si O2"
_cell_formula_units_Z 56
_cell_length_a 10.638067
_cell_length_b 15.382253
_cell_length_c 18.069126
_cell_angle_alpha 90.000000
_cell_angle_beta 117.353001
_cell_angle_gamma 90.000000
_cell_volume 2626.194937
_symmetry_space_group_name_H-M "C 2/M"
_symmetry_group_IT_number 12
_symmetry_cell_setting 'monoclinic'
loop_
_space_group_symop_operation_xyz
x,y,z
-x,y,-z
-x,-y,-z
x,-y,z
1/2+x,1/2+y,z
1/2-x,1/2+y,-z
1/2-x,1/2-y,-z
1/2+x,1/2-y,z
loop_
_atom_site_type_symbol
_atom_site_label
_atom_site_fract_x
_atom_site_fract_y
_atom_site_fract_z
Si Si1 0.839140 0.894649 0.466792
Si Si2 0.862026 0.135226 0.185620
Si Si3 0.358500 0.899369 0.001309
Si Si4 0.640260 0.843109 0.834598
Si Si5 0.818305 0.142403 0.745663
Si Si6 0.342908 0.103236 0.445857
Si Si7 0.678414 0.149359 0.273885
O O1 0.768372 0.862488 0.523743
O O2 0.743144 0.867696 0.371556
O O3 0.000000 0.863739 0.500000
O O4 0.843546 0.000000 0.469378
O O5 0.768960 0.105867 0.090975
O O6 0.864730 0.240224 0.183016
O O7 0.780600 0.109884 0.238652
O O8 0.024499 0.106436 0.225346
O O9 0.388981 0.000000 0.026900
O O10 0.500000 0.862147 0.000000
O O11 0.325388 0.854643 0.070004
O O12 0.753210 0.881238 0.807559
O O13 0.483437 0.881143 0.777793
O O14 0.713758 0.115754 0.651755
O O15 0.826471 0.247220 0.742279
O O16 0.500000 0.140159 0.500000
O O17 0.351703 0.000000 0.461889
#
# Coordination Sequence:
#
# PCOD9198637 Si02
#       7
#     8   8   8   8   8   8   8
#     4  10  21  35  54  81 112 149 190 235 285 335
#     4  10  21  39  59  84 118 150 186 236 288 338
#     4  11  23  39  61  89 116 148 193 236 280 339
#     4  10  21  39  59  84 116 150 191 232 283 347
#     4  10  22  36  58  86 110 149 190 234 288 332
#     4  10  21  37  54  77 112 149 186 229 283 343
#     4  10  20  36  58  82 112 147 192 237 277 337
#
# _framework density 21.323626999999998
#
# number of rings (size 3 to 8) (size 9 to 14) (size 15 to 20)
#    0.000    1.857    1.429    2.143    0.000    4.000 
#    0.000    0.714    0.000    0.000    0.000    0.000 
#    0.000    0.000    0.000    0.000    0.000    0.000 
#
# Total GULP energy -156494.312978 kJ/mol
# GULP energy per Si atom -5589.082606 kJ/mol
# Density = 2.127509 g / cm^3
# Si number density = 21.323627 Si / 1000 Ang^3
#
#
#
# Elastic Constant Matrix: (Units=GPa)
#
#
# Indices 1 2 3 4 5 6 
#
# 1 114.9974 15.3828 17.2768 0.0000 -7.2979 0.0000
# 2 15.3828 28.0539 -14.3508 0.0000 -2.7962 0.0000
# 3 17.2768 -14.3508 86.5829 0.0000 -6.8324 0.0000
# 4 0.0000 0.0000 0.0000 36.7698 0.0000 2.9125
# 5 -7.2979 -2.7962 -6.8324 0.0000 45.7438 0.0000
# 6 0.0000 0.0000 0.0000 2.9125 0.0000 -5.4596
#
#
#
# Elastic Compliance Matrix: (Units=1/GPa)
#
#
# Indices 1 2 3 4 5 6 
#
# 1 0.010167 -0.007115 -0.003151 0.000000 0.000716 0.000000
# 2 -0.007115 0.044453 0.009019 0.000000 0.002929 0.000000
# 3 -0.003151 0.009019 0.013840 0.000000 0.002116 0.000000
# 4 0.000000 0.000000 0.000000 0.026094 0.000000 0.013920
# 5 0.000716 0.002929 0.002116 0.000000 0.022470 0.000000
# 6 0.000000 0.000000 0.000000 0.013920 0.000000 -0.175739
#
#
# Mechanical properties :
#
#
# Convention : Reuss Voigt Hill
#
# Bulk Modulus (GPa) = 15.15991 29.58354 22.37173
# Shear Modulus (GPa) = -146.06410 29.49916 -58.28247
#
# Velocity S-wave (km/s) = -8.28537 3.72345 -5.23371
# Velocity P-wave (km/s) = 9.18722 5.69114 5.09980
#
# Compressibility (1/GPa) = 0.06596344
#
# Stress axis : x y z
#
# Youngs Moduli (GPa) = 98.36170 22.49587 72.25302
#
# Poissons Ratio (x) = 0.16007 0.22770
# Poissons Ratio (y) = 0.69987 -0.65163
# Poissons Ratio (z) = 0.30998 -0.20289
#
# Static dielectric constant tensor:
#      x y z
#    x 1.789660 0.000000 -0.001840 
#    y 0.000000 1.786220 0.000000 
#    z -0.001840 0.000000 1.702150 
# 
# From -- ./inp_files/197548.got.cif
#   From: 2010.05.17/outbox.cif.g08.bks.cpg/sg12_99_cif.got.tgz:197548.got - 2010.06.03 13:09:07.
