data_PCOD9198224
_publ_section_title
;
Structure prediction by ZEFSAII (Michael W. Deem and Ramdas Pophale) SiO2 
 PCOD9198224
Probable space group: C 2/M
;
_chemical_formula_sum "Si O2"
_cell_formula_units_Z 40
_cell_length_a 13.323119
_cell_length_b 16.016854
_cell_length_c 23.419062
_cell_angle_alpha 90.000000
_cell_angle_beta 23.477744
_cell_angle_gamma 90.000000
_cell_volume 1990.967259
_symmetry_space_group_name_H-M "C 2/M"
_symmetry_group_IT_number 12
_symmetry_cell_setting 'monoclinic'
loop_
_space_group_symop_operation_xyz
x,y,z
-x,y,-z
-x,-y,-z
x,-y,z
1/2+x,1/2+y,z
1/2-x,1/2+y,-z
1/2-x,1/2-y,-z
1/2+x,1/2-y,z
loop_
_atom_site_type_symbol
_atom_site_label
_atom_site_fract_x
_atom_site_fract_y
_atom_site_fract_z
Si Si1 0.170992 0.500000 0.038656
Si Si2 0.598047 0.813454 0.122144
Si Si3 0.400139 0.228931 0.340183
Si Si4 0.500000 0.858175 0.500000
Si Si5 0.541617 0.666561 0.371803
Si Si6 0.346179 0.500000 0.285112
Si Si7 0.342490 0.500000 0.757284
O O1 0.148104 0.411512 0.083588
O O2 0.962715 0.500000 0.095176
O O3 0.448697 0.500000 0.869793
O O4 0.609720 0.788336 0.182877
O O5 0.296516 0.809147 0.270707
O O6 0.750000 0.750000 0.000000
O O7 0.208073 0.302343 0.421901
O O8 0.512938 0.259862 0.340647
O O9 0.199184 0.157491 0.461342
O O10 0.664916 0.920384 0.375634
O O11 0.573998 0.582454 0.319487
O O12 0.513043 0.500000 0.257161
#
# Coordination Sequence:
#
# PCOD9198224 Si02
#       7
#     4   8   8   4   8   4   4
#     4  10  24  38  58  88 120 168 195 246 309 363
#     4  11  23  40  64  87 125 163 202 249 304 366
#     4  11  21  39  60  89 120 155 207 244 300 365
#     4  11  20  34  64  83 116 160 196 259 292 345
#     4  10  22  37  62  88 117 155 202 253 303 357
#     4  11  21  36  58  87 122 153 204 254 299 353
#     4  10  20  36  56  88 118 151 198 256 300 354
#
# _framework density 20.090737000000001
#
# number of rings (size 3 to 8) (size 9 to 14) (size 15 to 20)
#    0.000    1.400    4.000    1.500    0.000    1.600 
#    0.000    3.000    0.000    2.400    0.000    0.000 
#    0.000    0.000    0.000    0.000    0.000    0.000 
#
# Total GULP energy -111405.502137 kJ/mol
# GULP energy per Si atom -5570.275107 kJ/mol
# Density = 2.004501 g / cm^3
# Si number density = 20.090737 Si / 1000 Ang^3
#
#
#
# Elastic Constant Matrix: (Units=GPa)
#
#
# Indices 1 2 3 4 5 6 
#
# 1 24.2311 11.6725 7.9505 -0.0737 16.3473 -0.0477
# 2 11.6725 83.7362 35.4643 0.1096 3.5742 0.0483
# 3 7.9505 35.4643 128.5173 -0.0640 21.1820 -0.0404
# 4 -0.0737 0.1096 -0.0640 57.5384 0.1523 -9.1069
# 5 16.3473 3.5742 21.1820 0.1523 26.7747 0.0841
# 6 -0.0477 0.0483 -0.0404 -9.1069 0.0841 3.2220
#
#
#
# Elastic Compliance Matrix: (Units=1/GPa)
#
#
# Indices 1 2 3 4 5 6 
#
# 1 0.080705 -0.011990 0.007107 0.001316 -0.053325 0.006575
# 2 -0.011990 0.015345 -0.005018 -0.000339 0.009249 -0.001670
# 3 0.007107 -0.005018 0.010732 0.000295 -0.012166 0.001466
# 4 0.001316 -0.000339 0.000295 0.031479 -0.001450 0.089040
# 5 -0.053325 0.009249 -0.012166 -0.001450 0.078327 -0.007225
# 6 0.006575 -0.001670 0.001466 0.089040 -0.007225 0.562361
#
#
# Mechanical properties :
#
#
# Convention : Reuss Voigt Hill
#
# Bulk Modulus (GPa) = 11.49660 38.51768 25.00714
# Shear Modulus (GPa) = 6.04052 29.60018 17.82035
#
# Velocity S-wave (km/s) = 1.73584 3.84256 2.98147
# Velocity P-wave (km/s) = 3.12287 6.23702 4.93218
#
# Compressibility (1/GPa) = 0.08698226
#
# Stress axis : x y z
#
# Youngs Moduli (GPa) = 12.39083 65.16618 93.18062
#
# Poissons Ratio (x) = 0.78131 -0.66228
# Poissons Ratio (y) = 0.14856 0.46757
# Poissons Ratio (z) = -0.08807 0.32700
#
# Static dielectric constant tensor:
#      x y z
#    x 1.759120 -0.000040 -0.010000 
#    y -0.000040 1.804490 -0.000010 
#    z -0.010000 -0.000010 1.719200 
# 
# From -- ./inp_files/75017.got.cif
#   From: 2010.05.17/outbox.cif.g08.bks.cpg/sg12_38_cif.got.tgz:75017.got - 2010.06.03 13:09:07.
