data_PCOD9198983
_publ_section_title
;
Structure prediction by ZEFSAII (Michael W. Deem and Ramdas Pophale) SiO2 
 PCOD9198983
Probable space group: C 2/M
;
_chemical_formula_sum "Si O2"
_cell_formula_units_Z 64
_cell_length_a 15.350833
_cell_length_b 8.396811
_cell_length_c 27.892304
_cell_angle_alpha 90.000000
_cell_angle_beta 120.520479
_cell_angle_gamma 90.000000
_cell_volume 3097.131389
_symmetry_space_group_name_H-M "C 2/M"
_symmetry_group_IT_number 12
_symmetry_cell_setting 'monoclinic'
loop_
_space_group_symop_operation_xyz
x,y,z
-x,y,-z
-x,-y,-z
x,-y,z
1/2+x,1/2+y,z
1/2-x,1/2+y,-z
1/2-x,1/2-y,-z
1/2+x,1/2-y,z
loop_
_atom_site_type_symbol
_atom_site_label
_atom_site_fract_x
_atom_site_fract_y
_atom_site_fract_z
Si Si1 0.678292 0.819265 0.757085
Si Si2 0.559970 0.807564 0.885516
Si Si3 0.964008 0.182333 0.709574
Si Si4 0.231873 0.186295 0.872138
Si Si5 0.894659 0.693154 0.994500
Si Si6 0.394157 0.192353 0.496361
Si Si7 0.369469 0.183472 0.775921
Si Si8 0.829332 0.309543 0.586337
O O1 0.579368 0.711632 0.726052
O O2 0.730182 0.781932 0.822680
O O3 0.767689 0.784459 0.745074
O O4 0.644044 0.000000 0.744817
O O5 0.621948 0.709924 0.863988
O O6 0.600118 0.756794 0.948861
O O7 0.442288 0.779121 0.841536
O O8 0.575295 0.000000 0.884347
O O9 0.935709 0.290732 0.747077
O O10 0.890196 0.225500 0.645556
O O11 0.951486 0.000000 0.720880
O O12 0.253871 0.000000 0.868952
O O13 0.306682 0.248473 0.934562
O O14 0.888333 0.500000 0.993853
O O15 0.000000 0.737605 0.000000
O O16 0.500000 0.243078 0.500000
O O17 0.289071 0.260616 0.445749
O O18 0.381269 0.232839 0.549459
O O19 0.390484 0.000000 0.491587
O O20 0.339357 0.000000 0.772010
O O21 0.836298 0.500000 0.593541
#
# Coordination Sequence:
#
# PCOD9198983 Si02
#       8
#     8   8   8   8   8   8   8   8
#     4  12  25  42  63  88 121 162 209 259 315 376
#     4  10  20  36  59  83 114 152 194 248 313 380
#     4  12  25  43  65  91 127 167 213 264 314 369
#     4  11  21  35  58  84 114 152 199 250 309 377
#     4   9  18  33  53  80 111 148 193 245 308 376
#     4   9  19  38  64  94 130 171 213 257 307 360
#     4  11  23  41  65  91 120 159 206 257 318 380
#     4  10  21  38  62  93 130 169 211 259 311 366
#
# _framework density 20.664282
#
# number of rings (size 3 to 8) (size 9 to 14) (size 15 to 20)
#    0.000    1.500    1.250    4.500    0.000    4.250 
#    0.000    4.375    0.000    2.625    0.000    0.000 
#    0.000    0.000    0.000    0.000    0.000    0.000 
#
# Total GULP energy -178724.108642 kJ/mol
# GULP energy per Si atom -5585.128395 kJ/mol
# Density = 2.061725 g / cm^3
# Si number density = 20.664282 Si / 1000 Ang^3
#
#
#
# Elastic Constant Matrix: (Units=GPa)
#
#
# Indices 1 2 3 4 5 6 
#
# 1 84.6968 0.8228 11.5933 0.0000 23.7823 0.0000
# 2 0.8228 23.3026 6.4563 0.0000 3.3810 0.0000
# 3 11.5933 6.4563 80.2466 0.0000 12.8943 0.0000
# 4 0.0000 0.0000 0.0000 -3.9916 0.0000 -5.2120
# 5 23.7823 3.3810 12.8943 0.0000 15.9035 0.0000
# 6 0.0000 0.0000 0.0000 -5.2120 0.0000 24.8098
#
#
#
# Elastic Compliance Matrix: (Units=1/GPa)
#
#
# Indices 1 2 3 4 5 6 
#
# 1 0.020994 0.003586 0.002122 0.000000 -0.033878 0.000000
# 2 0.003586 0.045283 -0.002015 0.000000 -0.013356 0.000000
# 3 0.002122 -0.002015 0.014669 0.000000 -0.014639 0.000000
# 4 0.000000 0.000000 0.000000 -0.196598 0.000000 -0.041301
# 5 -0.033878 -0.013356 -0.014639 0.000000 0.128249 0.000000
# 6 0.000000 0.000000 0.000000 -0.041301 0.000000 0.031630
#
#
# Mechanical properties :
#
#
# Convention : Reuss Voigt Hill
#
# Bulk Modulus (GPa) = 11.32087 25.11010 18.21549
# Shear Modulus (GPa) = 75.42980 18.63590 47.03285
#
# Velocity S-wave (km/s) = 6.04828 3.00633 4.77597
# Velocity P-wave (km/s) = 7.36655 4.92224 6.26476
#
# Compressibility (1/GPa) = 0.08833242
#
# Stress axis : x y z
#
# Youngs Moduli (GPa) = 47.63210 22.08325 68.16940
#
# Poissons Ratio (x) = -0.07919 -0.14466
# Poissons Ratio (y) = -0.17081 0.13739
# Poissons Ratio (z) = -0.10108 0.04451
#
# Static dielectric constant tensor:
#      x y z
#    x 1.755240 0.000000 -0.000840 
#    y 0.000000 1.696430 0.000000 
#    z -0.000840 0.000000 1.746600 
# 
# From -- ./inp_files/375584.got.cif
#   From: 2010.05.17/outbox.cif.g08.bks.cpg/sg12_188_cif.got.tgz:375584.got - 2010.06.03 13:09:07.
