data_PCOD9198545
_publ_section_title
;
Structure prediction by ZEFSAII (Michael W. Deem and Ramdas Pophale) SiO2 
 PCOD9198545
Probable space group: C 2/M
;
_chemical_formula_sum "Si O2"
_cell_formula_units_Z 36
_cell_length_a 13.176615
_cell_length_b 10.187051
_cell_length_c 13.896601
_cell_angle_alpha 90.000000
_cell_angle_beta 118.004929
_cell_angle_gamma 90.000000
_cell_volume 1646.933202
_symmetry_space_group_name_H-M "C 2/M"
_symmetry_group_IT_number 12
_symmetry_cell_setting 'monoclinic'
loop_
_space_group_symop_operation_xyz
x,y,z
-x,y,-z
-x,-y,-z
x,-y,z
1/2+x,1/2+y,z
1/2-x,1/2+y,-z
1/2-x,1/2-y,-z
1/2+x,1/2-y,z
loop_
_atom_site_type_symbol
_atom_site_label
_atom_site_fract_x
_atom_site_fract_y
_atom_site_fract_z
Si Si1 0.514406 0.143087 0.291772
Si Si2 0.135624 0.147151 0.056535
Si Si3 0.233632 0.148846 0.578943
Si Si4 0.000000 0.275581 0.500000
Si Si5 0.174826 0.850889 0.846104
O O1 0.644908 0.155743 0.312268
O O2 0.520435 0.145093 0.411099
O O3 0.437274 0.265341 0.228460
O O4 0.467681 0.000000 0.240149
O O5 0.171358 0.137971 0.960466
O O6 0.151681 0.000000 0.106760
O O7 0.216665 0.260647 0.134362
O O8 0.000000 0.178126 0.000000
O O9 0.250000 0.250000 0.500000
O O10 0.113681 0.189747 0.572472
O O11 0.222516 0.000000 0.538699
O O12 0.176289 0.000000 0.807562
#
# Coordination Sequence:
#
# PCOD9198545 Si02
#       5
#     8   8   8   4   8
#     4  10  21  37  55  78 110 147 185 226 274 328
#     4   9  19  38  61  83 110 145 181 219 269 329
#     4   9  19  34  53  76 104 139 180 227 275 321
#     4  10  20  36  58  80 104 144 194 234 272 318
#     4  10  21  36  56  84 113 142 180 226 273 322
#
# _framework density 21.858810999999999
#
# number of rings (size 3 to 8) (size 9 to 14) (size 15 to 20)
#    0.000    2.444    0.000    1.333    0.000    8.444 
#    0.000    4.444    0.000    0.000    0.000    0.000 
#    0.000    0.000    0.000    0.000    0.000    0.000 
#
# Total GULP energy -100376.233156 kJ/mol
# GULP energy per Si atom -5576.457398 kJ/mol
# Density = 2.180906 g / cm^3
# Si number density = 21.858811 Si / 1000 Ang^3
#
#
#
# Elastic Constant Matrix: (Units=GPa)
#
#
# Indices 1 2 3 4 5 6 
#
# 1 116.3088 65.2464 18.8115 0.0000 37.1294 0.0000
# 2 65.2464 208.0273 52.6677 0.0000 46.9691 0.0000
# 3 18.8115 52.6677 39.9188 0.0000 17.4065 0.0000
# 4 0.0000 0.0000 0.0000 20.2887 0.0000 6.7951
# 5 37.1294 46.9691 17.4065 0.0000 50.9736 0.0000
# 6 0.0000 0.0000 0.0000 6.7951 0.0000 21.0922
#
#
#
# Elastic Compliance Matrix: (Units=1/GPa)
#
#
# Indices 1 2 3 4 5 6 
#
# 1 0.011991 -0.002338 0.000356 0.000000 -0.006702 0.000000
# 2 -0.002338 0.008439 -0.008677 0.000000 -0.003110 0.000000
# 3 0.000356 -0.008677 0.038724 0.000000 -0.005488 0.000000
# 4 0.000000 0.000000 0.000000 0.055250 0.000000 -0.017800
# 5 -0.006702 -0.003110 -0.005488 0.000000 0.029240 0.000000
# 6 0.000000 0.000000 0.000000 -0.017800 0.000000 0.053145
#
#
# Mechanical properties :
#
#
# Convention : Reuss Voigt Hill
#
# Bulk Modulus (GPa) = 26.42891 70.85624 48.64257
# Shear Modulus (GPa) = 21.67146 33.63950 27.65548
#
# Velocity S-wave (km/s) = 3.15211 3.92719 3.56081
# Velocity P-wave (km/s) = 5.03634 7.28352 6.26156
#
# Compressibility (1/GPa) = 0.03783736
#
# Stress axis : x y z
#
# Youngs Moduli (GPa) = 83.39481 118.49265 25.82411
#
# Poissons Ratio (x) = 0.27703 -0.00920
# Poissons Ratio (y) = 0.19498 0.22406
# Poissons Ratio (z) = -0.02970 1.02810
#
# Static dielectric constant tensor:
#      x y z
#    x 1.830650 0.000000 -0.002920 
#    y 0.000000 1.797650 0.000000 
#    z -0.002920 0.000000 1.819430 
# 
# From -- ./inp_files/210759.got.cif
#   From: 2010.05.17/outbox.cif.g08.bks.cpg/sg12_106_cif.got.tgz:210759.got - 2010.06.03 13:09:07.
