data_PCOD9198586
_publ_section_title
;
Structure prediction by ZEFSAII (Michael W. Deem and Ramdas Pophale) SiO2 
 PCOD9198586
Probable space group: C 2/M
;
_chemical_formula_sum "Si O2"
_cell_formula_units_Z 48
_cell_length_a 5.169980
_cell_length_b 14.882791
_cell_length_c 30.811760
_cell_angle_alpha 90.000000
_cell_angle_beta 70.440215
_cell_angle_gamma 90.000000
_cell_volume 2233.960885
_symmetry_space_group_name_H-M "C 2/M"
_symmetry_group_IT_number 12
_symmetry_cell_setting 'monoclinic'
loop_
_space_group_symop_operation_xyz
x,y,z
-x,y,-z
-x,-y,-z
x,-y,z
1/2+x,1/2+y,z
1/2-x,1/2+y,-z
1/2-x,1/2-y,-z
1/2+x,1/2-y,z
loop_
_atom_site_type_symbol
_atom_site_label
_atom_site_fract_x
_atom_site_fract_y
_atom_site_fract_z
Si Si1 0.207508 0.608124 0.603899
Si Si2 0.462199 0.891414 0.798833
Si Si3 0.165558 0.305788 0.699901
Si Si4 0.961341 0.691369 0.048989
Si Si5 0.854638 0.107965 0.853405
Si Si6 0.814339 0.610027 0.550730
O O1 0.206007 0.500000 0.603128
O O2 0.186034 0.638888 0.654433
O O3 0.498497 0.638403 0.567547
O O4 0.958459 0.638873 0.587409
O O5 0.520260 0.857045 0.747517
O O6 0.695673 0.861374 0.819235
O O7 0.168008 0.860488 0.833482
O O8 0.462020 0.000000 0.797934
O O9 0.466493 0.277069 0.699062
O O10 0.754980 0.773942 0.049345
O O11 0.808252 0.637721 0.094992
O O12 0.000000 0.644246 0.000000
O O13 0.858889 0.000000 0.852524
O O14 0.814048 0.500000 0.549813
O O15 0.000000 0.639693 0.500000
#
# Coordination Sequence:
#
# PCOD9198586 Si02
#       6
#     8   8   8   8   8   8
#     4  10  20  36  58  81 110 146 179 221 274 320
#     4  10  22  40  59  82 111 143 183 228 278 330
#     4  12  25  39  57  82 112 145 184 226 270 325
#     4  10  21  36  55  81 114 151 187 224 269 324
#     4  10  21  37  59  84 110 142 182 231 278 324
#     4   9  17  31  56  87 110 135 181 230 266 312
#
# _framework density 21.486498999999998
#
# number of rings (size 3 to 8) (size 9 to 14) (size 15 to 20)
#    0.000    1.833    0.000    4.000    0.000    6.333 
#    0.000    6.667    0.000   16.000    0.000    0.000 
#    0.000    0.000    0.000    0.000    0.000    0.000 
#
# Total GULP energy -134224.742190 kJ/mol
# GULP energy per Si atom -5592.697591 kJ/mol
# Density = 2.143759 g / cm^3
# Si number density = 21.486499 Si / 1000 Ang^3
#
#
#
# Elastic Constant Matrix: (Units=GPa)
#
#
# Indices 1 2 3 4 5 6 
#
# 1 65.8851 -6.6788 -18.7130 0.0000 -3.5345 0.0000
# 2 -6.6788 30.0383 -1.0665 0.0000 1.7614 0.0000
# 3 -18.7130 -1.0665 90.2775 0.0000 1.1624 0.0000
# 4 0.0000 0.0000 0.0000 49.1509 0.0000 1.4735
# 5 -3.5345 1.7614 1.1624 0.0000 37.6549 0.0000
# 6 0.0000 0.0000 0.0000 1.4735 0.0000 7.3314
#
#
#
# Elastic Compliance Matrix: (Units=1/GPa)
#
#
# Indices 1 2 3 4 5 6 
#
# 1 0.016612 0.003742 0.003471 0.000000 0.001277 0.000000
# 2 0.003742 0.034241 0.001197 0.000000 -0.001287 0.000000
# 3 0.003471 0.001197 0.011812 0.000000 -0.000095 0.000000
# 4 0.000000 0.000000 0.000000 0.020469 0.000000 -0.004114
# 5 0.001277 -0.001287 -0.000095 0.000000 0.026740 0.000000
# 6 0.000000 0.000000 0.000000 -0.004114 0.000000 0.137226
#
#
# Mechanical properties :
#
#
# Convention : Reuss Voigt Hill
#
# Bulk Modulus (GPa) = 12.58124 14.80937 13.69531
# Shear Modulus (GPa) = 19.47231 33.00472 26.23852
#
# Velocity S-wave (km/s) = 3.01368 3.92352 3.49831
# Velocity P-wave (km/s) = 4.24002 5.23763 4.76500
#
# Compressibility (1/GPa) = 0.07948342
#
# Stress axis : x y z
#
# Youngs Moduli (GPa) = 60.19884 29.20492 84.66104
#
# Poissons Ratio (x) = -0.10928 -0.29386
# Poissons Ratio (y) = -0.22525 -0.10131
# Poissons Ratio (z) = -0.20895 -0.03495
#
# Static dielectric constant tensor:
#      x y z
#    x 1.754660 0.000000 -0.002510 
#    y 0.000000 1.785480 0.000000 
#    z -0.002510 0.000000 1.737410 
# 
# From -- ./inp_files/371465.got.cif
#   From: 2010.05.17/outbox.cif.g08.bks.cpg/sg12_186_cif.got.tgz:371465.got - 2010.06.03 13:09:07.
