data_PCOD9198386
_publ_section_title
;
Structure prediction by ZEFSAII (Michael W. Deem and Ramdas Pophale) SiO2 
 PCOD9198386
Probable space group: C 2/M
;
_chemical_formula_sum "Si O2"
_cell_formula_units_Z 56
_cell_length_a 9.214400
_cell_length_b 23.527616
_cell_length_c 19.134854
_cell_angle_alpha 90.000000
_cell_angle_beta 43.331792
_cell_angle_gamma 90.000000
_cell_volume 2846.654889
_symmetry_space_group_name_H-M "C 2/M"
_symmetry_group_IT_number 12
_symmetry_cell_setting 'monoclinic'
loop_
_space_group_symop_operation_xyz
x,y,z
-x,y,-z
-x,-y,-z
x,-y,z
1/2+x,1/2+y,z
1/2-x,1/2+y,-z
1/2-x,1/2-y,-z
1/2+x,1/2-y,z
loop_
_atom_site_type_symbol
_atom_site_label
_atom_site_fract_x
_atom_site_fract_y
_atom_site_fract_z
Si Si1 0.124087 0.683369 0.889328
Si Si2 0.964933 0.126859 0.679531
Si Si3 0.293955 0.778244 0.614157
Si Si4 0.809061 0.436687 0.613006
Si Si5 0.279603 0.434135 0.616642
Si Si6 0.917622 0.290735 0.815364
Si Si7 0.898545 0.364274 0.697317
O O1 0.305742 0.641925 0.797336
O O2 0.244943 0.741195 0.869062
O O3 0.974158 0.695702 0.875224
O O4 0.000000 0.661861 0.000000
O O5 0.820975 0.111194 0.664187
O O6 0.142796 0.177886 0.622078
O O7 0.102223 0.069964 0.639549
O O8 0.500000 0.757222 0.500000
O O9 0.393531 0.810494 0.646831
O O10 0.132427 0.732228 0.702099
O O11 0.874354 0.500000 0.605719
O O12 0.749197 0.405604 0.705532
O O13 0.000000 0.410201 0.500000
O O14 0.500000 0.438111 0.500000
O O15 0.215827 0.500000 0.656795
O O16 0.109183 0.402130 0.627899
O O17 0.842618 0.343121 0.793682
#
# Coordination Sequence:
#
# PCOD9198386 Si02
#       7
#     8   8   8   8   8   8   8
#     4  11  23  42  62  84 109 146 195 244 294 338
#     4  10  20  36  57  82 114 147 190 235 277 336
#     4  10  21  36  53  78 118 161 185 212 274 351
#     4  10  20  37  59  83 116 159 196 225 269 336
#     4  11  21  32  52  84 117 149 185 229 279 330
#     4  11  22  39  57  86 115 147 189 237 282 343
#     4  11  20  34  53  78 117 147 191 225 273 323
#
# _framework density 19.672212999999999
#
# number of rings (size 3 to 8) (size 9 to 14) (size 15 to 20)
#    0.000    1.429    2.857    4.714    0.000    3.429 
#    2.571    0.000    0.000    1.714    0.000    1.000 
#    0.000    0.000    0.000    0.000    0.000    0.000 
#
# Total GULP energy -156020.770251 kJ/mol
# GULP energy per Si atom -5572.170366 kJ/mol
# Density = 1.962744 g / cm^3
# Si number density = 19.672213 Si / 1000 Ang^3
#
#
#
# Elastic Constant Matrix: (Units=GPa)
#
#
# Indices 1 2 3 4 5 6 
#
# 1 94.2691 14.1619 5.3092 0.0000 15.8375 0.0000
# 2 14.1619 56.6193 15.1615 0.0000 6.6759 0.0000
# 3 5.3092 15.1615 67.4313 0.0000 12.4425 0.0000
# 4 0.0000 0.0000 0.0000 9.1219 0.0000 -11.2243
# 5 15.8375 6.6759 12.4425 0.0000 23.4305 0.0000
# 6 0.0000 0.0000 0.0000 -11.2243 0.0000 -10.3111
#
#
#
# Elastic Compliance Matrix: (Units=1/GPa)
#
#
# Indices 1 2 3 4 5 6 
#
# 1 0.012284 -0.002396 0.001084 0.000000 -0.008196 0.000000
# 2 -0.002396 0.019516 -0.003849 0.000000 -0.001896 0.000000
# 3 0.001084 -0.003849 0.017231 0.000000 -0.008786 0.000000
# 4 0.000000 0.000000 0.000000 0.046860 0.000000 -0.051010
# 5 -0.008196 -0.001896 -0.008786 0.000000 0.053426 0.000000
# 6 0.000000 0.000000 0.000000 -0.051010 0.000000 -0.041455
#
#
# Mechanical properties :
#
#
# Convention : Reuss Voigt Hill
#
# Bulk Modulus (GPa) = 25.83496 31.95389 28.89443
# Shear Modulus (GPa) = 38.14268 16.69406 27.41837
#
# Velocity S-wave (km/s) = 4.40808 2.91625 3.73736
# Velocity P-wave (km/s) = 6.25056 5.25526 5.77440
#
# Compressibility (1/GPa) = 0.03870724
#
# Stress axis : x y z
#
# Youngs Moduli (GPa) = 81.40775 51.24101 58.03373
#
# Poissons Ratio (x) = 0.12279 -0.06291
# Poissons Ratio (y) = 0.19509 0.22339
# Poissons Ratio (z) = -0.08824 0.19725
#
# Static dielectric constant tensor:
#      x y z
#    x 1.732520 0.000000 0.000380 
#    y 0.000000 1.781090 0.000000 
#    z 0.000380 0.000000 1.668650 
# 
# From -- ./inp_files/185143.got.cif
#   From: 2010.05.17/outbox.cif.g08.bks.cpg/sg12_93_cif.got.tgz:185143.got - 2010.06.03 13:09:07.
