data_PCOD9198946
_publ_section_title
;
Structure prediction by ZEFSAII (Michael W. Deem and Ramdas Pophale) SiO2 
 PCOD9198946
Probable space group: C 2/M
;
_chemical_formula_sum "Si O2"
_cell_formula_units_Z 48
_cell_length_a 14.014770
_cell_length_b 21.056141
_cell_length_c 15.247001
_cell_angle_alpha 90.000000
_cell_angle_beta 31.327623
_cell_angle_gamma 90.000000
_cell_volume 2339.348330
_symmetry_space_group_name_H-M "C 2/M"
_symmetry_group_IT_number 12
_symmetry_cell_setting 'monoclinic'
loop_
_space_group_symop_operation_xyz
x,y,z
-x,y,-z
-x,-y,-z
x,-y,z
1/2+x,1/2+y,z
1/2-x,1/2+y,-z
1/2-x,1/2-y,-z
1/2+x,1/2-y,z
loop_
_atom_site_type_symbol
_atom_site_label
_atom_site_fract_x
_atom_site_fract_y
_atom_site_fract_z
Si Si1 0.279976 0.376654 0.173113
Si Si2 0.193159 0.310985 0.662551
Si Si3 0.780619 0.728974 0.170726
Si Si4 0.490053 0.689179 0.272540
Si Si5 0.805001 0.071507 0.338702
Si Si6 0.495465 0.071557 0.269335
O O1 0.221924 0.302849 0.218046
O O2 0.224427 0.409470 0.307770
O O3 0.187437 0.410316 0.163322
O O4 0.500000 0.379800 0.000000
O O5 0.274924 0.304241 0.694969
O O6 0.351596 0.310026 0.464525
O O7 0.068580 0.248794 0.741150
O O8 0.074904 0.374471 0.741242
O O9 0.689313 0.697646 0.157648
O O10 0.000000 0.726459 0.000000
O O11 0.452208 0.624866 0.249912
O O12 0.648466 0.073677 0.536058
O O13 0.878813 0.000000 0.277008
O O14 0.496559 0.000000 0.233024
#
# Coordination Sequence:
#
# PCOD9198946 Si02
#       6
#     8   8   8   8   8   8
#     4  11  22  34  53  83 117 147 177 220 273 329
#     4  10  20  36  59  82 106 142 186 227 267 318
#     4  11  23  36  55  84 114 144 181 226 272 319
#     4  10  20  36  59  82 106 142 186 227 267 318
#     4  10  21  37  57  82 111 143 181 226 274 322
#     4  10  21  37  57  82 111 143 181 226 274 322
#
# _framework density 20.518535
#
# number of rings (size 3 to 8) (size 9 to 14) (size 15 to 20)
#    0.000    1.667    3.333    1.500    0.000    6.000 
#    0.000    0.833    0.000    5.000    0.000    0.000 
#    0.000    0.000    0.000    0.000    0.000    0.000 
#
# Total GULP energy -134209.539511 kJ/mol
# GULP energy per Si atom -5592.064146 kJ/mol
# Density = 2.047183 g / cm^3
# Si number density = 20.518535 Si / 1000 Ang^3
#
#
#
# Elastic Constant Matrix: (Units=GPa)
#
#
# Indices 1 2 3 4 5 6 
#
# 1 65.3985 33.4777 15.2777 -0.0140 -19.4160 0.0093
# 2 33.4777 150.3533 24.6646 -0.0165 -20.3908 0.0065
# 3 15.2777 24.6646 32.8581 0.0041 -1.2505 -0.0172
# 4 -0.0140 -0.0165 0.0041 7.6081 0.0054 4.4969
# 5 -19.4160 -20.3908 -1.2505 0.0054 27.4896 0.0020
# 6 0.0093 0.0065 -0.0172 4.4969 0.0020 16.6670
#
#
#
# Elastic Compliance Matrix: (Units=1/GPa)
#
#
# Indices 1 2 3 4 5 6 
#
# 1 0.022355 -0.001640 -0.008624 0.000054 0.014181 -0.000037
# 2 -0.001640 0.008591 -0.005498 0.000024 0.004964 -0.000015
# 3 -0.008624 -0.005498 0.038250 -0.000084 -0.008429 0.000070
# 4 0.000054 0.000024 -0.000084 0.156377 0.000024 -0.042192
# 5 0.014181 0.004964 -0.008429 0.000024 0.049692 -0.000031
# 6 -0.000037 -0.000015 0.000070 -0.042192 -0.000031 0.071383
#
#
# Mechanical properties :
#
#
# Convention : Reuss Voigt Hill
#
# Bulk Modulus (GPa) = 26.54365 43.93888 35.24127
# Shear Modulus (GPa) = 12.79662 22.03226 17.41444
#
# Velocity S-wave (km/s) = 2.50003 3.28040 2.91644
# Velocity P-wave (km/s) = 4.61498 5.98404 5.34354
#
# Compressibility (1/GPa) = 0.03767379
#
# Stress axis : x y z
#
# Youngs Moduli (GPa) = 44.73288 116.39784 26.14412
#
# Poissons Ratio (x) = 0.19086 0.22546
# Poissons Ratio (y) = 0.07335 0.14373
# Poissons Ratio (z) = 0.38576 0.63991
#
# Static dielectric constant tensor:
#      x y z
#    x 1.691340 0.000000 0.005610 
#    y 0.000000 1.711920 0.000010 
#    z 0.005610 0.000010 1.808570 
# 
# From -- ./inp_files/50737.got.cif
#   From: 2010.05.17/outbox.cif.g08.bks.cpg/sg12_26_cif.got.tgz:50737.got - 2010.06.03 13:09:07.
