data_PCOD9198104
_publ_section_title
;
Structure prediction by ZEFSAII (Michael W. Deem and Ramdas Pophale) SiO2 
 PCOD9198104
Probable space group: C 2/M
;
_chemical_formula_sum "Si O2"
_cell_formula_units_Z 34
_cell_length_a 7.433218
_cell_length_b 12.135671
_cell_length_c 16.517695
_cell_angle_alpha 90.000000
_cell_angle_beta 116.084890
_cell_angle_gamma 90.000000
_cell_volume 1338.245739
_symmetry_space_group_name_H-M "C 2/M"
_symmetry_group_IT_number 12
_symmetry_cell_setting 'monoclinic'
loop_
_space_group_symop_operation_xyz
x,y,z
-x,y,-z
-x,-y,-z
x,-y,z
1/2+x,1/2+y,z
1/2-x,1/2+y,-z
1/2-x,1/2-y,-z
1/2+x,1/2-y,z
loop_
_atom_site_type_symbol
_atom_site_label
_atom_site_fract_x
_atom_site_fract_y
_atom_site_fract_z
Si Si1 0.285505 0.629733 0.041649
Si Si2 0.079535 0.802487 0.298456
Si Si3 0.500000 0.500000 0.000000
Si Si4 0.649334 0.881170 0.196083
Si Si5 0.007899 0.379316 0.405192
O O1 0.247907 0.500000 0.991868
O O2 0.518182 0.601583 0.075936
O O3 0.172076 0.622412 0.103527
O O4 0.250000 0.750000 0.000000
O O5 0.039368 0.721248 0.214456
O O6 0.279324 0.871532 0.328175
O O7 0.878694 0.870278 0.271830
O O8 0.115979 0.719044 0.380201
O O9 0.567403 0.000000 0.203656
O O10 0.094641 0.500000 0.405026
O O11 0.000000 0.366349 0.500000
#
# Coordination Sequence:
#
# PCOD9198104 Si02
#       5
#     8   8   2   8   8
#     4   9  20  36  57  79 108 147 186 230 276 328
#     4  10  21  35  55  81 109 139 181 219 272 322
#     4   8  20  36  58  74 116 136 192 228 280 324
#     4  10  21  36  56  79 111 144 180 227 274 323
#     4  10  20  36  56  79 108 141 177 219 266 322
#
# _framework density 25.406396000000001
#
# number of rings (size 3 to 8) (size 9 to 14) (size 15 to 20)
#    0.706    1.647    0.000    2.118    3.294    0.000 
#    0.000    6.471    0.000   11.294    0.000    0.000 
#    0.000    0.000    0.000    0.000    0.000    0.000 
#
# Total GULP energy -94640.740296 kJ/mol
# GULP energy per Si atom -5567.102370 kJ/mol
# Density = 2.534857 g / cm^3
# Si number density = 25.406396 Si / 1000 Ang^3
#
#
#
# Elastic Constant Matrix: (Units=GPa)
#
#
# Indices 1 2 3 4 5 6 
#
# 1 42.5056 11.8665 2.5076 0.0000 -3.3378 0.0000
# 2 11.8665 185.0084 55.1669 0.0000 -17.0043 0.0000
# 3 2.5076 55.1669 100.6624 0.0000 -26.9208 0.0000
# 4 0.0000 0.0000 0.0000 4.9653 0.0000 2.9381
# 5 -3.3378 -17.0043 -26.9208 0.0000 43.4476 0.0000
# 6 0.0000 0.0000 0.0000 2.9381 0.0000 18.7414
#
#
#
# Elastic Compliance Matrix: (Units=1/GPa)
#
#
# Indices 1 2 3 4 5 6 
#
# 1 0.024063 -0.001607 0.000728 0.000000 0.001671 0.000000
# 2 -0.001607 0.006574 -0.003485 0.000000 0.000290 0.000000
# 3 0.000728 -0.003485 0.013756 0.000000 0.007215 0.000000
# 4 0.000000 0.000000 0.000000 0.221990 0.000000 -0.034802
# 5 0.001671 0.000290 0.007215 0.000000 0.027729 0.000000
# 6 0.000000 0.000000 0.000000 -0.034802 0.000000 0.058814
#
#
# Mechanical properties :
#
#
# Convention : Reuss Voigt Hill
#
# Bulk Modulus (GPa) = 28.03895 51.91761 39.97828
# Shear Modulus (GPa) = 13.38539 30.67324 22.02931
#
# Velocity S-wave (km/s) = 2.29781 3.47840 2.94781
# Velocity P-wave (km/s) = 4.25442 6.05075 5.23028
#
# Compressibility (1/GPa) = 0.03566468
#
# Stress axis : x y z
#
# Youngs Moduli (GPa) = 41.55728 152.11081 72.69691
#
# Poissons Ratio (x) = 0.24444 -0.05293
# Poissons Ratio (y) = 0.06678 0.25337
# Poissons Ratio (z) = -0.03026 0.53016
#
# Static dielectric constant tensor:
#      x y z
#    x 2.011200 0.000000 -0.065540 
#    y 0.000000 2.020610 0.000000 
#    z -0.065540 0.000000 2.188060 
# 
# From -- ./inp_files/254410.got.cif
#   From: 2010.05.17/outbox.cif.g08.bks.cpg/sg12_128_cif.got.tgz:254410.got - 2010.06.03 13:09:07.
