data_PCOD9198483
_publ_section_title
;
Structure prediction by ZEFSAII (Michael W. Deem and Ramdas Pophale) SiO2 
 PCOD9198483
Probable space group: C 2/M
;
_chemical_formula_sum "Si O2"
_cell_formula_units_Z 56
_cell_length_a 9.426889
_cell_length_b 23.324655
_cell_length_c 14.604952
_cell_angle_alpha 90.000000
_cell_angle_beta 117.929930
_cell_angle_gamma 90.000000
_cell_volume 2837.270018
_symmetry_space_group_name_H-M "C 2/M"
_symmetry_group_IT_number 12
_symmetry_cell_setting 'monoclinic'
loop_
_space_group_symop_operation_xyz
x,y,z
-x,y,-z
-x,-y,-z
x,-y,z
1/2+x,1/2+y,z
1/2-x,1/2+y,-z
1/2-x,1/2-y,-z
1/2+x,1/2-y,z
loop_
_atom_site_type_symbol
_atom_site_label
_atom_site_fract_x
_atom_site_fract_y
_atom_site_fract_z
Si Si1 0.218743 0.061320 0.903915
Si Si2 0.858626 0.586947 0.128766
Si Si3 0.108254 0.183702 0.622973
Si Si4 0.800513 0.434570 0.719275
Si Si5 0.931537 0.132723 0.883504
Si Si6 0.379818 0.279972 0.724335
Si Si7 0.905901 0.287619 0.066221
O O1 0.291657 0.069098 0.826717
O O2 0.092192 0.111159 0.883640
O O3 0.132740 0.000000 0.877938
O O4 0.345407 0.059984 0.024346
O O5 0.683783 0.580901 0.120926
O O6 0.867581 0.653673 0.105490
O O7 0.007632 0.570559 0.236925
O O8 0.200768 0.121710 0.657329
O O9 0.237181 0.236087 0.655733
O O10 0.000000 0.183044 0.500000
O O11 0.989303 0.197088 0.673393
O O12 0.747816 0.500000 0.676410
O O13 0.831586 0.168116 0.777857
O O14 0.000000 0.159959 0.000000
O O15 0.489216 0.245961 0.829074
O O16 0.750000 0.250000 0.000000
O O17 0.000000 0.298939 0.000000
#
# Coordination Sequence:
#
# PCOD9198483 Si02
#       7
#     8   8   8   8   8   8   8
#     4  10  20  36  57  85 126 172 210 245 295 367
#     4  11  21  33  55  92 130 166 207 247 299 374
#     4  12  27  46  68  92 117 160 214 270 324 365
#     4  11  23  42  64  89 122 165 214 264 313 364
#     4  10  21  36  58  93 132 169 202 238 301 380
#     4  12  23  42  64  93 128 162 198 258 313 383
#     4  12  22  33  56  92 132 166 196 234 300 382
#
# _framework density 19.737280999999999
#
# number of rings (size 3 to 8) (size 9 to 14) (size 15 to 20)
#    0.000    0.857    2.857    6.857    0.000    4.571 
#    0.000    0.000    0.000    0.000    0.000    1.000 
#    0.000    0.000    0.000    0.000    0.000    0.000 
#
# Total GULP energy -156123.375342 kJ/mol
# GULP energy per Si atom -5575.834834 kJ/mol
# Density = 1.969236 g / cm^3
# Si number density = 19.737281 Si / 1000 Ang^3
#
#
#
# Elastic Constant Matrix: (Units=GPa)
#
#
# Indices 1 2 3 4 5 6 
#
# 1 83.8691 15.9437 29.0388 0.0000 4.0698 0.0000
# 2 15.9437 81.9442 31.2124 0.0000 12.5811 0.0000
# 3 29.0388 31.2124 117.1527 0.0000 16.9012 0.0000
# 4 0.0000 0.0000 0.0000 -17.3681 0.0000 -8.3853
# 5 4.0698 12.5811 16.9012 0.0000 26.9172 0.0000
# 6 0.0000 0.0000 0.0000 -8.3853 0.0000 11.8166
#
#
#
# Elastic Compliance Matrix: (Units=1/GPa)
#
#
# Indices 1 2 3 4 5 6 
#
# 1 0.013208 -0.001535 -0.002947 0.000000 0.000571 0.000000
# 2 -0.001535 0.014270 -0.002741 0.000000 -0.004717 0.000000
# 3 -0.002947 -0.002741 0.010719 0.000000 -0.005003 0.000000
# 4 0.000000 0.000000 0.000000 -0.042885 0.000000 -0.030432
# 5 0.000571 -0.004717 -0.005003 0.000000 0.042411 0.000000
# 6 0.000000 0.000000 0.000000 -0.030432 0.000000 0.063032
#
#
# Mechanical properties :
#
#
# Convention : Reuss Voigt Hill
#
# Bulk Modulus (GPa) = 42.10477 48.37285 45.23881
# Shear Modulus (GPa) = 40.61149 18.05789 29.33469
#
# Velocity S-wave (km/s) = 4.54100 3.02803 3.85938
# Velocity P-wave (km/s) = 6.99094 6.06522 6.54447
#
# Compressibility (1/GPa) = 0.02375028
#
# Stress axis : x y z
#
# Youngs Moduli (GPa) = 75.71231 70.07559 93.29656
#
# Poissons Ratio (x) = 0.10756 0.27497
# Poissons Ratio (y) = 0.11621 0.25573
# Poissons Ratio (z) = 0.22315 0.19208
#
# Static dielectric constant tensor:
#      x y z
#    x 1.789150 0.000000 0.006830 
#    y 0.000000 1.969030 0.000000 
#    z 0.006830 0.000000 1.638740 
# 
# From -- ./inp_files/199925.got.cif
#   From: 2010.05.17/outbox.cif.g08.bks.cpg/sg12_100_cif.got.tgz:199925.got - 2010.06.03 13:09:07.
