data_PCOD9198118
_publ_section_title
;
Structure prediction by ZEFSAII (Michael W. Deem and Ramdas Pophale) SiO2 
 PCOD9198118
Probable space group: C 2/M
;
_chemical_formula_sum "Si O2"
_cell_formula_units_Z 64
_cell_length_a 14.997235
_cell_length_b 7.914028
_cell_length_c 30.066324
_cell_angle_alpha 90.000000
_cell_angle_beta 119.140176
_cell_angle_gamma 90.000000
_cell_volume 3116.862964
_symmetry_space_group_name_H-M "C 2/M"
_symmetry_group_IT_number 12
_symmetry_cell_setting 'monoclinic'
loop_
_space_group_symop_operation_xyz
x,y,z
-x,y,-z
-x,-y,-z
x,-y,z
1/2+x,1/2+y,z
1/2-x,1/2+y,-z
1/2-x,1/2-y,-z
1/2+x,1/2-y,z
loop_
_atom_site_type_symbol
_atom_site_label
_atom_site_fract_x
_atom_site_fract_y
_atom_site_fract_z
Si Si1 0.671057 0.301974 0.694811
Si Si2 0.108584 0.293447 0.219231
Si Si3 0.921736 0.792784 0.419369
Si Si4 0.853056 0.797018 0.499331
Si Si5 0.063642 0.694912 0.753814
Si Si6 0.433153 0.301383 0.891973
Si Si7 0.284682 0.303667 0.136846
Si Si8 0.843461 0.796355 0.053976
O O1 0.690047 0.500000 0.691727
O O2 0.778490 0.234382 0.739467
O O3 0.631056 0.230796 0.638525
O O4 0.588167 0.284455 0.713668
O O5 0.107127 0.500000 0.215143
O O6 0.075884 0.223354 0.163463
O O7 0.028982 0.241927 0.238124
O O8 0.862876 0.740745 0.450148
O O9 0.040502 0.739882 0.452064
O O10 0.922035 0.000000 0.418727
O O11 0.750000 0.750000 0.500000
O O12 0.856449 0.000000 0.499354
O O13 0.043427 0.500000 0.738630
O O14 0.162911 0.710122 0.809430
O O15 0.424561 0.500000 0.900160
O O16 0.336730 0.210711 0.889925
O O17 0.544523 0.238156 0.933762
O O18 0.314232 0.500000 0.148289
O O19 0.323031 0.234721 0.099125
O O20 0.847902 0.000000 0.057395
O O21 0.750000 0.750000 0.000000
#
# Coordination Sequence:
#
# PCOD9198118 Si02
#       8
#     8   8   8   8   8   8   8   8
#     4  10  20  36  56  79 111 151 191 230 278 338
#     4  10  21  35  54  80 110 147 187 225 276 337
#     4   8  17  34  54  77 110 151 189 227 278 340
#     4   9  17  33  57  81 107 145 192 234 279 335
#     4  11  22  35  54  84 114 146 186 232 279 327
#     4  11  22  38  60  86 113 144 185 232 278 327
#     4  11  22  39  60  84 112 148 188 226 276 338
#     4  10  24  42  61  85 115 147 184 230 281 333
#
# _framework density 20.533466000000001
#
# number of rings (size 3 to 8) (size 9 to 14) (size 15 to 20)
#    0.000    2.000    2.500    1.875    0.000    4.000 
#    0.000    6.250    0.000    0.000    0.000    0.000 
#    0.000    0.000    0.000    0.000    0.000    0.000 
#
# Total GULP energy -178667.868959 kJ/mol
# GULP energy per Si atom -5583.370905 kJ/mol
# Density = 2.048673 g / cm^3
# Si number density = 20.533466 Si / 1000 Ang^3
#
#
#
# Elastic Constant Matrix: (Units=GPa)
#
#
# Indices 1 2 3 4 5 6 
#
# 1 85.2531 -4.0641 -18.4109 0.0000 5.4439 0.0000
# 2 -4.0641 18.8601 -2.2457 0.0000 2.4784 0.0000
# 3 -18.4109 -2.2457 36.3795 0.0000 2.4327 0.0000
# 4 0.0000 0.0000 0.0000 12.3023 0.0000 -4.1980
# 5 5.4439 2.4784 2.4327 0.0000 18.2673 0.0000
# 6 0.0000 0.0000 0.0000 -4.1980 0.0000 26.6262
#
#
#
# Elastic Compliance Matrix: (Units=1/GPa)
#
#
# Indices 1 2 3 4 5 6 
#
# 1 0.014006 0.004712 0.007770 0.000000 -0.005848 0.000000
# 2 0.004712 0.056111 0.006509 0.000000 -0.009884 0.000000
# 3 0.007770 0.006509 0.032324 0.000000 -0.007503 0.000000
# 4 0.000000 0.000000 0.000000 0.085908 0.000000 0.013545
# 5 -0.005848 -0.009884 -0.007503 0.000000 0.058826 0.000000
# 6 0.000000 0.000000 0.000000 0.013545 0.000000 0.039692
#
#
# Mechanical properties :
#
#
# Convention : Reuss Voigt Hill
#
# Bulk Modulus (GPa) = 7.12138 10.11681 8.61909
# Shear Modulus (GPa) = 16.90946 22.45338 19.68142
#
# Velocity S-wave (km/s) = 2.87280 3.31040 3.09933
# Velocity P-wave (km/s) = 3.80521 4.42147 4.12486
#
# Compressibility (1/GPa) = 0.14042230
#
# Stress axis : x y z
#
# Youngs Moduli (GPa) = 71.39915 17.82180 30.93693
#
# Poissons Ratio (x) = -0.08397 -0.24038
# Poissons Ratio (y) = -0.33641 -0.20137
# Poissons Ratio (z) = -0.55477 -0.11601
#
# Static dielectric constant tensor:
#      x y z
#    x 1.735700 0.000000 0.010890 
#    y 0.000000 1.741460 0.000000 
#    z 0.010890 0.000000 1.715070 
# 
# From -- ./inp_files/375073.got.cif
#   From: 2010.05.17/outbox.cif.g08.bks.cpg/sg12_188_cif.got.tgz:375073.got - 2010.06.03 13:09:07.
