data_PCOD9198240
_publ_section_title
;
Structure prediction by ZEFSAII (Michael W. Deem and Ramdas Pophale) SiO2 
 PCOD9198240
Probable space group: C 2/M
;
_chemical_formula_sum "Si O2"
_cell_formula_units_Z 56
_cell_length_a 15.000296
_cell_length_b 8.456508
_cell_length_c 26.966927
_cell_angle_alpha 90.000000
_cell_angle_beta 65.058061
_cell_angle_gamma 90.000000
_cell_volume 3101.723013
_symmetry_space_group_name_H-M "C 2/M"
_symmetry_group_IT_number 12
_symmetry_cell_setting 'monoclinic'
loop_
_space_group_symop_operation_xyz
x,y,z
-x,y,-z
-x,-y,-z
x,-y,z
1/2+x,1/2+y,z
1/2-x,1/2+y,-z
1/2-x,1/2-y,-z
1/2+x,1/2-y,z
loop_
_atom_site_type_symbol
_atom_site_label
_atom_site_fract_x
_atom_site_fract_y
_atom_site_fract_z
Si Si1 0.679846 0.190481 0.560202
Si Si2 0.733932 0.311934 0.356815
Si Si3 0.024545 0.690633 0.437601
Si Si4 0.036142 0.809055 0.148580
Si Si5 0.952761 0.192791 0.062443
Si Si6 0.322704 0.690310 0.234048
Si Si7 0.238751 0.690975 0.148647
O O1 0.750000 0.250000 0.500000
O O2 0.710974 0.249537 0.606834
O O3 0.569267 0.234217 0.572915
O O4 0.686468 0.000000 0.558600
O O5 0.745325 0.500000 0.352139
O O6 0.621295 0.268393 0.393240
O O7 0.775905 0.243278 0.296313
O O8 0.036986 0.500000 0.434484
O O9 0.000000 0.737441 0.500000
O O10 0.137503 0.749991 0.148533
O O11 0.015460 0.759671 0.096309
O O12 0.936411 0.757489 0.200639
O O13 0.038674 0.000000 0.148783
O O14 0.838726 0.240274 0.096399
O O15 0.953011 0.000000 0.062114
O O16 0.000000 0.247890 0.000000
O O17 0.323962 0.500000 0.232120
O O18 0.259463 0.742476 0.200742
O O19 0.235804 0.500000 0.148884
#
# Coordination Sequence:
#
# PCOD9198240 Si02
#       7
#     8   8   8   8   8   8   8
#     4  10  21  36  54  77 103 131 164 202 248 303
#     4  11  23  36  54  81 107 130 167 221 265 299
#     4  10  20  36  57  77 102 139 171 196 245 317
#     4   9  18  33  54  78 104 138 179 220 261 307
#     4   8  15  30  51  76 109 147 181 211 254 316
#     4   9  20  38  54  70 100 140 177 210 256 321
#     4   9  18  33  54  77 102 138 179 219 261 307
#
# _framework density 18.054480000000002
#
# number of rings (size 3 to 8) (size 9 to 14) (size 15 to 20)
#    0.000    2.571    1.429    2.143    0.000    4.286 
#    0.000    6.429    0.000    0.857    0.000    0.000 
#    0.000    0.000    0.000    0.000    0.000    0.000 
#
# Total GULP energy -156130.242333 kJ/mol
# GULP energy per Si atom -5576.080083 kJ/mol
# Density = 1.801339 g / cm^3
# Si number density = 18.054480 Si / 1000 Ang^3
#
#
#
# Elastic Constant Matrix: (Units=GPa)
#
#
# Indices 1 2 3 4 5 6 
#
# 1 189.0062 25.7886 103.2872 0.0000 2.7706 0.0000
# 2 25.7886 6.5131 21.6629 0.0000 0.6999 0.0000
# 3 103.2872 21.6629 186.6357 0.0000 6.5614 0.0000
# 4 0.0000 0.0000 0.0000 14.2615 0.0000 -0.2077
# 5 2.7706 0.6999 6.5614 0.0000 14.1963 0.0000
# 6 0.0000 0.0000 0.0000 -0.2077 0.0000 30.3342
#
#
#
# Elastic Compliance Matrix: (Units=1/GPa)
#
#
# Indices 1 2 3 4 5 6 
#
# 1 0.011878 -0.040983 -0.001836 0.000000 0.000551 0.000000
# 2 -0.040983 0.391506 -0.022734 0.000000 -0.000795 0.000000
# 3 -0.001836 -0.022734 0.009109 0.000000 -0.002731 0.000000
# 4 0.000000 0.000000 0.000000 0.070126 0.000000 0.000480
# 5 0.000551 -0.000795 -0.002731 0.000000 0.071635 0.000000
# 6 0.000000 0.000000 0.000000 0.000480 0.000000 0.032969
#
#
# Mechanical properties :
#
#
# Convention : Reuss Voigt Hill
#
# Bulk Modulus (GPa) = 3.55382 75.95917 39.75649
# Shear Modulus (GPa) = 6.15669 27.18616 16.67143
#
# Velocity S-wave (km/s) = 1.84864 3.88465 3.04204
# Velocity P-wave (km/s) = 2.55525 7.89204 5.86573
#
# Compressibility (1/GPa) = 0.28138731
#
# Stress axis : x y z
#
# Youngs Moduli (GPa) = 84.19010 2.55424 109.78502
#
# Poissons Ratio (x) = 0.10468 0.20154
# Poissons Ratio (y) = 3.45039 2.49581
# Poissons Ratio (z) = 0.15456 0.05807
#
# Static dielectric constant tensor:
#      x y z
#    x 1.608580 0.000000 0.016750 
#    y 0.000000 1.626790 0.000000 
#    z 0.016750 0.000000 1.606460 
# 
# From -- ./inp_files/309051.got.cif
#   From: 2010.05.17/outbox.cif.g08.bks.cpg/sg12_155_cif.got.tgz:309051.got - 2010.06.03 13:09:07.
