data_PCOD9198496
_publ_section_title
;
Structure prediction by ZEFSAII (Michael W. Deem and Ramdas Pophale) SiO2 
 PCOD9198496
Probable space group: C 2/M
;
_chemical_formula_sum "Si O2"
_cell_formula_units_Z 64
_cell_length_a 15.170736
_cell_length_b 14.970054
_cell_length_c 23.393308
_cell_angle_alpha 90.000000
_cell_angle_beta 38.485236
_cell_angle_gamma 90.000000
_cell_volume 3306.210474
_symmetry_space_group_name_H-M "C 2/M"
_symmetry_group_IT_number 12
_symmetry_cell_setting 'monoclinic'
loop_
_space_group_symop_operation_xyz
x,y,z
-x,y,-z
-x,-y,-z
x,-y,z
1/2+x,1/2+y,z
1/2-x,1/2+y,-z
1/2-x,1/2-y,-z
1/2+x,1/2-y,z
loop_
_atom_site_type_symbol
_atom_site_label
_atom_site_fract_x
_atom_site_fract_y
_atom_site_fract_z
Si Si1 0.832974 0.167306 0.929502
Si Si2 0.380158 0.395677 0.423107
Si Si3 0.341627 0.103784 0.372617
Si Si4 0.459289 0.095386 0.954952
Si Si5 0.835892 0.898501 0.650299
Si Si6 0.470821 0.273688 0.745200
Si Si7 0.698326 0.768413 0.805361
Si Si8 0.543180 0.397575 0.914597
O O1 0.943594 0.198143 0.824529
O O2 0.910777 0.113603 0.939805
O O3 0.750000 0.250000 0.000000
O O4 0.706979 0.110097 0.966302
O O5 0.372888 0.500000 0.410195
O O6 0.233542 0.371586 0.529116
O O7 0.503070 0.389535 0.409457
O O8 0.427648 0.337170 0.344724
O O9 0.217464 0.105574 0.387538
O O10 0.462745 0.174578 0.294457
O O11 0.390268 0.000000 0.350536
O O12 0.550965 0.178689 0.887424
O O13 0.497468 0.000000 0.907585
O O14 0.500000 0.089963 0.000000
O O15 0.761470 0.814797 0.717899
O O16 0.795271 0.000000 0.690686
O O17 0.315788 0.282959 0.794774
O O18 0.662629 0.664763 0.826763
O O19 0.586593 0.500000 0.897773
O O20 0.500000 0.364481 0.000000
#
# Coordination Sequence:
#
# PCOD9198496 Si02
#       8
#     8   8   8   8   8   8   8   8
#     4  12  23  40  62  84 118 157 198 245 295 345
#     4   9  19  36  60  85 117 152 188 242 300 350
#     4  10  20  36  57  87 119 151 193 239 288 352
#     4  11  22  37  60  86 116 151 192 244 299 349
#     4   9  18  33  57  87 116 148 186 233 298 356
#     4  11  23  36  59  87 117 155 196 241 294 350
#     4  11  20  38  56  80 117 154 190 243 289 342
#     4  11  24  41  58  76 108 157 206 245 285 336
#
# _framework density 19.357509
#
# number of rings (size 3 to 8) (size 9 to 14) (size 15 to 20)
#    0.000    1.500    2.500    3.375    0.000    3.500 
#    0.000    0.625    0.000    0.000    0.000    0.000 
#    0.000   14.000    0.000    0.000    0.000    0.000 
#
# Total GULP energy -178392.800041 kJ/mol
# GULP energy per Si atom -5574.775001 kJ/mol
# Density = 1.931345 g / cm^3
# Si number density = 19.357509 Si / 1000 Ang^3
#
#
#
# Elastic Constant Matrix: (Units=GPa)
#
#
# Indices 1 2 3 4 5 6 
#
# 1 70.9686 13.0351 31.3513 0.0000 13.2927 0.0000
# 2 13.0351 96.2033 48.2818 0.0000 8.7415 0.0000
# 3 31.3513 48.2818 92.7816 -0.0004 6.7225 0.0001
# 4 0.0000 0.0000 -0.0004 -53.8035 0.0001 14.0842
# 5 13.2927 8.7415 6.7225 0.0001 16.1809 0.0000
# 6 0.0000 0.0000 0.0001 14.0842 0.0000 13.3237
#
#
#
# Elastic Compliance Matrix: (Units=1/GPa)
#
#
# Indices 1 2 3 4 5 6 
#
# 1 0.019254 0.001934 -0.006486 0.000000 -0.014168 0.000000
# 2 0.001934 0.014619 -0.007808 0.000000 -0.006242 0.000000
# 3 -0.006486 -0.007808 0.016848 0.000000 0.002547 0.000000
# 4 0.000000 0.000000 0.000000 -0.014558 0.000000 0.015389
# 5 -0.014168 -0.006242 0.002547 0.000000 0.075754 0.000000
# 6 0.000000 0.000000 0.000000 0.015389 0.000000 0.058787
#
#
# Mechanical properties :
#
#
# Convention : Reuss Voigt Hill
#
# Bulk Modulus (GPa) = 38.46131 49.47665 43.96898
# Shear Modulus (GPa) = 24.49868 6.29259 15.39564
#
# Velocity S-wave (km/s) = 3.56137 1.80493 2.82322
# Velocity P-wave (km/s) = 6.06822 5.47345 5.77849
#
# Compressibility (1/GPa) = 0.02600016
#
# Stress axis : x y z
#
# Youngs Moduli (GPa) = 51.93607 68.40586 59.35293
#
# Poissons Ratio (x) = -0.13226 0.38495
# Poissons Ratio (y) = -0.10042 0.46345
# Poissons Ratio (z) = 0.33685 0.53414
#
# Static dielectric constant tensor:
#      x y z
#    x 1.682160 0.000000 -0.000430 
#    y 0.000000 1.707330 0.000000 
#    z -0.000430 0.000000 1.705290 
# 
# From -- ./inp_files/340150.got.cif
#   From: 2010.05.17/outbox.cif.g08.bks.cpg/sg12_171_cif.got.tgz:340150.got - 2010.06.03 13:09:07.
