data_PCOD9198045
_publ_section_title
;
Structure prediction by ZEFSAII (Michael W. Deem and Ramdas Pophale) SiO2 
 PCOD9198045
Probable space group: C 2/M
;
_chemical_formula_sum "Si O2"
_cell_formula_units_Z 56
_cell_length_a 25.602050
_cell_length_b 7.651423
_cell_length_c 19.810939
_cell_angle_alpha 90.000000
_cell_angle_beta 131.694813
_cell_angle_gamma 90.000000
_cell_volume 2897.792183
_symmetry_space_group_name_H-M "C 2/M"
_symmetry_group_IT_number 12
_symmetry_cell_setting 'monoclinic'
loop_
_space_group_symop_operation_xyz
x,y,z
-x,y,-z
-x,-y,-z
x,-y,z
1/2+x,1/2+y,z
1/2-x,1/2+y,-z
1/2-x,1/2-y,-z
1/2+x,1/2-y,z
loop_
_atom_site_type_symbol
_atom_site_label
_atom_site_fract_x
_atom_site_fract_y
_atom_site_fract_z
Si Si1 0.216283 0.713670 0.812874
Si Si2 0.298880 0.793042 0.604668
Si Si3 0.551948 0.290437 0.103515
Si Si4 0.956662 0.711933 0.749551
Si Si5 0.711144 0.292305 0.253249
Si Si6 0.412494 0.199742 0.208701
Si Si7 0.682988 0.707420 0.988458
O O1 0.212706 0.500000 0.814594
O O2 0.230398 0.771398 0.748972
O O3 0.146584 0.777740 0.792000
O O4 0.287911 0.762092 0.914054
O O5 0.250000 0.750000 0.500000
O O6 0.378195 0.722809 0.667717
O O7 0.270735 0.735600 0.653304
O O8 0.305244 0.000000 0.613131
O O9 0.555639 0.500000 0.097934
O O10 0.526082 0.257643 0.157784
O O11 0.632360 0.222340 0.171412
O O12 0.500000 0.224172 0.000000
O O13 0.957910 0.500000 0.746578
O O14 0.012201 0.780188 0.742295
O O15 0.706764 0.500000 0.238336
O O16 0.378447 0.200526 0.104398
O O17 0.422697 0.000000 0.240053
O O18 0.668639 0.500000 0.976820
O O19 0.750000 0.750000 0.000000
#
# Coordination Sequence:
#
# PCOD9198045 Si02
#       7
#     8   8   8   8   8   8   8
#     4   8  15  27  45  66  93 127 163 197 230 270
#     4  10  20  36  56  76  94 117 152 199 250 300
#     4   9  18  29  44  66  95 130 165 199 235 277
#     4   9  19  33  49  70  97 125 158 198 244 292
#     4   9  17  31  49  71  96 125 160 197 237 282
#     4   9  17  30  45  66  96 130 164 200 237 279
#     4   9  16  26  41  62  91 131 173 206 231 265
#
# _framework density 19.325057999999999
#
# number of rings (size 3 to 8) (size 9 to 14) (size 15 to 20)
#    0.000    3.000    0.000    1.714    2.000    1.429 
#    0.000    3.571    0.000    0.857    0.000    6.000 
#    0.000    0.000    0.000    0.000    0.000    0.000 
#
# Total GULP energy -155873.401169 kJ/mol
# GULP energy per Si atom -5566.907185 kJ/mol
# Density = 1.928107 g / cm^3
# Si number density = 19.325058 Si / 1000 Ang^3
#
#
#
# Elastic Constant Matrix: (Units=GPa)
#
#
# Indices 1 2 3 4 5 6 
#
# 1 152.3905 2.0016 66.0179 0.0000 -19.2887 0.0000
# 2 2.0016 39.0843 -4.3329 0.0000 -0.0465 -0.0001
# 3 66.0179 -4.3329 104.3598 0.0000 -12.1650 0.0000
# 4 0.0000 0.0000 0.0000 17.1624 0.0000 -3.2295
# 5 -19.2887 -0.0465 -12.1650 0.0000 16.6591 0.0000
# 6 0.0000 -0.0001 0.0000 -3.2295 0.0000 12.5116
#
#
#
# Elastic Compliance Matrix: (Units=1/GPa)
#
#
# Indices 1 2 3 4 5 6 
#
# 1 0.009869 -0.001097 -0.005418 0.000000 0.007467 0.000000
# 2 -0.001097 0.025839 0.001779 0.000000 0.000101 0.000000
# 3 -0.005418 0.001779 0.013502 0.000000 0.003591 0.000000
# 4 0.000000 0.000000 0.000000 0.061241 0.000000 0.015807
# 5 0.007467 0.000101 0.003591 0.000000 0.071296 0.000000
# 6 0.000000 0.000000 0.000000 0.015807 0.000000 0.084006
#
#
# Mechanical properties :
#
#
# Convention : Reuss Voigt Hill
#
# Bulk Modulus (GPa) = 25.16554 47.02309 36.09432
# Shear Modulus (GPa) = 17.33270 24.74317 21.03794
#
# Velocity S-wave (km/s) = 2.99808 3.58210 3.30303
# Velocity P-wave (km/s) = 5.00352 6.44160 5.76755
#
# Compressibility (1/GPa) = 0.03973687
#
# Stress axis : x y z
#
# Youngs Moduli (GPa) = 101.32861 38.70084 74.06175
#
# Poissons Ratio (x) = 0.04246 0.40128
# Poissons Ratio (y) = 0.11118 -0.13173
# Poissons Ratio (z) = 0.54902 -0.06883
#
# Static dielectric constant tensor:
#      x y z
#    x 1.730090 0.000000 0.018860 
#    y 0.000000 1.705100 0.000000 
#    z 0.018860 0.000000 1.647510 
# 
# From -- ./inp_files/291956.got.cif
#   From: 2010.05.17/outbox.cif.g08.bks.cpg/sg12_146_cif.got.tgz:291956.got - 2010.06.03 13:09:07.
