data_PCOD9198060
_publ_section_title
;
Structure prediction by ZEFSAII (Michael W. Deem and Ramdas Pophale) SiO2 
 PCOD9198060
Probable space group: C 2/M
;
_chemical_formula_sum "Si O2"
_cell_formula_units_Z 48
_cell_length_a 11.156979
_cell_length_b 24.256808
_cell_length_c 9.065383
_cell_angle_alpha 90.000000
_cell_angle_beta 92.371564
_cell_angle_gamma 90.000000
_cell_volume 2451.287703
_symmetry_space_group_name_H-M "C 2/M"
_symmetry_group_IT_number 12
_symmetry_cell_setting 'monoclinic'
loop_
_space_group_symop_operation_xyz
x,y,z
-x,y,-z
-x,-y,-z
x,-y,z
1/2+x,1/2+y,z
1/2-x,1/2+y,-z
1/2-x,1/2-y,-z
1/2+x,1/2-y,z
loop_
_atom_site_type_symbol
_atom_site_label
_atom_site_fract_x
_atom_site_fract_y
_atom_site_fract_z
Si Si1 0.746145 0.563285 0.629581
Si Si2 0.898290 0.140638 0.600517
Si Si3 0.084944 0.337813 0.319405
Si Si4 0.660420 0.794539 0.634085
Si Si5 0.218662 0.792780 0.871636
Si Si6 0.931870 0.100134 0.135130
O O1 0.769502 0.500000 0.596502
O O2 0.664334 0.593537 0.502577
O O3 0.864165 0.601474 0.644464
O O4 0.670623 0.568087 0.778486
O O5 0.793509 0.180778 0.648059
O O6 0.000000 0.167053 0.500000
O O7 0.966825 0.115003 0.740931
O O8 0.126322 0.298413 0.458844
O O9 0.157046 0.317560 0.181826
O O10 0.942969 0.332793 0.300310
O O11 0.659568 0.738569 0.727920
O O12 0.132401 0.842461 0.915330
O O13 0.250000 0.750000 0.000000
O O14 0.000000 0.074125 0.000000
#
# Coordination Sequence:
#
# PCOD9198060 Si02
#       6
#     8   8   8   8   8   8
#     4   9  19  39  62  81 110 148 186 241 294 332
#     4   9  19  35  56  81 112 142 188 232 281 342
#     4   9  21  38  53  85 109 145 199 231 275 347
#     4  10  20  36  56  77 115 150 188 231 284 328
#     4  11  23  35  54  79 114 159 190 228 281 335
#     4  10  21  35  53  85 117 143 193 233 277 343
#
# _framework density 19.581544999999998
#
# number of rings (size 3 to 8) (size 9 to 14) (size 15 to 20)
#    0.000    2.333    0.000    2.500    4.667    3.333 
#    6.000    6.667    0.000    0.000    0.000   15.167 
#    0.000    0.000    0.000    0.000    0.000    0.000 
#
# Total GULP energy -133933.231774 kJ/mol
# GULP energy per Si atom -5580.551324 kJ/mol
# Density = 1.953698 g / cm^3
# Si number density = 19.581545 Si / 1000 Ang^3
#
#
#
# Elastic Constant Matrix: (Units=GPa)
#
#
# Indices 1 2 3 4 5 6 
#
# 1 114.3001 24.6411 4.2582 0.0000 -14.5301 0.0000
# 2 24.6411 94.2326 8.3343 0.0000 0.9727 0.0000
# 3 4.2582 8.3343 48.2328 0.0000 -13.1889 0.0000
# 4 0.0000 0.0000 0.0000 14.6052 0.0000 0.5991
# 5 -14.5301 0.9727 -13.1889 0.0000 21.4363 0.0000
# 6 0.0000 0.0000 0.0000 0.5991 0.0000 9.5682
#
#
#
# Elastic Compliance Matrix: (Units=1/GPa)
#
#
# Indices 1 2 3 4 5 6 
#
# 1 0.010376 -0.002965 0.001871 0.000000 0.008319 0.000000
# 2 -0.002965 0.011693 -0.002950 0.000000 -0.004355 0.000000
# 3 0.001871 -0.002950 0.025801 0.000000 0.017277 0.000000
# 4 0.000000 0.000000 0.000000 0.068645 0.000000 -0.004298
# 5 0.008319 -0.004355 0.017277 0.000000 0.063116 0.000000
# 6 0.000000 0.000000 0.000000 -0.004298 0.000000 0.104782
#
#
# Mechanical properties :
#
#
# Convention : Reuss Voigt Hill
#
# Bulk Modulus (GPa) = 25.13574 36.80361 30.96968
# Shear Modulus (GPa) = 16.35265 23.75740 20.05503
#
# Velocity S-wave (km/s) = 2.89295 3.48696 3.20375
# Velocity P-wave (km/s) = 4.90135 5.92011 5.43465
#
# Compressibility (1/GPa) = 0.03978399
#
# Stress axis : x y z
#
# Youngs Moduli (GPa) = 96.37825 85.52083 38.75748
#
# Poissons Ratio (x) = 0.25353 -0.07251
# Poissons Ratio (y) = 0.28572 0.11432
# Poissons Ratio (z) = -0.18031 0.25225
#
# Static dielectric constant tensor:
#      x y z
#    x 1.695070 0.000000 -0.017800 
#    y 0.000000 1.682600 0.000000 
#    z -0.017800 0.000000 1.710980 
# 
# From -- ./inp_files/50602.got.cif
#   From: 2010.05.17/outbox.cif.g08.bks.cpg/sg12_26_cif.got.tgz:50602.got - 2010.06.03 13:09:07.
