data_PCOD9198310
_publ_section_title
;
Structure prediction by ZEFSAII (Michael W. Deem and Ramdas Pophale) SiO2 
 PCOD9198310
Probable space group: C 2/M
;
_chemical_formula_sum "Si O2"
_cell_formula_units_Z 64
_cell_length_a 16.829949
_cell_length_b 8.911693
_cell_length_c 27.159003
_cell_angle_alpha 90.000000
_cell_angle_beta 49.750913
_cell_angle_gamma 90.000000
_cell_volume 3108.991513
_symmetry_space_group_name_H-M "C 2/M"
_symmetry_group_IT_number 12
_symmetry_cell_setting 'monoclinic'
loop_
_space_group_symop_operation_xyz
x,y,z
-x,y,-z
-x,-y,-z
x,-y,z
1/2+x,1/2+y,z
1/2-x,1/2+y,-z
1/2-x,1/2-y,-z
1/2+x,1/2-y,z
loop_
_atom_site_type_symbol
_atom_site_label
_atom_site_fract_x
_atom_site_fract_y
_atom_site_fract_z
Si Si1 0.128024 0.825267 0.533331
Si Si2 0.340292 0.329315 0.738412
Si Si3 0.723566 0.681056 0.935650
Si Si4 0.583130 0.179763 0.078123
Si Si5 0.450623 0.822477 0.333101
Si Si6 0.359754 0.320408 0.141073
Si Si7 0.755871 0.171855 0.398382
Si Si8 0.102431 0.162699 0.399720
O O1 0.087073 0.748953 0.599826
O O2 0.210066 0.731186 0.468805
O O3 0.020755 0.828857 0.545598
O O4 0.159209 0.000000 0.526791
O O5 0.328750 0.500000 0.760964
O O6 0.438850 0.248673 0.724393
O O7 0.234981 0.238694 0.787934
O O8 0.370017 0.336371 0.669016
O O9 0.713433 0.500000 0.945021
O O10 0.843955 0.717272 0.903027
O O11 0.679116 0.719661 0.899223
O O12 0.651711 0.762620 0.004590
O O13 0.468924 0.251017 0.115911
O O14 0.572444 0.000000 0.081352
O O15 0.352606 0.770069 0.340189
O O16 0.458684 0.000000 0.333185
O O17 0.368671 0.500000 0.139242
O O18 0.660679 0.199939 0.400415
O O19 0.787125 0.000000 0.388495
O O20 0.138895 0.000000 0.405599
#
# Coordination Sequence:
#
# PCOD9198310 Si02
#       8
#     8   8   8   8   8   8   8   8
#     4  10  20  36  57  80 110 143 179 226 284 346
#     4  10  22  42  62  81 109 146 190 238 285 340
#     4   9  20  38  59  88 127 164 198 243 299 356
#     4  10  20  36  60  91 125 161 201 249 299 349
#     4  11  22  38  58  79 108 145 184 230 286 342
#     4  11  22  38  61  88 120 163 206 244 296 358
#     4  12  23  34  53  83 112 140 182 231 281 342
#     4   9  20  38  57  77 106 144 180 227 288 343
#
# _framework density 20.585453000000001
#
# number of rings (size 3 to 8) (size 9 to 14) (size 15 to 20)
#    0.000    1.750    0.000    5.625    0.000    7.500 
#    2.250    0.000    0.000    0.000    0.000    0.000 
#    0.000    0.000    0.000    0.000    0.000    0.000 
#
# Total GULP energy -178545.296551 kJ/mol
# GULP energy per Si atom -5579.540517 kJ/mol
# Density = 2.053860 g / cm^3
# Si number density = 20.585453 Si / 1000 Ang^3
#
#
#
# Elastic Constant Matrix: (Units=GPa)
#
#
# Indices 1 2 3 4 5 6 
#
# 1 92.1941 32.5798 33.7571 0.0000 -36.5372 0.0000
# 2 32.5798 83.8273 19.1273 0.0000 -17.1903 0.0002
# 3 33.7571 19.1273 68.3524 0.0000 -37.1317 0.0000
# 4 0.0000 0.0000 0.0000 29.2322 0.0000 -8.7859
# 5 -36.5372 -17.1903 -37.1317 0.0000 36.8328 0.0000
# 6 0.0000 0.0002 0.0000 -8.7859 0.0000 36.9486
#
#
#
# Elastic Compliance Matrix: (Units=1/GPa)
#
#
# Indices 1 2 3 4 5 6 
#
# 1 0.019089 -0.003961 0.002130 0.000000 0.019235 0.000000
# 2 -0.003961 0.014032 -0.001210 0.000000 0.001400 0.000000
# 3 0.002130 -0.001210 0.032624 0.000000 0.034437 0.000000
# 4 0.000000 0.000000 0.000000 0.036842 0.000000 0.008760
# 5 0.019235 0.001400 0.034437 0.000000 0.081600 0.000000
# 6 0.000000 0.000000 0.000000 0.008760 0.000000 0.029148
#
#
# Mechanical properties :
#
#
# Convention : Reuss Voigt Hill
#
# Bulk Modulus (GPa) = 16.76054 46.14469 31.45261
# Shear Modulus (GPa) = 20.89384 31.19669 26.04526
#
# Velocity S-wave (km/s) = 3.18933 3.89713 3.56086
# Velocity P-wave (km/s) = 4.66069 6.53567 5.67614
#
# Compressibility (1/GPa) = 0.05966395
#
# Stress axis : x y z
#
# Youngs Moduli (GPa) = 52.38517 71.26653 30.65191
#
# Poissons Ratio (x) = 0.28226 -0.06528
# Poissons Ratio (y) = 0.20748 0.03708
# Poissons Ratio (z) = -0.11157 0.08622
#
# Static dielectric constant tensor:
#      x y z
#    x 1.888490 0.000000 0.015600 
#    y 0.000000 1.715850 0.000000 
#    z 0.015600 0.000000 1.706450 
# 
# From -- ./inp_files/378153.got.cif
#   From: 2010.05.17/outbox.cif.g08.bks.cpg/sg12_190_cif.got.tgz:378153.got - 2010.06.03 13:09:07.
