data_PCOD9198220
_publ_section_title
;
Structure prediction by ZEFSAII (Michael W. Deem and Ramdas Pophale) SiO2 
 PCOD9198220
Probable space group: C 2/M
;
_chemical_formula_sum "Si O2"
_cell_formula_units_Z 64
_cell_length_a 22.819193
_cell_length_b 22.736267
_cell_length_c 12.080874
_cell_angle_alpha 90.000000
_cell_angle_beta 150.288874
_cell_angle_gamma 90.000000
_cell_volume 3106.512084
_symmetry_space_group_name_H-M "C 2/M"
_symmetry_group_IT_number 12
_symmetry_cell_setting 'monoclinic'
loop_
_space_group_symop_operation_xyz
x,y,z
-x,y,-z
-x,-y,-z
x,-y,z
1/2+x,1/2+y,z
1/2-x,1/2+y,-z
1/2-x,1/2-y,-z
1/2+x,1/2-y,z
loop_
_atom_site_type_symbol
_atom_site_label
_atom_site_fract_x
_atom_site_fract_y
_atom_site_fract_z
Si Si1 0.680807 0.149152 0.124309
Si Si2 0.220983 0.339674 0.941627
Si Si3 0.463157 0.930906 0.757083
Si Si4 0.202372 0.430369 0.722910
Si Si5 0.483655 0.748476 0.808583
Si Si6 0.946501 0.768508 0.302388
Si Si7 0.397876 0.631751 0.899987
Si Si8 0.199634 0.662358 0.398619
O O1 0.744522 0.154932 0.346949
O O2 0.744839 0.150252 0.111329
O O3 0.596355 0.092121 0.980863
O O4 0.590238 0.204314 0.980670
O O5 0.188975 0.395389 0.815209
O O6 0.114168 0.293066 0.763630
O O7 0.336966 0.308111 0.082134
O O8 0.403418 0.918125 0.538812
O O9 0.389122 0.891812 0.721914
O O10 0.452616 0.000000 0.760926
O O11 0.207060 0.500000 0.747782
O O12 0.322295 0.406912 0.861026
O O13 0.457393 0.740753 0.635296
O O14 0.378452 0.779381 0.703824
O O15 0.534281 0.687507 0.936393
O O16 0.000000 0.795331 0.500000
O O17 0.302190 0.656070 0.655897
O O18 0.500000 0.597707 0.000000
#
# Coordination Sequence:
#
# PCOD9198220 Si02
#       8
#     8   8   8   8   8   8   8   8
#     4  10  21  35  54  88 125 157 189 238 296 362
#     4  10  22  38  56  87 122 158 199 236 295 355
#     4   9  19  36  61  89 118 156 197 246 304 354
#     4  10  22  41  62  85 117 157 206 253 292 344
#     4  10  20  36  56  87 120 156 195 236 300 356
#     4  10  22  35  60  88 122 157 191 240 293 359
#     4  11  23  38  62  89 117 157 202 250 301 354
#     4  10  22  37  57  89 125 154 195 249 301 354
#
# _framework density 20.601883999999998
#
# number of rings (size 3 to 8) (size 9 to 14) (size 15 to 20)
#    0.000    2.000    1.250    2.250    7.000    4.750 
#    0.000    1.250    0.000    0.375    0.000    0.000 
#    0.000    0.000    0.000    0.000    0.000    0.000 
#
# Total GULP energy -178721.611453 kJ/mol
# GULP energy per Si atom -5585.050358 kJ/mol
# Density = 2.055499 g / cm^3
# Si number density = 20.601884 Si / 1000 Ang^3
#
#
#
# Elastic Constant Matrix: (Units=GPa)
#
#
# Indices 1 2 3 4 5 6 
#
# 1 102.6834 25.2215 30.9092 0.0000 -13.4011 0.0000
# 2 25.2215 78.3210 23.1580 0.0000 -0.8814 0.0000
# 3 30.9092 23.1580 51.2656 0.0000 -6.9580 0.0000
# 4 0.0000 0.0000 0.0000 16.9801 0.0000 -4.7999
# 5 -13.4011 -0.8814 -6.9580 0.0000 29.8170 0.0000
# 6 0.0000 0.0000 0.0000 -4.7999 0.0000 23.6572
#
#
#
# Elastic Compliance Matrix: (Units=1/GPa)
#
#
# Indices 1 2 3 4 5 6 
#
# 1 0.012660 -0.002241 -0.006049 0.000000 0.004212 0.000000
# 2 -0.002241 0.015171 -0.005761 0.000000 -0.001903 0.000000
# 3 -0.006049 -0.005761 0.026193 0.000000 0.003223 0.000000
# 4 0.000000 0.000000 0.000000 0.062476 0.000000 0.012676
# 5 0.004212 -0.001903 0.003223 0.000000 0.036127 0.000000
# 6 0.000000 0.000000 0.000000 0.012676 0.000000 0.044842
#
#
# Mechanical properties :
#
#
# Convention : Reuss Voigt Hill
#
# Bulk Modulus (GPa) = 38.57502 43.42750 41.00126
# Shear Modulus (GPa) = 21.34829 24.28961 22.81895
#
# Velocity S-wave (km/s) = 3.22254 3.43738 3.33169
# Velocity P-wave (km/s) = 5.71061 6.07283 5.89450
#
# Compressibility (1/GPa) = 0.02592351
#
# Stress axis : x y z
#
# Youngs Moduli (GPa) = 78.99160 65.91332 38.17817
#
# Poissons Ratio (x) = 0.14770 0.23093
# Poissons Ratio (y) = 0.17700 0.21993
# Poissons Ratio (z) = 0.47781 0.37970
#
# Static dielectric constant tensor:
#      x y z
#    x 1.796930 0.000000 -0.019210 
#    y 0.000000 1.704530 0.000000 
#    z -0.019210 0.000000 1.751370 
# 
# From -- ./inp_files/178420.got.cif
#   From: 2010.05.17/outbox.cif.g08.bks.cpg/sg12_90_cif.got.tgz:178420.got - 2010.06.03 13:09:07.
