data_PCOD9198141
_publ_section_title
;
Structure prediction by ZEFSAII (Michael W. Deem and Ramdas Pophale) SiO2 
 PCOD9198141
Probable space group: C 2/M
;
_chemical_formula_sum "Si O2"
_cell_formula_units_Z 56
_cell_length_a 16.170902
_cell_length_b 7.755064
_cell_length_c 20.240903
_cell_angle_alpha 90.000000
_cell_angle_beta 89.544325
_cell_angle_gamma 90.000000
_cell_volume 2538.258097
_symmetry_space_group_name_H-M "C 2/M"
_symmetry_group_IT_number 12
_symmetry_cell_setting 'monoclinic'
loop_
_space_group_symop_operation_xyz
x,y,z
-x,y,-z
-x,-y,-z
x,-y,z
1/2+x,1/2+y,z
1/2-x,1/2+y,-z
1/2-x,1/2-y,-z
1/2+x,1/2-y,z
loop_
_atom_site_type_symbol
_atom_site_label
_atom_site_fract_x
_atom_site_fract_y
_atom_site_fract_z
Si Si1 0.988833 0.289042 0.424546
Si Si2 0.107888 0.301097 0.787723
Si Si3 0.071869 0.798513 0.205874
Si Si4 0.157378 0.708414 0.929413
Si Si5 0.355088 0.204610 0.663031
Si Si6 0.174028 0.708294 0.651477
Si Si7 0.847359 0.204913 0.927793
O O1 0.989281 0.500000 0.423826
O O2 0.901395 0.232695 0.394136
O O3 0.000000 0.234322 0.500000
O O4 0.066773 0.231492 0.379935
O O5 0.135281 0.500000 0.792719
O O6 0.118086 0.227877 0.861312
O O7 0.157057 0.223457 0.726006
O O8 0.011384 0.294536 0.770904
O O9 0.138938 0.780800 0.263214
O O10 0.102812 0.727180 0.135383
O O11 0.051449 0.000000 0.198550
O O12 0.155994 0.500000 0.930670
O O13 0.252828 0.770581 0.928072
O O14 0.118129 0.763646 0.999198
O O15 0.266759 0.244328 0.631364
O O16 0.362929 0.000000 0.669411
O O17 0.168993 0.500000 0.653641
O O18 0.841918 0.000000 0.917861
#
# Coordination Sequence:
#
# PCOD9198141 Si02
#       7
#     8   8   8   8   8   8   8
#     4   9  19  38  63  89 121 160 195 231 286 351
#     4  10  20  36  56  80 112 151 194 239 292 347
#     4  11  22  36  56  81 112 150 193 242 293 346
#     4   9  18  33  53  74 102 141 188 237 287 346
#     4  11  22  38  61  90 120 154 198 244 287 344
#     4  10  20  38  62  87 120 160 196 237 291 346
#     4   9  19  35  52  73 104 142 186 236 291 346
#
# _framework density 22.062373999999998
#
# number of rings (size 3 to 8) (size 9 to 14) (size 15 to 20)
#    0.000    2.143    1.429    1.714    0.000    5.714 
#    0.000    5.714    0.000    3.000    0.000    0.000 
#    0.000    0.000    0.000    0.000    0.000    0.000 
#
# Total GULP energy -156353.620965 kJ/mol
# GULP energy per Si atom -5584.057892 kJ/mol
# Density = 2.201216 g / cm^3
# Si number density = 22.062374 Si / 1000 Ang^3
#
#
#
# Elastic Constant Matrix: (Units=GPa)
#
#
# Indices 1 2 3 4 5 6 
#
# 1 102.8770 -5.2684 37.6484 0.0000 18.6721 0.0000
# 2 -5.2684 33.5342 4.3923 0.0000 -2.7632 0.0000
# 3 37.6484 4.3923 121.3836 0.0000 17.6962 0.0000
# 4 0.0000 0.0000 0.0000 -0.7018 0.0000 6.0645
# 5 18.6721 -2.7632 17.6962 0.0000 23.7775 0.0000
# 6 0.0000 0.0000 0.0000 6.0645 0.0000 21.4617
#
#
#
# Elastic Compliance Matrix: (Units=1/GPa)
#
#
# Indices 1 2 3 4 5 6 
#
# 1 0.012139 0.001669 -0.002764 0.000000 -0.007282 0.000000
# 2 0.001669 0.030691 -0.002195 0.000000 0.003890 0.000000
# 3 -0.002764 -0.002195 0.009978 0.000000 -0.005511 0.000000
# 4 0.000000 0.000000 0.000000 -0.414002 0.000000 0.116987
# 5 -0.007282 0.003890 -0.005511 0.000000 0.052328 0.000000
# 6 0.000000 0.000000 0.000000 0.116987 0.000000 0.013537
#
#
# Mechanical properties :
#
#
# Convention : Reuss Voigt Hill
#
# Bulk Modulus (GPa) = 21.63200 36.81550 29.22375
# Shear Modulus (GPa) = -18.29230 23.64231 2.67500
#
# Velocity S-wave (km/s) = -2.88256 3.27710 1.10232
# Velocity P-wave (km/s) = 1.11924 5.57157 3.85939
#
# Compressibility (1/GPa) = 0.04622781
#
# Stress axis : x y z
#
# Youngs Moduli (GPa) = 82.38003 32.58329 100.21579
#
# Poissons Ratio (x) = -0.05438 0.27698
# Poissons Ratio (y) = -0.13750 0.22000
# Poissons Ratio (z) = 0.22769 0.07153
#
# Static dielectric constant tensor:
#      x y z
#    x 1.808550 0.000000 0.002890 
#    y 0.000000 1.810310 0.000000 
#    z 0.002890 0.000000 1.819930 
# 
# From -- ./inp_files/309062.got.cif
#   From: 2010.05.17/outbox.cif.g08.bks.cpg/sg12_155_cif.got.tgz:309062.got - 2010.06.03 13:09:07.
