data_PCOD9198747
_publ_section_title
;
Structure prediction by ZEFSAII (Michael W. Deem and Ramdas Pophale) SiO2 
 PCOD9198747
Probable space group: C 2/M
;
_chemical_formula_sum "Si O2"
_cell_formula_units_Z 40
_cell_length_a 15.405805
_cell_length_b 8.375331
_cell_length_c 15.911697
_cell_angle_alpha 90.000000
_cell_angle_beta 104.420616
_cell_angle_gamma 90.000000
_cell_volume 1988.381155
_symmetry_space_group_name_H-M "C 2/M"
_symmetry_group_IT_number 12
_symmetry_cell_setting 'monoclinic'
loop_
_space_group_symop_operation_xyz
x,y,z
-x,y,-z
-x,-y,-z
x,-y,z
1/2+x,1/2+y,z
1/2-x,1/2+y,-z
1/2-x,1/2-y,-z
1/2+x,1/2-y,z
loop_
_atom_site_type_symbol
_atom_site_label
_atom_site_fract_x
_atom_site_fract_y
_atom_site_fract_z
Si Si1 0.748675 0.680386 0.406350
Si Si2 0.028788 0.305030 0.099234
Si Si3 0.068306 0.183055 0.592819
Si Si4 0.585660 0.190629 0.768284
Si Si5 0.784926 0.310262 0.777371
O O1 0.715550 0.500000 0.400974
O O2 0.750000 0.750000 0.500000
O O3 0.852401 0.693559 0.404808
O O4 0.701236 0.772130 0.318426
O O5 0.030104 0.500000 0.098298
O O6 0.958267 0.258591 0.154507
O O7 0.128397 0.253172 0.150512
O O8 0.000000 0.250124 0.000000
O O9 0.035330 0.224843 0.677933
O O10 0.000000 0.194334 0.500000
O O11 0.103422 0.000000 0.601947
O O12 0.690836 0.235229 0.785088
O O13 0.576064 0.000000 0.758198
O O14 0.777006 0.500000 0.785027
#
# Coordination Sequence:
#
# PCOD9198747 Si02
#       5
#     8   8   8   8   8
#     4  11  22  36  55  81 114 151 191 234 284 343
#     4   9  20  38  60  86 115 151 195 238 290 352
#     4  10  21  36  54  81 114 150 188 234 287 340
#     4  10  20  36  58  84 114 152 193 239 288 344
#     4  10  20  37  59  84 115 153 192 238 291 343
#
# _framework density 20.116866999999999
#
# number of rings (size 3 to 8) (size 9 to 14) (size 15 to 20)
#    0.000    2.000    0.000    6.000    2.800    2.400 
#    0.000    3.000    0.000    8.400    0.000    0.000 
#    0.000    0.000    0.000    0.000    0.000    0.000 
#
# Total GULP energy -111597.456433 kJ/mol
# GULP energy per Si atom -5579.872822 kJ/mol
# Density = 2.007108 g / cm^3
# Si number density = 20.116867 Si / 1000 Ang^3
#
#
#
# Elastic Constant Matrix: (Units=GPa)
#
#
# Indices 1 2 3 4 5 6 
#
# 1 83.7584 7.8465 74.9751 0.0000 -13.1405 0.0000
# 2 7.8465 51.3717 19.3898 0.0000 -1.6749 0.0000
# 3 74.9751 19.3898 196.0600 0.0000 -9.9696 0.0000
# 4 0.0000 0.0000 0.0000 21.1197 0.0000 1.2515
# 5 -13.1405 -1.6749 -9.9696 0.0000 36.9850 0.0000
# 6 0.0000 0.0000 0.0000 1.2515 0.0000 18.6151
#
#
#
# Elastic Compliance Matrix: (Units=1/GPa)
#
#
# Indices 1 2 3 4 5 6 
#
# 1 0.018975 -0.000098 -0.007000 0.000000 0.004850 0.000000
# 2 -0.000098 0.020227 -0.001945 0.000000 0.000357 0.000000
# 3 -0.007000 -0.001945 0.007948 0.000000 -0.000433 0.000000
# 4 0.000000 0.000000 0.000000 0.047538 0.000000 -0.003196
# 5 0.004850 0.000357 -0.000433 0.000000 0.028661 0.000000
# 6 0.000000 0.000000 0.000000 -0.003196 0.000000 0.053935
#
#
# Mechanical properties :
#
#
# Convention : Reuss Voigt Hill
#
# Bulk Modulus (GPa) = 34.40686 59.51256 46.95971
# Shear Modulus (GPa) = 24.38352 30.60922 27.49637
#
# Velocity S-wave (km/s) = 3.48529 3.90496 3.70108
# Velocity P-wave (km/s) = 5.77382 7.06960 6.45431
#
# Compressibility (1/GPa) = 0.02906397
#
# Stress axis : x y z
#
# Youngs Moduli (GPa) = 52.70057 49.43988 125.82364
#
# Poissons Ratio (x) = 0.00485 0.88076
# Poissons Ratio (y) = 0.00517 0.24469
# Poissons Ratio (z) = 0.36890 0.09615
#
# Static dielectric constant tensor:
#      x y z
#    x 1.726420 0.000000 -0.012540 
#    y 0.000000 1.698910 0.000000 
#    z -0.012540 0.000000 1.733980 
# 
# From -- ./inp_files/267372.got.cif
#   From: 2010.05.17/outbox.cif.g08.bks.cpg/sg12_134_cif.got.tgz:267372.got - 2010.06.03 13:09:07.
