data_PCOD9198508
_publ_section_title
;
Structure prediction by ZEFSAII (Michael W. Deem and Ramdas Pophale) SiO2 
 PCOD9198508
Probable space group: C 2/M
;
_chemical_formula_sum "Si O2"
_cell_formula_units_Z 28
_cell_length_a 11.821233
_cell_length_b 24.088881
_cell_length_c 5.510748
_cell_angle_alpha 90.000000
_cell_angle_beta 68.318191
_cell_angle_gamma 90.000000
_cell_volume 1458.218105
_symmetry_space_group_name_H-M "C 2/M"
_symmetry_group_IT_number 12
_symmetry_cell_setting 'monoclinic'
loop_
_space_group_symop_operation_xyz
x,y,z
-x,y,-z
-x,-y,-z
x,-y,z
1/2+x,1/2+y,z
1/2-x,1/2+y,-z
1/2-x,1/2-y,-z
1/2+x,1/2-y,z
loop_
_atom_site_type_symbol
_atom_site_label
_atom_site_fract_x
_atom_site_fract_y
_atom_site_fract_z
Si Si1 0.758987 0.843358 0.423930
Si Si2 0.500000 0.687148 0.000000
Si Si3 0.926305 0.434320 0.304415
Si Si4 0.357497 0.744425 0.723376
O O1 0.696404 0.898963 0.564886
O O2 0.652600 0.803680 0.399934
O O3 0.813862 0.806842 0.596494
O O4 0.876544 0.847310 0.151363
O O5 0.526569 0.727044 0.209616
O O6 0.901546 0.500000 0.297712
O O7 0.000000 0.427189 0.500000
O O8 0.000000 0.417117 0.000000
O O9 0.250000 0.750000 0.000000
#
# Coordination Sequence:
#
# PCOD9198508 Si02
#       4
#     8   4   8   8
#     4  10  21  38  59  86 121 163 199 253 308 364
#     4  10  20  36  57  88 127 156 202 250 302 376
#     4  10  24  44  66  91 120 159 212 263 305 360
#     4   9  20  35  53  87 121 160 197 238 303 370
#
# _framework density 19.201519000000001
#
# number of rings (size 3 to 8) (size 9 to 14) (size 15 to 20)
#    0.000    2.286    0.000    0.857    8.000    6.857 
#   10.286    0.714    0.000    3.429    0.000    0.000 
#    0.000    0.000    0.000    0.000    0.000    0.000 
#
# Total GULP energy -77983.355595 kJ/mol
# GULP energy per Si atom -5570.239685 kJ/mol
# Density = 1.915782 g / cm^3
# Si number density = 19.201519 Si / 1000 Ang^3
#
#
#
# Elastic Constant Matrix: (Units=GPa)
#
#
# Indices 1 2 3 4 5 6 
#
# 1 100.4402 47.7050 49.8256 0.0000 -18.4528 0.0000
# 2 47.7050 79.0441 45.1366 0.0000 -19.1274 0.0000
# 3 49.8256 45.1366 106.7498 0.0000 -13.4526 0.0000
# 4 0.0000 0.0000 0.0000 27.2909 0.0000 -18.2467
# 5 -18.4528 -19.1274 -13.4526 0.0000 47.4160 0.0000
# 6 0.0000 0.0000 0.0000 -18.2467 0.0000 18.9244
#
#
#
# Elastic Compliance Matrix: (Units=1/GPa)
#
#
# Indices 1 2 3 4 5 6 
#
# 1 0.015516 -0.006388 -0.004257 0.000000 0.002254 0.000000
# 2 -0.006388 0.020484 -0.005135 0.000000 0.004320 0.000000
# 3 -0.004257 -0.005135 0.013540 0.000000 0.000113 0.000000
# 4 0.000000 0.000000 0.000000 0.103118 0.000000 0.099425
# 5 0.002254 0.004320 0.000113 0.000000 0.023742 0.000000
# 6 0.000000 0.000000 0.000000 0.099425 0.000000 0.148706
#
#
# Mechanical properties :
#
#
# Convention : Reuss Voigt Hill
#
# Bulk Modulus (GPa) = 55.61755 63.50762 59.56258
# Shear Modulus (GPa) = 13.78698 28.29739 21.04219
#
# Velocity S-wave (km/s) = 2.68249 3.84305 3.31397
# Velocity P-wave (km/s) = 6.21469 7.26898 6.76242
#
# Compressibility (1/GPa) = 0.01797994
#
# Stress axis : x y z
#
# Youngs Moduli (GPa) = 64.44911 48.81779 73.85364
#
# Poissons Ratio (x) = 0.31185 0.31440
# Poissons Ratio (y) = 0.41171 0.37925
# Poissons Ratio (z) = 0.27437 0.25069
#
# Static dielectric constant tensor:
#      x y z
#    x 1.741420 0.000000 -0.024260 
#    y 0.000000 1.637000 0.000000 
#    z -0.024260 0.000000 1.789370 
# 
# From -- ./inp_files/5661.got.cif
#   From: 2010.05.17/outbox.cif.g08.bks.cpg/sg12_3_cif.got.tgz:5661.got - 2010.06.03 13:09:07.
