data_PCOD9198929
_publ_section_title
;
Structure prediction by ZEFSAII (Michael W. Deem and Ramdas Pophale) SiO2 
 PCOD9198929
Probable space group: C 2/M
;
_chemical_formula_sum "Si O2"
_cell_formula_units_Z 64
_cell_length_a 18.892494
_cell_length_b 22.777032
_cell_length_c 15.001198
_cell_angle_alpha 90.000000
_cell_angle_beta 151.805109
_cell_angle_gamma 90.000000
_cell_volume 3049.921125
_symmetry_space_group_name_H-M "C 2/M"
_symmetry_group_IT_number 12
_symmetry_cell_setting 'monoclinic'
loop_
_space_group_symop_operation_xyz
x,y,z
-x,y,-z
-x,-y,-z
x,-y,z
1/2+x,1/2+y,z
1/2-x,1/2+y,-z
1/2-x,1/2-y,-z
1/2+x,1/2-y,z
loop_
_atom_site_type_symbol
_atom_site_label
_atom_site_fract_x
_atom_site_fract_y
_atom_site_fract_z
Si Si1 0.836640 0.067928 0.859417
Si Si2 0.749620 0.934968 0.103074
Si Si3 0.939324 0.065704 0.633846
Si Si4 0.282274 0.933669 0.466125
Si Si5 0.981849 0.660906 0.217302
Si Si6 0.845659 0.861238 0.367864
Si Si7 0.856329 0.332416 0.274215
Si Si8 0.613033 0.234519 0.050791
O O1 0.731660 0.069337 0.654812
O O2 0.747934 0.109489 0.829492
O O3 0.849915 0.000000 0.904503
O O4 0.000000 0.085792 0.000000
O O5 0.820379 0.917538 0.276374
O O6 0.884141 0.930803 0.182069
O O7 0.687705 0.000000 0.035985
O O8 0.630293 0.887051 0.946942
O O9 0.880082 0.069923 0.667728
O O10 0.869089 0.115428 0.493066
O O11 0.895891 0.000000 0.553185
O O12 0.370695 0.877858 0.601822
O O13 0.341175 0.000000 0.553653
O O14 0.919126 0.678016 0.244566
O O15 0.974966 0.712201 0.135552
O O16 0.704460 0.819378 0.197571
O O17 0.000000 0.833485 0.500000
O O18 0.741085 0.280589 0.168932
O O19 0.000000 0.334460 0.500000
O O20 0.500000 0.257884 0.000000
#
# Coordination Sequence:
#
# PCOD9198929 Si02
#       8
#     8   8   8   8   8   8   8   8
#     4  10  23  42  66  94 126 163 204 249 304 364
#     4   9  18  31  53  86 122 161 202 246 299 358
#     4   9  17  30  53  85 123 161 200 246 296 357
#     4  10  20  36  58  91 129 162 199 246 303 365
#     4  11  23  40  62  91 123 159 204 253 306 369
#     4   9  17  33  56  83 118 161 205 248 299 357
#     4  12  25  45  67  90 122 160 205 257 309 362
#     4  11  24  43  65  88 120 159 205 257 308 364
#
# _framework density 20.98415
#
# number of rings (size 3 to 8) (size 9 to 14) (size 15 to 20)
#    0.000    1.875    1.250    2.625    1.750    2.750 
#    0.000    0.625    0.000    6.000    0.000    0.000 
#    0.000    0.000    0.000    0.000    0.000    0.000 
#
# Total GULP energy -178528.210307 kJ/mol
# GULP energy per Si atom -5579.006572 kJ/mol
# Density = 2.093639 g / cm^3
# Si number density = 20.984150 Si / 1000 Ang^3
#
#
#
# Elastic Constant Matrix: (Units=GPa)
#
#
# Indices 1 2 3 4 5 6 
#
# 1 82.9276 17.6909 -1.7483 0.0000 -0.6392 0.0000
# 2 17.6909 61.4814 10.7298 0.0000 3.4319 0.0000
# 3 -1.7483 10.7298 48.7149 0.0000 -3.5052 0.0000
# 4 0.0000 0.0000 0.0000 89.1466 0.0000 -16.7982
# 5 -0.6392 3.4319 -3.5052 0.0000 26.3841 0.0000
# 6 0.0000 0.0000 0.0000 -16.7982 0.0000 32.6102
#
#
#
# Elastic Compliance Matrix: (Units=1/GPa)
#
#
# Indices 1 2 3 4 5 6 
#
# 1 0.012958 -0.004035 0.001428 0.000000 0.001028 0.000000
# 2 -0.004035 0.018368 -0.004412 0.000000 -0.003073 0.000000
# 3 0.001428 -0.004412 0.021803 0.000000 0.003505 0.000000
# 4 0.000000 0.000000 0.000000 0.012423 0.000000 0.006400
# 5 0.001028 -0.003073 0.003505 0.000000 0.038792 0.000000
# 6 0.000000 0.000000 0.000000 0.006400 0.000000 0.033962
#
#
# Mechanical properties :
#
#
# Convention : Reuss Voigt Hill
#
# Bulk Modulus (GPa) = 25.58184 27.38542 26.48363
# Shear Modulus (GPa) = 30.23479 40.72495 35.47987
#
# Velocity S-wave (km/s) = 3.79996 4.41017 4.11639
# Velocity P-wave (km/s) = 5.60985 6.24593 5.93642
#
# Compressibility (1/GPa) = 0.03909024
#
# Stress axis : x y z
#
# Youngs Moduli (GPa) = 77.17519 54.44380 45.86592
#
# Poissons Ratio (x) = 0.21968 -0.06549
# Poissons Ratio (y) = 0.31140 0.20234
# Poissons Ratio (z) = -0.11019 0.24018
#
# Static dielectric constant tensor:
#      x y z
#    x 1.750280 0.000000 -0.008100 
#    y 0.000000 1.765630 0.000000 
#    z -0.008100 0.000000 1.777780 
# 
# From -- ./inp_files/228167.got.cif
#   From: 2010.05.17/outbox.cif.g08.bks.cpg/sg12_115_cif.got.tgz:228167.got - 2010.06.03 13:09:07.
