data_PCOD9198649
_publ_section_title
;
Structure prediction by ZEFSAII (Michael W. Deem and Ramdas Pophale) SiO2 
 PCOD9198649
Probable space group: C 2/M
;
_chemical_formula_sum "Si O2"
_cell_formula_units_Z 56
_cell_length_a 24.133965
_cell_length_b 9.097530
_cell_length_c 15.947541
_cell_angle_alpha 90.000000
_cell_angle_beta 56.756224
_cell_angle_gamma 90.000000
_cell_volume 2928.409026
_symmetry_space_group_name_H-M "C 2/M"
_symmetry_group_IT_number 12
_symmetry_cell_setting 'monoclinic'
loop_
_space_group_symop_operation_xyz
x,y,z
-x,y,-z
-x,-y,-z
x,-y,z
1/2+x,1/2+y,z
1/2-x,1/2+y,-z
1/2-x,1/2-y,-z
1/2+x,1/2-y,z
loop_
_atom_site_type_symbol
_atom_site_label
_atom_site_fract_x
_atom_site_fract_y
_atom_site_fract_z
Si Si1 0.791699 0.323090 0.890995
Si Si2 0.554001 0.177413 0.025978
Si Si3 0.536790 0.176323 0.555897
Si Si4 0.684149 0.675759 0.845720
Si Si5 0.156723 0.830411 0.525227
Si Si6 0.808759 0.330067 0.338345
Si Si7 0.555829 0.178267 0.214334
O O1 0.790614 0.500000 0.902796
O O2 0.752725 0.289647 0.837289
O O3 0.868249 0.274971 0.831330
O O4 0.750000 0.250000 0.000000
O O5 0.534934 0.219042 0.137091
O O6 0.562205 0.000000 0.016669
O O7 0.500000 0.216858 0.000000
O O8 0.623433 0.253490 0.946991
O O9 0.500000 0.208660 0.500000
O O10 0.607111 0.254103 0.502577
O O11 0.493103 0.227274 0.671626
O O12 0.545483 0.000000 0.554101
O O13 0.677221 0.500000 0.848325
O O14 0.682429 0.743567 0.754829
O O15 0.153324 0.743298 0.615602
O O16 0.231529 0.824058 0.428764
O O17 0.139653 0.000000 0.552675
O O18 0.828757 0.500000 0.311654
O O19 0.555848 0.000000 0.217488
#
# Coordination Sequence:
#
# PCOD9198649 Si02
#       7
#     8   8   8   8   8   8   8
#     4  10  20  36  58  82 114 149 191 240 287 343
#     4  10  21  37  59  84 116 160 203 240 288 357
#     4  10  22  38  61  88 118 162 207 243 289 355
#     4  11  23  36  58  91 120 148 191 247 302 348
#     4  10  22  41  62  88 119 151 194 251 305 347
#     4  10  22  40  63  87 116 156 197 238 296 366
#     4   9  19  37  57  82 115 155 200 242 285 345
#
# _framework density 19.123013
#
# number of rings (size 3 to 8) (size 9 to 14) (size 15 to 20)
#    0.000    2.000    1.429    1.286    4.000    2.857 
#    0.000    1.429    0.000    0.000    0.000    0.000 
#    0.000    0.000    0.000    0.000    0.000    0.000 
#
# Total GULP energy -156373.738162 kJ/mol
# GULP energy per Si atom -5584.776363 kJ/mol
# Density = 1.907949 g / cm^3
# Si number density = 19.123013 Si / 1000 Ang^3
#
#
#
# Elastic Constant Matrix: (Units=GPa)
#
#
# Indices 1 2 3 4 5 6 
#
# 1 102.3063 43.0834 7.2760 0.0000 16.2512 0.0000
# 2 43.0834 41.8076 23.9939 0.0000 15.2024 0.0000
# 3 7.2760 23.9939 61.4405 0.0000 20.6853 0.0000
# 4 0.0000 0.0000 0.0000 17.3484 0.0000 -7.1270
# 5 16.2512 15.2024 20.6853 0.0000 22.3284 0.0000
# 6 0.0000 0.0000 0.0000 -7.1270 0.0000 22.5415
#
#
#
# Elastic Compliance Matrix: (Units=1/GPa)
#
#
# Indices 1 2 3 4 5 6 
#
# 1 0.020106 -0.023356 0.009174 0.000000 -0.007231 0.000000
# 2 -0.023356 0.061455 -0.018703 0.000000 -0.007516 0.000000
# 3 0.009174 -0.018703 0.029726 0.000000 -0.021482 0.000000
# 4 0.000000 0.000000 0.000000 0.066247 0.000000 0.020945
# 5 -0.007231 -0.007516 -0.021482 0.000000 0.075067 0.000000
# 6 0.000000 0.000000 0.000000 0.020945 0.000000 0.050985
#
#
# Mechanical properties :
#
#
# Convention : Reuss Voigt Hill
#
# Bulk Modulus (GPa) = 21.96945 39.36234 30.66589
# Shear Modulus (GPa) = 13.00299 21.19041 17.09670
#
# Velocity S-wave (km/s) = 2.61044 3.33244 2.99329
# Velocity P-wave (km/s) = 4.53865 5.95276 5.29314
#
# Compressibility (1/GPa) = 0.04551775
#
# Stress axis : x y z
#
# Youngs Moduli (GPa) = 49.73538 16.27220 33.64103
#
# Poissons Ratio (x) = 0.38005 -0.30864
# Poissons Ratio (y) = 1.16161 0.62919
# Poissons Ratio (z) = -0.45630 0.30434
#
# Static dielectric constant tensor:
#      x y z
#    x 1.665980 0.000000 -0.000330 
#    y 0.000000 1.634460 0.000000 
#    z -0.000330 0.000000 1.648930 
# 
# From -- ./inp_files/238288.got.cif
#   From: 2010.05.17/outbox.cif.g08.bks.cpg/sg12_120_cif.got.tgz:238288.got - 2010.06.03 13:09:07.
