data_PCOD9198720
_publ_section_title
;
Structure prediction by ZEFSAII (Michael W. Deem and Ramdas Pophale) SiO2 
 PCOD9198720
Probable space group: C 2/M
;
_chemical_formula_sum "Si O2"
_cell_formula_units_Z 64
_cell_length_a 20.500588
_cell_length_b 12.162013
_cell_length_c 20.014954
_cell_angle_alpha 90.000000
_cell_angle_beta 40.074668
_cell_angle_gamma 90.000000
_cell_volume 3212.680103
_symmetry_space_group_name_H-M "C 2/M"
_symmetry_group_IT_number 12
_symmetry_cell_setting 'monoclinic'
loop_
_space_group_symop_operation_xyz
x,y,z
-x,y,-z
-x,-y,-z
x,-y,z
1/2+x,1/2+y,z
1/2-x,1/2+y,-z
1/2-x,1/2-y,-z
1/2+x,1/2-y,z
loop_
_atom_site_type_symbol
_atom_site_label
_atom_site_fract_x
_atom_site_fract_y
_atom_site_fract_z
Si Si1 0.228346 0.372707 0.932895
Si Si2 0.383336 0.624271 0.551302
Si Si3 0.734707 0.747084 0.237711
Si Si4 0.011468 0.382834 0.708132
Si Si5 0.121530 0.868307 0.775460
Si Si6 0.910319 0.208167 0.875666
Si Si7 0.713736 0.204967 0.597992
Si Si8 0.479065 0.170914 0.589160
O O1 0.198632 0.500000 0.948115
O O2 0.248152 0.317948 0.844571
O O3 0.324995 0.367607 0.907943
O O4 0.144315 0.295786 0.033328
O O5 0.413798 0.500000 0.535765
O O6 0.317681 0.667716 0.665892
O O7 0.303029 0.632746 0.555777
O O8 0.472891 0.706600 0.457963
O O9 0.833175 0.807182 0.193299
O O10 0.640738 0.831466 0.302097
O O11 0.961942 0.500000 0.762436
O O12 0.949640 0.278405 0.781484
O O13 0.031264 0.376720 0.613614
O O14 0.114912 0.368586 0.666984
O O15 0.188418 0.808149 0.665905
O O16 0.005214 0.844291 0.842014
O O17 0.135564 0.000000 0.769033
O O18 0.750000 0.250000 0.500000
O O19 0.500000 0.120515 0.500000
#
# Coordination Sequence:
#
# PCOD9198720 Si02
#       8
#     8   8   8   8   8   8   8   8
#     4  11  22  41  70  95 123 161 199 258 318 360
#     4  10  20  36  58  83 121 162 197 250 307 354
#     4  10  22  40  59  93 125 152 213 254 296 374
#     4  11  21  37  58  83 122 163 198 251 313 358
#     4  10  23  43  66  87 124 169 202 254 313 363
#     4  10  23  43  63  96 126 152 211 257 297 386
#     4  10  20  37  54  87 121 151 208 255 290 369
#     4  10  21  37  53  84 123 158 206 251 287 365
#
# _framework density 19.921061999999999
#
# number of rings (size 3 to 8) (size 9 to 14) (size 15 to 20)
#    0.000    1.750    2.500    1.500    0.000    5.000 
#    0.000    4.375    0.000    0.000    0.000    0.000 
#    0.000    0.000    0.000    0.000    0.000    0.000 
#
# Total GULP energy -178235.481679 kJ/mol
# GULP energy per Si atom -5569.858802 kJ/mol
# Density = 1.987572 g / cm^3
# Si number density = 19.921062 Si / 1000 Ang^3
#
#
#
# Elastic Constant Matrix: (Units=GPa)
#
#
# Indices 1 2 3 4 5 6 
#
# 1 127.1148 45.1046 27.3973 0.0000 -1.5897 0.0000
# 2 45.1046 131.0402 25.3012 0.0000 -0.7884 0.0000
# 3 27.3973 25.3012 55.8734 0.0000 8.1142 0.0000
# 4 0.0000 0.0000 0.0000 1.9402 0.0000 4.0618
# 5 -1.5897 -0.7884 8.1142 0.0000 33.5049 0.0000
# 6 0.0000 0.0000 0.0000 4.0618 0.0000 -16.6843
#
#
#
# Elastic Compliance Matrix: (Units=1/GPa)
#
#
# Indices 1 2 3 4 5 6 
#
# 1 0.009601 -0.002577 -0.003730 0.000000 0.001298 0.000000
# 2 -0.002577 0.009097 -0.002974 0.000000 0.000812 0.000000
# 3 -0.003730 -0.002974 0.021878 0.000000 -0.005545 0.000000
# 4 0.000000 0.000000 0.000000 0.341404 0.000000 0.083115
# 5 0.001298 0.000812 -0.005545 0.000000 0.031270 0.000000
# 6 0.000000 0.000000 0.000000 0.083115 0.000000 -0.039702
#
#
# Mechanical properties :
#
#
# Convention : Reuss Voigt Hill
#
# Bulk Modulus (GPa) = 45.42097 56.62607 51.02352
# Shear Modulus (GPa) = 12.51725 18.16718 15.34221
#
# Velocity S-wave (km/s) = 2.50940 3.02314 2.77817
# Velocity P-wave (km/s) = 5.58982 6.37752 5.99662
#
# Compressibility (1/GPa) = 0.02201626
#
# Stress axis : x y z
#
# Youngs Moduli (GPa) = 104.15182 109.92256 45.70714
#
# Poissons Ratio (x) = 0.28326 0.17047
# Poissons Ratio (y) = 0.26839 0.13593
# Poissons Ratio (z) = 0.38845 0.32690
#
# Static dielectric constant tensor:
#      x y z
#    x 1.742640 0.000000 -0.036610 
#    y 0.000000 2.662010 0.000000 
#    z -0.036610 0.000000 1.677800 
# 
# From -- ./inp_files/321238.got.cif
#   From: 2010.05.17/outbox.cif.g08.bks.cpg/sg12_161_cif.got.tgz:321238.got - 2010.06.03 13:09:07.
