data_PCOD9198282
_publ_section_title
;
Structure prediction by ZEFSAII (Michael W. Deem and Ramdas Pophale) SiO2 
 PCOD9198282
Probable space group: C 2/M
;
_chemical_formula_sum "Si O2"
_cell_formula_units_Z 56
_cell_length_a 19.583349
_cell_length_b 8.016184
_cell_length_c 18.965100
_cell_angle_alpha 90.000000
_cell_angle_beta 115.656418
_cell_angle_gamma 90.000000
_cell_volume 2683.678721
_symmetry_space_group_name_H-M "C 2/M"
_symmetry_group_IT_number 12
_symmetry_cell_setting 'monoclinic'
loop_
_space_group_symop_operation_xyz
x,y,z
-x,y,-z
-x,-y,-z
x,-y,z
1/2+x,1/2+y,z
1/2-x,1/2+y,-z
1/2-x,1/2-y,-z
1/2+x,1/2-y,z
loop_
_atom_site_type_symbol
_atom_site_label
_atom_site_fract_x
_atom_site_fract_y
_atom_site_fract_z
Si Si1 0.013496 0.304423 0.318144
Si Si2 0.759304 0.807099 0.423013
Si Si3 0.423099 0.799695 0.508183
Si Si4 0.862425 0.295103 0.186388
Si Si5 0.808655 0.800765 0.859372
Si Si6 0.836641 0.698791 0.022289
Si Si7 0.868241 0.805330 0.738089
O O1 0.003610 0.500000 0.330037
O O2 0.929790 0.235631 0.266613
O O3 0.060046 0.235660 0.405175
O O4 0.063508 0.284797 0.270999
O O5 0.750000 0.750000 0.500000
O O6 0.847468 0.781897 0.444441
O O7 0.705091 0.710865 0.345145
O O8 0.737160 0.000000 0.409074
O O9 0.500000 0.769727 0.500000
O O10 0.409061 0.000000 0.502490
O O11 0.861773 0.500000 0.187055
O O12 0.778181 0.238600 0.170479
O O13 0.878848 0.245229 0.112392
O O14 0.852887 0.766729 0.951888
O O15 0.847519 0.736316 0.805894
O O16 0.802707 0.000000 0.848777
O O17 0.841526 0.500000 0.020810
O O18 0.750000 0.750000 0.000000
O O19 0.888408 0.000000 0.753154
#
# Coordination Sequence:
#
# PCOD9198282 Si02
#       7
#     8   8   8   8   8   8   8
#     4  10  20  36  57  79 111 148 186 229 274 334
#     4  12  24  40  61  83 112 150 191 233 279 334
#     4  10  22  38  60  87 114 148 189 231 280 334
#     4   8  16  32  55  81 106 142 185 225 270 326
#     4   9  19  35  57  82 108 142 187 230 274 329
#     4   9  16  30  53  80 112 144 182 228 275 328
#     4  11  23  38  58  82 113 148 185 233 283 336
#
# _framework density 20.866878
#
# number of rings (size 3 to 8) (size 9 to 14) (size 15 to 20)
#    0.000    2.143    1.429    3.000    2.000    1.429 
#    0.000    4.286    0.000    4.286    0.000    0.000 
#    0.000    0.000    0.000    0.000    0.000    0.000 
#
# Total GULP energy -156249.901671 kJ/mol
# GULP energy per Si atom -5580.353631 kJ/mol
# Density = 2.081938 g / cm^3
# Si number density = 20.866878 Si / 1000 Ang^3
#
#
#
# Elastic Constant Matrix: (Units=GPa)
#
#
# Indices 1 2 3 4 5 6 
#
# 1 34.2661 -3.3525 -9.1618 0.0000 -8.8892 0.0000
# 2 -3.3525 15.9681 -3.7449 0.0000 -0.9685 0.0000
# 3 -9.1618 -3.7449 33.5036 0.0000 -16.6053 0.0000
# 4 0.0000 0.0000 0.0000 21.3871 0.0000 -3.9174
# 5 -8.8892 -0.9685 -16.6053 0.0000 38.6959 0.0000
# 6 0.0000 0.0000 0.0000 -3.9174 0.0000 20.4086
#
#
#
# Elastic Compliance Matrix: (Units=1/GPa)
#
#
# Indices 1 2 3 4 5 6 
#
# 1 0.042064 0.015468 0.023133 0.000000 0.019977 0.000000
# 2 0.015468 0.071101 0.018824 0.000000 0.013411 0.000000
# 3 0.023133 0.018824 0.052260 0.000000 0.028211 0.000000
# 4 0.000000 0.000000 0.000000 0.048461 0.000000 0.009302
# 5 0.019977 0.013411 0.028211 0.000000 0.042873 0.000000
# 6 0.000000 0.000000 0.000000 0.009302 0.000000 0.050784
#
#
# Mechanical properties :
#
#
# Convention : Reuss Voigt Hill
#
# Bulk Modulus (GPa) = 3.56792 5.69104 4.62948
# Shear Modulus (GPa) = 17.47531 22.76478 20.12004
#
# Velocity S-wave (km/s) = 2.89704 3.30654 3.10854
# Velocity P-wave (km/s) = 3.59222 4.16063 3.88683
#
# Compressibility (1/GPa) = 0.28027500
#
# Stress axis : x y z
#
# Youngs Moduli (GPa) = 23.77318 14.06459 19.13518
#
# Poissons Ratio (x) = -0.21755 -0.44265
# Poissons Ratio (y) = -0.36773 -0.36020
# Poissons Ratio (z) = -0.54994 -0.26475
#
# Static dielectric constant tensor:
#      x y z
#    x 1.740280 0.000000 -0.016340 
#    y 0.000000 1.761020 0.000000 
#    z -0.016340 0.000000 1.775590 
# 
# From -- ./inp_files/275478.got.cif
#   From: 2010.05.17/outbox.cif.g08.bks.cpg/sg12_138_cif.got.tgz:275478.got - 2010.06.03 13:09:07.
