data_PCOD9198958
_publ_section_title
;
Structure prediction by ZEFSAII (Michael W. Deem and Ramdas Pophale) SiO2 
 PCOD9198958
Probable space group: C 2/M
;
_chemical_formula_sum "Si O2"
_cell_formula_units_Z 48
_cell_length_a 20.566723
_cell_length_b 12.364399
_cell_length_c 15.267445
_cell_angle_alpha 90.000000
_cell_angle_beta 37.464276
_cell_angle_gamma 90.000000
_cell_volume 2361.557273
_symmetry_space_group_name_H-M "C 2/M"
_symmetry_group_IT_number 12
_symmetry_cell_setting 'monoclinic'
loop_
_space_group_symop_operation_xyz
x,y,z
-x,y,-z
-x,-y,-z
x,-y,z
1/2+x,1/2+y,z
1/2-x,1/2+y,-z
1/2-x,1/2-y,-z
1/2+x,1/2-y,z
loop_
_atom_site_type_symbol
_atom_site_label
_atom_site_fract_x
_atom_site_fract_y
_atom_site_fract_z
Si Si1 0.477054 0.872285 0.889679
Si Si2 0.904052 0.219485 0.809449
Si Si3 0.927748 0.126906 0.493837
Si Si4 0.213520 0.715665 0.636532
Si Si5 0.113456 0.821370 0.894363
Si Si6 0.236834 0.616799 0.113552
O O1 0.439533 0.810487 0.841584
O O2 0.606838 0.859911 0.750182
O O3 0.449717 0.000000 0.925104
O O4 0.418129 0.796613 0.026549
O O5 0.847055 0.286854 0.794106
O O6 0.000408 0.151991 0.668106
O O7 0.815741 0.143593 0.948518
O O8 0.812025 0.173526 0.590624
O O9 0.000000 0.165378 0.500000
O O10 0.912475 0.000000 0.524056
O O11 0.250000 0.750000 0.500000
O O12 0.168817 0.814367 0.741508
O O13 0.189340 0.878384 0.881152
O O14 0.000000 0.874755 0.000000
O O15 0.185982 0.500000 0.157191
#
# Coordination Sequence:
#
# PCOD9198958 Si02
#       6
#     8   8   8   8   8   8
#     4  10  20  37  63  90 118 157 203 250 302 357
#     4  10  20  37  57  86 118 150 196 252 297 353
#     4  11  23  38  60  87 120 162 203 246 305 363
#     4  11  21  39  61  86 127 160 195 249 304 360
#     4   9  21  37  58  87 118 154 199 250 296 348
#     4  10  20  36  59  82 112 152 195 241 297 358
#
# _framework density 20.325572000000001
#
# number of rings (size 3 to 8) (size 9 to 14) (size 15 to 20)
#    0.000    1.833    1.667    2.500    0.000    4.000 
#    0.000    5.833    0.000    2.000    0.000    0.000 
#    0.000    0.000    0.000    0.000    0.000    0.000 
#
# Total GULP energy -133689.556608 kJ/mol
# GULP energy per Si atom -5570.398192 kJ/mol
# Density = 2.027931 g / cm^3
# Si number density = 20.325572 Si / 1000 Ang^3
#
#
#
# Elastic Constant Matrix: (Units=GPa)
#
#
# Indices 1 2 3 4 5 6 
#
# 1 111.0976 11.9657 16.1008 0.0000 -3.2539 0.0000
# 2 11.9657 40.8045 5.6381 0.0000 12.5810 0.0000
# 3 16.1008 5.6381 90.4007 0.0000 4.5812 0.0000
# 4 0.0000 0.0000 0.0000 -97.2719 0.0000 80.6352
# 5 -3.2539 12.5810 4.5812 0.0000 36.4700 0.0000
# 6 0.0000 0.0000 0.0000 80.6352 0.0000 -50.6804
#
#
#
# Elastic Compliance Matrix: (Units=1/GPa)
#
#
# Indices 1 2 3 4 5 6 
#
# 1 0.009655 -0.003284 -0.001626 0.000000 0.002199 0.000000
# 2 -0.003284 0.028680 -0.000692 0.000000 -0.010100 0.000000
# 3 -0.001626 -0.000692 0.011463 0.000000 -0.001346 0.000000
# 4 0.000000 0.000000 0.000000 0.032234 0.000000 0.051286
# 5 0.002199 -0.010100 -0.001346 0.000000 0.031269 0.000000
# 6 0.000000 0.000000 0.000000 0.051286 0.000000 0.061867
#
#
# Mechanical properties :
#
#
# Convention : Reuss Voigt Hill
#
# Bulk Modulus (GPa) = 25.91175 34.41245 30.16210
# Shear Modulus (GPa) = 25.09568 -8.38989 8.35290
#
# Velocity S-wave (km/s) = 3.51762 -2.03389 2.02940
# Velocity P-wave (km/s) = 5.41057 3.38404 4.51254
#
# Compressibility (1/GPa) = 0.03859254
#
# Stress axis : x y z
#
# Youngs Moduli (GPa) = 103.57422 34.86775 87.23821
#
# Poissons Ratio (x) = 0.11452 0.14186
# Poissons Ratio (y) = 0.34019 0.06036
# Poissons Ratio (z) = 0.16843 0.02412
#
# Static dielectric constant tensor:
#      x y z
#    x 1.784900 0.000000 -0.007240 
#    y 0.000000 1.714540 0.000000 
#    z -0.007240 0.000000 1.697280 
# 
# From -- ./inp_files/289320.got.cif
#   From: 2010.05.17/outbox.cif.g08.bks.cpg/sg12_145_cif.got.tgz:289320.got - 2010.06.03 13:09:07.
