data_PCOD9198702
_publ_section_title
;
Structure prediction by ZEFSAII (Michael W. Deem and Ramdas Pophale) SiO2 
 PCOD9198702
Probable space group: C 2/M
;
_chemical_formula_sum "Si O2"
_cell_formula_units_Z 56
_cell_length_a 18.666195
_cell_length_b 11.832410
_cell_length_c 15.024193
_cell_angle_alpha 90.000000
_cell_angle_beta 111.053903
_cell_angle_gamma 90.000000
_cell_volume 3096.811999
_symmetry_space_group_name_H-M "C 2/M"
_symmetry_group_IT_number 12
_symmetry_cell_setting 'monoclinic'
loop_
_space_group_symop_operation_xyz
x,y,z
-x,y,-z
-x,-y,-z
x,-y,z
1/2+x,1/2+y,z
1/2-x,1/2+y,-z
1/2-x,1/2-y,-z
1/2+x,1/2-y,z
loop_
_atom_site_type_symbol
_atom_site_label
_atom_site_fract_x
_atom_site_fract_y
_atom_site_fract_z
Si Si1 0.970316 0.875257 0.886641
Si Si2 0.443884 0.190082 0.176588
Si Si3 0.297121 0.868329 0.993870
Si Si4 0.581373 0.862882 0.496653
Si Si5 0.889992 0.628267 0.687123
Si Si6 0.185751 0.262899 0.186051
Si Si7 0.839940 0.364735 0.289102
O O1 0.890468 0.810713 0.858674
O O2 0.031379 0.809316 0.853688
O O3 0.957832 0.000000 0.844980
O O4 0.000000 0.880420 0.000000
O O5 0.378819 0.138917 0.082273
O O6 0.526602 0.130704 0.226728
O O7 0.404881 0.189511 0.255606
O O8 0.267544 0.000000 0.996754
O O9 0.250000 0.750000 0.000000
O O10 0.308464 0.850260 0.893163
O O11 0.500000 0.823398 0.500000
O O12 0.599316 0.818618 0.406065
O O13 0.643864 0.839466 0.600454
O O14 0.574729 0.000000 0.486181
O O15 0.867061 0.500000 0.663196
O O16 0.827683 0.682147 0.723861
O O17 0.259741 0.183759 0.220620
O O18 0.844517 0.500000 0.278943
#
# Coordination Sequence:
#
# PCOD9198702 Si02
#       7
#     8   8   8   8   8   8   8
#     4  10  21  38  56  79 115 158 201 241 289 354
#     4  11  21  36  58  86 110 151 195 241 295 342
#     4  12  25  39  57  87 125 163 203 247 299 357
#     4   9  17  32  57  86 109 141 188 242 298 350
#     4  10  20  36  58  83 115 145 186 246 299 350
#     4  11  23  37  54  85 118 157 195 237 300 353
#     4  11  21  36  58  84 115 147 193 247 296 350
#
# _framework density 18.083112
#
# number of rings (size 3 to 8) (size 9 to 14) (size 15 to 20)
#    0.000    1.429    4.286    2.143    0.000    1.714 
#    0.000    2.143    0.000    0.000    0.000   10.000 
#    0.000    0.000    0.000    0.000    0.000    0.000 
#
# Total GULP energy -155938.581345 kJ/mol
# GULP energy per Si atom -5569.235048 kJ/mol
# Density = 1.804195 g / cm^3
# Si number density = 18.083112 Si / 1000 Ang^3
#
#
#
# Elastic Constant Matrix: (Units=GPa)
#
#
# Indices 1 2 3 4 5 6 
#
# 1 72.2336 31.1404 10.9462 0.0000 -13.5521 0.0000
# 2 31.1404 84.1377 16.5013 0.0000 -8.9700 0.0000
# 3 10.9462 16.5013 77.4817 0.0000 -15.5296 0.0000
# 4 0.0000 0.0000 0.0000 16.1699 0.0000 -3.5325
# 5 -13.5521 -8.9700 -15.5296 0.0000 35.6498 0.0000
# 6 0.0000 0.0000 0.0000 -3.5325 0.0000 18.0868
#
#
#
# Elastic Compliance Matrix: (Units=1/GPa)
#
#
# Indices 1 2 3 4 5 6 
#
# 1 0.017337 -0.005841 -0.000196 0.000000 0.005035 0.000000
# 2 -0.005841 0.014525 -0.002170 0.000000 0.000489 0.000000
# 3 -0.000196 -0.002170 0.014541 0.000000 0.005714 0.000000
# 4 0.000000 0.000000 0.000000 0.064599 0.000000 0.012617
# 5 0.005035 0.000489 0.005714 0.000000 0.032577 0.000000
# 6 0.000000 0.000000 0.000000 0.012617 0.000000 0.057753
#
#
# Mechanical properties :
#
#
# Convention : Reuss Voigt Hill
#
# Bulk Modulus (GPa) = 33.34657 39.00319 36.17488
# Shear Modulus (GPa) = 21.95457 25.66564 23.81011
#
# Velocity S-wave (km/s) = 3.48816 3.77147 3.63258
# Velocity P-wave (km/s) = 5.89099 6.37032 6.13534
#
# Compressibility (1/GPa) = 0.02998809
#
# Stress axis : x y z
#
# Youngs Moduli (GPa) = 57.68161 68.84724 68.76923
#
# Poissons Ratio (x) = 0.40215 0.01348
# Poissons Ratio (y) = 0.33693 0.14924
# Poissons Ratio (z) = 0.01131 0.14941
#
# Static dielectric constant tensor:
#      x y z
#    x 1.624940 0.000000 -0.023860 
#    y 0.000000 1.645200 0.000000 
#    z -0.023860 0.000000 1.668550 
# 
# From -- ./inp_files/223339.got.cif
#   From: 2010.05.17/outbox.cif.g08.bks.cpg/sg12_112_cif.got.tgz:223339.got - 2010.06.03 13:09:07.
