data_PCOD9198274
_publ_section_title
;
Structure prediction by ZEFSAII (Michael W. Deem and Ramdas Pophale) SiO2 
 PCOD9198274
Probable space group: C 2/M
;
_chemical_formula_sum "Si O2"
_cell_formula_units_Z 40
_cell_length_a 28.294208
_cell_length_b 7.593979
_cell_length_c 9.163623
_cell_angle_alpha 90.000000
_cell_angle_beta 110.005639
_cell_angle_gamma 90.000000
_cell_volume 1850.139197
_symmetry_space_group_name_H-M "C 2/M"
_symmetry_group_IT_number 12
_symmetry_cell_setting 'monoclinic'
loop_
_space_group_symop_operation_xyz
x,y,z
-x,y,-z
-x,-y,-z
x,-y,z
1/2+x,1/2+y,z
1/2-x,1/2+y,-z
1/2-x,1/2-y,-z
1/2+x,1/2-y,z
loop_
_atom_site_type_symbol
_atom_site_label
_atom_site_fract_x
_atom_site_fract_y
_atom_site_fract_z
Si Si1 0.251435 0.211340 0.830173
Si Si2 0.147146 0.292173 0.215511
Si Si3 0.052215 0.215458 0.630369
Si Si4 0.348914 0.286816 0.438660
Si Si5 0.045142 0.795449 0.952278
O O1 0.302646 0.278223 0.810035
O O2 0.201426 0.276913 0.695802
O O3 0.251590 0.000000 0.812910
O O4 0.250000 0.250000 0.000000
O O5 0.143888 0.500000 0.182411
O O6 0.150628 0.264771 0.392004
O O7 0.096663 0.211483 0.096155
O O8 0.100997 0.274613 0.591936
O O9 0.052865 0.278063 0.798334
O O10 0.000000 0.267487 0.500000
O O11 0.053947 0.000000 0.631165
O O12 0.348887 0.500000 0.433259
O O13 0.031146 0.000000 0.912884
O O14 0.000000 0.715470 0.000000
#
# Coordination Sequence:
#
# PCOD9198274 Si02
#       5
#     8   8   8   8   8
#     4  10  22  38  57  82 111 146 187 230 277 331
#     4  11  23  37  54  81 115 146 181 229 282 331
#     4   9  17  31  54  83 108 132 175 232 276 315
#     4  10  20  36  57  79 107 146 189 229 271 325
#     4  10  20  36  60  85 109 144 187 227 272 329
#
# _framework density 21.619994999999999
#
# number of rings (size 3 to 8) (size 9 to 14) (size 15 to 20)
#    0.000    2.000    0.000    3.600    0.000    7.600 
#    0.000    1.000    0.000    2.400    0.000    0.000 
#    0.000    0.000    0.000    0.000    0.000    0.000 
#
# Total GULP energy -111811.714584 kJ/mol
# GULP energy per Si atom -5590.585729 kJ/mol
# Density = 2.157079 g / cm^3
# Si number density = 21.619995 Si / 1000 Ang^3
#
#
#
# Elastic Constant Matrix: (Units=GPa)
#
#
# Indices 1 2 3 4 5 6 
#
# 1 227.5252 -5.7794 107.0957 0.0000 -17.4080 0.0000
# 2 -5.7794 45.0541 -21.7977 0.0000 -4.4784 0.0000
# 3 107.0957 -21.7977 188.3247 0.0000 -14.5304 0.0000
# 4 0.0000 0.0000 0.0000 15.9429 0.0000 5.9673
# 5 -17.4080 -4.4784 -14.5304 0.0000 45.4068 0.0000
# 6 0.0000 0.0000 0.0000 5.9673 0.0000 -27.6178
#
#
#
# Elastic Compliance Matrix: (Units=1/GPa)
#
#
# Indices 1 2 3 4 5 6 
#
# 1 0.006096 -0.000782 -0.003468 0.000000 0.001150 0.000000
# 2 -0.000782 0.024096 0.003480 0.000000 0.003190 0.000000
# 3 -0.003468 0.003480 0.007802 0.000000 0.001510 0.000000
# 4 0.000000 0.000000 0.000000 0.058031 0.000000 0.012539
# 5 0.001150 0.003190 0.001510 0.000000 0.023262 0.000000
# 6 0.000000 0.000000 0.000000 0.012539 0.000000 -0.033499
#
#
# Mechanical properties :
#
#
# Convention : Reuss Voigt Hill
#
# Bulk Modulus (GPa) = 27.43286 68.88237 48.15762
# Shear Modulus (GPa) = 50.26227 32.17206 41.21716
#
# Velocity S-wave (km/s) = 4.82685 3.86174 4.37101
# Velocity P-wave (km/s) = 6.61671 7.19817 6.91356
#
# Compressibility (1/GPa) = 0.03645263
#
# Stress axis : x y z
#
# Youngs Moduli (GPa) = 164.04877 41.50084 128.17949
#
# Poissons Ratio (x) = 0.03244 0.44456
# Poissons Ratio (y) = 0.12824 -0.44602
# Poissons Ratio (z) = 0.56896 -0.14441
#
# Static dielectric constant tensor:
#      x y z
#    x 1.763060 0.000000 -0.012410 
#    y 0.000000 1.823080 0.000000 
#    z -0.012410 0.000000 1.718190 
# 
# From -- ./inp_files/92768.got.cif
#   From: 2010.05.17/outbox.cif.g08.bks.cpg/sg12_47_cif.got.tgz:92768.got - 2010.06.03 13:09:07.
