data_PCOD9198191
_publ_section_title
;
Structure prediction by ZEFSAII (Michael W. Deem and Ramdas Pophale) SiO2 
 PCOD9198191
Probable space group: C 2/M
;
_chemical_formula_sum "Si O2"
_cell_formula_units_Z 56
_cell_length_a 14.186440
_cell_length_b 14.452312
_cell_length_c 18.573360
_cell_angle_alpha 90.000000
_cell_angle_beta 52.072681
_cell_angle_gamma 90.000000
_cell_volume 3003.746187
_symmetry_space_group_name_H-M "C 2/M"
_symmetry_group_IT_number 12
_symmetry_cell_setting 'monoclinic'
loop_
_space_group_symop_operation_xyz
x,y,z
-x,y,-z
-x,-y,-z
x,-y,z
1/2+x,1/2+y,z
1/2-x,1/2+y,-z
1/2-x,1/2-y,-z
1/2+x,1/2-y,z
loop_
_atom_site_type_symbol
_atom_site_label
_atom_site_fract_x
_atom_site_fract_y
_atom_site_fract_z
Si Si1 0.523446 0.390683 0.909585
Si Si2 0.122731 0.389383 0.904959
Si Si3 0.196726 0.389893 0.709421
Si Si4 0.033719 0.255409 0.706217
Si Si5 0.412739 0.249694 0.608509
Si Si6 0.198927 0.888275 0.706120
Si Si7 0.828072 0.801729 0.903922
O O1 0.536766 0.500000 0.911220
O O2 0.641525 0.360703 0.810893
O O3 0.412604 0.370312 0.909501
O O4 0.500000 0.351235 0.000000
O O5 0.127671 0.500000 0.909812
O O6 0.131066 0.368837 0.816359
O O7 0.236632 0.348991 0.892242
O O8 0.000000 0.358094 0.000000
O O9 0.208174 0.500000 0.696419
O O10 0.322948 0.337248 0.652420
O O11 0.118239 0.342060 0.684420
O O12 0.986762 0.253468 0.647519
O O13 0.919938 0.258173 0.813315
O O14 0.111049 0.163762 0.690928
O O15 0.500000 0.255792 0.500000
O O16 0.327563 0.159489 0.641273
O O17 0.199122 0.000000 0.698590
O O18 0.750000 0.750000 0.000000
#
# Coordination Sequence:
#
# PCOD9198191 Si02
#       7
#     8   8   8   8   8   8   8
#     4   9  19  35  54  80 115 152 193 238 282 346
#     4  10  20  36  56  83 119 158 200 244 291 356
#     4  10  22  41  63  88 123 160 199 253 305 355
#     4  10  22  40  60  89 121 154 201 253 297 355
#     4  11  24  42  63  89 121 157 201 254 306 359
#     4   9  21  40  62  88 120 159 199 244 303 360
#     4  11  21  31  56  85 115 159 194 235 292 357
#
# _framework density 18.643387000000001
#
# number of rings (size 3 to 8) (size 9 to 14) (size 15 to 20)
#    0.000    2.000    1.429    1.286    2.000    6.286 
#    0.000    2.143    0.000    0.000    0.000    0.000 
#    0.000    0.000    0.000    0.000    0.000    0.000 
#
# Total GULP energy -156285.024133 kJ/mol
# GULP energy per Si atom -5581.608005 kJ/mol
# Density = 1.860095 g / cm^3
# Si number density = 18.643387 Si / 1000 Ang^3
#
#
#
# Elastic Constant Matrix: (Units=GPa)
#
#
# Indices 1 2 3 4 5 6 
#
# 1 138.9706 46.6275 68.8823 0.0000 9.6256 0.0000
# 2 46.6275 120.0344 48.8336 0.0000 -3.5800 0.0000
# 3 68.8823 48.8336 134.3511 0.0000 0.7516 0.0000
# 4 0.0000 0.0000 0.0000 34.9613 0.0000 5.8761
# 5 9.6256 -3.5800 0.7516 0.0000 23.3334 0.0000
# 6 0.0000 0.0000 0.0000 5.8761 0.0000 20.9270
#
#
#
# Elastic Compliance Matrix: (Units=1/GPa)
#
#
# Indices 1 2 3 4 5 6 
#
# 1 0.010555 -0.002400 -0.004514 0.000000 -0.004577 0.000000
# 2 -0.002400 0.010384 -0.002558 0.000000 0.002666 0.000000
# 3 -0.004514 -0.002558 0.010681 0.000000 0.001125 0.000000
# 4 0.000000 0.000000 0.000000 0.030020 0.000000 -0.008429
# 5 -0.004577 0.002666 0.001125 0.000000 0.045118 0.000000
# 6 0.000000 0.000000 0.000000 -0.008429 0.000000 0.050152
#
#
# Mechanical properties :
#
#
# Convention : Reuss Voigt Hill
#
# Bulk Modulus (GPa) = 78.89548 80.22701 79.56124
# Shear Modulus (GPa) = 27.76537 31.11186 29.43861
#
# Velocity S-wave (km/s) = 3.86332 4.08951 3.97802
# Velocity P-wave (km/s) = 7.89369 8.08855 7.99171
#
# Compressibility (1/GPa) = 0.01267500
#
# Stress axis : x y z
#
# Youngs Moduli (GPa) = 94.73738 96.30409 93.62403
#
# Poissons Ratio (x) = 0.23118 0.42259
# Poissons Ratio (y) = 0.22742 0.23953
# Poissons Ratio (z) = 0.42762 0.24639
#
# Static dielectric constant tensor:
#      x y z
#    x 1.606710 0.000000 0.002390 
#    y 0.000000 1.641180 0.000000 
#    z 0.002390 0.000000 1.650930 
# 
# From -- ./inp_files/205007.got.cif
#   From: 2010.05.17/outbox.cif.g08.bks.cpg/sg12_103_cif.got.tgz:205007.got - 2010.06.03 13:09:07.
