data_PCOD9198283
_publ_section_title
;
Structure prediction by ZEFSAII (Michael W. Deem and Ramdas Pophale) SiO2 
 PCOD9198283
Probable space group: C 2/M
;
_chemical_formula_sum "Si O2"
_cell_formula_units_Z 48
_cell_length_a 27.863936
_cell_length_b 8.297900
_cell_length_c 9.164217
_cell_angle_alpha 90.000000
_cell_angle_beta 87.923246
_cell_angle_gamma 90.000000
_cell_volume 2117.486633
_symmetry_space_group_name_H-M "C 2/M"
_symmetry_group_IT_number 12
_symmetry_cell_setting 'monoclinic'
loop_
_space_group_symop_operation_xyz
x,y,z
-x,y,-z
-x,-y,-z
x,-y,z
1/2+x,1/2+y,z
1/2-x,1/2+y,-z
1/2-x,1/2-y,-z
1/2+x,1/2-y,z
loop_
_atom_site_type_symbol
_atom_site_label
_atom_site_fract_x
_atom_site_fract_y
_atom_site_fract_z
Si Si1 0.571821 0.500000 0.950039
Si Si2 0.308580 0.687211 0.165909
Si Si3 0.787517 0.819693 0.679915
Si Si4 0.061058 0.319618 0.346122
Si Si5 0.644811 0.185932 0.566628
Si Si6 0.863584 0.253887 0.910233
Si Si7 0.509105 0.500000 0.252975
O O1 0.545277 0.500000 0.798852
O O2 0.604693 0.651687 0.980972
O O3 0.537029 0.500000 0.095154
O O4 0.305288 0.500000 0.117288
O O5 0.257934 0.739769 0.239444
O O6 0.345715 0.704214 0.295818
O O7 0.323756 0.808214 0.032925
O O8 0.810681 0.716830 0.547689
O O9 0.830100 0.829476 0.794059
O O10 0.776069 0.000000 0.629941
O O11 0.039362 0.500000 0.364254
O O12 0.096425 0.286021 0.478742
O O13 0.096327 0.330906 0.199801
O O14 0.026036 0.166028 0.328515
O O15 0.644517 0.000000 0.613203
#
# Coordination Sequence:
#
# PCOD9198283 Si02
#       7
#     4   8   8   8   8   8   4
#     4   9  16  36  55  89 115 147 189 245 287 353
#     4  12  23  34  53  81 114 151 194 242 286 341
#     4  11  21  36  56  77 107 151 196 241 285 335
#     4   9  20  37  61  88 116 151 192 237 291 351
#     4  10  22  38  55  78 111 150 197 240 284 342
#     4  10  20  36  57  79 115 151 190 233 291 350
#     4   9  18  32  65  89 119 147 193 241 293 353
#
# _framework density 22.668382999999999
#
# number of rings (size 3 to 8) (size 9 to 14) (size 15 to 20)
#    0.000    1.833    1.667    2.500    4.667    2.000 
#    0.000    6.667    0.000    2.000    0.000    2.333 
#    0.000    0.000    0.000    0.000    0.000    0.000 
#
# Total GULP energy -133741.269593 kJ/mol
# GULP energy per Si atom -5572.552900 kJ/mol
# Density = 2.261679 g / cm^3
# Si number density = 22.668383 Si / 1000 Ang^3
#
#
#
# Elastic Constant Matrix: (Units=GPa)
#
#
# Indices 1 2 3 4 5 6 
#
# 1 65.0597 38.2359 21.6898 0.0000 20.6605 0.0000
# 2 38.2359 117.7441 13.5576 0.0000 25.7919 0.0000
# 3 21.6898 13.5576 78.8467 0.0000 -0.3212 0.0000
# 4 0.0000 0.0000 0.0000 12.8244 0.0000 17.8215
# 5 20.6605 25.7919 -0.3212 0.0000 30.4622 0.0000
# 6 0.0000 0.0000 0.0000 17.8215 0.0000 -2.4499
#
#
#
# Elastic Compliance Matrix: (Units=1/GPa)
#
#
# Indices 1 2 3 4 5 6 
#
# 1 0.023864 -0.004314 -0.005874 0.000000 -0.012594 0.000000
# 2 -0.004314 0.011477 -0.000814 0.000000 -0.006800 0.000000
# 3 -0.005874 -0.000814 0.014458 0.000000 0.004826 0.000000
# 4 0.000000 0.000000 0.000000 0.007019 0.000000 0.051061
# 5 -0.012594 -0.006800 0.004826 0.000000 0.047178 0.000000
# 6 0.000000 0.000000 0.000000 0.051061 0.000000 -0.036744
#
#
# Mechanical properties :
#
#
# Convention : Reuss Voigt Hill
#
# Bulk Modulus (GPa) = 35.97899 45.40189 40.69044
# Shear Modulus (GPa) = 50.74914 20.71183 35.73049
#
# Velocity S-wave (km/s) = 4.73669 3.02601 3.97448
# Velocity P-wave (km/s) = 6.76914 5.68165 6.24910
#
# Compressibility (1/GPa) = 0.02779400
#
# Stress axis : x y z
#
# Youngs Moduli (GPa) = 41.90431 87.12796 69.16371
#
# Poissons Ratio (x) = 0.37590 0.40628
# Poissons Ratio (y) = 0.18079 0.05633
# Poissons Ratio (z) = 0.24615 0.07096
#
# Static dielectric constant tensor:
#      x y z
#    x 1.914730 0.000000 -0.020670 
#    y 0.000000 1.855980 0.000000 
#    z -0.020670 0.000000 1.822480 
# 
# From -- ./inp_files/108814.got.cif
#   From: 2010.05.17/outbox.cif.g08.bks.cpg/sg12_55_cif.got.tgz:108814.got - 2010.06.03 13:09:07.
