data_PCOD9198336
_publ_section_title
;
Structure prediction by ZEFSAII (Michael W. Deem and Ramdas Pophale) SiO2 
 PCOD9198336
Probable space group: C 2/M
;
_chemical_formula_sum "Si O2"
_cell_formula_units_Z 64
_cell_length_a 27.717025
_cell_length_b 20.995432
_cell_length_c 12.662066
_cell_angle_alpha 90.000000
_cell_angle_beta 26.519268
_cell_angle_gamma 90.000000
_cell_volume 3290.002625
_symmetry_space_group_name_H-M "C 2/M"
_symmetry_group_IT_number 12
_symmetry_cell_setting 'monoclinic'
loop_
_space_group_symop_operation_xyz
x,y,z
-x,y,-z
-x,-y,-z
x,-y,z
1/2+x,1/2+y,z
1/2-x,1/2+y,-z
1/2-x,1/2-y,-z
1/2+x,1/2-y,z
loop_
_atom_site_type_symbol
_atom_site_label
_atom_site_fract_x
_atom_site_fract_y
_atom_site_fract_z
Si Si1 0.613719 0.927179 0.836690
Si Si2 0.771161 0.151063 0.393165
Si Si3 0.350286 0.334955 0.832633
Si Si4 0.116449 0.690096 0.243513
Si Si5 0.549820 0.346802 0.132124
Si Si6 0.812839 0.347266 0.120469
Si Si7 0.620312 0.574134 0.418102
Si Si8 0.360640 0.731141 0.413139
O O1 0.712635 0.907168 0.566261
O O2 0.615396 0.875530 0.927115
O O3 0.628120 0.000000 0.845355
O O4 0.500000 0.923499 0.000000
O O5 0.674016 0.196714 0.541957
O O6 0.837494 0.191535 0.351170
O O7 0.856464 0.136402 0.134112
O O8 0.374558 0.264185 0.741019
O O9 0.397655 0.335999 0.856456
O O10 0.392808 0.385333 0.663919
O O11 0.220736 0.342777 0.090086
O O12 0.000000 0.664187 0.500000
O O13 0.129453 0.682815 0.092582
O O14 0.462246 0.401606 0.330083
O O15 0.478056 0.287619 0.228231
O O16 0.738718 0.405874 0.226267
O O17 0.728823 0.295656 0.330220
O O18 0.608374 0.500000 0.422108
#
# Coordination Sequence:
#
# PCOD9198336 Si02
#       8
#     8   8   8   8   8   8   8   8
#     4  10  22  39  57  80 112 149 189 231 277 334
#     4  10  21  36  57  83 112 146 189 231 274 331
#     4  10  22  35  52  83 114 145 183 228 277 336
#     4  10  20  36  57  81 111 142 183 233 281 328
#     4  11  21  34  55  83 114 143 184 236 280 322
#     4   9  19  37  60  82 107 147 190 227 277 339
#     4  10  21  38  58  79 111 156 193 222 272 340
#     4   9  20  36  54  82 115 145 178 227 284 338
#
# _framework density 19.452871999999999
#
# number of rings (size 3 to 8) (size 9 to 14) (size 15 to 20)
#    0.000    2.125    0.000    2.625    0.000    9.500 
#    0.000    0.000    0.000   15.375    0.000    0.000 
#    0.000    0.000    0.000    0.000    0.000    0.000 
#
# Total GULP energy -178624.620855 kJ/mol
# GULP energy per Si atom -5582.019402 kJ/mol
# Density = 1.940860 g / cm^3
# Si number density = 19.452872 Si / 1000 Ang^3
#
#
#
# Elastic Constant Matrix: (Units=GPa)
#
#
# Indices 1 2 3 4 5 6 
#
# 1 85.0324 5.0191 21.2203 0.0000 -0.9932 0.0000
# 2 5.0191 66.7540 13.5470 0.0000 7.0654 0.0000
# 3 21.2203 13.5470 90.5800 0.0000 7.7868 0.0000
# 4 0.0000 0.0000 0.0000 8.9350 0.0000 3.8034
# 5 -0.9932 7.0654 7.7868 0.0000 31.6639 0.0000
# 6 0.0000 0.0000 0.0000 3.8034 0.0000 21.4303
#
#
#
# Elastic Compliance Matrix: (Units=1/GPa)
#
#
# Indices 1 2 3 4 5 6 
#
# 1 0.012545 -0.000470 -0.002974 0.000000 0.001230 0.000000
# 2 -0.000470 0.015740 -0.001983 0.000000 -0.003039 0.000000
# 3 -0.002974 -0.001983 0.012263 0.000000 -0.002666 0.000000
# 4 0.000000 0.000000 0.000000 0.121065 0.000000 -0.021486
# 5 0.001230 -0.003039 -0.002666 0.000000 0.032954 0.000000
# 6 0.000000 0.000000 0.000000 -0.021486 0.000000 0.050476
#
#
# Mechanical properties :
#
#
# Convention : Reuss Voigt Hill
#
# Bulk Modulus (GPa) = 33.67757 35.77101 34.72429
# Shear Modulus (GPa) = 18.81157 25.91116 22.36136
#
# Velocity S-wave (km/s) = 3.11309 3.65361 3.39413
# Velocity P-wave (km/s) = 5.50198 6.01889 5.76623
#
# Compressibility (1/GPa) = 0.02969335
#
# Stress axis : x y z
#
# Youngs Moduli (GPa) = 79.71581 63.53338 81.54939
#
# Poissons Ratio (x) = 0.02985 0.24255
# Poissons Ratio (y) = 0.03745 0.16169
# Poissons Ratio (z) = 0.23710 0.12597
#
# Static dielectric constant tensor:
#      x y z
#    x 1.718170 0.000000 -0.024520 
#    y 0.000000 1.670560 0.000000 
#    z -0.024520 0.000000 1.685880 
# 
# From -- ./inp_files/184697.got.cif
#   From: 2010.05.17/outbox.cif.g08.bks.cpg/sg12_93_cif.got.tgz:184697.got - 2010.06.03 13:09:07.
