data_PCOD9198675
_publ_section_title
;
Structure prediction by ZEFSAII (Michael W. Deem and Ramdas Pophale) SiO2 
 PCOD9198675
Probable space group: C 2/M
;
_chemical_formula_sum "Si O2"
_cell_formula_units_Z 56
_cell_length_a 29.916836
_cell_length_b 8.758824
_cell_length_c 22.398104
_cell_angle_alpha 90.000000
_cell_angle_beta 30.814551
_cell_angle_gamma 90.000000
_cell_volume 3006.519352
_symmetry_space_group_name_H-M "C 2/M"
_symmetry_group_IT_number 12
_symmetry_cell_setting 'monoclinic'
loop_
_space_group_symop_operation_xyz
x,y,z
-x,y,-z
-x,-y,-z
x,-y,z
1/2+x,1/2+y,z
1/2-x,1/2+y,-z
1/2-x,1/2-y,-z
1/2+x,1/2-y,z
loop_
_atom_site_type_symbol
_atom_site_label
_atom_site_fract_x
_atom_site_fract_y
_atom_site_fract_z
Si Si1 0.666499 0.683441 0.364022
Si Si2 0.707204 0.682132 0.989201
Si Si3 0.029706 0.184641 0.619818
Si Si4 0.518359 0.316088 0.882006
Si Si5 0.986578 0.681518 0.794483
Si Si6 0.140661 0.816559 0.853166
Si Si7 0.858052 0.816364 0.741047
O O1 0.669237 0.500000 0.363872
O O2 0.607532 0.735759 0.486950
O O3 0.764445 0.745044 0.252733
O O4 0.624615 0.722168 0.347834
O O5 0.702674 0.500000 0.998370
O O6 0.770866 0.733793 0.863100
O O7 0.750000 0.750000 0.000000
O O8 0.610785 0.748511 0.092877
O O9 0.031572 0.256828 0.682901
O O10 0.938533 0.224478 0.691587
O O11 0.031812 0.000000 0.622537
O O12 0.516999 0.500000 0.876377
O O13 0.531674 0.237745 0.803461
O O14 0.591060 0.278855 0.848225
O O15 0.425180 0.270080 0.018069
O O16 0.981487 0.500000 0.798658
O O17 0.147793 0.000000 0.847868
O O18 0.845784 0.000000 0.759493
#
# Coordination Sequence:
#
# PCOD9198675 Si02
#       7
#     8   8   8   8   8   8   8
#     4  10  21  36  57  85 113 147 191 234 280 335
#     4  12  23  36  55  81 114 149 185 228 277 328
#     4  10  21  38  57  77 112 157 193 230 277 331
#     4   9  19  38  62  86 113 146 184 226 283 343
#     4  12  24  37  56  85 116 148 189 232 282 334
#     4   9  19  37  61  87 113 144 183 231 283 337
#     4  10  20  36  58  83 112 149 192 234 279 332
#
# _framework density 18.626190999999999
#
# number of rings (size 3 to 8) (size 9 to 14) (size 15 to 20)
#    0.000    1.714    1.429    4.714    0.000    6.286 
#    0.000    2.143    0.000    2.571    0.000    0.000 
#    0.000    0.000    0.000    0.000    0.000    0.000 
#
# Total GULP energy -156459.377258 kJ/mol
# GULP energy per Si atom -5587.834902 kJ/mol
# Density = 1.858380 g / cm^3
# Si number density = 18.626191 Si / 1000 Ang^3
#
#
#
# Elastic Constant Matrix: (Units=GPa)
#
#
# Indices 1 2 3 4 5 6 
#
# 1 88.7016 31.4894 41.9611 -0.0005 34.9702 -0.0013
# 2 31.4894 48.6130 27.7339 0.0021 16.7956 -0.0029
# 3 41.9611 27.7339 90.0016 0.0074 31.5254 -0.0029
# 4 -0.0005 0.0021 0.0074 28.2846 -0.0023 -1.9883
# 5 34.9702 16.7956 31.5254 -0.0023 32.5019 0.0010
# 6 -0.0013 -0.0029 -0.0029 -1.9883 0.0010 20.8231
#
#
#
# Elastic Compliance Matrix: (Units=1/GPa)
#
#
# Indices 1 2 3 4 5 6 
#
# 1 0.021620 -0.006802 -0.001616 0.000000 -0.018180 0.000001
# 2 -0.006802 0.028644 -0.004595 -0.000001 -0.003026 0.000003
# 3 -0.001616 -0.004595 0.017932 -0.000005 -0.013280 0.000002
# 4 0.000000 -0.000001 -0.000005 0.035594 0.000008 0.003399
# 5 -0.018180 -0.003026 -0.013280 0.000008 0.064773 -0.000006
# 6 0.000001 0.000003 0.000002 0.003399 -0.000006 0.048348
#
#
# Mechanical properties :
#
#
# Convention : Reuss Voigt Hill
#
# Bulk Modulus (GPa) = 23.71361 47.74278 35.72819
# Shear Modulus (GPa) = 19.45577 24.73069 22.09323
#
# Velocity S-wave (km/s) = 3.23544 3.64777 3.44777
# Velocity P-wave (km/s) = 5.16879 6.59009 5.92223
#
# Compressibility (1/GPa) = 0.04216988
#
# Stress axis : x y z
#
# Youngs Moduli (GPa) = 46.25328 34.91166 55.76617
#
# Poissons Ratio (x) = 0.23745 0.09012
# Poissons Ratio (y) = 0.31460 0.25627
# Poissons Ratio (z) = 0.07475 0.16043
#
# Static dielectric constant tensor:
#      x y z
#    x 1.642880 0.000000 0.020120 
#    y 0.000000 1.621510 0.000000 
#    z 0.020120 0.000000 1.634500 
# 
# From -- ./inp_files/287851.got.cif
#   From: 2010.05.17/outbox.cif.g08.bks.cpg/sg12_144_cif.got.tgz:287851.got - 2010.06.03 13:09:07.
