data_PCOD9198449
_publ_section_title
;
Structure prediction by ZEFSAII (Michael W. Deem and Ramdas Pophale) SiO2 
 PCOD9198449
Probable space group: C 2/M
;
_chemical_formula_sum "Si O2"
_cell_formula_units_Z 64
_cell_length_a 29.726734
_cell_length_b 8.871888
_cell_length_c 17.855518
_cell_angle_alpha 90.000000
_cell_angle_beta 133.937324
_cell_angle_gamma 90.000000
_cell_volume 3391.002150
_symmetry_space_group_name_H-M "C 2/M"
_symmetry_group_IT_number 12
_symmetry_cell_setting 'monoclinic'
loop_
_space_group_symop_operation_xyz
x,y,z
-x,y,-z
-x,-y,-z
x,-y,z
1/2+x,1/2+y,z
1/2-x,1/2+y,-z
1/2-x,1/2-y,-z
1/2+x,1/2-y,z
loop_
_atom_site_type_symbol
_atom_site_label
_atom_site_fract_x
_atom_site_fract_y
_atom_site_fract_z
Si Si1 0.779765 0.680779 0.191691
Si Si2 0.020326 0.679034 0.938700
Si Si3 0.111373 0.680233 0.795678
Si Si4 0.349038 0.317873 0.413995
Si Si5 0.570009 0.673147 0.284092
Si Si6 0.984238 0.826080 0.610285
Si Si7 0.808477 0.321520 0.525164
Si Si8 0.645411 0.181185 0.002699
O O1 0.779264 0.500000 0.199117
O O2 0.826122 0.721072 0.176948
O O3 0.809585 0.755609 0.299613
O O4 0.710573 0.740323 0.095800
O O5 0.011640 0.500000 0.913291
O O6 0.977615 0.773390 0.833523
O O7 0.092412 0.713134 0.003202
O O8 0.000000 0.707852 0.000000
O O9 0.105877 0.500000 0.790410
O O10 0.049957 0.742570 0.683779
O O11 0.118622 0.729977 0.890455
O O12 0.348338 0.500000 0.415690
O O13 0.422474 0.269924 0.495303
O O14 0.320377 0.254485 0.458045
O O15 0.589954 0.500000 0.295948
O O16 0.537173 0.680800 0.327412
O O17 0.629672 0.780913 0.356270
O O18 0.994356 0.000000 0.600958
O O19 0.801207 0.500000 0.508460
O O20 0.750000 0.250000 0.500000
O O21 0.655089 0.000000 0.011089
#
# Coordination Sequence:
#
# PCOD9198449 Si02
#       8
#     8   8   8   8   8   8   8   8
#     4  11  24  39  57  86 120 158 202 249 304 361
#     4  10  21  37  59  87 116 151 197 246 302 359
#     4  10  21  37  60  87 115 153 202 248 300 365
#     4  10  22  41  60  85 121 158 198 245 300 358
#     4  10  20  36  57  84 117 153 194 241 294 353
#     4   9  19  35  59  86 112 148 194 242 294 355
#     4  11  22  38  62  89 118 155 198 244 294 352
#     4  10  21  39  60  83 116 158 201 248 304 362
#
# _framework density 18.873477999999999
#
# number of rings (size 3 to 8) (size 9 to 14) (size 15 to 20)
#    0.000    1.875    1.250    3.375    0.000    6.250 
#    0.000    6.250    0.000    0.000    0.000    0.000 
#    0.000    0.000    0.000    0.000    0.000    0.000 
#
# Total GULP energy -178716.173861 kJ/mol
# GULP energy per Si atom -5584.880433 kJ/mol
# Density = 1.883052 g / cm^3
# Si number density = 18.873478 Si / 1000 Ang^3
#
#
#
# Elastic Constant Matrix: (Units=GPa)
#
#
# Indices 1 2 3 4 5 6 
#
# 1 107.8816 43.4046 46.1412 0.0000 21.6319 0.0000
# 2 43.4046 55.5354 32.9549 0.0000 7.9322 0.0000
# 3 46.1412 32.9549 92.1567 0.0000 17.2877 0.0000
# 4 0.0000 0.0000 0.0000 32.8766 0.0000 6.0639
# 5 21.6319 7.9322 17.2877 0.0000 26.7984 0.0000
# 6 0.0000 0.0000 0.0000 6.0639 0.0000 26.5372
#
#
#
# Elastic Compliance Matrix: (Units=1/GPa)
#
#
# Indices 1 2 3 4 5 6 
#
# 1 0.016076 -0.009560 -0.003102 0.000000 -0.008146 0.000000
# 2 -0.009560 0.028610 -0.006033 0.000000 0.003141 0.000000
# 3 -0.003102 -0.006033 0.015651 0.000000 -0.005807 0.000000
# 4 0.000000 0.000000 0.000000 0.031755 0.000000 -0.007256
# 5 -0.008146 0.003141 -0.005807 0.000000 0.046707 0.000000
# 6 0.000000 0.000000 0.000000 -0.007256 0.000000 0.039341
#
#
# Mechanical properties :
#
#
# Convention : Reuss Voigt Hill
#
# Bulk Modulus (GPa) = 43.58147 55.61945 49.60046
# Shear Modulus (GPa) = 22.40340 26.11397 24.25869
#
# Velocity S-wave (km/s) = 3.44907 3.72376 3.58904
# Velocity P-wave (km/s) = 6.24523 6.92980 6.59640
#
# Compressibility (1/GPa) = 0.02294553
#
# Stress axis : x y z
#
# Youngs Moduli (GPa) = 62.20481 34.95275 63.89323
#
# Poissons Ratio (x) = 0.33415 0.19821
# Poissons Ratio (y) = 0.59468 0.38550
# Poissons Ratio (z) = 0.19297 0.21089
#
# Static dielectric constant tensor:
#      x y z
#    x 1.649820 0.000000 -0.001800 
#    y 0.000000 1.638130 0.000000 
#    z -0.001800 0.000000 1.634650 
# 
# From -- ./inp_files/295848.got.cif
#   From: 2010.05.17/outbox.cif.g08.bks.cpg/sg12_148_cif.got.tgz:295848.got - 2010.06.03 13:09:07.
