data_PCOD9198859
_publ_section_title
;
Structure prediction by ZEFSAII (Michael W. Deem and Ramdas Pophale) SiO2 
 PCOD9198859
Probable space group: C 2/M
;
_chemical_formula_sum "Si O2"
_cell_formula_units_Z 40
_cell_length_a 12.874700
_cell_length_b 14.969311
_cell_length_c 9.739149
_cell_angle_alpha 90.000000
_cell_angle_beta 103.577060
_cell_angle_gamma 90.000000
_cell_volume 1824.529160
_symmetry_space_group_name_H-M "C 2/M"
_symmetry_group_IT_number 12
_symmetry_cell_setting 'monoclinic'
loop_
_space_group_symop_operation_xyz
x,y,z
-x,y,-z
-x,-y,-z
x,-y,z
1/2+x,1/2+y,z
1/2-x,1/2+y,-z
1/2-x,1/2-y,-z
1/2+x,1/2-y,z
loop_
_atom_site_type_symbol
_atom_site_label
_atom_site_fract_x
_atom_site_fract_y
_atom_site_fract_z
Si Si1 0.584201 0.351179 0.716602
Si Si2 0.348175 0.397901 0.554748
Si Si3 0.110432 0.396507 0.112655
Si Si4 0.226099 0.765846 0.263909
Si Si5 0.316906 0.597542 0.981629
O O1 0.461755 0.357179 0.638435
O O2 0.644820 0.398863 0.608051
O O3 0.652771 0.260417 0.740452
O O4 0.598357 0.393322 0.869844
O O5 0.334860 0.500000 0.595593
O O6 0.268999 0.327613 0.599726
O O7 0.103268 0.500000 0.161353
O O8 0.150465 0.322656 0.235274
O O9 0.204602 0.394892 0.028146
O O10 0.000000 0.374609 0.000000
O O11 0.177302 0.826919 0.128993
O O12 0.324622 0.500000 0.920302
#
# Coordination Sequence:
#
# PCOD9198859 Si02
#       5
#     8   8   8   8   8
#     4  10  21  40  57  83 119 161 194 231 285 359
#     4  11  23  39  62  87 118 158 197 238 291 350
#     4   9  19  34  53  79 113 154 190 225 283 355
#     4  11  23  35  61  90 119 143 195 250 297 330
#     4  10  20  36  58  87 119 147 186 243 297 341
#
# _framework density 21.923463999999999
#
# number of rings (size 3 to 8) (size 9 to 14) (size 15 to 20)
#    0.000    1.800    0.000    6.000    5.600    1.600 
#    0.000    2.000    0.000    0.000    0.000    5.600 
#    0.000    0.000    0.000    0.000    0.000    0.000 
#
# Total GULP energy -111592.346196 kJ/mol
# GULP energy per Si atom -5579.617310 kJ/mol
# Density = 2.187357 g / cm^3
# Si number density = 21.923464 Si / 1000 Ang^3
#
#
#
# Elastic Constant Matrix: (Units=GPa)
#
#
# Indices 1 2 3 4 5 6 
#
# 1 17.2485 14.8251 -6.7476 0.0000 15.3758 0.0000
# 2 14.8251 138.8346 37.7954 0.0000 -2.5930 0.0000
# 3 -6.7476 37.7954 77.2461 0.0000 -1.1754 0.0000
# 4 0.0000 0.0000 0.0000 36.9997 0.0000 10.7144
# 5 15.3758 -2.5930 -1.1754 0.0000 32.3078 0.0000
# 6 0.0000 0.0000 0.0000 10.7144 0.0000 26.8870
#
#
#
# Elastic Compliance Matrix: (Units=1/GPa)
#
#
# Indices 1 2 3 4 5 6 
#
# 1 0.156096 -0.024776 0.024611 0.000000 -0.075382 0.000000
# 2 -0.024776 0.012251 -0.007968 0.000000 0.012485 0.000000
# 3 0.024611 -0.007968 0.018817 0.000000 -0.011668 0.000000
# 4 0.000000 0.000000 0.000000 0.030553 0.000000 -0.012175
# 5 -0.075382 0.012485 -0.011668 0.000000 0.067405 0.000000
# 6 0.000000 0.000000 0.000000 -0.012175 0.000000 0.042044
#
#
# Mechanical properties :
#
#
# Convention : Reuss Voigt Hill
#
# Bulk Modulus (GPa) = 5.85151 36.11944 20.98548
# Shear Modulus (GPa) = 12.48755 31.73600 22.11177
#
# Velocity S-wave (km/s) = 2.38921 3.80884 3.17927
# Velocity P-wave (km/s) = 3.20718 5.98782 4.80312
#
# Compressibility (1/GPa) = 0.17089602
#
# Stress axis : x y z
#
# Youngs Moduli (GPa) = 6.40632 81.62665 53.14420
#
# Poissons Ratio (x) = 2.02238 -1.30792
# Poissons Ratio (y) = 0.15872 0.42348
# Poissons Ratio (z) = -0.15766 0.65044
#
# Static dielectric constant tensor:
#      x y z
#    x 1.829400 0.000000 0.009340 
#    y 0.000000 1.843310 0.000000 
#    z 0.009340 0.000000 1.830970 
# 
# From -- ./inp_files/59206.got.cif
#   From: 2010.05.17/outbox.cif.g08.bks.cpg/sg12_30_cif.got.tgz:59206.got - 2010.06.03 13:09:07.
