data_PCOD9198464
_publ_section_title
;
Structure prediction by ZEFSAII (Michael W. Deem and Ramdas Pophale) SiO2 
 PCOD9198464
Probable space group: C 2/M
;
_chemical_formula_sum "Si O2"
_cell_formula_units_Z 58
_cell_length_a 28.325094
_cell_length_b 9.588974
_cell_length_c 10.987380
_cell_angle_alpha 90.000000
_cell_angle_beta 91.579218
_cell_angle_gamma 90.000000
_cell_volume 2983.133295
_symmetry_space_group_name_H-M "C 2/M"
_symmetry_group_IT_number 12
_symmetry_cell_setting 'monoclinic'
loop_
_space_group_symop_operation_xyz
x,y,z
-x,y,-z
-x,-y,-z
x,-y,z
1/2+x,1/2+y,z
1/2-x,1/2+y,-z
1/2-x,1/2-y,-z
1/2+x,1/2-y,z
loop_
_atom_site_type_symbol
_atom_site_label
_atom_site_fract_x
_atom_site_fract_y
_atom_site_fract_z
Si Si1 0.156980 0.340706 0.048808
Si Si2 0.336250 0.338401 0.580076
Si Si3 0.768582 0.837316 0.812109
Si Si4 0.909404 0.657986 0.718137
Si Si5 0.000000 0.000000 0.500000
Si Si6 0.997942 0.847275 0.750809
Si Si7 0.601346 0.338909 0.850347
Si Si8 0.811900 0.161473 0.310147
O O1 0.168929 0.500000 0.016623
O O2 0.202666 0.248447 0.084651
O O3 0.125737 0.344969 0.169247
O O4 0.125184 0.264241 0.947060
O O5 0.351643 0.500000 0.568596
O O6 0.300169 0.330400 0.690328
O O7 0.381449 0.245331 0.614147
O O8 0.311653 0.298312 0.451869
O O9 0.720169 0.761242 0.773685
O O10 0.763350 0.000000 0.843287
O O11 0.918588 0.500000 0.679882
O O12 0.956649 0.736883 0.760324
O O13 0.005149 0.118761 0.608626
O O14 0.047449 0.806344 0.814238
O O15 0.983196 0.000000 0.802461
O O16 0.603532 0.500000 0.894942
O O17 0.634449 0.333714 0.733347
O O18 0.795355 0.000000 0.297561
#
# Coordination Sequence:
#
# PCOD9198464 Si02
#       8
#     8   8   8   8   2   8   8   8
#     4  10  22  40  59  78 112 149 188 232 284 331
#     4   9  19  34  58  84 113 148 186 227 278 337
#     4  10  20  36  57  85 112 144 188 234 276 335
#     4  10  21  36  57  86 112 147 187 233 282 330
#     4   8  20  36  66  82 116 156 182 224 266 344
#     4   9  20  36  61  84 112 150 186 221 268 334
#     4  10  22  38  56  83 110 144 191 234 269 329
#     4  10  21  35  57  82 112 148 184 229 287 338
#
# _framework density 19.442644000000001
#
# number of rings (size 3 to 8) (size 9 to 14) (size 15 to 20)
#    0.414    1.931    0.000    1.655    1.931    4.966 
#    0.000    3.103    0.000    0.000    0.000    0.000 
#    0.000    0.000    0.000    0.000    0.000    0.000 
#
# Total GULP energy -161589.916020 kJ/mol
# GULP energy per Si atom -5572.066070 kJ/mol
# Density = 1.939839 g / cm^3
# Si number density = 19.442644 Si / 1000 Ang^3
#
#
#
# Elastic Constant Matrix: (Units=GPa)
#
#
# Indices 1 2 3 4 5 6 
#
# 1 111.5119 76.4514 10.1140 0.0000 23.1503 0.0000
# 2 76.4514 104.5831 25.5738 0.0000 16.9423 0.0000
# 3 10.1140 25.5738 47.5274 0.0000 13.8152 0.0000
# 4 0.0000 0.0000 0.0000 21.5224 0.0000 7.1583
# 5 23.1503 16.9423 13.8152 0.0000 15.2608 0.0000
# 6 0.0000 0.0000 0.0000 7.1583 0.0000 29.8263
#
#
#
# Elastic Compliance Matrix: (Units=1/GPa)
#
#
# Indices 1 2 3 4 5 6 
#
# 1 0.026374 -0.017179 0.013187 0.000000 -0.032876 0.000000
# 2 -0.017179 0.023269 -0.012121 0.000000 0.011199 0.000000
# 3 0.013187 -0.012121 0.036180 0.000000 -0.039302 0.000000
# 4 0.000000 0.000000 0.000000 0.050494 0.000000 -0.012119
# 5 -0.032876 0.011199 -0.039302 0.000000 0.138545 0.000000
# 6 0.000000 0.000000 0.000000 -0.012119 0.000000 0.036436
#
#
# Mechanical properties :
#
#
# Convention : Reuss Voigt Hill
#
# Bulk Modulus (GPa) = 18.65667 54.21119 36.43393
# Shear Modulus (GPa) = 13.83549 23.42076 18.62813
#
# Velocity S-wave (km/s) = 2.67049 3.47451 3.09869
# Velocity P-wave (km/s) = 4.37324 6.63622 5.61982
#
# Compressibility (1/GPa) = 0.05360014
#
# Stress axis : x y z
#
# Youngs Moduli (GPa) = 37.91566 42.97503 27.63934
#
# Poissons Ratio (x) = 0.73826 -0.36449
# Poissons Ratio (y) = 0.65135 0.33500
# Poissons Ratio (z) = -0.50001 0.52088
#
# Static dielectric constant tensor:
#      x y z
#    x 1.664660 0.000000 -0.031420 
#    y 0.000000 1.671740 0.000000 
#    z -0.031420 0.000000 1.683170 
# 
# From -- ./inp_files/180951.got.cif
#   From: 2010.05.17/outbox.cif.g08.bks.cpg/sg12_91_cif.got.tgz:180951.got - 2010.06.03 13:09:07.
