data_PCOD9198604
_publ_section_title
;
Structure prediction by ZEFSAII (Michael W. Deem and Ramdas Pophale) SiO2 
 PCOD9198604
Probable space group: C 2/M
;
_chemical_formula_sum "Si O2"
_cell_formula_units_Z 64
_cell_length_a 19.479419
_cell_length_b 7.707994
_cell_length_c 19.624680
_cell_angle_alpha 90.000000
_cell_angle_beta 101.579729
_cell_angle_gamma 90.000000
_cell_volume 2886.617674
_symmetry_space_group_name_H-M "C 2/M"
_symmetry_group_IT_number 12
_symmetry_cell_setting 'monoclinic'
loop_
_space_group_symop_operation_xyz
x,y,z
-x,y,-z
-x,-y,-z
x,-y,z
1/2+x,1/2+y,z
1/2-x,1/2+y,-z
1/2-x,1/2-y,-z
1/2+x,1/2-y,z
loop_
_atom_site_type_symbol
_atom_site_label
_atom_site_fract_x
_atom_site_fract_y
_atom_site_fract_z
Si Si1 0.086160 0.200584 0.167805
Si Si2 0.079830 0.712540 0.515871
Si Si3 0.309842 0.207880 0.566329
Si Si4 0.949351 0.210109 0.218486
Si Si5 0.165008 0.792157 0.056916
Si Si6 0.365857 0.795989 0.328336
Si Si7 0.676046 0.290647 0.904413
Si Si8 0.287461 0.202872 0.714675
O O1 0.108464 0.278674 0.099326
O O2 0.157290 0.205783 0.225734
O O3 0.021659 0.273697 0.198892
O O4 0.066650 0.000000 0.151021
O O5 0.081062 0.500000 0.517296
O O6 0.119479 0.769853 0.455828
O O7 0.118303 0.771887 0.592587
O O8 0.000000 0.768296 0.500000
O O9 0.250000 0.250000 0.500000
O O10 0.295407 0.273644 0.639108
O O11 0.312752 0.000000 0.572696
O O12 0.931196 0.267320 0.291283
O O13 0.883955 0.269060 0.158855
O O14 0.950405 0.000000 0.219936
O O15 0.244478 0.759139 0.097633
O O16 0.156011 0.000000 0.052392
O O17 0.161267 0.726684 0.978600
O O18 0.294538 0.717168 0.284124
O O19 0.353157 0.000000 0.331233
O O20 0.673746 0.500000 0.904902
O O21 0.306339 0.000000 0.720297
#
# Coordination Sequence:
#
# PCOD9198604 Si02
#       8
#     8   8   8   8   8   8   8   8
#     4  10  22  38  56  81 114 149 185 229 276 327
#     4   9  19  35  56  80 107 139 178 224 272 324
#     4  10  20  36  58  82 108 139 180 228 275 327
#     4  10  22  38  55  80 116 149 181 228 281 328
#     4   9  18  34  57  83 108 141 188 227 265 323
#     4  11  22  37  60  82 108 148 189 228 274 332
#     4   9  18  34  57  82 109 144 182 225 274 322
#     4  11  23  37  58  83 112 146 186 233 277 328
#
# _framework density 22.171278000000001
#
# number of rings (size 3 to 8) (size 9 to 14) (size 15 to 20)
#    0.000    2.125    1.250    1.500    1.750    4.500 
#    0.000    2.500    0.000    1.875    0.000    5.250 
#    0.000    0.000    0.000    0.000    0.000    0.000 
#
# Total GULP energy -178751.297038 kJ/mol
# GULP energy per Si atom -5585.978032 kJ/mol
# Density = 2.212082 g / cm^3
# Si number density = 22.171278 Si / 1000 Ang^3
#
#
#
# Elastic Constant Matrix: (Units=GPa)
#
#
# Indices 1 2 3 4 5 6 
#
# 1 88.8800 -5.7692 17.6730 0.0000 -32.2321 0.0000
# 2 -5.7692 42.3689 -2.3579 0.0000 -2.7822 0.0000
# 3 17.6730 -2.3579 69.0894 0.0000 -26.9987 0.0000
# 4 0.0000 0.0000 0.0000 10.4766 0.0000 -2.0243
# 5 -32.2321 -2.7822 -26.9987 0.0000 43.2554 0.0000
# 6 0.0000 0.0000 0.0000 -2.0243 0.0000 19.8411
#
#
#
# Elastic Compliance Matrix: (Units=1/GPa)
#
#
# Indices 1 2 3 4 5 6 
#
# 1 0.015821 0.003036 0.000979 0.000000 0.012595 0.000000
# 2 0.003036 0.024467 0.002060 0.000000 0.005122 0.000000
# 3 0.000979 0.002060 0.019351 0.000000 0.012940 0.000000
# 4 0.000000 0.000000 0.000000 0.097371 0.000000 0.009934
# 5 0.012595 0.005122 0.012940 0.000000 0.040910 0.000000
# 6 0.000000 0.000000 0.000000 0.009934 0.000000 0.051414
#
#
# Mechanical properties :
#
#
# Convention : Reuss Voigt Hill
#
# Bulk Modulus (GPa) = 13.93013 24.38113 19.15563
# Shear Modulus (GPa) = 19.14878 27.43412 23.29145
#
# Velocity S-wave (km/s) = 2.94202 3.52145 3.24469
# Velocity P-wave (km/s) = 4.22342 5.24926 4.76403
#
# Compressibility (1/GPa) = 0.07178686
#
# Stress axis : x y z
#
# Youngs Moduli (GPa) = 63.20602 40.87213 51.67810
#
# Poissons Ratio (x) = -0.12408 -0.05057
# Poissons Ratio (y) = -0.19189 -0.10645
# Poissons Ratio (z) = -0.06185 -0.08419
#
# Static dielectric constant tensor:
#      x y z
#    x 1.798680 0.000000 -0.029530 
#    y 0.000000 1.823320 0.000000 
#    z -0.029530 0.000000 1.827440 
# 
# From -- ./inp_files/314146.got.cif
#   From: 2010.05.17/outbox.cif.g08.bks.cpg/sg12_158_cif.got.tgz:314146.got - 2010.06.03 13:09:07.
