data_PCOD9198896
_publ_section_title
;
Structure prediction by ZEFSAII (Michael W. Deem and Ramdas Pophale) SiO2 
 PCOD9198896
Probable space group: C 2/M
;
_chemical_formula_sum "Si O2"
_cell_formula_units_Z 40
_cell_length_a 21.380191
_cell_length_b 8.922423
_cell_length_c 10.186288
_cell_angle_alpha 90.000000
_cell_angle_beta 80.555711
_cell_angle_gamma 90.000000
_cell_volume 1916.829516
_symmetry_space_group_name_H-M "C 2/M"
_symmetry_group_IT_number 12
_symmetry_cell_setting 'monoclinic'
loop_
_space_group_symop_operation_xyz
x,y,z
-x,y,-z
-x,-y,-z
x,-y,z
1/2+x,1/2+y,z
1/2-x,1/2+y,-z
1/2-x,1/2-y,-z
1/2+x,1/2-y,z
loop_
_atom_site_type_symbol
_atom_site_label
_atom_site_fract_x
_atom_site_fract_y
_atom_site_fract_z
Si Si1 0.314998 0.176129 0.429845
Si Si2 0.942942 0.820352 0.421226
Si Si3 0.284620 0.672405 0.182719
Si Si4 0.339174 0.324817 0.869049
Si Si5 0.517579 0.317384 0.140182
O O1 0.250000 0.250000 0.500000
O O2 0.376920 0.243369 0.477380
O O3 0.318552 0.222917 0.275810
O O4 0.312276 0.000000 0.447445
O O5 0.000000 0.784333 0.500000
O O6 0.966922 0.775550 0.267943
O O7 0.933892 0.000000 0.426725
O O8 0.287445 0.500000 0.226493
O O9 0.212312 0.727291 0.190054
O O10 0.317664 0.680318 0.029210
O O11 0.335383 0.500000 0.828158
O O12 0.411736 0.272749 0.839655
O O13 0.519004 0.500000 0.135480
O O14 0.500000 0.265367 0.000000
#
# Coordination Sequence:
#
# PCOD9198896 Si02
#       5
#     8   8   8   8   8
#     4  12  26  43  64  88 120 162 210 259 315 374
#     4  10  22  40  63  93 126 162 206 254 309 374
#     4  10  20  36  58  88 123 158 204 257 309 363
#     4   9  18  33  58  89 122 162 205 250 302 367
#     4   9  17  32  57  86 119 161 204 245 297 366
#
# _framework density 20.867792999999999
#
# number of rings (size 3 to 8) (size 9 to 14) (size 15 to 20)
#    0.000    2.000    0.000    3.600    2.800    4.400 
#    0.000    1.000    0.000    2.400    0.000    0.000 
#    0.000    0.000    0.000    0.000    0.000    0.000 
#
# Total GULP energy -111815.169007 kJ/mol
# GULP energy per Si atom -5590.758450 kJ/mol
# Density = 2.082030 g / cm^3
# Si number density = 20.867793 Si / 1000 Ang^3
#
#
#
# Elastic Constant Matrix: (Units=GPa)
#
#
# Indices 1 2 3 4 5 6 
#
# 1 170.4258 62.3669 30.2385 0.0000 -14.3315 0.0000
# 2 62.3669 67.6257 24.9161 0.0000 -2.1512 0.0000
# 3 30.2385 24.9161 55.2210 0.0000 1.7582 0.0000
# 4 0.0000 0.0000 0.0000 17.5898 0.0000 5.1924
# 5 -14.3315 -2.1512 1.7582 0.0000 28.0781 0.0000
# 6 0.0000 0.0000 0.0000 5.1924 0.0000 30.7778
#
#
#
# Elastic Compliance Matrix: (Units=1/GPa)
#
#
# Indices 1 2 3 4 5 6 
#
# 1 0.009440 -0.007932 -0.001728 0.000000 0.004319 0.000000
# 2 -0.007932 0.024498 -0.006654 0.000000 -0.001755 0.000000
# 3 -0.001728 -0.006654 0.022146 0.000000 -0.002779 0.000000
# 4 0.000000 0.000000 0.000000 0.059831 0.000000 -0.010094
# 5 0.004319 -0.001755 -0.002779 0.000000 0.037859 0.000000
# 6 0.000000 0.000000 0.000000 -0.010094 0.000000 0.034194
#
#
# Mechanical properties :
#
#
# Convention : Reuss Voigt Hill
#
# Bulk Modulus (GPa) = 42.63288 58.70170 50.66729
# Shear Modulus (GPa) = 21.88991 27.00587 24.44789
#
# Velocity S-wave (km/s) = 3.24231 3.60132 3.42652
# Velocity P-wave (km/s) = 5.87291 6.74418 6.32357
#
# Compressibility (1/GPa) = 0.02345608
#
# Stress axis : x y z
#
# Youngs Moduli (GPa) = 105.93098 40.81895 45.15447
#
# Poissons Ratio (x) = 0.32378 0.07802
# Poissons Ratio (y) = 0.84025 0.30048
# Poissons Ratio (z) = 0.18303 0.27163
#
# Static dielectric constant tensor:
#      x y z
#    x 1.742360 0.000000 -0.002120 
#    y 0.000000 1.694520 0.000000 
#    z -0.002120 0.000000 1.799120 
# 
# From -- ./inp_files/162494.got.cif
#   From: 2010.05.17/outbox.cif.g08.bks.cpg/sg12_82_cif.got.tgz:162494.got - 2010.06.03 13:09:07.
