data_PCOD9198800
_publ_section_title
;
Structure prediction by ZEFSAII (Michael W. Deem and Ramdas Pophale) SiO2 
 PCOD9198800
Probable space group: C 2/M
;
_chemical_formula_sum "Si O2"
_cell_formula_units_Z 64
_cell_length_a 25.746459
_cell_length_b 8.120139
_cell_length_c 15.568067
_cell_angle_alpha 90.000000
_cell_angle_beta 71.364815
_cell_angle_gamma 90.000000
_cell_volume 3084.097131
_symmetry_space_group_name_H-M "C 2/M"
_symmetry_group_IT_number 12
_symmetry_cell_setting 'monoclinic'
loop_
_space_group_symop_operation_xyz
x,y,z
-x,y,-z
-x,-y,-z
x,-y,z
1/2+x,1/2+y,z
1/2-x,1/2+y,-z
1/2-x,1/2-y,-z
1/2+x,1/2-y,z
loop_
_atom_site_type_symbol
_atom_site_label
_atom_site_fract_x
_atom_site_fract_y
_atom_site_fract_z
Si Si1 0.623044 0.195716 0.749224
Si Si2 0.037604 0.194966 0.398342
Si Si3 0.703302 0.198368 0.190646
Si Si4 0.497080 0.199792 0.235689
Si Si5 0.824856 0.300751 0.101406
Si Si6 0.188432 0.190389 0.550200
Si Si7 0.387372 0.201147 0.898228
Si Si8 0.345887 0.191313 0.611558
O O1 0.561437 0.260719 0.767498
O O2 0.652308 0.261410 0.819305
O O3 0.658818 0.222098 0.645037
O O4 0.617738 0.000000 0.764779
O O5 0.007032 0.242762 0.327528
O O6 0.094282 0.291716 0.378496
O O7 0.000000 0.232175 0.500000
O O8 0.049683 0.000000 0.391684
O O9 0.762153 0.247169 0.123893
O O10 0.653954 0.256299 0.155477
O O11 0.695094 0.257013 0.293217
O O12 0.699742 0.000000 0.195775
O O13 0.550541 0.253458 0.153721
O O14 0.496250 0.000000 0.235935
O O15 0.825340 0.500000 0.101494
O O16 0.862541 0.245716 0.002263
O O17 0.250000 0.250000 0.500000
O O18 0.156798 0.216973 0.477287
O O19 0.189925 0.000000 0.571783
O O20 0.387193 0.000000 0.897434
O O21 0.333399 0.000000 0.600615
#
# Coordination Sequence:
#
# PCOD9198800 Si02
#       8
#     8   8   8   8   8   8   8   8
#     4  10  22  39  60  88 118 156 203 246 298 358
#     4  11  23  37  55  84 118 151 192 241 293 348
#     4  10  20  36  58  85 118 153 193 238 295 359
#     4  10  20  38  61  83 116 158 198 244 296 356
#     4  10  21  36  58  87 118 152 196 248 297 351
#     4  12  25  41  61  86 120 160 201 248 297 350
#     4   9  18  36  59  86 118 152 195 246 298 350
#     4  11  22  38  61  87 116 154 195 240 296 355
#
# _framework density 20.751618000000001
#
# number of rings (size 3 to 8) (size 9 to 14) (size 15 to 20)
#    0.000    1.625    1.250    3.750    0.000    7.500 
#    0.000    3.125    0.000    0.000    0.000    2.625 
#    0.000    0.000    0.000    0.000    0.000    0.000 
#
# Total GULP energy -178866.134124 kJ/mol
# GULP energy per Si atom -5589.566691 kJ/mol
# Density = 2.070439 g / cm^3
# Si number density = 20.751618 Si / 1000 Ang^3
#
#
#
# Elastic Constant Matrix: (Units=GPa)
#
#
# Indices 1 2 3 4 5 6 
#
# 1 110.4185 -3.9048 38.2738 0.0000 -9.7263 0.0000
# 2 -3.9048 8.5703 -3.0310 0.0000 -2.0381 0.0000
# 3 38.2738 -3.0310 129.1624 0.0000 -12.9907 0.0000
# 4 0.0000 0.0000 0.0000 7.0705 0.0000 -6.0446
# 5 -9.7263 -2.0381 -12.9907 0.0000 35.2920 0.0000
# 6 0.0000 0.0000 0.0000 -6.0446 0.0000 22.3342
#
#
#
# Elastic Compliance Matrix: (Units=1/GPa)
#
#
# Indices 1 2 3 4 5 6 
#
# 1 0.010345 0.004233 -0.002757 0.000000 0.002081 0.000000
# 2 0.004233 0.121669 0.002518 0.000000 0.009120 0.000000
# 3 -0.002757 0.002518 0.008885 0.000000 0.002656 0.000000
# 4 0.000000 0.000000 0.000000 0.184006 0.000000 0.049800
# 5 0.002081 0.009120 0.002656 0.000000 0.030413 0.000000
# 6 0.000000 0.000000 0.000000 0.049800 0.000000 0.058252
#
#
# Mechanical properties :
#
#
# Convention : Reuss Voigt Hill
#
# Bulk Modulus (GPa) = 6.71645 34.53637 20.62641
# Shear Modulus (GPa) = 10.98391 27.39358 19.18874
#
# Velocity S-wave (km/s) = 2.30316 3.63722 3.04416
# Velocity P-wave (km/s) = 3.21190 5.85816 4.72410
#
# Compressibility (1/GPa) = 0.14888821
#
# Stress axis : x y z
#
# Youngs Moduli (GPa) = 96.66481 8.21900 112.54473
#
# Poissons Ratio (x) = -0.03479 0.31027
# Poissons Ratio (y) = -0.40920 -0.28339
# Poissons Ratio (z) = 0.26649 -0.02070
#
# Static dielectric constant tensor:
#      x y z
#    x 1.735240 0.000000 0.008090 
#    y 0.000000 1.739380 0.000000 
#    z 0.008090 0.000000 1.697490 
# 
# From -- ./inp_files/243776.got.cif
#   From: 2010.05.17/outbox.cif.g08.bks.cpg/sg12_122_cif.got.tgz:243776.got - 2010.06.03 13:09:07.
