data_PCOD9198955
_publ_section_title
;
Structure prediction by ZEFSAII (Michael W. Deem and Ramdas Pophale) SiO2 
 PCOD9198955
Probable space group: C 2/M
;
_chemical_formula_sum "Si O2"
_cell_formula_units_Z 56
_cell_length_a 10.307923
_cell_length_b 25.419683
_cell_length_c 14.521787
_cell_angle_alpha 90.000000
_cell_angle_beta 43.701614
_cell_angle_gamma 90.000000
_cell_volume 2628.925605
_symmetry_space_group_name_H-M "C 2/M"
_symmetry_group_IT_number 12
_symmetry_cell_setting 'monoclinic'
loop_
_space_group_symop_operation_xyz
x,y,z
-x,y,-z
-x,-y,-z
x,-y,z
1/2+x,1/2+y,z
1/2-x,1/2+y,-z
1/2-x,1/2-y,-z
1/2+x,1/2-y,z
loop_
_atom_site_type_symbol
_atom_site_label
_atom_site_fract_x
_atom_site_fract_y
_atom_site_fract_z
Si Si1 0.311508 0.813230 0.550270
Si Si2 0.593904 0.440037 0.162248
Si Si3 0.190336 0.327413 0.130311
Si Si4 0.140304 0.093359 0.345527
Si Si5 0.068417 0.558819 0.140034
Si Si6 0.542500 0.661111 0.840177
Si Si7 0.280409 0.804580 0.361166
O O1 0.500000 0.835272 0.500000
O O2 0.123181 0.827094 0.699783
O O3 0.301547 0.831219 0.450580
O O4 0.315381 0.750184 0.563985
O O5 0.532168 0.500000 0.187191
O O6 0.573020 0.420472 0.277665
O O7 0.484573 0.401931 0.148019
O O8 0.812092 0.437662 0.016638
O O9 0.137976 0.389489 0.158189
O O10 0.305362 0.317754 0.164964
O O11 0.995839 0.296915 0.218933
O O12 0.338703 0.317777 0.972713
O O13 0.345329 0.066365 0.246506
O O14 0.177629 0.155867 0.344742
O O15 0.000000 0.076616 0.500000
O O16 0.108082 0.500000 0.156607
#
# Coordination Sequence:
#
# PCOD9198955 Si02
#       7
#     8   8   8   8   8   8   8
#     4  11  21  37  61  82 111 147 187 230 280 338
#     4  10  21  37  57  83 114 152 192 227 277 339
#     4   9  19  37  57  82 115 142 186 235 280 321
#     4  11  21  35  55  80 117 145 183 235 279 329
#     4   9  19  35  57  81 110 150 189 228 277 334
#     4  10  20  36  59  82 112 150 182 235 280 325
#     4  10  22  38  58  85 109 146 191 229 279 339
#
# _framework density 21.301479
#
# number of rings (size 3 to 8) (size 9 to 14) (size 15 to 20)
#    0.000    2.000    1.429    2.143    0.000    4.571 
#    0.000    2.857    6.286    0.429    0.000    0.000 
#    0.000    0.000    0.000    0.000    0.000    0.000 
#
# Total GULP energy -156110.502756 kJ/mol
# GULP energy per Si atom -5575.375098 kJ/mol
# Density = 2.125300 g / cm^3
# Si number density = 21.301479 Si / 1000 Ang^3
#
#
#
# Elastic Constant Matrix: (Units=GPa)
#
#
# Indices 1 2 3 4 5 6 
#
# 1 31.2033 -12.1819 7.9609 0.0000 -11.6576 0.0000
# 2 -12.1819 39.8031 -12.2761 0.0000 4.1400 0.0000
# 3 7.9609 -12.2761 114.0339 0.0000 -1.4098 0.0000
# 4 0.0000 0.0000 0.0000 23.4906 0.0000 30.4885
# 5 -11.6576 4.1400 -1.4098 0.0000 16.8514 0.0000
# 6 0.0000 0.0000 0.0000 30.4885 0.0000 -127.2810
#
#
#
# Elastic Compliance Matrix: (Units=1/GPa)
#
#
# Indices 1 2 3 4 5 6 
#
# 1 0.048201 0.011026 -0.001801 0.000000 0.030486 0.000000
# 2 0.011026 0.029163 0.002378 0.000000 0.000662 0.000000
# 3 -0.001801 0.002378 0.009138 0.000000 -0.001066 0.000000
# 4 0.000000 0.000000 0.000000 0.032474 0.000000 0.007779
# 5 0.030486 0.000662 -0.001066 0.000000 0.080180 0.000000
# 6 0.000000 0.000000 0.000000 0.007779 0.000000 -0.005993
#
#
# Mechanical properties :
#
#
# Convention : Reuss Voigt Hill
#
# Bulk Modulus (GPa) = 9.11517 16.89401 13.00459
# Shear Modulus (GPa) = 24.20990 -3.95198 10.12896
#
# Velocity S-wave (km/s) = 3.37491 -1.36356 2.18297
# Velocity P-wave (km/s) = 4.41306 2.33860 3.53159
#
# Compressibility (1/GPa) = 0.10970722
#
# Stress axis : x y z
#
# Youngs Moduli (GPa) = 20.74627 34.29033 109.43459
#
# Poissons Ratio (x) = -0.37808 0.19711
# Poissons Ratio (y) = -0.22875 -0.26022
# Poissons Ratio (z) = 0.03737 -0.08154
#
# Static dielectric constant tensor:
#      x y z
#    x 1.777790 0.000000 -0.025620 
#    y 0.000000 1.815460 0.000000 
#    z -0.025620 0.000000 1.781650 
# 
# From -- ./inp_files/91605.got.cif
#   From: 2010.05.17/outbox.cif.g08.bks.cpg/sg12_46_cif.got.tgz:91605.got - 2010.06.03 13:09:07.
