data_PCOD9198044
_publ_section_title
;
Structure prediction by ZEFSAII (Michael W. Deem and Ramdas Pophale) SiO2 
 PCOD9198044
Probable space group: C 2/M
;
_chemical_formula_sum "Si O2"
_cell_formula_units_Z 56
_cell_length_a 16.889278
_cell_length_b 9.475415
_cell_length_c 20.797011
_cell_angle_alpha 90.000000
_cell_angle_beta 54.738765
_cell_angle_gamma 90.000000
_cell_volume 2717.574907
_symmetry_space_group_name_H-M "C 2/M"
_symmetry_group_IT_number 12
_symmetry_cell_setting 'monoclinic'
loop_
_space_group_symop_operation_xyz
x,y,z
-x,y,-z
-x,-y,-z
x,-y,z
1/2+x,1/2+y,z
1/2-x,1/2+y,-z
1/2-x,1/2-y,-z
1/2+x,1/2-y,z
loop_
_atom_site_type_symbol
_atom_site_label
_atom_site_fract_x
_atom_site_fract_y
_atom_site_fract_z
Si Si1 0.657395 0.666159 0.357429
Si Si2 0.791771 0.330556 0.419193
Si Si3 0.978676 0.330111 0.669442
Si Si4 0.852515 0.347588 0.197248
Si Si5 0.146808 0.161720 0.168399
Si Si6 0.486539 0.653807 0.891548
Si Si7 0.358582 0.159604 0.043334
O O1 0.629972 0.500000 0.376370
O O2 0.722060 0.706146 0.390399
O O3 0.565788 0.757693 0.375255
O O4 0.740484 0.677468 0.263392
O O5 0.783937 0.500000 0.429333
O O6 0.750000 0.250000 0.500000
O O7 0.908206 0.299514 0.365543
O O8 0.967788 0.500000 0.670784
O O9 0.912831 0.260656 0.755968
O O10 0.876649 0.500000 0.216255
O O11 0.877337 0.353861 0.110431
O O12 0.920397 0.222555 0.186348
O O13 0.088627 0.145279 0.130540
O O14 0.250319 0.220049 0.096864
O O15 0.161043 0.000000 0.187928
O O16 0.512055 0.500000 0.905512
O O17 0.432949 0.745596 0.970434
O O18 0.358933 0.000000 0.015917
#
# Coordination Sequence:
#
# PCOD9198044 Si02
#       7
#     8   8   8   8   8   8   8
#     4  10  21  42  68  92 124 168 210 247 301 372
#     4  10  24  44  67  97 132 167 202 244 299 367
#     4  11  23  40  66  98 127 159 204 259 309 354
#     4  10  20  37  59  79 109 155 203 244 294 366
#     4  10  21  39  58  80 113 157 202 244 300 368
#     4  11  23  34  51  81 116 151 196 258 313 353
#     4  10  20  36  56  76 106 154 204 245 298 366
#
# _framework density 20.606607
#
# number of rings (size 3 to 8) (size 9 to 14) (size 15 to 20)
#    0.000    1.714    1.429    2.571    0.000    8.000 
#    0.000    2.857    0.000    0.000    0.000    0.000 
#    0.000    0.000    0.000    0.000    0.000    0.000 
#
# Total GULP energy -156024.723442 kJ/mol
# GULP energy per Si atom -5572.311552 kJ/mol
# Density = 2.055971 g / cm^3
# Si number density = 20.606607 Si / 1000 Ang^3
#
#
#
# Elastic Constant Matrix: (Units=GPa)
#
#
# Indices 1 2 3 4 5 6 
#
# 1 106.1237 25.3022 23.3351 0.0000 7.3196 0.0000
# 2 25.3022 59.4471 33.6011 0.0001 -2.2506 0.0000
# 3 23.3351 33.6011 51.7083 0.0000 7.0740 0.0000
# 4 0.0000 0.0001 0.0000 155.5082 0.0000 -33.7743
# 5 7.3196 -2.2506 7.0740 0.0000 28.9253 0.0000
# 6 0.0000 0.0000 0.0000 -33.7743 0.0000 38.3284
#
#
#
# Elastic Compliance Matrix: (Units=1/GPa)
#
#
# Indices 1 2 3 4 5 6 
#
# 1 0.010926 -0.003390 -0.002394 0.000000 -0.002443 0.000000
# 2 -0.003390 0.028880 -0.018273 0.000000 0.007574 0.000000
# 3 -0.002394 -0.018273 0.033527 0.000000 -0.009015 0.000000
# 4 0.000000 0.000000 0.000000 0.007952 0.000000 0.007008
# 5 -0.002443 0.007574 -0.009015 0.000000 0.037984 0.000000
# 6 0.000000 0.000000 0.000000 0.007008 0.000000 0.032265
#
#
# Mechanical properties :
#
#
# Convention : Reuss Voigt Hill
#
# Bulk Modulus (GPa) = 39.65158 42.41732 41.03445
# Shear Modulus (GPa) = 24.03223 53.55508 38.79365
#
# Velocity S-wave (km/s) = 3.41873 5.10350 4.34358
# Velocity P-wave (km/s) = 5.90488 7.44020 6.71655
#
# Compressibility (1/GPa) = 0.02521967
#
# Stress axis : x y z
#
# Youngs Moduli (GPa) = 91.52443 34.62655 29.82681
#
# Poissons Ratio (x) = 0.11738 0.07139
# Poissons Ratio (y) = 0.31027 0.54502
# Poissons Ratio (z) = 0.21907 0.63273
#
# Static dielectric constant tensor:
#      x y z
#    x 1.823470 0.000000 0.027360 
#    y 0.000000 1.751210 0.000000 
#    z 0.027360 0.000000 1.721300 
# 
# From -- ./inp_files/342204.got.cif
#   From: 2010.05.17/outbox.cif.g08.bks.cpg/sg12_172_cif.got.tgz:342204.got - 2010.06.03 13:09:07.
