data_PCOD9198617
_publ_section_title
;
Structure prediction by ZEFSAII (Michael W. Deem and Ramdas Pophale) SiO2 
 PCOD9198617
Probable space group: C 2/M
;
_chemical_formula_sum "Si O2"
_cell_formula_units_Z 64
_cell_length_a 19.319977
_cell_length_b 8.546033
_cell_length_c 32.126390
_cell_angle_alpha 90.000000
_cell_angle_beta 138.822824
_cell_angle_gamma 90.000000
_cell_volume 3492.336740
_symmetry_space_group_name_H-M "C 2/M"
_symmetry_group_IT_number 12
_symmetry_cell_setting 'monoclinic'
loop_
_space_group_symop_operation_xyz
x,y,z
-x,y,-z
-x,-y,-z
x,-y,z
1/2+x,1/2+y,z
1/2-x,1/2+y,-z
1/2-x,1/2-y,-z
1/2+x,1/2-y,z
loop_
_atom_site_type_symbol
_atom_site_label
_atom_site_fract_x
_atom_site_fract_y
_atom_site_fract_z
Si Si1 0.914023 0.688946 0.566539
Si Si2 0.010343 0.312210 0.171780
Si Si3 0.377767 0.310838 0.940893
Si Si4 0.222995 0.813964 0.941992
Si Si5 0.744489 0.811144 0.432228
Si Si6 0.167665 0.189335 0.173642
Si Si7 0.692108 0.188954 0.315842
Si Si8 0.652668 0.811198 0.682953
O O1 0.914146 0.500000 0.565434
O O2 0.856377 0.749798 0.499107
O O3 0.841440 0.739161 0.572463
O O4 0.032839 0.743876 0.627149
O O5 0.003345 0.500000 0.167739
O O6 0.894582 0.242452 0.121850
O O7 0.072979 0.255935 0.158959
O O8 0.083526 0.264305 0.244082
O O9 0.373207 0.500000 0.941130
O O10 0.305915 0.245632 0.945245
O O11 0.339020 0.262501 0.877376
O O12 0.500000 0.264473 0.000000
O O13 0.226157 0.000000 0.944642
O O14 0.250000 0.750000 0.000000
O O15 0.709896 0.757479 0.370962
O O16 0.747542 0.000000 0.433521
O O17 0.276558 0.236811 0.245369
O O18 0.160030 0.000000 0.171594
O O19 0.784711 0.251742 0.328718
O O20 0.694491 0.000000 0.316635
O O21 0.651280 0.000000 0.682133
#
# Coordination Sequence:
#
# PCOD9198617 Si02
#       8
#     8   8   8   8   8   8   8   8
#     4   9  18  32  49  70  97 132 175 219 262 308
#     4  10  20  36  58  82 110 142 177 218 264 315
#     4  10  21  37  58  84 112 142 178 219 264 315
#     4  12  25  40  59  83 112 144 180 220 262 310
#     4   9  18  33  51  71  98 133 173 215 261 312
#     4   9  18  34  56  80 109 144 178 216 266 321
#     4   9  19  34  53  77 104 136 171 211 259 312
#     4   9  18  32  51  75 103 137 174 213 258 311
#
# _framework density 18.325838000000001
#
# number of rings (size 3 to 8) (size 9 to 14) (size 15 to 20)
#    0.000    2.375    0.000    2.250    0.000    4.750 
#    0.000    6.250    0.000    3.000    0.000    0.000 
#    0.000    0.000    0.000    0.000    0.000    0.000 
#
# Total GULP energy -178566.598085 kJ/mol
# GULP energy per Si atom -5580.206190 kJ/mol
# Density = 1.828413 g / cm^3
# Si number density = 18.325838 Si / 1000 Ang^3
#
#
#
# Elastic Constant Matrix: (Units=GPa)
#
#
# Indices 1 2 3 4 5 6 
#
# 1 136.1989 33.9559 126.2081 0.0000 -0.9295 0.0001
# 2 33.9559 24.5713 37.1821 -0.0001 0.1925 0.0002
# 3 126.2081 37.1821 177.1121 0.0000 0.4307 0.0000
# 4 0.0000 -0.0001 0.0000 25.7448 0.0000 1.5314
# 5 -0.9295 0.1925 0.4307 0.0000 42.6381 0.0000
# 6 0.0001 0.0002 0.0000 1.5314 0.0000 31.2836
#
#
#
# Elastic Compliance Matrix: (Units=1/GPa)
#
#
# Indices 1 2 3 4 5 6 
#
# 1 0.023307 -0.010375 -0.014432 0.000000 0.000701 0.000000
# 2 -0.010375 0.064266 -0.006097 0.000000 -0.000455 0.000000
# 3 -0.014432 -0.006097 0.017211 0.000000 -0.000461 0.000000
# 4 0.000000 0.000000 0.000000 0.038956 0.000000 -0.001907
# 5 0.000701 -0.000455 -0.000461 0.000000 0.023475 0.000000
# 6 0.000000 0.000000 0.000000 -0.001907 0.000000 0.032059
#
#
# Mechanical properties :
#
#
# Convention : Reuss Voigt Hill
#
# Bulk Modulus (GPa) = 23.26913 81.39719 52.33316
# Shear Modulus (GPa) = 18.15488 29.30237 23.72862
#
# Velocity S-wave (km/s) = 3.15091 4.00304 3.60226
# Velocity P-wave (km/s) = 5.09535 8.11658 6.77649
#
# Compressibility (1/GPa) = 0.04297539
#
# Stress axis : x y z
#
# Youngs Moduli (GPa) = 42.90613 15.56029 58.10194
#
# Poissons Ratio (x) = 0.16144 0.83851
# Poissons Ratio (y) = 0.44517 0.35426
# Poissons Ratio (z) = 0.61921 0.09488
#
# Static dielectric constant tensor:
#      x y z
#    x 1.594560 0.000000 -0.004670 
#    y 0.000000 1.629180 0.000000 
#    z -0.004670 0.000000 1.643020 
# 
# From -- ./inp_files/378326.got.cif
#   From: 2010.05.17/outbox.cif.g08.bks.cpg/sg12_190_cif.got.tgz:378326.got - 2010.06.03 13:09:07.
