data_PCOD9198427
_publ_section_title
;
Structure prediction by ZEFSAII (Michael W. Deem and Ramdas Pophale) SiO2 
 PCOD9198427
Probable space group: C 2/M
;
_chemical_formula_sum "Si O2"
_cell_formula_units_Z 56
_cell_length_a 26.767216
_cell_length_b 15.158700
_cell_length_c 6.567005
_cell_angle_alpha 90.000000
_cell_angle_beta 101.945806
_cell_angle_gamma 90.000000
_cell_volume 2606.897852
_symmetry_space_group_name_H-M "C 2/M"
_symmetry_group_IT_number 12
_symmetry_cell_setting 'monoclinic'
loop_
_space_group_symop_operation_xyz
x,y,z
-x,y,-z
-x,-y,-z
x,-y,z
1/2+x,1/2+y,z
1/2-x,1/2+y,-z
1/2-x,1/2-y,-z
1/2+x,1/2-y,z
loop_
_atom_site_type_symbol
_atom_site_label
_atom_site_fract_x
_atom_site_fract_y
_atom_site_fract_z
Si Si1 0.590132 0.604028 0.315402
Si Si2 0.456580 0.899016 0.293623
Si Si3 0.377357 0.898742 0.580873
Si Si4 0.134320 0.171577 0.755728
Si Si5 0.429771 0.765526 0.946102
Si Si6 0.716554 0.801730 0.633024
Si Si7 0.192806 0.904049 0.142446
O O1 0.576316 0.500000 0.280672
O O2 0.596356 0.632639 0.555109
O O3 0.555538 0.677379 0.170389
O O4 0.647428 0.615064 0.267031
O O5 0.500000 0.888719 0.500000
O O6 0.405156 0.888000 0.384566
O O7 0.458236 0.000000 0.217606
O O8 0.463351 0.828611 0.120585
O O9 0.401579 0.830267 0.761993
O O10 0.317983 0.877002 0.500549
O O11 0.386099 0.000000 0.652488
O O12 0.175318 0.235767 0.689907
O O13 0.106872 0.224981 0.911522
O O14 0.165263 0.097382 0.902169
O O15 0.750000 0.750000 0.500000
O O16 0.759151 0.839826 0.819250
O O17 0.212900 0.000000 0.211864
#
# Coordination Sequence:
#
# PCOD9198427 Si02
#       7
#     8   8   8   8   8   8   8
#     4  10  20  36  57  83 117 157 205 253 297 352
#     4  10  22  41  66  95 126 160 200 247 304 373
#     4  11  23  40  60  90 127 163 205 253 304 360
#     4  11  20  37  55  77 115 159 206 250 301 351
#     4  11  20  39  61  89 120 157 199 251 310 365
#     4  12  20  37  54  78 117 162 204 251 298 356
#     4  10  21  33  49  76 107 151 206 249 291 342
#
# _framework density 21.481469000000001
#
# number of rings (size 3 to 8) (size 9 to 14) (size 15 to 20)
#    0.000    1.286    4.286    2.571    0.000    1.143 
#    0.000    3.571    0.000    0.429    0.000    4.000 
#    0.000    0.000    0.000    0.000    0.000    0.000 
#
# Total GULP energy -156224.571038 kJ/mol
# GULP energy per Si atom -5579.448966 kJ/mol
# Density = 2.143258 g / cm^3
# Si number density = 21.481469 Si / 1000 Ang^3
#
#
#
# Elastic Constant Matrix: (Units=GPa)
#
#
# Indices 1 2 3 4 5 6 
#
# 1 40.7305 23.3241 10.1429 0.0000 1.6129 0.0000
# 2 23.3241 153.3003 62.7694 0.0000 6.1803 0.0000
# 3 10.1429 62.7694 103.0514 0.0000 5.9655 0.0000
# 4 0.0000 0.0000 0.0000 29.9277 0.0000 11.3426
# 5 1.6129 6.1803 5.9655 0.0000 26.5415 0.0000
# 6 0.0000 0.0000 0.0000 11.3426 0.0000 20.3552
#
#
#
# Elastic Compliance Matrix: (Units=1/GPa)
#
#
# Indices 1 2 3 4 5 6 
#
# 1 0.026910 -0.003995 -0.000177 0.000000 -0.000665 0.000000
# 2 -0.003995 0.009302 -0.005230 0.000000 -0.000748 0.000000
# 3 -0.000177 -0.005230 0.013005 0.000000 -0.001695 0.000000
# 4 0.000000 0.000000 0.000000 0.042360 0.000000 -0.023604
# 5 -0.000665 -0.000748 -0.001695 0.000000 0.038272 0.000000
# 6 0.000000 0.000000 0.000000 -0.023604 0.000000 0.062281
#
#
# Mechanical properties :
#
#
# Convention : Reuss Voigt Hill
#
# Bulk Modulus (GPa) = 32.87940 54.39502 43.63721
# Shear Modulus (GPa) = 22.61717 28.75459 25.68588
#
# Velocity S-wave (km/s) = 3.24831 3.66263 3.46167
# Velocity P-wave (km/s) = 5.42290 6.57748 6.02790
#
# Compressibility (1/GPa) = 0.03041418
#
# Stress axis : x y z
#
# Youngs Moduli (GPa) = 37.16126 107.49859 76.89452
#
# Poissons Ratio (x) = 0.42946 0.01358
# Poissons Ratio (y) = 0.14846 0.40213
# Poissons Ratio (z) = 0.00656 0.56218
#
# Static dielectric constant tensor:
#      x y z
#    x 1.929660 0.000000 0.049510 
#    y 0.000000 1.823900 0.000000 
#    z 0.049510 0.000000 1.784300 
# 
# From -- ./inp_files/31493.got.cif
#   From: 2010.05.17/outbox.cif.g08.bks.cpg/sg12_16_cif.got.tgz:31493.got - 2010.06.03 13:09:07.
