data_PCOD9198775
_publ_section_title
;
Structure prediction by ZEFSAII (Michael W. Deem and Ramdas Pophale) SiO2 
 PCOD9198775
Probable space group: C 2/M
;
_chemical_formula_sum "Si O2"
_cell_formula_units_Z 50
_cell_length_a 25.498531
_cell_length_b 7.624925
_cell_length_c 12.572315
_cell_angle_alpha 90.000000
_cell_angle_beta 58.480808
_cell_angle_gamma 90.000000
_cell_volume 2083.735536
_symmetry_space_group_name_H-M "C 2/M"
_symmetry_group_IT_number 12
_symmetry_cell_setting 'monoclinic'
loop_
_space_group_symop_operation_xyz
x,y,z
-x,y,-z
-x,-y,-z
x,-y,z
1/2+x,1/2+y,z
1/2-x,1/2+y,-z
1/2-x,1/2-y,-z
1/2+x,1/2-y,z
loop_
_atom_site_type_symbol
_atom_site_label
_atom_site_fract_x
_atom_site_fract_y
_atom_site_fract_z
Si Si1 0.642569 0.789968 0.068538
Si Si2 0.500000 0.500000 0.500000
Si Si3 0.586513 0.789401 0.342496
Si Si4 0.827772 0.710914 0.555088
Si Si5 0.482353 0.204221 0.904053
Si Si6 0.888548 0.203679 0.275454
Si Si7 0.795937 0.791502 0.202940
O O1 0.637533 0.747766 0.198130
O O2 0.578034 0.721142 0.087197
O O3 0.643470 0.000000 0.063848
O O4 0.695699 0.733308 0.931551
O O5 0.530378 0.656821 0.392489
O O6 0.616306 0.747295 0.425079
O O7 0.572271 0.000000 0.350610
O O8 0.824414 0.500000 0.552109
O O9 0.842148 0.778951 0.423000
O O10 0.765650 0.777626 0.676529
O O11 0.545575 0.212131 0.771224
O O12 0.467913 0.000000 0.936636
O O13 0.500000 0.282628 0.000000
O O14 0.854846 0.278434 0.206321
O O15 0.901494 0.000000 0.244889
O O16 0.795444 0.000000 0.221451
#
# Coordination Sequence:
#
# PCOD9198775 Si02
#       7
#     8   2   8   8   8   8   8
#     4  10  22  40  62  91 125 164 213 267 322 383
#     4  12  26  44  72  94 134 176 214 266 330 376
#     4  10  25  45  66  99 133 172 219 265 323 390
#     4  10  23  43  63  86 126 171 214 261 322 387
#     4  10  20  36  58  84 119 160 203 245 313 386
#     4  11  23  36  59  94 126 159 212 271 321 381
#     4  10  22  40  62  90 125 166 211 270 323 381
#
# _framework density 23.995369
#
# number of rings (size 3 to 8) (size 9 to 14) (size 15 to 20)
#    0.000    1.760    1.600    1.200    4.480    2.880 
#    0.000    0.000    0.000    0.000    0.000    0.000 
#    0.000    0.000    0.000    0.000    0.000    0.000 
#
# Total GULP energy -139422.130616 kJ/mol
# GULP energy per Si atom -5576.885225 kJ/mol
# Density = 2.394075 g / cm^3
# Si number density = 23.995369 Si / 1000 Ang^3
#
#
#
# Elastic Constant Matrix: (Units=GPa)
#
#
# Indices 1 2 3 4 5 6 
#
# 1 20.7324 13.7111 1.2625 0.0000 -8.0705 0.0000
# 2 13.7111 56.3938 9.1636 0.0000 3.5024 0.0000
# 3 1.2625 9.1636 142.6378 0.0000 -12.4235 0.0000
# 4 0.0000 0.0000 0.0000 37.6684 0.0000 -5.0516
# 5 -8.0705 3.5024 -12.4235 0.0000 39.1661 0.0000
# 6 0.0000 0.0000 0.0000 -5.0516 0.0000 0.3839
#
#
#
# Elastic Compliance Matrix: (Units=1/GPa)
#
#
# Indices 1 2 3 4 5 6 
#
# 1 0.065611 -0.017232 0.001890 0.000000 0.015660 0.000001
# 2 -0.017232 0.022602 -0.001836 0.000000 -0.006154 -0.000002
# 3 0.001890 -0.001836 0.007364 0.000000 0.002889 0.000000
# 4 0.000000 0.000000 0.000000 -0.034714 0.000000 -0.456807
# 5 0.015660 -0.006154 0.002889 0.000000 0.030226 0.000000
# 6 0.000001 -0.000002 0.000000 -0.456807 0.000000 -3.406280
#
#
# Mechanical properties :
#
#
# Convention : Reuss Voigt Hill
#
# Bulk Modulus (GPa) = 16.33381 29.78202 23.05792
# Shear Modulus (GPa) = -1.53354 28.48546 13.47596
#
# Velocity S-wave (km/s) = -0.80030 3.44920 2.37240
# Velocity P-wave (km/s) = 2.44292 5.31989 4.13939
#
# Compressibility (1/GPa) = 0.06122270
#
# Stress axis : x y z
#
# Youngs Moduli (GPa) = 15.24144 44.24291 135.80278
#
# Poissons Ratio (x) = 0.76238 -0.25671
# Poissons Ratio (y) = 0.26264 0.24928
# Poissons Ratio (z) = -0.02881 0.08121
#
# Static dielectric constant tensor:
#      x y z
#    x 1.968160 0.000000 -0.020260 
#    y 0.000000 1.890750 0.000000 
#    z -0.020260 0.000000 1.934010 
# 
# From -- ./inp_files/180562.got.cif
#   From: 2010.05.17/outbox.cif.g08.bks.cpg/sg12_91_cif.got.tgz:180562.got - 2010.06.03 13:09:07.
