data_PCOD9198541
_publ_section_title
;
Structure prediction by ZEFSAII (Michael W. Deem and Ramdas Pophale) SiO2 
 PCOD9198541
Probable space group: C 2/M
;
_chemical_formula_sum "Si O2"
_cell_formula_units_Z 56
_cell_length_a 18.555065
_cell_length_b 7.590521
_cell_length_c 18.916260
_cell_angle_alpha 90.000000
_cell_angle_beta 76.841531
_cell_angle_gamma 90.000000
_cell_volume 2594.264247
_symmetry_space_group_name_H-M "C 2/M"
_symmetry_group_IT_number 12
_symmetry_cell_setting 'monoclinic'
loop_
_space_group_symop_operation_xyz
x,y,z
-x,y,-z
-x,-y,-z
x,-y,z
1/2+x,1/2+y,z
1/2-x,1/2+y,-z
1/2-x,1/2-y,-z
1/2+x,1/2-y,z
loop_
_atom_site_type_symbol
_atom_site_label
_atom_site_fract_x
_atom_site_fract_y
_atom_site_fract_z
Si Si1 0.863286 0.784065 0.359501
Si Si2 0.916882 0.212808 0.501987
Si Si3 0.200658 0.292160 0.349974
Si Si4 0.649215 0.295017 0.206685
Si Si5 0.484970 0.710337 0.219904
Si Si6 0.774522 0.288295 0.074054
Si Si7 0.560535 0.212602 0.930025
O O1 0.887810 0.726834 0.432121
O O2 0.780789 0.725468 0.357441
O O3 0.922973 0.723608 0.288235
O O4 0.862387 0.000000 0.360159
O O5 0.859969 0.262976 0.575987
O O6 0.000000 0.275470 0.500000
O O7 0.919546 0.000000 0.499258
O O8 0.207941 0.500000 0.335695
O O9 0.174358 0.212407 0.282020
O O10 0.642623 0.500000 0.187059
O O11 0.567268 0.217296 0.215649
O O12 0.712896 0.218093 0.142219
O O13 0.487676 0.500000 0.231318
O O14 0.462047 0.742126 0.144513
O O15 0.778019 0.500000 0.082110
O O16 0.857052 0.221076 0.071192
O O17 0.750000 0.250000 0.000000
O O18 0.561702 0.000000 0.935106
O O19 0.500000 0.277373 0.000000
#
# Coordination Sequence:
#
# PCOD9198541 Si02
#       7
#     8   8   8   8   8   8   8
#     4   9  19  35  54  79 108 138 175 218 266 317
#     4  10  20  37  60  80 105 144 181 216 263 316
#     4  11  22  35  54  81 111 140 174 220 268 315
#     4  10  21  37  56  79 107 141 182 223 265 319
#     4  10  20  36  58  80 103 136 181 225 261 310
#     4  10  21  36  55  80 109 142 182 225 268 319
#     4  10  21  36  53  77 111 145 175 215 271 326
#
# _framework density 21.586081
#
# number of rings (size 3 to 8) (size 9 to 14) (size 15 to 20)
#    0.000    2.000    0.000    3.429    0.000    4.571 
#    0.000    2.143    0.000    0.000    0.000    0.000 
#    0.000    0.000    0.000    0.000    0.000    0.000 
#
# Total GULP energy -156540.969519 kJ/mol
# GULP energy per Si atom -5590.748911 kJ/mol
# Density = 2.153695 g / cm^3
# Si number density = 21.586081 Si / 1000 Ang^3
#
#
#
# Elastic Constant Matrix: (Units=GPa)
#
#
# Indices 1 2 3 4 5 6 
#
# 1 234.3124 -3.4194 106.6435 0.0000 -15.7062 0.0000
# 2 -3.4194 43.9663 -19.9368 0.0000 -9.4614 0.0000
# 3 106.6435 -19.9368 183.4248 0.0000 -19.2443 0.0000
# 4 0.0000 0.0000 0.0000 17.5423 0.0000 9.6214
# 5 -15.7062 -9.4614 -19.2443 0.0000 46.1057 0.0000
# 6 0.0000 0.0000 0.0000 9.6214 0.0000 -9.7645
#
#
#
# Elastic Compliance Matrix: (Units=1/GPa)
#
#
# Indices 1 2 3 4 5 6 
#
# 1 0.005862 -0.001057 -0.003489 0.000000 0.000324 0.000000
# 2 -0.001057 0.025982 0.004141 0.000000 0.006701 0.000000
# 3 -0.003489 0.004141 0.008257 0.000000 0.003108 0.000000
# 4 0.000000 0.000000 0.000000 0.037006 0.000000 0.036464
# 5 0.000324 0.006701 0.003108 0.000000 0.024472 0.000000
# 6 0.000000 0.000000 0.000000 0.036464 0.000000 -0.066482
#
#
# Mechanical properties :
#
#
# Convention : Reuss Voigt Hill
#
# Bulk Modulus (GPa) = 25.45022 69.80868 47.62945
# Shear Modulus (GPa) = 102.03644 36.00445 69.02045
#
# Velocity S-wave (km/s) = 6.88274 4.08848 5.66074
# Velocity P-wave (km/s) = 8.65902 7.39577 8.05221
#
# Compressibility (1/GPa) = 0.03929239
#
# Stress axis : x y z
#
# Youngs Moduli (GPa) = 170.58728 38.48766 121.11591
#
# Poissons Ratio (x) = 0.04066 0.42259
# Poissons Ratio (y) = 0.18024 -0.50158
# Poissons Ratio (z) = 0.59520 -0.15939
#
# Static dielectric constant tensor:
#      x y z
#    x 1.763700 0.000000 -0.026020 
#    y 0.000000 1.249880 0.000000 
#    z -0.026020 0.000000 1.716850 
# 
# From -- ./inp_files/275063.got.cif
#   From: 2010.05.17/outbox.cif.g08.bks.cpg/sg12_138_cif.got.tgz:275063.got - 2010.06.03 13:09:07.
