data_PCOD9198180
_publ_section_title
;
Structure prediction by ZEFSAII (Michael W. Deem and Ramdas Pophale) SiO2 
 PCOD9198180
Probable space group: C 2/M
;
_chemical_formula_sum "Si O2"
_cell_formula_units_Z 58
_cell_length_a 25.810623
_cell_length_b 7.930120
_cell_length_c 26.966693
_cell_angle_alpha 90.000000
_cell_angle_beta 27.050838
_cell_angle_gamma 90.000000
_cell_volume 2510.199026
_symmetry_space_group_name_H-M "C 2/M"
_symmetry_group_IT_number 12
_symmetry_cell_setting 'monoclinic'
loop_
_space_group_symop_operation_xyz
x,y,z
-x,y,-z
-x,-y,-z
x,-y,z
1/2+x,1/2+y,z
1/2-x,1/2+y,-z
1/2-x,1/2-y,-z
1/2+x,1/2-y,z
loop_
_atom_site_type_symbol
_atom_site_label
_atom_site_fract_x
_atom_site_fract_y
_atom_site_fract_z
Si Si1 0.353356 0.682021 0.145931
Si Si2 0.478602 0.808986 0.127245
Si Si3 0.500000 0.000000 0.000000
Si Si4 0.069084 0.193405 0.666946
Si Si5 0.107040 0.807125 0.376370
Si Si6 0.033472 0.694315 0.588462
Si Si7 0.123086 0.699687 0.094656
Si Si8 0.710258 0.294980 0.636783
O O1 0.355978 0.500000 0.118129
O O2 0.438259 0.681635 0.120499
O O3 0.226380 0.711352 0.275467
O O4 0.399110 0.847768 0.079605
O O5 0.588358 0.770011 0.066819
O O6 0.376197 0.801758 0.254254
O O7 0.482502 0.000000 0.100351
O O8 0.039096 0.291665 0.642924
O O9 0.175163 0.250707 0.610407
O O10 0.964181 0.205730 0.794908
O O11 0.087430 0.000000 0.636716
O O12 0.000000 0.740086 0.500000
O O13 0.061458 0.799533 0.358748
O O14 0.126994 0.000000 0.375004
O O15 0.014503 0.500000 0.591069
O O16 0.159649 0.746306 0.463280
O O17 0.106200 0.500000 0.116581
O O18 0.250000 0.750000 0.000000
O O19 0.695425 0.500000 0.653919
#
# Coordination Sequence:
#
# PCOD9198180 Si02
#       8
#     8   8   2   8   8   8   8   8
#     4  12  25  46  74 100 132 178 224 283 340 402
#     4  10  20  38  63  92 123 159 208 265 321 381
#     4  12  26  52  70  98 140 168 234 286 336 402
#     4  10  20  36  56  82 120 163 205 253 311 374
#     4  11  24  44  69  98 135 173 217 279 345 408
#     4  11  22  36  56  89 126 165 207 252 317 393
#     4  10  21  38  60  87 120 157 201 256 310 366
#     4   9  19  34  57  88 124 162 208 257 308 389
#
# _framework density 23.105739
#
# number of rings (size 3 to 8) (size 9 to 14) (size 15 to 20)
#    0.000    1.517    1.379    3.517    0.000    6.621 
#    2.483    0.000    0.000    0.000    0.000    0.000 
#    0.000    0.000    0.000    0.000    0.000    0.000 
#
# Total GULP energy -161890.252609 kJ/mol
# GULP energy per Si atom -5582.422504 kJ/mol
# Density = 2.305315 g / cm^3
# Si number density = 23.105739 Si / 1000 Ang^3
#
#
#
# Elastic Constant Matrix: (Units=GPa)
#
#
# Indices 1 2 3 4 5 6 
#
# 1 65.6659 30.2275 7.9469 -0.0046 -24.8002 0.0039
# 2 30.2275 116.3847 39.0841 -0.0036 -2.0511 0.0097
# 3 7.9469 39.0841 93.4076 0.0088 -18.3160 0.0001
# 4 -0.0046 -0.0036 0.0088 23.1397 0.0010 4.1756
# 5 -24.8002 -2.0511 -18.3160 0.0010 37.0180 -0.0040
# 6 0.0039 0.0097 0.0001 4.1756 -0.0040 22.9457
#
#
#
# Elastic Compliance Matrix: (Units=1/GPa)
#
#
# Indices 1 2 3 4 5 6 
#
# 1 0.025476 -0.007920 0.004881 0.000001 0.019044 0.000002
# 2 -0.007920 0.012554 -0.006072 0.000004 -0.007615 -0.000006
# 3 0.004881 -0.006072 0.014847 -0.000007 0.010280 0.000005
# 4 0.000001 0.000004 -0.000007 0.044683 -0.000005 -0.008131
# 5 0.019044 -0.007615 0.010280 -0.000005 0.044436 0.000009
# 6 0.000002 -0.000006 0.000005 -0.008131 0.000009 0.045061
#
#
# Mechanical properties :
#
#
# Convention : Reuss Voigt Hill
#
# Bulk Modulus (GPa) = 28.85681 47.77503 38.31592
# Shear Modulus (GPa) = 23.05928 29.83398 26.44663
#
# Velocity S-wave (km/s) = 3.16252 3.59722 3.38685
# Velocity P-wave (km/s) = 5.08444 6.16238 5.64918
#
# Compressibility (1/GPa) = 0.03465387
#
# Stress axis : x y z
#
# Youngs Moduli (GPa) = 39.25259 79.65453 67.35348
#
# Poissons Ratio (x) = 0.63087 -0.32874
# Poissons Ratio (y) = 0.31088 0.40900
# Poissons Ratio (z) = -0.19158 0.48369
#
# Static dielectric constant tensor:
#      x y z
#    x 1.860530 -0.000010 0.015670 
#    y -0.000010 1.853130 0.000010 
#    z 0.015670 0.000010 1.845380 
# 
# From -- ./inp_files/367508.got.cif
#   From: 2010.05.17/outbox.cif.g08.bks.cpg/sg12_184_cif.got.tgz:367508.got - 2010.06.03 13:09:07.
