data_PCOD9198994
_publ_section_title
;
Structure prediction by ZEFSAII (Michael W. Deem and Ramdas Pophale) SiO2 
 PCOD9198994
Probable space group: C 2/M
;
_chemical_formula_sum "Si O2"
_cell_formula_units_Z 56
_cell_length_a 18.515994
_cell_length_b 8.894303
_cell_length_c 23.419473
_cell_angle_alpha 90.000000
_cell_angle_beta 53.682723
_cell_angle_gamma 90.000000
_cell_volume 3107.679610
_symmetry_space_group_name_H-M "C 2/M"
_symmetry_group_IT_number 12
_symmetry_cell_setting 'monoclinic'
loop_
_space_group_symop_operation_xyz
x,y,z
-x,y,-z
-x,-y,-z
x,-y,z
1/2+x,1/2+y,z
1/2-x,1/2+y,-z
1/2-x,1/2-y,-z
1/2+x,1/2-y,z
loop_
_atom_site_type_symbol
_atom_site_label
_atom_site_fract_x
_atom_site_fract_y
_atom_site_fract_z
Si Si1 0.905582 0.180486 0.572433
Si Si2 0.240486 0.680194 0.566326
Si Si3 0.316888 0.677392 0.127927
Si Si4 0.289995 0.178991 0.714441
Si Si5 0.874555 0.679884 0.278206
Si Si6 0.487217 0.678709 0.131493
Si Si7 0.329755 0.821573 0.999268
O O1 0.827405 0.219300 0.563792
O O2 0.881015 0.263833 0.642866
O O3 0.000000 0.220385 0.500000
O O4 0.903356 0.000000 0.582757
O O5 0.238509 0.500000 0.562403
O O6 0.250000 0.750000 0.500000
O O7 0.152888 0.725048 0.644520
O O8 0.318045 0.500000 0.112415
O O9 0.231334 0.705356 0.209042
O O10 0.405315 0.706067 0.125276
O O11 0.318412 0.773542 0.070380
O O12 0.212400 0.270053 0.717661
O O13 0.278279 0.000000 0.710253
O O14 0.884455 0.500000 0.271286
O O15 0.956098 0.758507 0.207538
O O16 0.499964 0.500000 0.128660
O O17 0.576030 0.757429 0.067398
O O18 0.328322 0.000000 0.994290
O O19 0.250000 0.750000 0.000000
#
# Coordination Sequence:
#
# PCOD9198994 Si02
#       7
#     8   8   8   8   8   8   8
#     4   9  18  33  51  72 101 136 174 215 256 303
#     4   9  18  31  49  73 101 135 171 211 257 302
#     4   9  19  36  57  81 108 136 172 219 263 307
#     4   9  17  30  51  78 105 134 168 213 264 306
#     4   9  17  31  51  76 104 135 174 216 257 302
#     4  10  20  36  59  84 108 136 173 218 263 308
#     4  12  25  39  56  78 108 144 177 212 260 315
#
# _framework density 18.019874000000002
#
# number of rings (size 3 to 8) (size 9 to 14) (size 15 to 20)
#    0.000    2.429    0.000    4.714    0.000    8.286 
#    0.000    1.429    0.000    6.857    0.000    0.000 
#    0.000    0.000    0.000    0.000    0.000    0.000 
#
# Total GULP energy -156116.338432 kJ/mol
# GULP energy per Si atom -5575.583515 kJ/mol
# Density = 1.797886 g / cm^3
# Si number density = 18.019874 Si / 1000 Ang^3
#
#
#
# Elastic Constant Matrix: (Units=GPa)
#
#
# Indices 1 2 3 4 5 6 
#
# 1 41.9773 43.2378 59.6681 0.0000 -5.4765 0.0001
# 2 43.2378 86.1353 85.3035 0.0001 -0.5978 0.0003
# 3 59.6681 85.3035 192.2557 0.0000 -7.4001 0.0000
# 4 0.0000 0.0001 0.0000 40.9010 0.0000 0.2466
# 5 -5.4765 -0.5978 -7.4001 0.0000 24.1717 0.0000
# 6 0.0001 0.0003 0.0000 0.2466 0.0000 22.3605
#
#
#
# Elastic Compliance Matrix: (Units=1/GPa)
#
#
# Indices 1 2 3 4 5 6 
#
# 1 0.059078 -0.021079 -0.008589 0.000000 0.010234 0.000000
# 2 -0.021079 0.028361 -0.006272 0.000000 -0.005995 0.000000
# 3 -0.008589 -0.006272 0.010695 0.000000 0.001173 0.000000
# 4 0.000000 0.000000 0.000000 0.024451 0.000000 -0.000270
# 5 0.010234 -0.005995 0.001173 0.000000 0.043900 0.000000
# 6 0.000000 0.000000 0.000000 -0.000270 0.000000 0.044725
#
#
# Mechanical properties :
#
#
# Convention : Reuss Voigt Hill
#
# Bulk Modulus (GPa) = 38.08950 77.42080 57.75515
# Shear Modulus (GPa) = 17.13262 26.29722 21.71492
#
# Velocity S-wave (km/s) = 3.08679 3.82428 3.47515
# Velocity P-wave (km/s) = 5.82132 7.90933 6.94425
#
# Compressibility (1/GPa) = 0.02625395
#
# Stress axis : x y z
#
# Youngs Moduli (GPa) = 16.92691 35.25974 93.49963
#
# Poissons Ratio (x) = 0.74323 0.80304
# Poissons Ratio (y) = 0.35680 0.58648
# Poissons Ratio (z) = 0.14538 0.22117
#
# Static dielectric constant tensor:
#      x y z
#    x 1.608130 0.000000 -0.013540 
#    y 0.000000 1.605420 0.000000 
#    z -0.013540 0.000000 1.651170 
# 
# From -- ./inp_files/313776.got.cif
#   From: 2010.05.17/outbox.cif.g08.bks.cpg/sg12_157_cif.got.tgz:313776.got - 2010.06.03 13:09:07.
