data_PCOD9198605
_publ_section_title
;
Structure prediction by ZEFSAII (Michael W. Deem and Ramdas Pophale) SiO2 
 PCOD9198605
Probable space group: C 2/M
;
_chemical_formula_sum "Si O2"
_cell_formula_units_Z 48
_cell_length_a 14.860205
_cell_length_b 8.034544
_cell_length_c 19.193823
_cell_angle_alpha 90.000000
_cell_angle_beta 56.518552
_cell_angle_gamma 90.000000
_cell_volume 1911.380506
_symmetry_space_group_name_H-M "C 2/M"
_symmetry_group_IT_number 12
_symmetry_cell_setting 'monoclinic'
loop_
_space_group_symop_operation_xyz
x,y,z
-x,y,-z
-x,-y,-z
x,-y,z
1/2+x,1/2+y,z
1/2-x,1/2+y,-z
1/2-x,1/2-y,-z
1/2+x,1/2-y,z
loop_
_atom_site_type_symbol
_atom_site_label
_atom_site_fract_x
_atom_site_fract_y
_atom_site_fract_z
Si Si1 0.840121 0.195596 0.046557
Si Si2 0.139719 0.193987 0.313182
Si Si3 0.042230 0.692135 0.873779
Si Si4 0.907239 0.201707 0.447020
Si Si5 0.108099 0.696351 0.172089
Si Si6 0.780731 0.192194 0.370539
O O1 0.719158 0.263786 0.091376
O O2 0.873973 0.211390 0.113671
O O3 0.846217 0.000000 0.025724
O O4 0.929900 0.295100 0.965675
O O5 0.125210 0.283930 0.246472
O O6 0.245853 0.223153 0.313638
O O7 0.032785 0.237827 0.403420
O O8 0.131933 0.000000 0.300167
O O9 0.077472 0.500000 0.854403
O O10 0.001153 0.762689 0.817041
O O11 0.874686 0.253735 0.381935
O O12 0.824023 0.286820 0.534408
O O13 0.891728 0.000000 0.459723
O O14 0.105347 0.500000 0.158058
O O15 0.799435 0.000000 0.347776
#
# Coordination Sequence:
#
# PCOD9198605 Si02
#       6
#     8   8   8   8   8   8
#     4  10  20  36  58  82 108 141 179 221 269 320
#     4  11  23  37  55  79 110 146 180 219 268 321
#     4  10  20  36  58  83 109 139 179 226 268 313
#     4   9  20  38  57  80 109 141 179 221 267 319
#     4  10  23  39  54  77 111 146 180 220 267 320
#     4  10  20  36  59  83 108 140 179 223 268 316
#
# _framework density 25.112741
#
# number of rings (size 3 to 8) (size 9 to 14) (size 15 to 20)
#    0.000    2.000    0.000    4.000    0.000    8.000 
#    0.000    5.000    0.000    0.000    0.000    0.000 
#    0.000    0.000    0.000    0.000    0.000    0.000 
#
# Total GULP energy -134234.877312 kJ/mol
# GULP energy per Si atom -5593.119888 kJ/mol
# Density = 2.505558 g / cm^3
# Si number density = 25.112741 Si / 1000 Ang^3
#
#
#
# Elastic Constant Matrix: (Units=GPa)
#
#
# Indices 1 2 3 4 5 6 
#
# 1 143.6433 9.9248 2.0824 0.0000 15.7699 0.0000
# 2 9.9248 47.4167 3.7163 0.0000 3.4969 0.0000
# 3 2.0824 3.7163 59.6864 0.0000 15.3360 0.0000
# 4 0.0000 0.0000 0.0000 29.4249 0.0000 6.4744
# 5 15.7699 3.4969 15.3360 0.0000 47.4403 0.0000
# 6 0.0000 0.0000 0.0000 6.4744 0.0000 23.7912
#
#
#
# Elastic Compliance Matrix: (Units=1/GPa)
#
#
# Indices 1 2 3 4 5 6 
#
# 1 0.007323 -0.001386 0.000469 0.000000 -0.002484 0.000000
# 2 -0.001386 0.021522 -0.001093 0.000000 -0.000772 0.000000
# 3 0.000469 -0.001093 0.018349 0.000000 -0.006007 0.000000
# 4 0.000000 0.000000 0.000000 0.036149 0.000000 -0.009837
# 5 -0.002484 -0.000772 -0.006007 0.000000 0.023904 0.000000
# 6 0.000000 0.000000 0.000000 -0.009837 0.000000 0.044709
#
#
# Mechanical properties :
#
#
# Convention : Reuss Voigt Hill
#
# Bulk Modulus (GPa) = 23.16218 31.35481 27.25849
# Shear Modulus (GPa) = 29.34782 35.79948 32.57365
#
# Velocity S-wave (km/s) = 3.42225 3.77974 3.60543
# Velocity P-wave (km/s) = 4.98588 5.61795 5.31133
#
# Compressibility (1/GPa) = 0.04317383
#
# Stress axis : x y z
#
# Youngs Moduli (GPa) = 136.54914 46.46311 54.49764
#
# Poissons Ratio (x) = 0.06442 -0.02556
# Poissons Ratio (y) = 0.18932 0.05958
# Poissons Ratio (z) = -0.06404 0.05080
#
# Static dielectric constant tensor:
#      x y z
#    x 2.020460 0.000000 0.037540 
#    y 0.000000 1.861710 0.000000 
#    z 0.037540 0.000000 2.074370 
# 
# From -- ./inp_files/274607.got.cif
#   From: 2010.05.17/outbox.cif.g08.bks.cpg/sg12_138_cif.got.tgz:274607.got - 2010.06.03 13:09:07.
