data_PCOD9198477
_publ_section_title
;
Structure prediction by ZEFSAII (Michael W. Deem and Ramdas Pophale) SiO2 
 PCOD9198477
Probable space group: C 2/M
;
_chemical_formula_sum "Si O2"
_cell_formula_units_Z 56
_cell_length_a 23.197853
_cell_length_b 18.055043
_cell_length_c 8.945580
_cell_angle_alpha 90.000000
_cell_angle_beta 131.648744
_cell_angle_gamma 90.000000
_cell_volume 2799.695893
_symmetry_space_group_name_H-M "C 2/M"
_symmetry_group_IT_number 12
_symmetry_cell_setting 'monoclinic'
loop_
_space_group_symop_operation_xyz
x,y,z
-x,y,-z
-x,-y,-z
x,-y,z
1/2+x,1/2+y,z
1/2-x,1/2+y,-z
1/2-x,1/2-y,-z
1/2+x,1/2-y,z
loop_
_atom_site_type_symbol
_atom_site_label
_atom_site_fract_x
_atom_site_fract_y
_atom_site_fract_z
Si Si1 0.799034 0.084049 0.317324
Si Si2 0.177653 0.416304 0.537693
Si Si3 0.669813 0.292452 0.842391
Si Si4 0.559064 0.196478 0.463309
Si Si5 0.307178 0.680451 0.631398
Si Si6 0.927417 0.255812 0.041778
Si Si7 0.625586 0.079108 0.102832
O O1 0.822888 0.124832 0.206648
O O2 0.817572 0.131872 0.498757
O O3 0.705999 0.081230 0.153287
O O4 0.827798 0.000000 0.381546
O O5 0.190909 0.500000 0.614856
O O6 0.107527 0.375459 0.499680
O O7 0.257173 0.369307 0.663059
O O8 0.149547 0.420484 0.317302
O O9 0.623681 0.251152 0.633720
O O10 0.621258 0.278593 0.906429
O O11 0.750000 0.250000 0.000000
O O12 0.500000 0.181772 0.500000
O O13 0.514240 0.239194 0.253358
O O14 0.250000 0.750000 0.500000
O O15 0.387291 0.712348 0.835611
O O16 0.914436 0.343808 0.998201
O O17 0.585240 0.000000 0.001424
#
# Coordination Sequence:
#
# PCOD9198477 Si02
#       7
#     8   8   8   8   8   8   8
#     4  10  20  36  61  91 121 152 198 254 305 353
#     4  10  20  36  57  85 120 160 203 246 298 361
#     4  11  20  39  62  85 113 155 207 249 295 357
#     4  10  24  38  55  85 123 161 198 248 307 364
#     4  11  18  36  63  87 115 155 206 253 289 345
#     4  11  21  36  59  86 120 160 200 250 298 356
#     4   9  18  33  55  86 119 155 195 238 296 354
#
# _framework density 20.002172999999999
#
# number of rings (size 3 to 8) (size 9 to 14) (size 15 to 20)
#    0.000    1.714    4.286    3.000    0.000    1.429 
#    0.000    7.143    0.000    6.429    0.000    0.000 
#    0.000    0.000    0.000    0.000    0.000    0.000 
#
# Total GULP energy -156093.268615 kJ/mol
# GULP energy per Si atom -5574.759593 kJ/mol
# Density = 1.995665 g / cm^3
# Si number density = 20.002173 Si / 1000 Ang^3
#
#
#
# Elastic Constant Matrix: (Units=GPa)
#
#
# Indices 1 2 3 4 5 6 
#
# 1 77.6617 45.7051 10.9048 0.0000 0.2919 0.0000
# 2 45.7051 123.8220 36.5688 0.0000 -7.4020 0.0000
# 3 10.9048 36.5688 98.2928 0.0000 17.5106 0.0000
# 4 0.0000 0.0000 0.0000 6.6932 0.0000 9.7003
# 5 0.2919 -7.4020 17.5106 0.0000 15.8172 0.0000
# 6 0.0000 0.0000 0.0000 9.7003 0.0000 8.0329
#
#
#
# Elastic Compliance Matrix: (Units=1/GPa)
#
#
# Indices 1 2 3 4 5 6 
#
# 1 0.016800 -0.007048 0.001745 0.000000 -0.005540 0.000000
# 2 -0.007048 0.013487 -0.006706 0.000000 0.013865 0.000000
# 3 0.001745 -0.006706 0.016243 0.000000 -0.021153 0.000000
# 4 0.000000 0.000000 0.000000 -0.199182 0.000000 0.240525
# 5 -0.005540 0.013865 -0.021153 0.000000 0.093230 0.000000
# 6 0.000000 0.000000 0.000000 0.240525 0.000000 -0.165962
#
#
# Mechanical properties :
#
#
# Convention : Reuss Voigt Hill
#
# Bulk Modulus (GPa) = 44.41849 54.01488 49.21668
# Shear Modulus (GPa) = -25.79135 19.88185 -2.95475
#
# Velocity S-wave (km/s) = -3.59476 3.15617 -1.21673
# Velocity P-wave (km/s) = 2.24173 6.35177 4.76290
#
# Compressibility (1/GPa) = 0.02251315
#
# Stress axis : x y z
#
# Youngs Moduli (GPa) = 59.52434 74.14601 61.56430
#
# Poissons Ratio (x) = 0.52256 -0.10744
# Poissons Ratio (y) = 0.41951 0.41284
# Poissons Ratio (z) = -0.10388 0.49721
#
# Static dielectric constant tensor:
#      x y z
#    x 1.743310 0.000000 -0.018320 
#    y 0.000000 1.620340 0.000000 
#    z -0.018320 0.000000 1.739210 
# 
# From -- ./inp_files/98175.got.cif
#   From: 2010.05.17/outbox.cif.g08.bks.cpg/sg12_50_cif.got.tgz:98175.got - 2010.06.03 13:09:07.
