data_PCOD9198096
_publ_section_title
;
Structure prediction by ZEFSAII (Michael W. Deem and Ramdas Pophale) SiO2 
 PCOD9198096
Probable space group: C 2/M
;
_chemical_formula_sum "Si O2"
_cell_formula_units_Z 64
_cell_length_a 14.826918
_cell_length_b 8.517108
_cell_length_c 27.171654
_cell_angle_alpha 90.000000
_cell_angle_beta 102.836215
_cell_angle_gamma 90.000000
_cell_volume 3345.552088
_symmetry_space_group_name_H-M "C 2/M"
_symmetry_group_IT_number 12
_symmetry_cell_setting 'monoclinic'
loop_
_space_group_symop_operation_xyz
x,y,z
-x,y,-z
-x,-y,-z
x,-y,z
1/2+x,1/2+y,z
1/2-x,1/2+y,-z
1/2-x,1/2-y,-z
1/2+x,1/2-y,z
loop_
_atom_site_type_symbol
_atom_site_label
_atom_site_fract_x
_atom_site_fract_y
_atom_site_fract_z
Si Si1 0.712313 0.312704 0.248825
Si Si2 0.300975 0.187334 0.860483
Si Si3 0.647219 0.312531 0.498896
Si Si4 0.696045 0.310792 0.946329
Si Si5 0.499013 0.690084 0.229401
Si Si6 0.892078 0.812372 0.313153
Si Si7 0.993545 0.190374 0.117585
Si Si8 0.969764 0.686704 0.424167
O O1 0.718826 0.500000 0.254426
O O2 0.730669 0.264862 0.194423
O O3 0.606547 0.264382 0.246513
O O4 0.785117 0.231580 0.293346
O O5 0.245427 0.240054 0.901775
O O6 0.408235 0.231976 0.880873
O O7 0.290105 0.000000 0.853895
O O8 0.649587 0.500000 0.500463
O O9 0.750000 0.250000 0.500000
O O10 0.570000 0.257569 0.450062
O O11 0.604806 0.250097 0.545207
O O12 0.698211 0.500000 0.947399
O O13 0.588679 0.263689 0.928852
O O14 0.750000 0.250000 0.000000
O O15 0.495018 0.500000 0.230013
O O16 0.441119 0.746128 0.268850
O O17 0.466563 0.734165 0.170633
O O18 0.937240 0.735377 0.366223
O O19 0.902463 0.000000 0.317897
O O20 0.004606 0.000000 0.117780
O O21 0.975024 0.500000 0.429708
#
# Coordination Sequence:
#
# PCOD9198096 Si02
#       8
#     8   8   8   8   8   8   8   8
#     4  10  20  36  56  81 110 145 185 226 273 334
#     4  10  20  36  56  79 105 138 177 223 272 325
#     4  11  22  41  66  90 115 152 198 244 293 345
#     4  10  22  37  54  76 106 139 176 219 272 329
#     4   8  17  34  56  77 105 143 182 219 268 328
#     4  11  21  36  57  83 116 153 188 232 282 330
#     4   9  18  36  57  77 102 139 180 221 268 326
#     4  11  23  40  59  87 122 156 196 242 288 342
#
# _framework density 19.129875999999999
#
# number of rings (size 3 to 8) (size 9 to 14) (size 15 to 20)
#    0.000    2.000    0.000    5.625    0.000    5.000 
#    0.000   15.000    0.000    0.000    0.000    0.000 
#    0.000    0.000    0.000    0.000    0.000    0.000 
#
# Total GULP energy -178715.578492 kJ/mol
# GULP energy per Si atom -5584.861828 kJ/mol
# Density = 1.908634 g / cm^3
# Si number density = 19.129876 Si / 1000 Ang^3
#
#
#
# Elastic Constant Matrix: (Units=GPa)
#
#
# Indices 1 2 3 4 5 6 
#
# 1 89.9611 21.3260 36.4652 0.0000 15.1101 0.0000
# 2 21.3260 70.0259 9.4387 0.0000 2.6924 0.0000
# 3 36.4652 9.4387 57.0689 0.0000 22.8023 0.0000
# 4 0.0000 0.0000 0.0000 32.5952 0.0000 4.3477
# 5 15.1101 2.6924 22.8023 0.0000 20.3178 0.0000
# 6 0.0000 0.0000 0.0000 4.3477 0.0000 28.7023
#
#
#
# Elastic Compliance Matrix: (Units=1/GPa)
#
#
# Indices 1 2 3 4 5 6 
#
# 1 0.015825 -0.003553 -0.009083 0.000000 -0.001105 0.000000
# 2 -0.003553 0.015426 -0.000943 0.000000 0.001656 0.000000
# 3 -0.009083 -0.000943 0.037589 0.000000 -0.035305 0.000000
# 4 0.000000 0.000000 0.000000 0.031312 0.000000 -0.004743
# 5 -0.001105 0.001656 -0.035305 0.000000 0.089443 0.000000
# 6 0.000000 0.000000 0.000000 -0.004743 0.000000 0.035559
#
#
# Mechanical properties :
#
#
# Convention : Reuss Voigt Hill
#
# Bulk Modulus (GPa) = 23.99073 39.05729 31.52401
# Shear Modulus (GPa) = 18.78252 26.31148 22.54700
#
# Velocity S-wave (km/s) = 3.13684 3.71268 3.43684
# Velocity P-wave (km/s) = 5.06832 6.23217 5.68013
#
# Compressibility (1/GPa) = 0.04168276
#
# Stress axis : x y z
#
# Youngs Moduli (GPa) = 63.18963 64.82632 26.60365
#
# Poissons Ratio (x) = 0.23031 0.24164
# Poissons Ratio (y) = 0.22450 0.02509
# Poissons Ratio (z) = 0.57394 0.06113
#
# Static dielectric constant tensor:
#      x y z
#    x 1.669700 0.000000 -0.005190 
#    y 0.000000 1.653590 0.000000 
#    z -0.005190 0.000000 1.645620 
# 
# From -- ./inp_files/359891.got.cif
#   From: 2010.05.17/outbox.cif.g08.bks.cpg/sg12_180_cif.got.tgz:359891.got - 2010.06.03 13:09:07.
