data_PCOD9198140
_publ_section_title
;
Structure prediction by ZEFSAII (Michael W. Deem and Ramdas Pophale) SiO2 
 PCOD9198140
Probable space group: C 2/M
;
_chemical_formula_sum "Si O2"
_cell_formula_units_Z 48
_cell_length_a 19.545271
_cell_length_b 8.832910
_cell_length_c 30.343543
_cell_angle_alpha 90.000000
_cell_angle_beta 149.285383
_cell_angle_gamma 90.000000
_cell_volume 2675.657945
_symmetry_space_group_name_H-M "C 2/M"
_symmetry_group_IT_number 12
_symmetry_cell_setting 'monoclinic'
loop_
_space_group_symop_operation_xyz
x,y,z
-x,y,-z
-x,-y,-z
x,-y,z
1/2+x,1/2+y,z
1/2-x,1/2+y,-z
1/2-x,1/2-y,-z
1/2+x,1/2-y,z
loop_
_atom_site_type_symbol
_atom_site_label
_atom_site_fract_x
_atom_site_fract_y
_atom_site_fract_z
Si Si1 0.358159 0.319253 0.592738
Si Si2 0.332599 0.320056 0.258638
Si Si3 0.216558 0.818396 0.868015
Si Si4 0.576346 0.180389 0.279126
Si Si5 0.147341 0.179574 0.227906
Si Si6 0.141650 0.819052 0.973659
O O1 0.341816 0.500000 0.587741
O O2 0.250000 0.250000 0.500000
O O3 0.508910 0.291123 0.658433
O O4 0.352685 0.243584 0.637807
O O5 0.313830 0.500000 0.255161
O O6 0.269180 0.280991 0.175761
O O7 0.264304 0.229662 0.259937
O O8 0.072834 0.752451 0.803469
O O9 0.212061 0.000000 0.869801
O O10 0.327646 0.750094 0.961541
O O11 0.648964 0.233815 0.275056
O O12 0.565786 0.000000 0.275077
O O13 0.006208 0.216331 0.125878
O O14 0.150489 0.000000 0.237694
O O15 0.157689 0.000000 0.983806
O O16 0.250000 0.750000 0.000000
#
# Coordination Sequence:
#
# PCOD9198140 Si02
#       6
#     8   8   8   8   8   8
#     4  10  21  40  65  91 117 145 184 230 278 341
#     4   9  21  39  58  82 115 151 185 230 287 340
#     4  10  20  36  56  80 112 150 196 242 282 334
#     4  11  21  35  59  85 113 151 191 231 283 340
#     4  11  23  37  55  82 117 152 191 240 286 332
#     4  11  22  34  53  80 112 152 197 244 285 330
#
# _framework density 17.939513000000002
#
# number of rings (size 3 to 8) (size 9 to 14) (size 15 to 20)
#    0.000    1.667    1.667    4.500    0.000    6.667 
#    0.000    4.167    0.000    5.000    0.000    0.000 
#    0.000    0.000    0.000    0.000    0.000    0.000 
#
# Total GULP energy -134108.687147 kJ/mol
# GULP energy per Si atom -5587.861964 kJ/mol
# Density = 1.789868 g / cm^3
# Si number density = 17.939513 Si / 1000 Ang^3
#
#
#
# Elastic Constant Matrix: (Units=GPa)
#
#
# Indices 1 2 3 4 5 6 
#
# 1 116.6774 61.8341 47.3454 0.0000 -17.7221 0.0000
# 2 61.8341 86.9049 54.5942 0.0000 -13.0384 0.0001
# 3 47.3454 54.5942 95.5408 0.0000 -30.2439 0.0000
# 4 0.0000 0.0000 0.0000 31.8428 0.0000 -4.0030
# 5 -17.7221 -13.0384 -30.2439 0.0000 22.1061 0.0000
# 6 0.0000 0.0001 0.0000 -4.0030 0.0000 34.3626
#
#
#
# Elastic Compliance Matrix: (Units=1/GPa)
#
#
# Indices 1 2 3 4 5 6 
#
# 1 0.014466 -0.009517 0.000289 0.000000 0.006379 0.000000
# 2 -0.009517 0.024687 -0.012694 0.000000 -0.010437 0.000000
# 3 0.000289 -0.012694 0.026954 0.000000 0.029621 0.000000
# 4 0.000000 0.000000 0.000000 0.031871 0.000000 0.003713
# 5 0.006379 -0.010437 0.029621 0.000000 0.084720 0.000000
# 6 0.000000 0.000000 0.000000 0.003713 0.000000 0.029534
#
#
# Mechanical properties :
#
#
# Convention : Reuss Voigt Hill
#
# Bulk Modulus (GPa) = 44.91882 69.63004 57.27443
# Shear Modulus (GPa) = 18.97546 26.68562 22.83054
#
# Velocity S-wave (km/s) = 3.25583 3.86104 3.57128
# Velocity P-wave (km/s) = 6.26317 7.66648 7.00008
#
# Compressibility (1/GPa) = 0.02226238
#
# Stress axis : x y z
#
# Youngs Moduli (GPa) = 69.12721 40.50634 37.10042
#
# Poissons Ratio (x) = 0.38552 -0.01073
# Poissons Ratio (y) = 0.65791 0.47097
# Poissons Ratio (z) = -0.01999 0.51420
#
# Static dielectric constant tensor:
#      x y z
#    x 1.601090 0.000000 -0.011130 
#    y 0.000000 1.594910 0.000000 
#    z -0.011130 0.000000 1.598490 
# 
# From -- ./inp_files/274073.got.cif
#   From: 2010.05.17/outbox.cif.g08.bks.cpg/sg12_138_cif.got.tgz:274073.got - 2010.06.03 13:09:07.
