data_PCOD9198682
_publ_section_title
;
Structure prediction by ZEFSAII (Michael W. Deem and Ramdas Pophale) SiO2 
 PCOD9198682
Probable space group: C 2/M
;
_chemical_formula_sum "Si O2"
_cell_formula_units_Z 56
_cell_length_a 19.911477
_cell_length_b 8.947988
_cell_length_c 28.154151
_cell_angle_alpha 90.000000
_cell_angle_beta 141.575182
_cell_angle_gamma 90.000000
_cell_volume 3117.478606
_symmetry_space_group_name_H-M "C 2/M"
_symmetry_group_IT_number 12
_symmetry_cell_setting 'monoclinic'
loop_
_space_group_symop_operation_xyz
x,y,z
-x,y,-z
-x,-y,-z
x,-y,z
1/2+x,1/2+y,z
1/2-x,1/2+y,-z
1/2-x,1/2-y,-z
1/2+x,1/2-y,z
loop_
_atom_site_type_symbol
_atom_site_label
_atom_site_fract_x
_atom_site_fract_y
_atom_site_fract_z
Si Si1 0.637673 0.173333 0.451336
Si Si2 0.970956 0.678088 0.128788
Si Si3 0.119145 0.325435 0.554289
Si Si4 0.924526 0.180162 0.002051
Si Si5 0.488950 0.678225 0.697634
Si Si6 0.173292 0.319606 0.861426
Si Si7 0.839149 0.322368 0.694102
O O1 0.750000 0.250000 0.500000
O O2 0.628698 0.180461 0.502807
O O3 0.541988 0.256675 0.370681
O O4 0.638542 0.000000 0.437077
O O5 0.961801 0.500000 0.116614
O O6 0.084221 0.708257 0.218258
O O7 0.961596 0.758042 0.073418
O O8 0.877968 0.722112 0.115549
O O9 0.126577 0.500000 0.573218
O O10 0.217578 0.234734 0.631366
O O11 0.000000 0.268446 0.500000
O O12 0.929097 0.000000 0.006022
O O13 0.798450 0.221967 0.926076
O O14 0.000000 0.230426 0.000000
O O15 0.490130 0.500000 0.697866
O O16 0.598914 0.743508 0.780487
O O17 0.395112 0.737069 0.681155
O O18 0.162657 0.500000 0.851531
O O19 0.842724 0.500000 0.687112
#
# Coordination Sequence:
#
# PCOD9198682 Si02
#       7
#     8   8   8   8   8   8   8
#     4  11  21  35  58  84 114 148 186 232 280 330
#     4   9  19  35  57  83 108 142 182 226 276 324
#     4  10  22  39  57  81 112 149 192 232 275 331
#     4  10  21  37  57  83 113 146 181 221 274 332
#     4  11  21  34  56  86 113 143 188 235 280 328
#     4   9  19  37  58  81 112 143 183 230 273 328
#     4  10  20  36  58  83 113 147 185 231 282 332
#
# _framework density 17.963235000000001
#
# number of rings (size 3 to 8) (size 9 to 14) (size 15 to 20)
#    0.000    2.000    1.429    3.429    0.000    4.571 
#    2.571    0.000    0.000    0.000    0.000    0.000 
#    0.000    0.000    0.000    0.000    0.000    0.000 
#
# Total GULP energy -156307.323999 kJ/mol
# GULP energy per Si atom -5582.404429 kJ/mol
# Density = 1.792235 g / cm^3
# Si number density = 17.963235 Si / 1000 Ang^3
#
#
#
# Elastic Constant Matrix: (Units=GPa)
#
#
# Indices 1 2 3 4 5 6 
#
# 1 82.0217 34.1271 70.6022 0.0000 17.1182 0.0000
# 2 34.1271 66.2791 54.6877 0.0000 3.7447 0.0000
# 3 70.6022 54.6877 139.0783 0.0000 12.7809 0.0000
# 4 0.0000 0.0000 0.0000 35.8873 0.0000 -3.1040
# 5 17.1182 3.7447 12.7809 0.0000 27.5392 0.0000
# 6 0.0000 0.0000 0.0000 -3.1040 0.0000 21.2365
#
#
#
# Elastic Compliance Matrix: (Units=1/GPa)
#
#
# Indices 1 2 3 4 5 6 
#
# 1 0.024488 -0.003769 -0.010025 0.000000 -0.010057 0.000000
# 2 -0.003769 0.022945 -0.007351 0.000000 0.002634 0.000000
# 3 -0.010025 -0.007351 0.015152 0.000000 0.000199 0.000000
# 4 0.000000 0.000000 0.000000 0.028222 0.000000 0.004125
# 5 -0.010057 0.002634 0.000199 0.000000 0.042112 0.000000
# 6 0.000000 0.000000 0.000000 0.004125 0.000000 0.047692
#
#
# Mechanical properties :
#
#
# Convention : Reuss Voigt Hill
#
# Bulk Modulus (GPa) = 49.27445 67.35701 58.31573
# Shear Modulus (GPa) = 21.77075 25.46342 23.61708
#
# Velocity S-wave (km/s) = 3.48510 3.76909 3.62988
# Velocity P-wave (km/s) = 6.60945 7.51798 7.07831
#
# Compressibility (1/GPa) = 0.02029449
#
# Stress axis : x y z
#
# Youngs Moduli (GPa) = 40.83584 43.58239 65.99950
#
# Poissons Ratio (x) = 0.16426 0.66165
# Poissons Ratio (y) = 0.15391 0.48517
# Poissons Ratio (z) = 0.40938 0.32038
#
# Static dielectric constant tensor:
#      x y z
#    x 1.604330 0.000000 0.008720 
#    y 0.000000 1.607180 0.000000 
#    z 0.008720 0.000000 1.610120 
# 
# From -- ./inp_files/362951.got.cif
#   From: 2010.05.17/outbox.cif.g08.bks.cpg/sg12_182_cif.got.tgz:362951.got - 2010.06.03 13:09:07.
