data_PCOD9198524
_publ_section_title
;
Structure prediction by ZEFSAII (Michael W. Deem and Ramdas Pophale) SiO2 
 PCOD9198524
Probable space group: C 2/M
;
_chemical_formula_sum "Si O2"
_cell_formula_units_Z 40
_cell_length_a 13.810389
_cell_length_b 26.401177
_cell_length_c 9.811492
_cell_angle_alpha 90.000000
_cell_angle_beta 31.656011
_cell_angle_gamma 90.000000
_cell_volume 1877.470885
_symmetry_space_group_name_H-M "C 2/M"
_symmetry_group_IT_number 12
_symmetry_cell_setting 'monoclinic'
loop_
_space_group_symop_operation_xyz
x,y,z
-x,y,-z
-x,-y,-z
x,-y,z
1/2+x,1/2+y,z
1/2-x,1/2+y,-z
1/2-x,1/2-y,-z
1/2+x,1/2-y,z
loop_
_atom_site_type_symbol
_atom_site_label
_atom_site_fract_x
_atom_site_fract_y
_atom_site_fract_z
Si Si1 0.639159 0.557766 0.219976
Si Si2 0.950468 0.708658 0.700664
Si Si3 0.595702 0.406453 0.737714
Si Si4 0.978166 0.795646 0.862853
Si Si5 0.486255 0.093137 0.359001
O O1 0.500000 0.580523 0.500000
O O2 0.679306 0.500000 0.213346
O O3 0.522451 0.560077 0.221735
O O4 0.832761 0.583211 0.947605
O O5 0.024862 0.743141 0.732744
O O6 0.000000 0.735914 0.500000
O O7 0.041758 0.653708 0.595699
O O8 0.731791 0.698219 0.944119
O O9 0.581451 0.347918 0.703505
O O10 0.802128 0.426051 0.508145
O O11 0.500000 0.405797 0.000000
O O12 0.000000 0.789843 0.000000
O O13 0.500000 0.074447 0.500000
#
# Coordination Sequence:
#
# PCOD9198524 Si02
#       5
#     8   8   8   8   8
#     4  11  26  47  67  95 132 162 208 278 335 382
#     4  10  20  36  59  87 126 171 212 259 308 368
#     4  11  21  41  69  94 130 172 216 263 317 382
#     4  10  20  36  57  91 130 166 210 259 310 369
#     4  11  21  42  69  96 128 169 219 264 315 384
#
# _framework density 21.305257000000001
#
# number of rings (size 3 to 8) (size 9 to 14) (size 15 to 20)
#    0.000    1.400    4.000    3.600    0.000    6.400 
#    3.600    2.000    0.000    0.000    0.000    0.000 
#    0.000    0.000    0.000    0.000    0.000    0.000 
#
# Total GULP energy -111554.169336 kJ/mol
# GULP energy per Si atom -5577.708467 kJ/mol
# Density = 2.125677 g / cm^3
# Si number density = 21.305257 Si / 1000 Ang^3
#
#
#
# Elastic Constant Matrix: (Units=GPa)
#
#
# Indices 1 2 3 4 5 6 
#
# 1 76.4399 7.2629 32.0324 0.0000 -18.3001 0.0000
# 2 7.2629 36.7719 11.0968 0.0000 9.6560 0.0000
# 3 32.0324 11.0968 119.8995 0.0000 -12.0232 0.0000
# 4 0.0000 0.0000 0.0000 19.1074 0.0000 9.2994
# 5 -18.3001 9.6560 -12.0232 0.0000 42.6615 0.0000
# 6 0.0000 0.0000 0.0000 9.2994 0.0000 11.9005
#
#
#
# Elastic Compliance Matrix: (Units=1/GPa)
#
#
# Indices 1 2 3 4 5 6 
#
# 1 0.016572 -0.004133 -0.003332 0.000000 0.007105 0.000000
# 2 -0.004133 0.031382 -0.002768 0.000000 -0.009656 0.000000
# 3 -0.003332 -0.002768 0.009680 0.000000 0.001925 0.000000
# 4 0.000000 0.000000 0.000000 0.084456 0.000000 -0.065996
# 5 0.007105 -0.009656 0.001925 0.000000 0.029216 0.000000
# 6 0.000000 0.000000 0.000000 -0.065996 0.000000 0.135601
#
#
# Mechanical properties :
#
#
# Convention : Reuss Voigt Hill
#
# Bulk Modulus (GPa) = 26.90642 37.09952 32.00297
# Shear Modulus (GPa) = 14.71605 26.91515 20.81560
#
# Velocity S-wave (km/s) = 2.63101 3.55816 3.12912
# Velocity P-wave (km/s) = 4.67825 5.85934 5.30179
#
# Compressibility (1/GPa) = 0.03716585
#
# Stress axis : x y z
#
# Youngs Moduli (GPa) = 60.34123 31.86520 103.30692
#
# Poissons Ratio (x) = 0.13171 0.34426
# Poissons Ratio (y) = 0.24941 0.28600
# Poissons Ratio (z) = 0.20108 0.08822
#
# Static dielectric constant tensor:
#      x y z
#    x 1.763880 0.000000 -0.038900 
#    y 0.000000 1.802430 0.000000 
#    z -0.038900 0.000000 1.910160 
# 
# From -- ./inp_files/54003.got.cif
#   From: 2010.05.17/outbox.cif.g08.bks.cpg/sg12_28_cif.got.tgz:54003.got - 2010.06.03 13:09:07.
