data_PCOD9198172
_publ_section_title
;
Structure prediction by ZEFSAII (Michael W. Deem and Ramdas Pophale) SiO2 
 PCOD9198172
Probable space group: C 2/M
;
_chemical_formula_sum "Si O2"
_cell_formula_units_Z 40
_cell_length_a 10.221634
_cell_length_b 15.451822
_cell_length_c 15.028324
_cell_angle_alpha 90.000000
_cell_angle_beta 64.922788
_cell_angle_gamma 90.000000
_cell_volume 2149.873438
_symmetry_space_group_name_H-M "C 2/M"
_symmetry_group_IT_number 12
_symmetry_cell_setting 'monoclinic'
loop_
_space_group_symop_operation_xyz
x,y,z
-x,y,-z
-x,-y,-z
x,-y,z
1/2+x,1/2+y,z
1/2-x,1/2+y,-z
1/2-x,1/2-y,-z
1/2+x,1/2-y,z
loop_
_atom_site_type_symbol
_atom_site_label
_atom_site_fract_x
_atom_site_fract_y
_atom_site_fract_z
Si Si1 0.406828 0.093621 0.749286
Si Si2 0.077056 0.901629 0.883936
Si Si3 0.427116 0.400321 0.425358
Si Si4 0.654330 0.165307 0.420770
Si Si5 0.434641 0.728997 0.272268
O O1 0.250847 0.099161 0.841158
O O2 0.375265 0.100471 0.652364
O O3 0.497734 0.177217 0.748350
O O4 0.473118 0.000000 0.749763
O O5 0.042216 0.827410 0.822719
O O6 0.039383 0.000000 0.864017
O O7 0.000000 0.887197 0.000000
O O8 0.500000 0.392557 0.500000
O O9 0.443225 0.500000 0.391277
O O10 0.255025 0.377322 0.468172
O O11 0.490998 0.332122 0.336395
O O12 0.500000 0.195042 0.500000
O O13 0.763951 0.234075 0.345459
#
# Coordination Sequence:
#
# PCOD9198172 Si02
#       5
#     8   8   8   8   8
#     4  10  20  36  56  82 115 154 202 243 287 351
#     4   9  18  36  63  88 112 149 195 242 294 357
#     4   9  18  35  57  86 122 154 193 247 301 347
#     4   9  20  37  59  81 116 159 206 242 286 345
#     4   9  20  35  56  87 118 149 197 247 288 339
#
# _framework density 18.605744999999999
#
# number of rings (size 3 to 8) (size 9 to 14) (size 15 to 20)
#    1.200    1.600    0.000    1.200    0.000    4.000 
#    7.200    0.000    0.000    6.000    0.000    0.000 
#    0.000    0.000    0.000    0.000    0.000    0.000 
#
# Total GULP energy -111374.030310 kJ/mol
# GULP energy per Si atom -5568.701516 kJ/mol
# Density = 1.856340 g / cm^3
# Si number density = 18.605745 Si / 1000 Ang^3
#
#
#
# Elastic Constant Matrix: (Units=GPa)
#
#
# Indices 1 2 3 4 5 6 
#
# 1 84.4458 71.0038 52.7504 0.0000 0.9539 0.0000
# 2 71.0038 192.7695 66.3054 0.0000 1.8024 0.0000
# 3 52.7504 66.3054 115.3653 0.0000 -8.6208 0.0000
# 4 0.0000 0.0000 0.0000 -2.1363 0.0000 -9.0920
# 5 0.9539 1.8024 -8.6208 0.0000 13.1248 0.0000
# 6 0.0000 0.0000 0.0000 -9.0920 0.0000 14.2147
#
#
#
# Elastic Compliance Matrix: (Units=1/GPa)
#
#
# Indices 1 2 3 4 5 6 
#
# 1 0.020481 -0.005159 -0.006792 0.000000 -0.005241 0.000000
# 2 -0.005159 0.007922 -0.002363 0.000000 -0.002265 0.000000
# 3 -0.006792 -0.002363 0.013874 0.000000 0.009931 0.000000
# 4 0.000000 0.000000 0.000000 -0.125758 0.000000 -0.080437
# 5 -0.005241 -0.002265 0.009931 0.000000 0.083407 0.000000
# 6 0.000000 0.000000 0.000000 -0.080437 0.000000 0.018900
#
#
# Mechanical properties :
#
#
# Convention : Reuss Voigt Hill
#
# Bulk Modulus (GPa) = 73.26365 85.85551 79.55958
# Shear Modulus (GPa) = 96.14640 18.54203 57.34422
#
# Velocity S-wave (km/s) = 7.19638 3.16028 5.55766
# Velocity P-wave (km/s) = 10.41695 7.71760 9.16717
#
# Compressibility (1/GPa) = 0.01364933
#
# Stress axis : x y z
#
# Youngs Moduli (GPa) = 48.82491 126.23282 72.07717
#
# Poissons Ratio (x) = 0.65123 0.48952
# Poissons Ratio (y) = 0.25188 0.17035
# Poissons Ratio (z) = 0.33160 0.29834
#
# Static dielectric constant tensor:
#      x y z
#    x 1.673420 0.000000 0.003110 
#    y 0.000000 1.669920 0.000000 
#    z 0.003110 0.000000 1.637180 
# 
# From -- ./inp_files/203801.got.cif
#   From: 2010.05.17/outbox.cif.g08.bks.cpg/sg12_102_cif.got.tgz:203801.got - 2010.06.03 13:09:07.
