data_PCOD9198076
_publ_section_title
;
Structure prediction by ZEFSAII (Michael W. Deem and Ramdas Pophale) SiO2 
 PCOD9198076
Probable space group: C 2/M
;
_chemical_formula_sum "Si O2"
_cell_formula_units_Z 64
_cell_length_a 14.821852
_cell_length_b 7.750018
_cell_length_c 26.515813
_cell_angle_alpha 90.000000
_cell_angle_beta 104.419159
_cell_angle_gamma 90.000000
_cell_volume 2949.916567
_symmetry_space_group_name_H-M "C 2/M"
_symmetry_group_IT_number 12
_symmetry_cell_setting 'monoclinic'
loop_
_space_group_symop_operation_xyz
x,y,z
-x,y,-z
-x,-y,-z
x,-y,z
1/2+x,1/2+y,z
1/2-x,1/2+y,-z
1/2-x,1/2-y,-z
1/2+x,1/2-y,z
loop_
_atom_site_type_symbol
_atom_site_label
_atom_site_fract_x
_atom_site_fract_y
_atom_site_fract_z
Si Si1 0.983150 0.301013 0.132796
Si Si2 0.463435 0.788257 0.416445
Si Si3 0.417414 0.211385 0.952199
Si Si4 0.354649 0.206771 0.499067
Si Si5 0.933208 0.298795 0.300092
Si Si6 0.760481 0.711074 0.209105
Si Si7 0.075845 0.804128 0.241620
Si Si8 0.219455 0.201257 0.905306
O O1 0.004218 0.500000 0.147025
O O2 0.998781 0.201378 0.186506
O O3 0.878286 0.291097 0.097930
O O4 0.051984 0.235301 0.099511
O O5 0.565251 0.733413 0.450819
O O6 0.388187 0.734386 0.448209
O O7 0.441753 0.724840 0.357308
O O8 0.464054 0.000000 0.415302
O O9 0.311714 0.268391 0.946339
O O10 0.417046 0.000000 0.952880
O O11 0.500000 0.269558 0.000000
O O12 0.250000 0.250000 0.500000
O O13 0.360928 0.000000 0.499074
O O14 0.910259 0.500000 0.302977
O O15 0.850469 0.229306 0.253310
O O16 0.029735 0.285551 0.282973
O O17 0.760923 0.500000 0.205039
O O18 0.668741 0.764717 0.227564
O O19 0.762450 0.779158 0.152325
O O20 0.095701 0.000000 0.259211
O O21 0.207959 0.000000 0.915362
#
# Coordination Sequence:
#
# PCOD9198076 Si02
#       8
#     8   8   8   8   8   8   8   8
#     4  11  21  36  58  81 107 144 182 219 270 329
#     4   8  17  34  54  77 109 148 186 220 268 330
#     4   9  20  38  58  81 110 143 179 221 271 328
#     4   9  17  33  57  81 107 143 186 229 270 323
#     4  10  20  36  56  78 108 149 187 222 270 331
#     4  10  21  35  53  77 108 143 181 222 270 325
#     4  11  22  35  53  81 112 142 180 229 273 318
#     4  11  21  35  58  83 108 140 180 224 269 319
#
# _framework density 21.695529000000001
#
# number of rings (size 3 to 8) (size 9 to 14) (size 15 to 20)
#    0.000    2.125    2.500    1.875    0.000    2.000 
#    0.000    3.750    0.000    5.250    0.000    0.000 
#    0.000    0.000    0.000    0.000    0.000    0.000 
#
# Total GULP energy -178668.859006 kJ/mol
# GULP energy per Si atom -5583.401844 kJ/mol
# Density = 2.164615 g / cm^3
# Si number density = 21.695529 Si / 1000 Ang^3
#
#
#
# Elastic Constant Matrix: (Units=GPa)
#
#
# Indices 1 2 3 4 5 6 
#
# 1 93.9828 -5.4040 -18.3909 0.0000 10.3379 0.0000
# 2 -5.4040 34.8215 -0.7058 0.0000 1.4463 0.0000
# 3 -18.3909 -0.7058 27.2654 0.0000 3.4163 0.0000
# 4 0.0000 0.0000 0.0000 8.6910 0.0000 -0.2805
# 5 10.3379 1.4463 3.4163 0.0000 17.2509 0.0000
# 6 0.0000 0.0000 0.0000 -0.2805 0.0000 21.0957
#
#
#
# Elastic Compliance Matrix: (Units=1/GPa)
#
#
# Indices 1 2 3 4 5 6 
#
# 1 0.014154 0.002872 0.010987 0.000000 -0.010899 0.000000
# 2 0.002872 0.029432 0.003306 0.000000 -0.004843 0.000000
# 3 0.010987 0.003306 0.046179 0.000000 -0.016006 0.000000
# 4 0.000000 0.000000 0.000000 0.115111 0.000000 0.001531
# 5 -0.010899 -0.004843 -0.016006 0.000000 0.068075 0.000000
# 6 0.000000 0.000000 0.000000 0.001531 0.000000 0.047423
#
#
# Mechanical properties :
#
#
# Convention : Reuss Voigt Hill
#
# Bulk Modulus (GPa) = 8.05837 11.89647 9.97742
# Shear Modulus (GPa) = 15.27144 21.44556 18.35850
#
# Velocity S-wave (km/s) = 2.65599 3.14742 2.91209
# Velocity P-wave (km/s) = 3.62326 4.32477 3.98946
#
# Compressibility (1/GPa) = 0.12409463
#
# Stress axis : x y z
#
# Youngs Moduli (GPa) = 70.65040 33.97688 21.65508
#
# Poissons Ratio (x) = -0.09758 -0.23793
# Poissons Ratio (y) = -0.20291 -0.07159
# Poissons Ratio (z) = -0.77624 -0.11233
#
# Static dielectric constant tensor:
#      x y z
#    x 1.794180 0.000000 0.019410 
#    y 0.000000 1.788780 0.000000 
#    z 0.019410 0.000000 1.787710 
# 
# From -- ./inp_files/359914.got.cif
#   From: 2010.05.17/outbox.cif.g08.bks.cpg/sg12_180_cif.got.tgz:359914.got - 2010.06.03 13:09:07.
