data_PCOD9198536
_publ_section_title
;
Structure prediction by ZEFSAII (Michael W. Deem and Ramdas Pophale) SiO2 
 PCOD9198536
Probable space group: C 2/M
;
_chemical_formula_sum "Si O2"
_cell_formula_units_Z 56
_cell_length_a 18.359952
_cell_length_b 7.599306
_cell_length_c 23.199254
_cell_angle_alpha 90.000000
_cell_angle_beta 53.083498
_cell_angle_gamma 90.000000
_cell_volume 2587.881078
_symmetry_space_group_name_H-M "C 2/M"
_symmetry_group_IT_number 12
_symmetry_cell_setting 'monoclinic'
loop_
_space_group_symop_operation_xyz
x,y,z
-x,y,-z
-x,-y,-z
x,-y,z
1/2+x,1/2+y,z
1/2-x,1/2+y,-z
1/2-x,1/2-y,-z
1/2+x,1/2-y,z
loop_
_atom_site_type_symbol
_atom_site_label
_atom_site_fract_x
_atom_site_fract_y
_atom_site_fract_z
Si Si1 0.981843 0.205737 0.572002
Si Si2 0.273130 0.284705 0.862513
Si Si3 0.579708 0.787002 0.005094
Si Si4 0.297293 0.283941 0.718969
Si Si5 0.450655 0.706824 0.847174
Si Si6 0.849671 0.289985 0.428139
Si Si7 0.356649 0.796034 0.295147
O O1 0.071523 0.217842 0.568214
O O2 0.000000 0.283555 0.500000
O O3 0.894193 0.276568 0.647663
O O4 0.959942 0.000000 0.573148
O O5 0.272528 0.500000 0.863789
O O6 0.178459 0.226830 0.936061
O O7 0.281306 0.228335 0.792303
O O8 0.360911 0.225857 0.857004
O O9 0.579709 0.000000 0.003986
O O10 0.500000 0.726930 0.000000
O O11 0.560787 0.732250 0.079342
O O12 0.296174 0.500000 0.721304
O O13 0.217296 0.222584 0.714307
O O14 0.457934 0.500000 0.831164
O O15 0.543612 0.788762 0.779793
O O16 0.862772 0.500000 0.421039
O O17 0.750000 0.250000 0.500000
O O18 0.857174 0.219519 0.359224
O O19 0.329971 0.000000 0.315386
#
# Coordination Sequence:
#
# PCOD9198536 Si02
#       7
#     8   8   8   8   8   8   8
#     4  10  20  36  59  85 114 150 190 232 285 345
#     4   9  18  32  52  79 107 139 180 224 273 326
#     4  10  20  36  58  79 103 142 189 230 270 327
#     4   9  17  33  57  80 105 141 187 233 272 324
#     4  11  22  35  54  82 114 143 175 225 285 335
#     4  11  23  38  58  85 117 152 192 237 282 332
#     4  10  21  38  59  82 109 146 190 229 270 328
#
# _framework density 21.639324999999999
#
# number of rings (size 3 to 8) (size 9 to 14) (size 15 to 20)
#    0.000    2.000    0.000    3.857    0.000    7.429 
#    0.000    1.429    0.000    4.286    0.000    0.000 
#    0.000    0.000    0.000    0.000    0.000    0.000 
#
# Total GULP energy -156527.620212 kJ/mol
# GULP energy per Si atom -5590.272150 kJ/mol
# Density = 2.159007 g / cm^3
# Si number density = 21.639325 Si / 1000 Ang^3
#
#
#
# Elastic Constant Matrix: (Units=GPa)
#
#
# Indices 1 2 3 4 5 6 
#
# 1 179.5142 -21.8993 87.5947 0.0000 8.0500 0.0013
# 2 -21.8993 42.1127 -20.6187 0.0002 3.5473 0.0031
# 3 87.5947 -20.6187 181.1633 0.0001 10.1227 0.0000
# 4 0.0000 0.0002 0.0001 4.1740 -0.0001 -11.8213
# 5 8.0500 3.5473 10.1227 -0.0001 47.8719 0.0000
# 6 0.0013 0.0031 0.0000 -11.8213 0.0000 -2.4509
#
#
#
# Elastic Compliance Matrix: (Units=1/GPa)
#
#
# Indices 1 2 3 4 5 6 
#
# 1 0.007511 0.002340 -0.003324 0.000001 -0.000733 0.000001
# 2 0.002340 0.026175 0.002002 0.000007 -0.002756 0.000003
# 3 -0.003324 0.002002 0.007420 0.000000 -0.001158 0.000000
# 4 0.000001 0.000007 0.000000 0.016342 -0.000001 -0.078823
# 5 -0.000733 -0.002756 -0.001158 -0.000001 0.021462 0.000000
# 6 0.000001 0.000003 0.000000 -0.078823 0.000000 -0.027831
#
#
# Mechanical properties :
#
#
# Convention : Reuss Voigt Hill
#
# Bulk Modulus (GPa) = 23.18022 54.77149 38.97586
# Shear Modulus (GPa) = 78.83486 33.76656 56.30071
#
# Velocity S-wave (km/s) = 6.04238 3.95451 5.10630
# Velocity P-wave (km/s) = 7.70817 6.79830 7.26749
#
# Compressibility (1/GPa) = 0.04314023
#
# Stress axis : x y z
#
# Youngs Moduli (GPa) = 133.13623 38.20462 134.77453
#
# Poissons Ratio (x) = -0.08940 0.44804
# Poissons Ratio (y) = -0.31154 -0.26977
# Poissons Ratio (z) = 0.44260 -0.07647
#
# Static dielectric constant tensor:
#      x y z
#    x 1.774110 0.000000 -0.005980 
#    y 0.000000 1.860090 0.000000 
#    z -0.005980 0.000000 1.743700 
# 
# From -- ./inp_files/275081.got.cif
#   From: 2010.05.17/outbox.cif.g08.bks.cpg/sg12_138_cif.got.tgz:275081.got - 2010.06.03 13:09:07.
