data_PCOD9198690
_publ_section_title
;
Structure prediction by ZEFSAII (Michael W. Deem and Ramdas Pophale) SiO2 
 PCOD9198690
Probable space group: C 2/M
;
_chemical_formula_sum "Si O2"
_cell_formula_units_Z 40
_cell_length_a 23.093896
_cell_length_b 17.412114
_cell_length_c 8.236059
_cell_angle_alpha 90.000000
_cell_angle_beta 139.702137
_cell_angle_gamma 90.000000
_cell_volume 2141.964182
_symmetry_space_group_name_H-M "C 2/M"
_symmetry_group_IT_number 12
_symmetry_cell_setting 'monoclinic'
loop_
_space_group_symop_operation_xyz
x,y,z
-x,y,-z
-x,-y,-z
x,-y,z
1/2+x,1/2+y,z
1/2-x,1/2+y,-z
1/2-x,1/2-y,-z
1/2+x,1/2-y,z
loop_
_atom_site_type_symbol
_atom_site_label
_atom_site_fract_x
_atom_site_fract_y
_atom_site_fract_z
Si Si1 0.105919 0.295321 0.256704
Si Si2 0.274772 0.087951 0.670539
Si Si3 0.199524 0.205367 0.751365
Si Si4 0.397178 0.582357 0.239067
Si Si5 0.902474 0.130413 0.877826
O O1 0.162005 0.369948 0.326065
O O2 0.142413 0.260699 0.507293
O O3 0.122782 0.220698 0.179470
O O4 0.000000 0.310587 0.000000
O O5 0.268033 0.150157 0.800454
O O6 0.173005 0.087980 0.387095
O O7 0.301280 0.000000 0.763820
O O8 0.136797 0.146879 0.713288
O O9 0.250000 0.250000 0.000000
O O10 0.500000 0.574601 0.500000
O O11 0.350655 0.500000 0.167879
O O12 0.394832 0.602348 0.044418
O O13 0.000000 0.122207 0.000000
#
# Coordination Sequence:
#
# PCOD9198690 Si02
#       5
#     8   8   8   8   8
#     4  10  21  39  61  81 108 152 198 235 275 337
#     4  11  22  37  58  83 113 148 190 239 286 336
#     4  11  22  37  58  83 113 148 188 235 285 336
#     4  11  21  32  51  82 117 146 177 226 284 335
#     4  10  20  36  58  83 113 151 192 230 278 345
#
# _framework density 18.674448000000002
#
# number of rings (size 3 to 8) (size 9 to 14) (size 15 to 20)
#    0.000    1.400    0.000    9.600    0.000    3.600 
#    0.000    1.000    0.000    1.800    0.000    0.000 
#    0.000    0.000    0.000    0.000    0.000    0.000 
#
# Total GULP energy -111470.626121 kJ/mol
# GULP energy per Si atom -5573.531306 kJ/mol
# Density = 1.863194 g / cm^3
# Si number density = 18.674448 Si / 1000 Ang^3
#
#
#
# Elastic Constant Matrix: (Units=GPa)
#
#
# Indices 1 2 3 4 5 6 
#
# 1 86.4769 64.9670 36.9090 0.0000 -9.7805 0.0000
# 2 64.9670 131.6009 58.2844 0.0000 1.5448 0.0000
# 3 36.9090 58.2844 99.6721 0.0000 -14.8190 0.0000
# 4 0.0000 0.0000 0.0000 17.2802 0.0000 1.6391
# 5 -9.7805 1.5448 -14.8190 0.0000 31.3931 0.0000
# 6 0.0000 0.0000 0.0000 1.6391 0.0000 27.2034
#
#
#
# Elastic Compliance Matrix: (Units=1/GPa)
#
#
# Indices 1 2 3 4 5 6 
#
# 1 0.019711 -0.009418 -0.000871 0.000000 0.006193 0.000000
# 2 -0.009418 0.015144 -0.006362 0.000000 -0.006682 0.000000
# 3 -0.000871 -0.006362 0.015145 0.000000 0.007191 0.000000
# 4 0.000000 0.000000 0.000000 0.058202 0.000000 -0.003507
# 5 0.006193 -0.006682 0.007191 0.000000 0.037507 0.000000
# 6 0.000000 0.000000 0.000000 -0.003507 0.000000 0.036971
#
#
# Mechanical properties :
#
#
# Convention : Reuss Voigt Hill
#
# Bulk Modulus (GPa) = 59.88530 70.89676 65.39103
# Shear Modulus (GPa) = 22.56856 25.68133 24.12495
#
# Velocity S-wave (km/s) = 3.48016 3.71241 3.59816
# Velocity P-wave (km/s) = 6.94884 7.51152 7.23565
#
# Compressibility (1/GPa) = 0.01669859
#
# Stress axis : x y z
#
# Youngs Moduli (GPa) = 50.73271 66.03374 66.02978
#
# Poissons Ratio (x) = 0.62187 0.05753
# Poissons Ratio (y) = 0.47778 0.42006
# Poissons Ratio (z) = 0.04421 0.42008
#
# Static dielectric constant tensor:
#      x y z
#    x 1.664620 0.000000 -0.009310 
#    y 0.000000 4.660730 0.000000 
#    z -0.009310 0.000000 1.662630 
# 
# From -- ./inp_files/96643.got.cif
#   From: 2010.05.17/outbox.cif.g08.bks.cpg/sg12_49_cif.got.tgz:96643.got - 2010.06.03 13:09:07.
