data_PCOD9198833
_publ_section_title
;
Structure prediction by ZEFSAII (Michael W. Deem and Ramdas Pophale) SiO2 
 PCOD9198833
Probable space group: C 2/M
;
_chemical_formula_sum "Si O2"
_cell_formula_units_Z 56
_cell_length_a 19.462569
_cell_length_b 16.472898
_cell_length_c 29.815013
_cell_angle_alpha 90.000000
_cell_angle_beta 161.595092
_cell_angle_gamma 90.000000
_cell_volume 3018.015484
_symmetry_space_group_name_H-M "C 2/M"
_symmetry_group_IT_number 12
_symmetry_cell_setting 'monoclinic'
loop_
_space_group_symop_operation_xyz
x,y,z
-x,y,-z
-x,-y,-z
x,-y,z
1/2+x,1/2+y,z
1/2-x,1/2+y,-z
1/2-x,1/2-y,-z
1/2+x,1/2-y,z
loop_
_atom_site_type_symbol
_atom_site_label
_atom_site_fract_x
_atom_site_fract_y
_atom_site_fract_z
Si Si1 0.392831 0.229947 0.385562
Si Si2 0.721599 0.404133 0.215566
Si Si3 0.026630 0.594001 0.718888
Si Si4 0.171869 0.595742 0.145521
Si Si5 0.612263 0.319064 0.440270
Si Si6 0.252473 0.165793 0.061884
Si Si7 0.459278 0.172318 0.099550
O O1 0.500000 0.219782 0.500000
O O2 0.346062 0.146038 0.330837
O O3 0.540585 0.282881 0.443666
O O4 0.162202 0.276548 0.245225
O O5 0.744768 0.500000 0.235639
O O6 0.821562 0.382095 0.229077
O O7 0.471262 0.377755 0.062943
O O8 0.069503 0.500000 0.756241
O O9 0.079815 0.648387 0.794734
O O10 0.779106 0.607463 0.550736
O O11 0.224037 0.500000 0.174437
O O12 0.390683 0.650019 0.279556
O O13 0.055259 0.614442 0.120850
O O14 0.000000 0.616515 0.000000
O O15 0.750000 0.250000 0.500000
O O16 0.337509 0.134034 0.066523
O O17 0.197437 0.260640 0.020422
#
# Coordination Sequence:
#
# PCOD9198833 Si02
#       7
#     8   8   8   8   8   8   8
#     4  10  20  38  58  81 113 149 196 243 292 350
#     4  10  21  36  53  82 120 156 193 240 293 350
#     4  11  22  36  58  88 120 153 195 245 298 354
#     4  10  23  42  63  88 121 158 199 247 300 358
#     4  11  22  39  62  88 115 158 195 246 297 355
#     4  10  20  36  58  86 118 156 198 245 290 353
#     4   9  21  37  59  85 115 153 202 249 289 351
#
# _framework density 18.555237999999999
#
# number of rings (size 3 to 8) (size 9 to 14) (size 15 to 20)
#    0.000    1.857    1.429    2.143    2.000    2.571 
#    0.000    0.000    0.000    4.714    0.000    0.000 
#    0.000    0.000    0.000    0.000    0.000    0.000 
#
# Total GULP energy -156318.980990 kJ/mol
# GULP energy per Si atom -5582.820750 kJ/mol
# Density = 1.851301 g / cm^3
# Si number density = 18.555238 Si / 1000 Ang^3
#
#
#
# Elastic Constant Matrix: (Units=GPa)
#
#
# Indices 1 2 3 4 5 6 
#
# 1 80.8271 28.9139 57.9799 -0.0035 4.6270 0.0001
# 2 28.9139 49.3688 33.6200 0.0202 -7.3561 -0.0034
# 3 57.9799 33.6200 106.1781 0.0141 -7.5156 -0.0014
# 4 -0.0035 0.0202 0.0141 19.5241 0.0028 1.0386
# 5 4.6270 -7.3561 -7.5156 0.0028 38.4426 0.0035
# 6 0.0001 -0.0034 -0.0014 1.0386 0.0035 20.1975
#
#
#
# Elastic Compliance Matrix: (Units=1/GPa)
#
#
# Indices 1 2 3 4 5 6 
#
# 1 0.022957 -0.007056 -0.010742 0.000020 -0.006213 -0.000002
# 2 -0.007056 0.028436 -0.004772 -0.000028 0.005358 0.000005
# 3 -0.010742 -0.004772 0.017058 -0.000010 0.003715 0.000000
# 4 0.000020 -0.000028 -0.000010 0.051359 -0.000013 -0.002641
# 5 -0.006213 0.005358 0.003715 -0.000013 0.028512 -0.000003
# 6 -0.000002 0.000005 0.000000 -0.002641 -0.000003 0.049647
#
#
# Mechanical properties :
#
#
# Convention : Reuss Voigt Hill
#
# Bulk Modulus (GPa) = 42.89626 53.04462 47.97044
# Shear Modulus (GPa) = 19.92993 23.35684 21.64339
#
# Velocity S-wave (km/s) = 3.28088 3.55177 3.41901
# Velocity P-wave (km/s) = 6.12540 6.74311 6.44167
#
# Compressibility (1/GPa) = 0.02331205
#
# Stress axis : x y z
#
# Youngs Moduli (GPa) = 43.55909 35.16658 58.62500
#
# Poissons Ratio (x) = 0.24814 0.62973
# Poissons Ratio (y) = 0.30736 0.27973
# Poissons Ratio (z) = 0.46790 0.16780
#
# Static dielectric constant tensor:
#      x y z
#    x 1.626230 0.000000 0.016730 
#    y 0.000000 1.632660 -0.000020 
#    z 0.016730 -0.000020 1.647200 
# 
# From -- ./inp_files/364437.got.cif
#   From: 2010.05.17/outbox.cif.g08.bks.cpg/sg12_183_cif.got.tgz:364437.got - 2010.06.03 13:09:07.
