data_PCOD9198967
_publ_section_title
;
Structure prediction by ZEFSAII (Michael W. Deem and Ramdas Pophale) SiO2 
 PCOD9198967
Probable space group: C 2/M
;
_chemical_formula_sum "Si O2"
_cell_formula_units_Z 64
_cell_length_a 16.508252
_cell_length_b 7.565816
_cell_length_c 19.900088
_cell_angle_alpha 90.000000
_cell_angle_beta 100.499458
_cell_angle_gamma 90.000000
_cell_volume 2443.873634
_symmetry_space_group_name_H-M "C 2/M"
_symmetry_group_IT_number 12
_symmetry_cell_setting 'monoclinic'
loop_
_space_group_symop_operation_xyz
x,y,z
-x,y,-z
-x,-y,-z
x,-y,z
1/2+x,1/2+y,z
1/2-x,1/2+y,-z
1/2-x,1/2-y,-z
1/2+x,1/2-y,z
loop_
_atom_site_type_symbol
_atom_site_label
_atom_site_fract_x
_atom_site_fract_y
_atom_site_fract_z
Si Si1 0.437051 0.202491 0.542603
Si Si2 0.911133 0.289565 0.915029
Si Si3 0.615396 0.205543 0.708089
Si Si4 0.768856 0.785274 0.162831
Si Si5 0.314801 0.703554 0.417621
Si Si6 0.981142 0.715566 0.792799
Si Si7 0.842119 0.208141 0.041764
Si Si8 0.641369 0.216229 0.336477
O O1 0.500000 0.290153 0.500000
O O2 0.351819 0.202661 0.488031
O O3 0.420952 0.274708 0.613904
O O4 0.464621 0.000000 0.556809
O O5 0.913480 0.500000 0.908534
O O6 0.821363 0.227286 0.874779
O O7 0.975655 0.220491 0.869116
O O8 0.907298 0.261748 0.994641
O O9 0.701789 0.224747 0.760406
O O10 0.622509 0.287338 0.635923
O O11 0.551125 0.281771 0.752573
O O12 0.596333 0.000000 0.695486
O O13 0.767719 0.000000 0.163127
O O14 0.834790 0.719407 0.116371
O O15 0.302464 0.500000 0.434339
O O16 0.230466 0.778476 0.374110
O O17 0.988105 0.500000 0.794817
O O18 0.896135 0.761414 0.741183
O O19 0.849412 0.000000 0.048310
O O20 0.750000 0.250000 0.000000
O O21 0.644779 0.000000 0.337693
#
# Coordination Sequence:
#
# PCOD9198967 Si02
#       8
#     8   8   8   8   8   8   8   8
#     4  10  20  36  59  83 108 140 176 214 255 303
#     4   9  17  32  55  78 102 135 175 218 262 311
#     4  11  22  35  54  78 104 137 177 219 260 309
#     4   9  18  33  53  76 103 136 171 212 264 314
#     4  11  22  36  56  80 108 140 172 213 263 311
#     4   9  18  34  54  76 102 135 176 218 262 310
#     4   9  17  30  50  76 105 137 174 216 262 311
#     4   9  18  34  56  79 104 137 175 214 258 307
#
# _framework density 26.187933000000001
#
# number of rings (size 3 to 8) (size 9 to 14) (size 15 to 20)
#    0.000    2.375    0.000    3.750    0.000    6.750 
#    0.000    2.500    0.000    9.000    0.000    0.000 
#    0.000    0.000    0.000    0.000    0.000    0.000 
#
# Total GULP energy -178908.303347 kJ/mol
# GULP energy per Si atom -5590.884480 kJ/mol
# Density = 2.612833 g / cm^3
# Si number density = 26.187933 Si / 1000 Ang^3
#
#
#
# Elastic Constant Matrix: (Units=GPa)
#
#
# Indices 1 2 3 4 5 6 
#
# 1 75.2321 -2.2383 16.6478 0.0000 -15.5951 0.0000
# 2 -2.2383 70.2758 -4.4258 0.0000 -4.8782 0.0000
# 3 16.6478 -4.4258 170.0802 0.0000 -12.6347 0.0000
# 4 0.0000 0.0000 0.0000 20.2767 0.0000 0.0446
# 5 -15.5951 -4.8782 -12.6347 0.0000 53.3921 0.0000
# 6 0.0000 0.0000 0.0000 0.0446 0.0000 7.0526
#
#
#
# Elastic Compliance Matrix: (Units=1/GPa)
#
#
# Indices 1 2 3 4 5 6 
#
# 1 0.014384 0.000667 -0.001093 0.000000 0.004004 0.000000
# 2 0.000667 0.014390 0.000429 0.000000 0.001611 0.000000
# 3 -0.001093 0.000429 0.006084 0.000000 0.001160 0.000000
# 4 0.000000 0.000000 0.000000 0.049318 0.000000 -0.000312
# 5 0.004004 0.001611 0.001160 0.000000 0.020320 0.000000
# 6 0.000000 0.000000 0.000000 -0.000312 0.000000 0.141794
#
#
# Mechanical properties :
#
#
# Convention : Reuss Voigt Hill
#
# Bulk Modulus (GPa) = 28.68352 37.28395 32.98374
# Shear Modulus (GPa) = 19.38696 36.51791 27.95244
#
# Velocity S-wave (km/s) = 2.72380 3.73829 3.27062
# Velocity P-wave (km/s) = 4.56824 5.73595 5.18507
#
# Compressibility (1/GPa) = 0.03486322
#
# Stress axis : x y z
#
# Youngs Moduli (GPa) = 69.52238 69.49398 164.36887
#
# Poissons Ratio (x) = -0.04637 0.17968
# Poissons Ratio (y) = -0.04639 -0.07048
# Poissons Ratio (z) = 0.07600 -0.02980
#
# Static dielectric constant tensor:
#      x y z
#    x 2.171190 0.000000 -0.031330 
#    y 0.000000 1.964030 0.000000 
#    z -0.031330 0.000000 2.006920 
# 
# From -- ./inp_files/314181.got.cif
#   From: 2010.05.17/outbox.cif.g08.bks.cpg/sg12_158_cif.got.tgz:314181.got - 2010.06.03 13:09:07.
