data_PCOD9198976
_publ_section_title
;
Structure prediction by ZEFSAII (Michael W. Deem and Ramdas Pophale) SiO2 
 PCOD9198976
Probable space group: C 2/M
;
_chemical_formula_sum "Si O2"
_cell_formula_units_Z 48
_cell_length_a 20.527702
_cell_length_b 13.354894
_cell_length_c 9.677340
_cell_angle_alpha 90.000000
_cell_angle_beta 85.020406
_cell_angle_gamma 90.000000
_cell_volume 2642.983854
_symmetry_space_group_name_H-M "C 2/M"
_symmetry_group_IT_number 12
_symmetry_cell_setting 'monoclinic'
loop_
_space_group_symop_operation_xyz
x,y,z
-x,y,-z
-x,-y,-z
x,-y,z
1/2+x,1/2+y,z
1/2-x,1/2+y,-z
1/2-x,1/2-y,-z
1/2+x,1/2-y,z
loop_
_atom_site_type_symbol
_atom_site_label
_atom_site_fract_x
_atom_site_fract_y
_atom_site_fract_z
Si Si1 0.788519 0.885664 0.027984
Si Si2 0.080201 0.383656 0.784612
Si Si3 0.850211 0.699158 0.481608
Si Si4 0.283058 0.618027 0.360719
Si Si5 0.645174 0.811266 0.037673
Si Si6 0.937740 0.617826 0.690197
O O1 0.789405 0.866497 0.194009
O O2 0.713864 0.866691 0.995154
O O3 0.807219 0.000000 0.999327
O O4 0.834199 0.804060 0.946785
O O5 0.078783 0.500000 0.824906
O O6 0.134719 0.363434 0.659073
O O7 0.010174 0.359294 0.730821
O O8 0.097455 0.321527 0.916712
O O9 0.788365 0.653913 0.575097
O O10 0.832956 0.810711 0.434216
O O11 0.912312 0.684486 0.568976
O O12 0.291058 0.500000 0.385888
O O13 0.611442 0.861535 0.174724
O O14 0.935352 0.500000 0.650446
#
# Coordination Sequence:
#
# PCOD9198976 Si02
#       6
#     8   8   8   8   8   8
#     4  10  20  36  59  83 112 147 179 226 283 326
#     4  11  22  35  55  85 113 145 187 226 268 327
#     4  11  21  36  57  84 110 147 184 225 271 329
#     4  10  20  36  59  83 112 147 179 226 283 326
#     4  11  21  36  57  84 110 147 184 225 271 329
#     4  11  22  37  57  79 117 153 177 222 282 329
#
# _framework density 18.161290999999999
#
# number of rings (size 3 to 8) (size 9 to 14) (size 15 to 20)
#    0.000    1.333    3.333    4.000    0.000    2.667 
#    0.000    2.500    0.000    6.000    0.000    0.000 
#    0.000    0.000    0.000    0.000    0.000    0.000 
#
# Total GULP energy -134047.815095 kJ/mol
# GULP energy per Si atom -5585.325629 kJ/mol
# Density = 1.811995 g / cm^3
# Si number density = 18.161291 Si / 1000 Ang^3
#
#
#
# Elastic Constant Matrix: (Units=GPa)
#
#
# Indices 1 2 3 4 5 6 
#
# 1 60.3208 37.0103 10.4231 0.0000 18.1284 0.0000
# 2 37.0103 88.4916 3.7769 0.0000 20.9965 0.0000
# 3 10.4231 3.7769 31.6137 0.0000 15.8496 0.0000
# 4 0.0000 0.0000 0.0000 21.1377 0.0000 -0.9942
# 5 18.1284 20.9965 15.8496 0.0000 27.6002 0.0000
# 6 0.0000 0.0000 0.0000 -0.9942 0.0000 24.6556
#
#
#
# Elastic Compliance Matrix: (Units=1/GPa)
#
#
# Indices 1 2 3 4 5 6 
#
# 1 0.024600 -0.008224 -0.003039 0.000000 -0.008157 0.000000
# 2 -0.008224 0.017143 0.006310 0.000000 -0.011264 0.000000
# 3 -0.003039 0.006310 0.046744 0.000000 -0.029647 0.000000
# 4 0.000000 0.000000 0.000000 0.047399 0.000000 0.001911
# 5 -0.008157 -0.011264 -0.029647 0.000000 0.067183 0.000000
# 6 0.000000 0.000000 0.000000 0.001911 0.000000 0.040636
#
#
# Mechanical properties :
#
#
# Convention : Reuss Voigt Hill
#
# Bulk Modulus (GPa) = 12.72541 31.42741 22.07641
# Shear Modulus (GPa) = 17.86971 23.29307 20.58139
#
# Velocity S-wave (km/s) = 3.14019 3.58518 3.37004
# Velocity P-wave (km/s) = 4.49108 5.87198 5.22733
#
# Compressibility (1/GPa) = 0.07858295
#
# Stress axis : x y z
#
# Youngs Moduli (GPa) = 40.65020 58.33238 21.39327
#
# Poissons Ratio (x) = 0.47970 0.06501
# Poissons Ratio (y) = 0.33429 -0.13500
# Poissons Ratio (z) = 0.12353 -0.36810
#
# Static dielectric constant tensor:
#      x y z
#    x 1.626630 0.000000 -0.001700 
#    y 0.000000 1.605840 0.000000 
#    z -0.001700 0.000000 1.637050 
# 
# From -- ./inp_files/73630.got.cif
#   From: 2010.05.17/outbox.cif.g08.bks.cpg/sg12_37_cif.got.tgz:73630.got - 2010.06.03 13:09:07.
