data_PCOD9198029
_publ_section_title
;
Structure prediction by ZEFSAII (Michael W. Deem and Ramdas Pophale) SiO2 
 PCOD9198029
Probable space group: C 2/M
;
_chemical_formula_sum "Si O2"
_cell_formula_units_Z 48
_cell_length_a 9.398713
_cell_length_b 22.280213
_cell_length_c 12.061986
_cell_angle_alpha 90.000000
_cell_angle_beta 77.574210
_cell_angle_gamma 90.000000
_cell_volume 2466.677551
_symmetry_space_group_name_H-M "C 2/M"
_symmetry_group_IT_number 12
_symmetry_cell_setting 'monoclinic'
loop_
_space_group_symop_operation_xyz
x,y,z
-x,y,-z
-x,-y,-z
x,-y,z
1/2+x,1/2+y,z
1/2-x,1/2+y,-z
1/2-x,1/2-y,-z
1/2+x,1/2-y,z
loop_
_atom_site_type_symbol
_atom_site_label
_atom_site_fract_x
_atom_site_fract_y
_atom_site_fract_z
Si Si1 0.325219 0.933434 0.015415
Si Si2 0.336428 0.832710 0.568356
Si Si3 0.749981 0.116275 0.195242
Si Si4 0.892241 0.277267 0.921256
Si Si5 0.644888 0.695684 0.403627
Si Si6 0.421087 0.649501 0.826286
O O1 0.293329 0.932161 0.889106
O O2 0.291091 0.000000 0.066361
O O3 0.500000 0.924397 0.000000
O O4 0.214654 0.884034 0.089314
O O5 0.500000 0.834901 0.500000
O O6 0.301541 0.880550 0.669238
O O7 0.300806 0.764846 0.620915
O O8 0.248470 0.839147 0.469856
O O9 0.664568 0.173433 0.154441
O O10 0.925821 0.117912 0.172319
O O11 0.958521 0.218070 0.855370
O O12 0.750000 0.250000 0.000000
O O13 0.000000 0.298524 0.000000
O O14 0.500000 0.702506 0.500000
O O15 0.619528 0.659512 0.295354
#
# Coordination Sequence:
#
# PCOD9198029 Si02
#       6
#     8   8   8   8   8   8
#     4  11  27  47  66  89 115 154 209 268 322 367
#     4  10  22  34  56  89 130 172 202 236 293 357
#     4  12  23  38  61  91 127 165 204 248 306 371
#     4  12  22  33  53  92 132 162 199 245 309 372
#     4  10  20  36  55  88 132 168 202 240 287 365
#     4  12  23  38  63  89 126 166 202 250 306 370
#
# _framework density 19.459374
#
# number of rings (size 3 to 8) (size 9 to 14) (size 15 to 20)
#    0.000    0.833    6.667    1.000    2.333    1.333 
#    0.000    0.000    0.000    2.000    0.000    0.000 
#    0.000    0.000    0.000    0.000    0.000    0.000 
#
# Total GULP energy -133712.881588 kJ/mol
# GULP energy per Si atom -5571.370066 kJ/mol
# Density = 1.941508 g / cm^3
# Si number density = 19.459374 Si / 1000 Ang^3
#
#
#
# Elastic Constant Matrix: (Units=GPa)
#
#
# Indices 1 2 3 4 5 6 
#
# 1 128.0764 15.5657 53.1916 0.0000 24.1562 0.0000
# 2 15.5657 75.6186 25.0635 0.0000 2.2653 0.0000
# 3 53.1916 25.0635 122.3287 0.0000 26.7579 0.0000
# 4 0.0000 0.0000 0.0000 10.5075 0.0000 -0.2920
# 5 24.1562 2.2653 26.7579 0.0000 39.4361 0.0000
# 6 0.0000 0.0000 0.0000 -0.2920 0.0000 10.6367
#
#
#
# Elastic Compliance Matrix: (Units=1/GPa)
#
#
# Indices 1 2 3 4 5 6 
#
# 1 0.010021 -0.000838 -0.003351 0.000000 -0.003817 0.000000
# 2 -0.000838 0.014320 -0.002938 0.000000 0.001684 0.000000
# 3 -0.003351 -0.002938 0.011447 0.000000 -0.005545 0.000000
# 4 0.000000 0.000000 0.000000 0.095242 0.000000 0.002614
# 5 -0.003817 0.001684 -0.005545 0.000000 0.031361 0.000000
# 6 0.000000 0.000000 0.000000 0.002614 0.000000 0.094086
#
#
# Mechanical properties :
#
#
# Convention : Reuss Voigt Hill
#
# Bulk Modulus (GPa) = 46.43753 57.07390 51.75571
# Shear Modulus (GPa) = 17.99149 27.59626 22.79388
#
# Velocity S-wave (km/s) = 3.04397 3.76992 3.42622
# Velocity P-wave (km/s) = 6.02245 6.95292 6.50435
#
# Compressibility (1/GPa) = 0.02153431
#
# Stress axis : x y z
#
# Youngs Moduli (GPa) = 99.78840 69.83199 87.36115
#
# Poissons Ratio (x) = 0.05851 0.29275
# Poissons Ratio (y) = 0.08360 0.25667
# Poissons Ratio (z) = 0.33439 0.20517
#
# Static dielectric constant tensor:
#      x y z
#    x 1.648780 0.000000 -0.003960 
#    y 0.000000 1.791530 0.000000 
#    z -0.003960 0.000000 1.693270 
# 
# From -- ./inp_files/121851.got.cif
#   From: 2010.05.17/outbox.cif.g08.bks.cpg/sg12_61_cif.got.tgz:121851.got - 2010.06.03 13:09:07.
