data_PCOD9198622
_publ_section_title
;
Structure prediction by ZEFSAII (Michael W. Deem and Ramdas Pophale) SiO2 
 PCOD9198622
Probable space group: C 2/M
;
_chemical_formula_sum "Si O2"
_cell_formula_units_Z 48
_cell_length_a 21.167165
_cell_length_b 7.727822
_cell_length_c 32.181181
_cell_angle_alpha 90.000000
_cell_angle_beta 154.496901
_cell_angle_gamma 90.000000
_cell_volume 2266.498197
_symmetry_space_group_name_H-M "C 2/M"
_symmetry_group_IT_number 12
_symmetry_cell_setting 'monoclinic'
loop_
_space_group_symop_operation_xyz
x,y,z
-x,y,-z
-x,-y,-z
x,-y,z
1/2+x,1/2+y,z
1/2-x,1/2+y,-z
1/2-x,1/2-y,-z
1/2+x,1/2-y,z
loop_
_atom_site_type_symbol
_atom_site_label
_atom_site_fract_x
_atom_site_fract_y
_atom_site_fract_z
Si Si1 0.569883 0.204880 0.772388
Si Si2 0.102434 0.793679 0.887480
Si Si3 0.259319 0.793446 0.554195
Si Si4 0.851806 0.212069 0.889138
Si Si5 0.975738 0.705535 0.439359
Si Si6 0.671584 0.287858 0.220113
O O1 0.599402 0.226951 0.838676
O O2 0.411574 0.275522 0.664280
O O3 0.706743 0.273603 0.827075
O O4 0.564593 0.000000 0.760512
O O5 0.961466 0.729989 0.829593
O O6 0.091798 0.000000 0.878618
O O7 0.250000 0.750000 0.000000
O O8 0.250000 0.750000 0.500000
O O9 0.117856 0.729057 0.495186
O O10 0.258906 0.000000 0.558063
O O11 0.850261 0.266076 0.840353
O O12 0.851124 0.000000 0.889493
O O13 0.000000 0.267773 0.000000
O O14 0.951977 0.500000 0.429801
O O15 0.827916 0.773126 0.330273
O O16 0.000000 0.777895 0.500000
O O17 0.670726 0.500000 0.219500
#
# Coordination Sequence:
#
# PCOD9198622 Si02
#       6
#     8   8   8   8   8   8
#     4  10  21  37  57  82 112 146 185 232 283 335
#     4  11  22  37  59  85 114 148 186 230 280 336
#     4  11  23  38  58  84 117 155 194 239 291 347
#     4   9  16  29  52  77 100 132 178 226 266 313
#     4  10  20  36  58  82 110 146 191 239 285 340
#     4   9  18  33  54  79 106 142 186 227 271 327
#
# _framework density 21.178045999999998
#
# number of rings (size 3 to 8) (size 9 to 14) (size 15 to 20)
#    0.000    2.000    0.000    4.000    0.000    8.333 
#    0.000    1.667    0.000    5.500    0.000    0.000 
#    0.000    0.000    0.000    0.000    0.000    0.000 
#
# Total GULP energy -134151.425437 kJ/mol
# GULP energy per Si atom -5589.642727 kJ/mol
# Density = 2.112984 g / cm^3
# Si number density = 21.178046 Si / 1000 Ang^3
#
#
#
# Elastic Constant Matrix: (Units=GPa)
#
#
# Indices 1 2 3 4 5 6 
#
# 1 106.3186 -15.5193 12.4673 0.0010 5.6970 -0.0013
# 2 -15.5193 25.3088 -1.4417 0.0018 0.8178 -0.0017
# 3 12.4673 -1.4417 109.8346 -0.0008 5.3799 -0.0012
# 4 0.0010 0.0018 -0.0008 12.5093 0.0000 4.6575
# 5 5.6970 0.8178 5.3799 0.0000 44.8629 0.0005
# 6 -0.0013 -0.0017 -0.0012 4.6575 0.0005 23.6265
#
#
#
# Elastic Compliance Matrix: (Units=1/GPa)
#
#
# Indices 1 2 3 4 5 6 
#
# 1 0.010541 0.006447 -0.001047 -0.000002 -0.001331 0.000001
# 2 0.006447 0.043512 -0.000082 -0.000009 -0.001602 0.000005
# 3 -0.001047 -0.000082 0.009270 0.000001 -0.000977 0.000000
# 4 -0.000002 -0.000009 0.000001 0.086272 0.000001 -0.017007
# 5 -0.001331 -0.001602 -0.000977 0.000001 0.022605 -0.000001
# 6 0.000001 0.000005 0.000000 -0.017007 -0.000001 0.045678
#
#
# Mechanical properties :
#
#
# Convention : Reuss Voigt Hill
#
# Bulk Modulus (GPa) = 13.52094 25.83052 19.67573
# Shear Modulus (GPa) = 21.56139 32.59680 27.07910
#
# Velocity S-wave (km/s) = 3.19423 3.92749 3.57969
# Velocity P-wave (km/s) = 4.47241 5.72628 5.13774
#
# Compressibility (1/GPa) = 0.07395934
#
# Stress axis : x y z
#
# Youngs Moduli (GPa) = 94.86961 22.98205 107.87258
#
# Poissons Ratio (x) = -0.14816 0.11291
# Poissons Ratio (y) = -0.61162 0.00886
# Poissons Ratio (z) = 0.09930 0.00189
#
# Static dielectric constant tensor:
#      x y z
#    x 1.717440 0.000000 -0.004620 
#    y 0.000000 1.784200 0.000000 
#    z -0.004620 0.000000 1.744680 
# 
# From -- ./inp_files/244901.got.cif
#   From: 2010.05.17/outbox.cif.g08.bks.cpg/sg12_123_cif.got.tgz:244901.got - 2010.06.03 13:09:07.
