data_PCOD9198269
_publ_section_title
;
Structure prediction by ZEFSAII (Michael W. Deem and Ramdas Pophale) SiO2 
 PCOD9198269
Probable space group: C 2/M
;
_chemical_formula_sum "Si O2"
_cell_formula_units_Z 64
_cell_length_a 25.215643
_cell_length_b 7.625599
_cell_length_c 20.452397
_cell_angle_alpha 90.000000
_cell_angle_beta 130.692168
_cell_angle_gamma 90.000000
_cell_volume 2981.847625
_symmetry_space_group_name_H-M "C 2/M"
_symmetry_group_IT_number 12
_symmetry_cell_setting 'monoclinic'
loop_
_space_group_symop_operation_xyz
x,y,z
-x,y,-z
-x,-y,-z
x,-y,z
1/2+x,1/2+y,z
1/2-x,1/2+y,-z
1/2-x,1/2-y,-z
1/2+x,1/2-y,z
loop_
_atom_site_type_symbol
_atom_site_label
_atom_site_fract_x
_atom_site_fract_y
_atom_site_fract_z
Si Si1 0.325401 0.712515 0.739092
Si Si2 0.824618 0.701983 0.341321
Si Si3 0.658836 0.209038 0.868406
Si Si4 0.684663 0.788067 0.035919
Si Si5 0.579262 0.791000 0.064285
Si Si6 0.068269 0.286667 0.679423
Si Si7 0.408636 0.705850 0.535453
Si Si8 0.674319 0.710241 0.408677
O O1 0.321223 0.500000 0.732891
O O2 0.251746 0.780233 0.708799
O O3 0.386404 0.760688 0.837626
O O4 0.333226 0.777614 0.671094
O O5 0.813101 0.500000 0.312435
O O6 0.874978 0.779656 0.327174
O O7 0.866601 0.705593 0.443090
O O8 0.733328 0.241430 0.892730
O O9 0.595640 0.272782 0.772337
O O10 0.651222 0.000000 0.867537
O O11 0.662688 0.277427 0.945718
O O12 0.633045 0.723420 0.051602
O O13 0.681700 0.000000 0.033421
O O14 0.574611 0.000000 0.049353
O O15 0.500000 0.720632 0.000000
O O16 0.067453 0.500000 0.677463
O O17 0.991319 0.228150 0.598226
O O18 0.391402 0.500000 0.517044
O O19 0.381881 0.774603 0.583854
O O20 0.667405 0.500000 0.399188
O O21 0.750000 0.750000 0.500000
#
# Coordination Sequence:
#
# PCOD9198269 Si02
#       8
#     8   8   8   8   8   8   8   8
#     4  10  21  38  61  85 108 141 187 235 276 323
#     4  10  20  36  57  79 107 144 185 225 268 324
#     4   9  18  34  56  80 105 140 184 224 267 324
#     4   9  18  34  56  80 108 140 178 225 274 322
#     4  10  22  38  55  81 116 148 181 225 277 334
#     4  10  21  35  53  79 110 145 184 221 266 326
#     4  11  23  36  53  80 111 143 179 224 276 326
#     4  10  21  38  59  82 109 141 184 231 275 327
#
# _framework density 21.463201000000002
#
# number of rings (size 3 to 8) (size 9 to 14) (size 15 to 20)
#    0.000    2.125    1.250    1.500    0.000    6.750 
#    0.000    1.250    0.000    0.000    0.000    0.000 
#    0.000    0.000    0.000    0.000    0.000    0.000 
#
# Total GULP energy -178728.461165 kJ/mol
# GULP energy per Si atom -5585.264411 kJ/mol
# Density = 2.141435 g / cm^3
# Si number density = 21.463201 Si / 1000 Ang^3
#
#
#
# Elastic Constant Matrix: (Units=GPa)
#
#
# Indices 1 2 3 4 5 6 
#
# 1 64.4232 -8.7802 45.9290 0.0000 -20.4678 0.0000
# 2 -8.7802 41.7607 -17.2710 0.0001 -2.9561 -0.0001
# 3 45.9290 -17.2710 126.9340 0.0000 9.9535 0.0000
# 4 0.0000 0.0001 0.0000 13.9328 0.0000 -0.1196
# 5 -20.4678 -2.9561 9.9535 0.0000 22.8182 0.0000
# 6 0.0000 -0.0001 0.0000 -0.1196 0.0000 13.4683
#
#
#
# Elastic Compliance Matrix: (Units=1/GPa)
#
#
# Indices 1 2 3 4 5 6 
#
# 1 0.047506 0.005175 -0.020583 0.000000 0.052261 0.000000
# 2 0.005175 0.026013 0.001075 0.000000 0.007543 0.000000
# 3 -0.020583 0.001075 0.017508 0.000000 -0.025961 0.000000
# 4 0.000000 0.000000 0.000000 0.071778 0.000000 0.000637
# 5 0.052261 0.007543 -0.025961 0.000000 0.103004 0.000000
# 6 0.000000 0.000000 0.000000 0.000637 0.000000 0.074254
#
#
# Mechanical properties :
#
#
# Convention : Reuss Voigt Hill
#
# Bulk Modulus (GPa) = 16.03575 30.31927 23.17751
# Shear Modulus (GPa) = 12.83648 24.25987 18.54817
#
# Velocity S-wave (km/s) = 2.44820 3.36564 2.94289
# Velocity P-wave (km/s) = 3.93434 5.40927 4.72966
#
# Compressibility (1/GPa) = 0.06236068
#
# Stress axis : x y z
#
# Youngs Moduli (GPa) = 21.05010 38.44277 57.11744
#
# Poissons Ratio (x) = -0.19894 1.17565
# Poissons Ratio (y) = -0.10893 -0.06143
# Poissons Ratio (z) = 0.43328 -0.04134
#
# Static dielectric constant tensor:
#      x y z
#    x 1.773680 0.000000 -0.025340 
#    y 0.000000 1.823690 0.000000 
#    z -0.025340 0.000000 1.742380 
# 
# From -- ./inp_files/324230.got.cif
#   From: 2010.05.17/outbox.cif.g08.bks.cpg/sg12_163_cif.got.tgz:324230.got - 2010.06.03 13:09:07.
