data_PCOD9198670
_publ_section_title
;
Structure prediction by ZEFSAII (Michael W. Deem and Ramdas Pophale) SiO2 
 PCOD9198670
Probable space group: C 2/M
;
_chemical_formula_sum "Si O2"
_cell_formula_units_Z 40
_cell_length_a 23.473876
_cell_length_b 8.692555
_cell_length_c 29.149607
_cell_angle_alpha 90.000000
_cell_angle_beta 22.225765
_cell_angle_gamma 90.000000
_cell_volume 2249.842122
_symmetry_space_group_name_H-M "C 2/M"
_symmetry_group_IT_number 12
_symmetry_cell_setting 'monoclinic'
loop_
_space_group_symop_operation_xyz
x,y,z
-x,y,-z
-x,-y,-z
x,-y,z
1/2+x,1/2+y,z
1/2-x,1/2+y,-z
1/2-x,1/2-y,-z
1/2+x,1/2-y,z
loop_
_atom_site_type_symbol
_atom_site_label
_atom_site_fract_x
_atom_site_fract_y
_atom_site_fract_z
Si Si1 0.172397 0.683887 0.384443
Si Si2 0.196687 0.183798 0.892180
Si Si3 0.374671 0.183675 0.153063
Si Si4 0.760582 0.815962 0.565575
Si Si5 0.490074 0.684013 0.312209
O O1 0.191166 0.500000 0.367876
O O2 0.281995 0.763257 0.266192
O O3 0.207012 0.741763 0.409660
O O4 0.000000 0.721095 0.500000
O O5 0.197908 0.244373 0.838829
O O6 0.346826 0.240687 0.805157
O O7 0.186883 0.000000 0.899452
O O8 0.045575 0.254488 0.026689
O O9 0.375020 0.000000 0.148549
O O10 0.609598 0.750016 0.654919
O O11 0.895197 0.780750 0.429304
O O12 0.749890 0.000000 0.577703
O O13 0.502623 0.500000 0.299000
#
# Coordination Sequence:
#
# PCOD9198670 Si02
#       5
#     8   8   8   8   8
#     4  11  23  38  57  82 113 147 182 224 276 328
#     4  11  21  36  58  83 112 145 184 227 274 325
#     4  11  22  37  57  82 112 145 185 228 273 325
#     4  10  21  36  56  83 113 146 185 227 272 324
#     4  10  20  36  58  83 112 146 185 227 272 323
#
# _framework density 17.779026000000002
#
# number of rings (size 3 to 8) (size 9 to 14) (size 15 to 20)
#    0.000    1.400    0.000    7.800    0.000    7.200 
#    0.000    1.000    0.000    0.000    0.000    0.000 
#    0.000    0.000    0.000    0.000    0.000    0.000 
#
# Total GULP energy -111825.547725 kJ/mol
# GULP energy per Si atom -5591.277386 kJ/mol
# Density = 1.773856 g / cm^3
# Si number density = 17.779026 Si / 1000 Ang^3
#
#
#
# Elastic Constant Matrix: (Units=GPa)
#
#
# Indices 1 2 3 4 5 6 
#
# 1 123.1850 54.7278 80.4299 0.0008 -8.7354 -0.0001
# 2 54.7278 108.1402 52.8388 0.0029 -5.7177 -0.0010
# 3 80.4299 52.8388 86.3001 -0.0002 -13.9476 -0.0006
# 4 0.0008 0.0029 -0.0002 30.0082 -0.0008 -1.7041
# 5 -8.7354 -5.7177 -13.9476 -0.0008 29.4529 0.0002
# 6 -0.0001 -0.0010 -0.0006 -1.7041 0.0002 35.9294
#
#
#
# Elastic Compliance Matrix: (Units=1/GPa)
#
#
# Indices 1 2 3 4 5 6 
#
# 1 0.021177 -0.001414 -0.019384 -0.000001 -0.003173 0.000000
# 2 -0.001414 0.013340 -0.007038 -0.000001 -0.001162 0.000000
# 3 -0.019384 -0.007038 0.035531 0.000002 0.009711 0.000000
# 4 -0.000001 -0.000001 0.000002 0.033414 0.000001 0.001585
# 5 -0.003173 -0.001162 0.009711 0.000001 0.037384 0.000000
# 6 0.000000 0.000000 0.000000 0.001585 0.000000 0.027907
#
#
# Mechanical properties :
#
#
# Convention : Reuss Voigt Hill
#
# Bulk Modulus (GPa) = 69.55353 77.06869 73.31111
# Shear Modulus (GPa) = 21.81335 27.72003 24.76669
#
# Velocity S-wave (km/s) = 3.50653 3.95288 3.73638
# Velocity P-wave (km/s) = 7.45657 8.01722 7.74197
#
# Compressibility (1/GPa) = 0.01437742
#
# Stress axis : x y z
#
# Youngs Moduli (GPa) = 47.22110 74.96159 28.14442
#
# Poissons Ratio (x) = 0.10599 0.54554
# Poissons Ratio (y) = 0.06677 0.19808
# Poissons Ratio (z) = 0.91531 0.52757
#
# Static dielectric constant tensor:
#      x y z
#    x 1.575060 0.000000 -0.003560 
#    y 0.000000 1.590720 0.000000 
#    z -0.003560 0.000000 1.588070 
# 
# From -- ./inp_files/162354.got.cif
#   From: 2010.05.17/outbox.cif.g08.bks.cpg/sg12_82_cif.got.tgz:162354.got - 2010.06.03 13:09:07.
