data_PCOD9198237
_publ_section_title
;
Structure prediction by ZEFSAII (Michael W. Deem and Ramdas Pophale) SiO2 
 PCOD9198237
Probable space group: C 2/M
;
_chemical_formula_sum "Si O2"
_cell_formula_units_Z 56
_cell_length_a 20.885536
_cell_length_b 7.792438
_cell_length_c 14.395809
_cell_angle_alpha 90.000000
_cell_angle_beta 75.932014
_cell_angle_gamma 90.000000
_cell_volume 2272.638531
_symmetry_space_group_name_H-M "C 2/M"
_symmetry_group_IT_number 12
_symmetry_cell_setting 'monoclinic'
loop_
_space_group_symop_operation_xyz
x,y,z
-x,y,-z
-x,-y,-z
x,-y,z
1/2+x,1/2+y,z
1/2-x,1/2+y,-z
1/2-x,1/2-y,-z
1/2+x,1/2-y,z
loop_
_atom_site_type_symbol
_atom_site_label
_atom_site_fract_x
_atom_site_fract_y
_atom_site_fract_z
Si Si1 0.575419 0.209129 0.991225
Si Si2 0.119002 0.291501 0.777173
Si Si3 0.494659 0.696294 0.695745
Si Si4 0.856987 0.693309 0.707099
Si Si5 0.083706 0.695957 0.501652
Si Si6 0.795402 0.313137 0.402728
Si Si7 0.187847 0.707597 0.087800
O O1 0.615365 0.258006 0.884697
O O2 0.572365 0.000000 0.997872
O O3 0.500000 0.267465 0.000000
O O4 0.620216 0.268564 0.061085
O O5 0.121311 0.500000 0.771266
O O6 0.051210 0.237931 0.750157
O O7 0.182402 0.220509 0.698929
O O8 0.474771 0.500000 0.713401
O O9 0.430140 0.811150 0.726925
O O10 0.523681 0.721167 0.580725
O O11 0.832942 0.500000 0.694646
O O12 0.876134 0.775222 0.600064
O O13 0.812111 0.771103 0.804815
O O14 0.067882 0.500000 0.479142
O O15 0.135717 0.679318 0.566908
O O16 0.769882 0.500000 0.385470
O O17 0.750000 0.250000 0.500000
O O18 0.184829 0.500000 0.095025
O O19 0.250000 0.750000 0.000000
#
# Coordination Sequence:
#
# PCOD9198237 Si02
#       7
#     8   8   8   8   8   8   8
#     4   9  17  33  60  87 107 138 190 239 274 322
#     4   9  18  34  54  75 103 141 181 221 269 329
#     4  11  21  32  51  83 115 137 168 224 286 333
#     4  10  20  36  57  76 102 147 190 219 260 327
#     4   9  19  35  53  74 103 142 183 216 258 329
#     4   9  18  31  47  69  97 130 170 213 257 311
#     4  10  22  39  59  85 116 151 192 238 286 334
#
# _framework density 24.640961999999998
#
# number of rings (size 3 to 8) (size 9 to 14) (size 15 to 20)
#    0.000    2.429    0.000    3.429    0.000    8.571 
#    0.000    0.714    0.000    1.714    0.000    0.000 
#    0.000    0.000    0.000    0.000    0.000    0.000 
#
# Total GULP energy -156119.959315 kJ/mol
# GULP energy per Si atom -5575.712833 kJ/mol
# Density = 2.458488 g / cm^3
# Si number density = 24.640962 Si / 1000 Ang^3
#
#
#
# Elastic Constant Matrix: (Units=GPa)
#
#
# Indices 1 2 3 4 5 6 
#
# 1 54.4428 -4.3511 18.2664 0.0000 -6.4826 0.0000
# 2 -4.3511 51.7532 2.3855 0.0000 -5.8581 0.0000
# 3 18.2664 2.3855 179.9153 0.0000 -10.4775 0.0000
# 4 0.0000 0.0000 0.0000 14.7630 0.0000 -3.3534
# 5 -6.4826 -5.8581 -10.4775 0.0000 43.1518 0.0000
# 6 0.0000 0.0000 0.0000 -3.3534 0.0000 3.9889
#
#
#
# Elastic Compliance Matrix: (Units=1/GPa)
#
#
# Indices 1 2 3 4 5 6 
#
# 1 0.019477 0.002034 -0.001844 0.000000 0.002754 0.000000
# 2 0.002034 0.019839 -0.000299 0.000000 0.002926 0.000000
# 3 -0.001844 -0.000299 0.005813 0.000000 0.001094 0.000000
# 4 0.000000 0.000000 0.000000 0.083725 0.000000 0.070387
# 5 0.002754 0.002926 0.001094 0.000000 0.024251 0.000000
# 6 0.000000 0.000000 0.000000 0.070387 0.000000 0.309865
#
#
# Mechanical properties :
#
#
# Convention : Reuss Voigt Hill
#
# Bulk Modulus (GPa) = 22.26629 35.41254 28.83942
# Shear Modulus (GPa) = 10.45679 30.36812 20.41246
#
# Velocity S-wave (km/s) = 2.06225 3.51440 2.88131
# Velocity P-wave (km/s) = 3.83750 5.55613 4.77478
#
# Compressibility (1/GPa) = 0.04491093
#
# Stress axis : x y z
#
# Youngs Moduli (GPa) = 51.34220 50.40703 172.02657
#
# Poissons Ratio (x) = -0.10254 0.31722
# Poissons Ratio (y) = -0.10445 0.05147
# Poissons Ratio (z) = 0.09468 0.01508
#
# Static dielectric constant tensor:
#      x y z
#    x 2.030680 0.000000 -0.048230 
#    y 0.000000 1.964770 0.000000 
#    z -0.048230 0.000000 2.043120 
# 
# From -- ./inp_files/237407.got.cif
#   From: 2010.05.17/outbox.cif.g08.bks.cpg/sg12_119_cif.got.tgz:237407.got - 2010.06.03 13:09:07.
