data_PCOD9198559
_publ_section_title
;
Structure prediction by ZEFSAII (Michael W. Deem and Ramdas Pophale) SiO2 
 PCOD9198559
Probable space group: C 2/M
;
_chemical_formula_sum "Si O2"
_cell_formula_units_Z 60
_cell_length_a 9.030270
_cell_length_b 13.609898
_cell_length_c 25.731828
_cell_angle_alpha 90.000000
_cell_angle_beta 112.436926
_cell_angle_gamma 90.000000
_cell_volume 2923.070675
_symmetry_space_group_name_H-M "C 2/M"
_symmetry_group_IT_number 12
_symmetry_cell_setting 'monoclinic'
loop_
_space_group_symop_operation_xyz
x,y,z
-x,y,-z
-x,-y,-z
x,-y,z
1/2+x,1/2+y,z
1/2-x,1/2+y,-z
1/2-x,1/2-y,-z
1/2+x,1/2-y,z
loop_
_atom_site_type_symbol
_atom_site_label
_atom_site_fract_x
_atom_site_fract_y
_atom_site_fract_z
Si Si1 0.444486 0.807327 0.754875
Si Si2 0.663890 0.692603 0.422122
Si Si3 0.385253 0.692892 0.088684
Si Si4 0.353226 0.889775 0.020989
Si Si5 0.279295 0.250880 0.833046
Si Si6 0.332233 0.390283 0.687982
Si Si7 0.500000 0.257356 0.500000
Si Si8 0.447288 0.109883 0.645925
O O1 0.340789 0.813878 0.792971
O O2 0.630406 0.816267 0.794375
O O3 0.418217 0.695457 0.731181
O O4 0.400647 0.873817 0.699991
O O5 0.630939 0.625600 0.368076
O O6 0.553753 0.679205 0.457585
O O7 0.848498 0.691005 0.463906
O O8 0.631404 0.804110 0.397990
O O9 0.363109 0.804675 0.064804
O O10 0.571407 0.684652 0.127087
O O11 0.284408 0.685596 0.127964
O O12 0.308804 0.626057 0.034015
O O13 0.362763 0.000000 0.043053
O O14 0.500000 0.875120 0.000000
O O15 0.374628 0.500000 0.710397
O O16 0.140132 0.377147 0.668364
O O17 0.407576 0.000000 0.623370
#
# Coordination Sequence:
#
# PCOD9198559 Si02
#       8
#     8   8   8   8   8   8   4   8
#     4  10  20  38  58  82 112 150 180 236 272 338
#     4  10  20  38  58  84 112 152 182 238 272 338
#     4  10  20  38  58  82 114 152 180 234 272 338
#     4  10  20  37  60  85 112 149 191 230 274 332
#     4  10  20  36  58  82 116 148 182 224 294 318
#     4  10  20  37  60  84 110 149 191 227 274 338
#     4  10  20  36  58  80 118 150 184 224 296 320
#     4  10  20  37  60  84 110 149 191 227 274 338
#
# _framework density 20.526357999999998
#
# number of rings (size 3 to 8) (size 9 to 14) (size 15 to 20)
#    0.000    2.000    4.000    0.000    0.000    0.000 
#    0.000   16.000    0.000    0.000    0.000    0.000 
#    0.000    0.000    0.000    0.000    0.000    0.000 
#
# Total GULP energy -167495.889707 kJ/mol
# GULP energy per Si atom -5583.196324 kJ/mol
# Density = 2.047964 g / cm^3
# Si number density = 20.526358 Si / 1000 Ang^3
#
#
#
# Elastic Constant Matrix: (Units=GPa)
#
#
# Indices 1 2 3 4 5 6 
#
# 1 85.4051 8.8980 24.0058 0.0000 -7.2965 0.0000
# 2 8.8980 76.8233 17.0687 0.0000 3.6068 0.0000
# 3 24.0058 17.0687 78.4496 0.0000 -9.1743 0.0000
# 4 0.0000 0.0000 0.0000 3.2443 0.0000 0.1728
# 5 -7.2965 3.6068 -9.1743 0.0000 38.9476 0.0000
# 6 0.0000 0.0000 0.0000 0.1728 0.0000 5.6355
#
#
#
# Elastic Compliance Matrix: (Units=1/GPa)
#
#
# Indices 1 2 3 4 5 6 
#
# 1 0.012942 -0.000777 -0.003598 0.000000 0.001649 0.000000
# 2 -0.000777 0.013882 -0.003033 0.000000 -0.002146 0.000000
# 3 -0.003598 -0.003033 0.014872 0.000000 0.003110 0.000000
# 4 0.000000 0.000000 0.000000 0.308733 0.000000 -0.009469
# 5 0.001649 -0.002146 0.003110 0.000000 0.026916 0.000000
# 6 0.000000 0.000000 0.000000 -0.009469 0.000000 0.177736
#
#
# Mechanical properties :
#
#
# Convention : Reuss Voigt Hill
#
# Bulk Modulus (GPa) = 37.20527 37.84701 37.52614
# Shear Modulus (GPa) = 8.63771 22.27919 15.45845
#
# Velocity S-wave (km/s) = 2.05359 3.29811 2.74725
# Velocity P-wave (km/s) = 4.87729 5.74296 5.32774
#
# Compressibility (1/GPa) = 0.02687791
#
# Stress axis : x y z
#
# Youngs Moduli (GPa) = 77.26667 72.03792 67.24096
#
# Poissons Ratio (x) = 0.05597 0.24197
# Poissons Ratio (y) = 0.06003 0.20397
# Poissons Ratio (z) = 0.27804 0.21853
#
# Static dielectric constant tensor:
#      x y z
#    x 1.754980 0.000000 -0.008240 
#    y 0.000000 1.667590 0.000000 
#    z -0.008240 0.000000 1.743170 
# 
# From -- ./inp_files/332978.got.cif
#   From: 2010.05.17/outbox.cif.g08.bks.cpg/sg12_167_cif.got.tgz:332978.got - 2010.06.03 13:09:07.
