data_PCOD9198097
_publ_section_title
;
Structure prediction by ZEFSAII (Michael W. Deem and Ramdas Pophale) SiO2 
 PCOD9198097
Probable space group: C 2/M
;
_chemical_formula_sum "Si O2"
_cell_formula_units_Z 56
_cell_length_a 19.253940
_cell_length_b 31.252944
_cell_length_c 5.215861
_cell_angle_alpha 90.000000
_cell_angle_beta 65.620774
_cell_angle_gamma 90.000000
_cell_volume 2858.745515
_symmetry_space_group_name_H-M "C 2/M"
_symmetry_group_IT_number 12
_symmetry_cell_setting 'monoclinic'
loop_
_space_group_symop_operation_xyz
x,y,z
-x,y,-z
-x,-y,-z
x,-y,z
1/2+x,1/2+y,z
1/2-x,1/2+y,-z
1/2-x,1/2-y,-z
1/2+x,1/2-y,z
loop_
_atom_site_type_symbol
_atom_site_label
_atom_site_fract_x
_atom_site_fract_y
_atom_site_fract_z
Si Si1 0.080458 0.448660 0.288389
Si Si2 0.695797 0.331410 0.874621
Si Si3 0.260911 0.870257 0.251263
Si Si4 0.576711 0.726897 0.235879
Si Si5 0.311867 0.768348 0.599645
Si Si6 0.914725 0.681525 0.070185
Si Si7 0.332471 0.050369 0.352044
O O1 0.077835 0.500000 0.335903
O O2 0.142763 0.433987 0.402916
O O3 0.000000 0.429977 0.500000
O O4 0.099346 0.444215 0.960875
O O5 0.723367 0.346497 0.553444
O O6 0.759138 0.295956 0.863835
O O7 0.709366 0.365685 0.077343
O O8 0.613270 0.308651 0.995101
O O9 0.348246 0.851169 0.077024
O O10 0.269512 0.919010 0.329158
O O11 0.500000 0.716440 0.500000
O O12 0.640649 0.730690 0.354445
O O13 0.573953 0.774636 0.114826
O O14 0.250000 0.750000 0.500000
O O15 0.374977 0.799576 0.384276
O O16 0.000000 0.664363 0.000000
O O17 0.313355 0.000000 0.387328
#
# Coordination Sequence:
#
# PCOD9198097 Si02
#       7
#     8   8   8   8   8   8   8
#     4   9  17  30  51  76 103 136 179 226 277 332
#     4  11  23  38  58  80 111 148 190 226 284 341
#     4  11  24  39  56  79 113 150 186 236 290 334
#     4  12  22  36  57  80 108 148 192 235 272 327
#     4  11  20  35  55  76 107 150 192 230 271 332
#     4  11  22  34  50  77 111 146 194 237 272 315
#     4  10  20  36  56  79 105 142 189 236 282 340
#
# _framework density 19.589013000000001
#
# number of rings (size 3 to 8) (size 9 to 14) (size 15 to 20)
#    0.000    1.286    4.286    3.429    0.000    2.857 
#    0.000    0.714    0.000    0.000    0.000    0.000 
#    0.000    3.429    0.000    0.000    0.000    0.000 
#
# Total GULP energy -156096.703455 kJ/mol
# GULP energy per Si atom -5574.882266 kJ/mol
# Density = 1.954443 g / cm^3
# Si number density = 19.589013 Si / 1000 Ang^3
#
#
#
# Elastic Constant Matrix: (Units=GPa)
#
#
# Indices 1 2 3 4 5 6 
#
# 1 50.1200 9.7798 29.3880 0.0000 -2.3046 0.0000
# 2 9.7798 55.6499 5.4020 0.0000 -8.6259 0.0000
# 3 29.3880 5.4020 76.0507 0.0000 -22.8880 0.0000
# 4 0.0000 0.0000 0.0000 14.9232 0.0000 6.5015
# 5 -2.3046 -8.6259 -22.8880 0.0000 34.1255 0.0000
# 6 0.0000 0.0000 0.0000 6.5015 0.0000 21.0455
#
#
#
# Elastic Compliance Matrix: (Units=1/GPa)
#
#
# Indices 1 2 3 4 5 6 
#
# 1 0.028129 -0.004931 -0.012934 0.000000 -0.008021 0.000000
# 2 -0.004931 0.019568 0.002385 0.000000 0.006213 0.000000
# 3 -0.012934 0.002385 0.022422 0.000000 0.014768 0.000000
# 4 0.000000 0.000000 0.000000 0.077431 0.000000 -0.023921
# 5 -0.008021 0.006213 0.014768 0.000000 0.040237 0.000000
# 6 0.000000 0.000000 0.000000 -0.023921 0.000000 0.054906
#
#
# Mechanical properties :
#
#
# Convention : Reuss Voigt Hill
#
# Bulk Modulus (GPa) = 25.53625 30.10670 27.82148
# Shear Modulus (GPa) = 17.43954 23.16891 20.30422
#
# Velocity S-wave (km/s) = 2.98698 3.44284 3.22298
# Velocity P-wave (km/s) = 4.99603 5.58630 5.29939
#
# Compressibility (1/GPa) = 0.03916002
#
# Stress axis : x y z
#
# Youngs Moduli (GPa) = 35.55035 51.10507 44.59882
#
# Poissons Ratio (x) = 0.25201 0.57682
# Poissons Ratio (y) = 0.17531 -0.10639
# Poissons Ratio (z) = 0.45980 -0.12191
#
# Static dielectric constant tensor:
#      x y z
#    x 1.719610 0.000000 0.057220 
#    y 0.000000 1.777810 0.000000 
#    z 0.057220 0.000000 1.680380 
# 
# From -- ./inp_files/18247.got.cif
#   From: 2010.05.17/outbox.cif.g08.bks.cpg/sg12_10_cif.got.tgz:18247.got - 2010.06.03 13:09:07.
