data_PCOD9198100
_publ_section_title
;
Structure prediction by ZEFSAII (Michael W. Deem and Ramdas Pophale) SiO2 
 PCOD9198100
Probable space group: C 2/M
;
_chemical_formula_sum "Si O2"
_cell_formula_units_Z 48
_cell_length_a 29.959847
_cell_length_b 7.574307
_cell_length_c 8.123516
_cell_angle_alpha 90.000000
_cell_angle_beta 102.880828
_cell_angle_gamma 90.000000
_cell_volume 1797.041158
_symmetry_space_group_name_H-M "C 2/M"
_symmetry_group_IT_number 12
_symmetry_cell_setting 'monoclinic'
loop_
_space_group_symop_operation_xyz
x,y,z
-x,y,-z
-x,-y,-z
x,-y,z
1/2+x,1/2+y,z
1/2-x,1/2+y,-z
1/2-x,1/2-y,-z
1/2+x,1/2-y,z
loop_
_atom_site_type_symbol
_atom_site_label
_atom_site_fract_x
_atom_site_fract_y
_atom_site_fract_z
Si Si1 0.363325 0.204567 0.936847
Si Si2 0.470577 0.708924 0.318436
Si Si3 0.720947 0.709728 0.313393
Si Si4 0.305630 0.217130 0.194099
Si Si5 0.889330 0.294911 0.453569
Si Si6 0.445882 0.213233 0.812313
O O1 0.329367 0.211145 0.750843
O O2 0.412859 0.281160 0.930625
O O3 0.370368 0.000000 0.984211
O O4 0.331755 0.283431 0.053858
O O5 0.500000 0.779159 0.500000
O O6 0.466737 0.500000 0.329870
O O7 0.420448 0.783207 0.313528
O O8 0.501172 0.747107 0.183282
O O9 0.715759 0.500000 0.297818
O O10 0.750000 0.750000 0.500000
O O11 0.754657 0.776346 0.194437
O O12 0.339680 0.276021 0.369070
O O13 0.304699 0.000000 0.191220
O O14 0.883845 0.500000 0.487691
O O15 0.918922 0.217881 0.626660
O O16 0.444053 0.000000 0.818197
#
# Coordination Sequence:
#
# PCOD9198100 Si02
#       6
#     8   8   8   8   8   8
#     4  10  20  36  56  79 107 138 173 214 262 312
#     4   9  17  29  47  73 102 130 167 217 264 302
#     4  11  22  37  57  81 107 137 175 216 259 307
#     4   9  19  35  55  78 106 139 174 214 259 312
#     4   9  16  30  51  73  98 132 174 214 254 304
#     4   9  17  30  51  75 100 134 174 213 255 307
#
# _framework density 26.710571000000002
#
# number of rings (size 3 to 8) (size 9 to 14) (size 15 to 20)
#    0.000    2.500    0.000    2.500    0.000    5.333 
#    0.000    7.500    0.000    5.000    0.000    0.000 
#    0.000    0.000    0.000    0.000    0.000    0.000 
#
# Total GULP energy -134185.495029 kJ/mol
# GULP energy per Si atom -5591.062293 kJ/mol
# Density = 2.664978 g / cm^3
# Si number density = 26.710571 Si / 1000 Ang^3
#
#
#
# Elastic Constant Matrix: (Units=GPa)
#
#
# Indices 1 2 3 4 5 6 
#
# 1 199.8979 -0.2663 26.7996 0.0000 -13.5336 0.0000
# 2 -0.2663 90.3911 -6.3417 0.0000 -2.3824 0.0000
# 3 26.7996 -6.3417 84.3422 0.0000 -21.1608 0.0000
# 4 0.0000 0.0000 0.0000 1.0974 0.0000 5.7453
# 5 -13.5336 -2.3824 -21.1608 0.0000 49.2221 0.0000
# 6 0.0000 0.0000 0.0000 5.7453 0.0000 15.1472
#
#
#
# Elastic Compliance Matrix: (Units=1/GPa)
#
#
# Indices 1 2 3 4 5 6 
#
# 1 0.005255 -0.000066 -0.001472 0.000000 0.000809 0.000000
# 2 -0.000066 0.011167 0.001112 0.000000 0.001000 0.000000
# 3 -0.001472 0.001112 0.013809 0.000000 0.005586 0.000000
# 4 0.000000 0.000000 0.000000 -0.924444 0.000000 0.350638
# 5 0.000809 0.001000 0.005586 0.000000 0.022988 0.000000
# 6 0.000000 0.000000 0.000000 0.350638 0.000000 -0.066977
#
#
# Mechanical properties :
#
#
# Convention : Reuss Voigt Hill
#
# Bulk Modulus (GPa) = 34.03910 46.11271 40.07591
# Shear Modulus (GPa) = -5.39051 36.72267 15.66608
#
# Velocity S-wave (km/s) = -1.42215 3.71190 2.42443
# Velocity P-wave (km/s) = 3.17406 5.97263 4.78262
#
# Compressibility (1/GPa) = 0.02937798
#
# Stress axis : x y z
#
# Youngs Moduli (GPa) = 190.31202 89.54802 72.41599
#
# Poissons Ratio (x) = 0.00595 0.10657
# Poissons Ratio (y) = 0.01265 -0.08051
# Poissons Ratio (z) = 0.28008 -0.09955
#
# Static dielectric constant tensor:
#      x y z
#    x 2.067260 0.000000 -0.019860 
#    y 0.000000 1.961850 0.000000 
#    z -0.019860 0.000000 2.247680 
# 
# From -- ./inp_files/108571.got.cif
#   From: 2010.05.17/outbox.cif.g08.bks.cpg/sg12_55_cif.got.tgz:108571.got - 2010.06.03 13:09:07.
