data_PCOD9198959
_publ_section_title
;
Structure prediction by ZEFSAII (Michael W. Deem and Ramdas Pophale) SiO2 
 PCOD9198959
Probable space group: C 2/M
;
_chemical_formula_sum "Si O2"
_cell_formula_units_Z 40
_cell_length_a 6.946199
_cell_length_b 13.351307
_cell_length_c 28.005695
_cell_angle_alpha 90.000000
_cell_angle_beta 143.803321
_cell_angle_gamma 90.000000
_cell_volume 1533.841811
_symmetry_space_group_name_H-M "C 2/M"
_symmetry_group_IT_number 12
_symmetry_cell_setting 'monoclinic'
loop_
_space_group_symop_operation_xyz
x,y,z
-x,y,-z
-x,-y,-z
x,-y,z
1/2+x,1/2+y,z
1/2-x,1/2+y,-z
1/2-x,1/2-y,-z
1/2+x,1/2-y,z
loop_
_atom_site_type_symbol
_atom_site_label
_atom_site_fract_x
_atom_site_fract_y
_atom_site_fract_z
Si Si1 0.117461 0.330330 0.924800
Si Si2 0.073557 0.885864 0.880450
Si Si3 0.730611 0.822782 0.607232
Si Si4 0.004675 0.113419 0.758658
Si Si5 0.010056 0.889750 0.436326
O O1 0.023642 0.212031 0.902763
O O2 0.899075 0.377398 0.839208
O O3 0.500000 0.346241 0.000000
O O4 0.951401 0.378650 0.938172
O O5 0.907611 0.865590 0.794602
O O6 0.000191 0.000000 0.880728
O O7 0.379448 0.874904 0.529227
O O8 0.962149 0.876270 0.615289
O O9 0.684723 0.706324 0.584650
O O10 0.864041 0.825841 0.687098
O O11 0.912257 0.000000 0.730579
O O12 0.887715 0.000000 0.423821
#
# Coordination Sequence:
#
# PCOD9198959 Si02
#       5
#     8   8   8   8   8
#     4  10  20  37  58  80 112 145 183 229 272 325
#     4   9  21  37  55  81 109 143 184 227 274 325
#     4  10  20  36  59  82 113 149 183 226 276 325
#     4   9  20  35  58  82 110 147 183 225 277 325
#     4  10  21  38  58  83 114 146 185 228 271 327
#
# _framework density 26.078308
#
# number of rings (size 3 to 8) (size 9 to 14) (size 15 to 20)
#    1.200    1.200    0.000    3.000    2.800    2.000 
#    0.000   13.000    0.000    0.000    0.000    0.000 
#    0.000    0.000    0.000    0.000    0.000    0.000 
#
# Total GULP energy -111812.438257 kJ/mol
# GULP energy per Si atom -5590.621913 kJ/mol
# Density = 2.601895 g / cm^3
# Si number density = 26.078308 Si / 1000 Ang^3
#
#
#
# Elastic Constant Matrix: (Units=GPa)
#
#
# Indices 1 2 3 4 5 6 
#
# 1 58.0989 16.8507 33.4688 0.0000 -0.1686 0.0000
# 2 16.8507 175.2498 20.6916 0.0000 4.4178 0.0000
# 3 33.4688 20.6916 122.9182 0.0001 -8.4713 0.0001
# 4 0.0000 0.0000 0.0001 9.1177 0.0000 -11.8679
# 5 -0.1686 4.4178 -8.4713 0.0000 22.8169 0.0000
# 6 0.0000 0.0000 0.0001 -11.8679 0.0000 25.7735
#
#
#
# Elastic Compliance Matrix: (Units=1/GPa)
#
#
# Indices 1 2 3 4 5 6 
#
# 1 0.020784 -0.001301 -0.005554 0.000001 -0.001657 0.000000
# 2 -0.001301 0.005956 -0.000748 0.000000 -0.001440 0.000000
# 3 -0.005554 -0.000748 0.010038 -0.000001 0.003830 0.000000
# 4 0.000001 0.000000 -0.000001 0.273756 -0.000001 0.126056
# 5 -0.001657 -0.001440 0.003830 -0.000001 0.045516 0.000000
# 6 0.000000 0.000000 0.000000 0.126056 0.000000 0.096845
#
#
# Mechanical properties :
#
#
# Convention : Reuss Voigt Hill
#
# Bulk Modulus (GPa) = 46.35669 55.36545 50.86107
# Shear Modulus (GPa) = 10.51988 30.55867 20.53927
#
# Velocity S-wave (km/s) = 2.01065 3.42688 2.80947
# Velocity P-wave (km/s) = 4.81714 6.07738 5.48358
#
# Compressibility (1/GPa) = 0.02157186
#
# Stress axis : x y z
#
# Youngs Moduli (GPa) = 48.11342 167.90339 99.62423
#
# Poissons Ratio (x) = 0.21842 0.55336
# Poissons Ratio (y) = 0.06259 0.07448
# Poissons Ratio (z) = 0.26724 0.12553
#
# Static dielectric constant tensor:
#      x y z
#    x 2.118650 0.000000 0.000490 
#    y 0.000000 1.989480 0.000000 
#    z 0.000490 0.000000 2.135120 
# 
# From -- ./inp_files/372687.got.cif
#   From: 2010.05.17/outbox.cif.g08.bks.cpg/sg12_187_cif.got.tgz:372687.got - 2010.06.03 13:09:07.
