data_PCOD9198736
_publ_section_title
;
Structure prediction by ZEFSAII (Michael W. Deem and Ramdas Pophale) SiO2 
 PCOD9198736
Probable space group: C 2/M
;
_chemical_formula_sum "Si O2"
_cell_formula_units_Z 40
_cell_length_a 15.349953
_cell_length_b 27.142466
_cell_length_c 9.111907
_cell_angle_alpha 90.000000
_cell_angle_beta 32.597449
_cell_angle_gamma 90.000000
_cell_volume 2045.217180
_symmetry_space_group_name_H-M "C 2/M"
_symmetry_group_IT_number 12
_symmetry_cell_setting 'monoclinic'
loop_
_space_group_symop_operation_xyz
x,y,z
-x,y,-z
-x,-y,-z
x,-y,z
1/2+x,1/2+y,z
1/2-x,1/2+y,-z
1/2-x,1/2-y,-z
1/2+x,1/2-y,z
loop_
_atom_site_type_symbol
_atom_site_label
_atom_site_fract_x
_atom_site_fract_y
_atom_site_fract_z
Si Si1 0.476973 0.617312 0.201843
Si Si2 0.173224 0.612769 0.834904
Si Si3 0.258186 0.780104 0.141443
Si Si4 0.418806 0.267321 0.325820
Si Si5 0.838947 0.944253 0.830995
O O1 0.306301 0.602568 0.519012
O O2 0.469682 0.676642 0.222244
O O3 0.618947 0.593527 0.098290
O O4 0.500000 0.603224 0.000000
O O5 0.235687 0.661041 0.838575
O O6 0.191938 0.571046 0.932858
O O7 0.000000 0.618175 0.000000
O O8 0.118672 0.762336 0.448449
O O9 0.250000 0.750000 0.000000
O O10 0.437341 0.765350 0.936182
O O11 0.250000 0.250000 0.500000
O O12 0.000000 0.942608 0.500000
O O13 0.820202 0.000000 0.912208
#
# Coordination Sequence:
#
# PCOD9198736 Si02
#       5
#     8   8   8   8   8
#     4  10  20  36  58  84 113 148 188 231 277 335
#     4  10  21  37  57  83 113 145 186 236 284 330
#     4  11  21  34  52  77 109 145 183 221 265 323
#     4  11  21  34  52  78 111 146 181 219 267 324
#     4   9  19  37  60  83 109 146 190 232 282 344
#
# _framework density 19.557825000000001
#
# number of rings (size 3 to 8) (size 9 to 14) (size 15 to 20)
#    0.000    1.800    0.000    6.000    0.000    4.000 
#    0.000    3.000    0.000    1.200    0.000    0.000 
#    0.000    0.000    0.000    0.000    0.000    0.000 
#
# Total GULP energy -111370.986496 kJ/mol
# GULP energy per Si atom -5568.549325 kJ/mol
# Density = 1.951331 g / cm^3
# Si number density = 19.557825 Si / 1000 Ang^3
#
#
#
# Elastic Constant Matrix: (Units=GPa)
#
#
# Indices 1 2 3 4 5 6 
#
# 1 153.8351 46.1055 43.3238 0.0000 15.9006 0.0000
# 2 46.1055 82.2651 13.2616 0.0000 5.7495 0.0000
# 3 43.3238 13.2616 71.2458 0.0000 10.1162 0.0000
# 4 0.0000 0.0000 0.0000 12.0888 0.0000 -5.1698
# 5 15.9006 5.7495 10.1162 0.0000 32.3016 0.0000
# 6 0.0000 0.0000 0.0000 -5.1698 0.0000 12.4719
#
#
#
# Elastic Compliance Matrix: (Units=1/GPa)
#
#
# Indices 1 2 3 4 5 6 
#
# 1 0.009318 -0.004326 -0.004520 0.000000 -0.002401 0.000000
# 2 -0.004326 0.014617 -0.000024 0.000000 -0.000465 0.000000
# 3 -0.004520 -0.000024 0.017239 0.000000 -0.003170 0.000000
# 4 0.000000 0.000000 0.000000 0.100544 0.000000 0.041677
# 5 -0.002401 -0.000465 -0.003170 0.000000 0.033216 0.000000
# 6 0.000000 0.000000 0.000000 0.041677 0.000000 0.097456
#
#
# Mechanical properties :
#
#
# Convention : Reuss Voigt Hill
#
# Bulk Modulus (GPa) = 42.67395 56.96976 49.82186
# Shear Modulus (GPa) = 16.78186 25.01615 20.89900
#
# Velocity S-wave (km/s) = 2.93245 3.58031 3.27245
# Velocity P-wave (km/s) = 5.77342 6.80321 6.30936
#
# Compressibility (1/GPa) = 0.02343350
#
# Stress axis : x y z
#
# Youngs Moduli (GPa) = 107.31764 68.41522 58.00772
#
# Poissons Ratio (x) = 0.29595 0.26220
# Poissons Ratio (y) = 0.46424 0.00141
# Poissons Ratio (z) = 0.48508 0.00166
#
# Static dielectric constant tensor:
#      x y z
#    x 1.777380 0.000000 0.007310 
#    y 0.000000 1.859740 0.000000 
#    z 0.007310 0.000000 1.654610 
# 
# From -- ./inp_files/68443.got.cif
#   From: 2010.05.17/outbox.cif.g08.bks.cpg/sg12_35_cif.got.tgz:68443.got - 2010.06.03 13:09:07.
