data_PCOD9198562
_publ_section_title
;
Structure prediction by ZEFSAII (Michael W. Deem and Ramdas Pophale) SiO2 
 PCOD9198562
Probable space group: C 2/M
;
_chemical_formula_sum "Si O2"
_cell_formula_units_Z 64
_cell_length_a 28.817960
_cell_length_b 8.876720
_cell_length_c 16.183051
_cell_angle_alpha 90.000000
_cell_angle_beta 63.525391
_cell_angle_gamma 90.000000
_cell_volume 3705.640169
_symmetry_space_group_name_H-M "C 2/M"
_symmetry_group_IT_number 12
_symmetry_cell_setting 'monoclinic'
loop_
_space_group_symop_operation_xyz
x,y,z
-x,y,-z
-x,-y,-z
x,-y,z
1/2+x,1/2+y,z
1/2-x,1/2+y,-z
1/2-x,1/2-y,-z
1/2+x,1/2-y,z
loop_
_atom_site_type_symbol
_atom_site_label
_atom_site_fract_x
_atom_site_fract_y
_atom_site_fract_z
Si Si1 0.613471 0.819670 0.756316
Si Si2 0.738902 0.681056 0.246328
Si Si3 0.970220 0.819036 0.607298
Si Si4 0.636018 0.179443 0.250277
Si Si5 0.398103 0.680524 0.892790
Si Si6 0.275114 0.819678 0.399243
Si Si7 0.486016 0.320418 0.249058
Si Si8 0.153179 0.819325 0.891307
O O1 0.664924 0.775681 0.663471
O O2 0.561830 0.766276 0.752088
O O3 0.620359 0.744132 0.840417
O O4 0.614302 0.000000 0.765303
O O5 0.739102 0.500000 0.239542
O O6 0.687046 0.748367 0.249326
O O7 0.745274 0.721271 0.338278
O O8 0.789914 0.746956 0.161575
O O9 0.915289 0.737951 0.661775
O O10 0.000000 0.778507 0.500000
O O11 0.003993 0.785025 0.662305
O O12 0.961266 0.000000 0.614427
O O13 0.629083 0.235613 0.161568
O O14 0.638817 0.000000 0.251063
O O15 0.393079 0.500000 0.883133
O O16 0.459425 0.714814 0.839119
O O17 0.373447 0.717931 0.000394
O O18 0.250000 0.750000 0.500000
O O19 0.273491 0.000000 0.407825
O O20 0.476979 0.500000 0.249097
O O21 0.156978 0.000000 0.881760
#
# Coordination Sequence:
#
# PCOD9198562 Si02
#       8
#     8   8   8   8   8   8   8   8
#     4  10  21  36  52  76 110 142 172 213 266 316
#     4  10  21  38  56  77 109 143 175 215 266 320
#     4   9  19  37  58  79 107 143 180 220 269 318
#     4  11  22  35  55  82 109 140 179 220 263 313
#     4   9  20  38  57  78 107 140 175 219 268 316
#     4   9  20  36  54  76 103 137 174 214 260 309
#     4   9  18  34  55  78 104 138 178 216 257 310
#     4  10  20  36  58  81 104 135 178 223 265 312
#
# _framework density 17.270969999999998
#
# number of rings (size 3 to 8) (size 9 to 14) (size 15 to 20)
#    0.000    2.375    0.000    3.750    0.000    8.250 
#    0.000    6.250    0.000    0.000    0.000    0.000 
#    0.000    0.000    0.000    0.000    0.000    0.000 
#
# Total GULP energy -178598.117328 kJ/mol
# GULP energy per Si atom -5581.191166 kJ/mol
# Density = 1.723166 g / cm^3
# Si number density = 17.270970 Si / 1000 Ang^3
#
#
#
# Elastic Constant Matrix: (Units=GPa)
#
#
# Indices 1 2 3 4 5 6 
#
# 1 169.6578 72.9698 95.7682 0.0000 4.9492 0.0000
# 2 72.9698 68.0623 72.3362 0.0000 1.1711 0.0000
# 3 95.7682 72.3362 185.9130 0.0000 -3.5055 0.0000
# 4 0.0000 0.0000 0.0000 26.0631 0.0000 -1.8594
# 5 4.9492 1.1711 -3.5055 0.0000 5.1385 0.0000
# 6 0.0000 0.0000 0.0000 -1.8594 0.0000 35.3860
#
#
#
# Elastic Compliance Matrix: (Units=1/GPa)
#
#
# Indices 1 2 3 4 5 6 
#
# 1 0.011865 -0.009925 -0.002454 0.000000 -0.010840 0.000000
# 2 -0.009925 0.034175 -0.008257 0.000000 -0.003863 0.000000
# 3 -0.002454 -0.008257 0.010066 0.000000 0.011113 0.000000
# 4 0.000000 0.000000 0.000000 0.038513 0.000000 0.002024
# 5 -0.010840 -0.003863 0.011113 0.000000 0.213510 0.000000
# 6 0.000000 0.000000 0.000000 0.002024 0.000000 0.028366
#
#
# Mechanical properties :
#
#
# Convention : Reuss Voigt Hill
#
# Bulk Modulus (GPa) = 67.42227 100.64239 84.03233
# Shear Modulus (GPa) = 13.06463 25.48813 19.27638
#
# Velocity S-wave (km/s) = 2.75335 3.84575 3.34445
# Velocity P-wave (km/s) = 7.01645 8.83849 7.97964
#
# Compressibility (1/GPa) = 0.01483190
#
# Stress axis : x y z
#
# Youngs Moduli (GPa) = 84.28357 29.26073 99.34798
#
# Poissons Ratio (x) = 0.29041 0.24385
# Poissons Ratio (y) = 0.83652 0.82036
# Poissons Ratio (z) = 0.20687 0.24162
#
# Static dielectric constant tensor:
#      x y z
#    x 1.557610 0.000000 -0.001270 
#    y 0.000000 1.578150 0.000000 
#    z -0.001270 0.000000 1.570820 
# 
# From -- ./inp_files/243731.got.cif
#   From: 2010.05.17/outbox.cif.g08.bks.cpg/sg12_122_cif.got.tgz:243731.got - 2010.06.03 13:09:07.
