data_PCOD9198570
_publ_section_title
;
Structure prediction by ZEFSAII (Michael W. Deem and Ramdas Pophale) SiO2 
 PCOD9198570
Probable space group: C 2/M
;
_chemical_formula_sum "Si O2"
_cell_formula_units_Z 48
_cell_length_a 21.040051
_cell_length_b 8.110878
_cell_length_c 14.692216
_cell_angle_alpha 90.000000
_cell_angle_beta 90.442905
_cell_angle_gamma 90.000000
_cell_volume 2507.200039
_symmetry_space_group_name_H-M "C 2/M"
_symmetry_group_IT_number 12
_symmetry_cell_setting 'monoclinic'
loop_
_space_group_symop_operation_xyz
x,y,z
-x,y,-z
-x,-y,-z
x,-y,z
1/2+x,1/2+y,z
1/2-x,1/2+y,-z
1/2-x,1/2-y,-z
1/2+x,1/2-y,z
loop_
_atom_site_type_symbol
_atom_site_label
_atom_site_fract_x
_atom_site_fract_y
_atom_site_fract_z
Si Si1 0.494694 0.802232 0.605001
Si Si2 0.425794 0.700855 0.099830
Si Si3 0.869389 0.804604 0.709744
Si Si4 0.744403 0.305616 0.604013
Si Si5 0.622148 0.300293 0.710635
Si Si6 0.426215 0.298817 0.896793
O O1 0.500000 0.749468 0.500000
O O2 0.432448 0.728985 0.651636
O O3 0.557741 0.748558 0.658685
O O4 0.489436 0.000000 0.607449
O O5 0.424951 0.500000 0.099073
O O6 0.384235 0.757108 0.184751
O O7 0.499727 0.748447 0.115693
O O8 0.406729 0.754851 0.998073
O O9 0.808337 0.730791 0.660070
O O10 0.884201 0.740605 0.811818
O O11 0.859529 0.000000 0.715041
O O12 0.735258 0.500000 0.600525
O O13 0.750000 0.250000 0.500000
O O14 0.683159 0.235291 0.656649
O O15 0.624914 0.500000 0.712940
O O16 0.425231 0.500000 0.895480
#
# Coordination Sequence:
#
# PCOD9198570 Si02
#       6
#     8   8   8   8   8   8
#     4  11  23  36  53  79 110 141 179 231 282 326
#     4   8  13  27  52  83 110 135 175 223 268 320
#     4  11  21  36  58  83 110 145 186 225 269 327
#     4  11  24  40  57  79 110 150 188 229 277 326
#     4  10  20  36  58  81 106 141 186 228 271 325
#     4   8  14  26  52  84 110 137 174 220 268 322
#
# _framework density 19.144862
#
# number of rings (size 3 to 8) (size 9 to 14) (size 15 to 20)
#    0.000    2.167    1.667    3.500    0.000    5.333 
#    0.000    0.833    0.000    3.000    0.000    0.000 
#    0.000    0.000    0.000    0.000    0.000    0.000 
#
# Total GULP energy -133947.248893 kJ/mol
# GULP energy per Si atom -5581.135371 kJ/mol
# Density = 1.910129 g / cm^3
# Si number density = 19.144862 Si / 1000 Ang^3
#
#
#
# Elastic Constant Matrix: (Units=GPa)
#
#
# Indices 1 2 3 4 5 6 
#
# 1 81.3861 -6.5608 47.4850 0.0000 -10.9120 0.0000
# 2 -6.5608 13.3295 6.5706 0.0000 -4.4285 0.0000
# 3 47.4850 6.5706 173.3698 0.0000 -9.2621 0.0000
# 4 0.0000 0.0000 0.0000 13.0955 0.0000 5.0215
# 5 -10.9120 -4.4285 -9.2621 0.0000 30.2825 0.0000
# 6 0.0000 0.0000 0.0000 5.0215 0.0000 24.1916
#
#
#
# Elastic Compliance Matrix: (Units=1/GPa)
#
#
# Indices 1 2 3 4 5 6 
#
# 1 0.017004 0.012910 -0.004797 0.000000 0.006548 0.000000
# 2 0.012910 0.089658 -0.006084 0.000000 0.015902 0.000000
# 3 -0.004797 -0.006084 0.007292 0.000000 -0.000388 0.000000
# 4 0.000000 0.000000 0.000000 0.082966 0.000000 -0.017221
# 5 0.006548 0.015902 -0.000388 0.000000 0.037589 0.000000
# 6 0.000000 0.000000 0.000000 -0.017221 0.000000 0.044911
#
#
# Mechanical properties :
#
#
# Convention : Reuss Voigt Hill
#
# Bulk Modulus (GPa) = 8.47376 40.34167 24.40771
# Shear Modulus (GPa) = 15.88813 28.21997 22.05405
#
# Velocity S-wave (km/s) = 2.88391 3.84347 3.39773
# Velocity P-wave (km/s) = 3.94017 6.38857 5.30749
#
# Compressibility (1/GPa) = 0.11801136
#
# Stress axis : x y z
#
# Youngs Moduli (GPa) = 58.80799 11.15347 137.14210
#
# Poissons Ratio (x) = -0.14399 0.65785
# Poissons Ratio (y) = -0.75919 0.83441
# Poissons Ratio (z) = 0.28209 0.06786
#
# Static dielectric constant tensor:
#      x y z
#    x 1.636450 0.000000 -0.020480 
#    y 0.000000 1.684990 0.000000 
#    z -0.020480 0.000000 1.704130 
# 
# From -- ./inp_files/221728.got.cif
#   From: 2010.05.17/outbox.cif.g08.bks.cpg/sg12_111_cif.got.tgz:221728.got - 2010.06.03 13:09:07.
