data_PCOD9198053
_publ_section_title
;
Structure prediction by ZEFSAII (Michael W. Deem and Ramdas Pophale) SiO2 
 PCOD9198053
Probable space group: C 2/M
;
_chemical_formula_sum "Si O2"
_cell_formula_units_Z 48
_cell_length_a 29.468221
_cell_length_b 7.526453
_cell_length_c 16.258987
_cell_angle_alpha 90.000000
_cell_angle_beta 142.353653
_cell_angle_gamma 90.000000
_cell_volume 2202.554816
_symmetry_space_group_name_H-M "C 2/M"
_symmetry_group_IT_number 12
_symmetry_cell_setting 'monoclinic'
loop_
_space_group_symop_operation_xyz
x,y,z
-x,y,-z
-x,-y,-z
x,-y,z
1/2+x,1/2+y,z
1/2-x,1/2+y,-z
1/2-x,1/2-y,-z
1/2+x,1/2-y,z
loop_
_atom_site_type_symbol
_atom_site_label
_atom_site_fract_x
_atom_site_fract_y
_atom_site_fract_z
Si Si1 0.242300 0.794636 0.761758
Si Si2 0.059909 0.716887 0.201546
Si Si3 0.602931 0.217197 0.081276
Si Si4 0.319903 0.287216 0.157781
Si Si5 0.515985 0.285035 0.618106
Si Si6 0.620062 0.205305 0.459475
O O1 0.322156 0.716643 0.853551
O O2 0.200287 0.716621 0.780429
O O3 0.187232 0.791212 0.605620
O O4 0.256847 0.000000 0.804279
O O5 0.060144 0.500000 0.204099
O O6 0.096692 0.770463 0.167991
O O7 0.100427 0.780167 0.341683
O O8 0.973393 0.770892 0.072668
O O9 0.604168 0.000000 0.083250
O O10 0.329235 0.500000 0.177014
O O11 0.400184 0.223005 0.242213
O O12 0.250000 0.250000 0.000000
O O13 0.500000 0.237549 0.500000
O O14 0.511300 0.500000 0.616366
O O15 0.453574 0.215628 0.589918
O O16 0.640871 0.000000 0.479146
#
# Coordination Sequence:
#
# PCOD9198053 Si02
#       6
#     8   8   8   8   8   8
#     4  10  20  36  56  77 105 144 181 212 258 321
#     4   8  16  31  51  80 107 132 173 222 264 305
#     4   8  15  31  55  76 102 139 177 215 259 314
#     4  10  22  37  55  79 107 138 175 220 262 310
#     4  10  20  39  58  73 104 145 180 213 255 315
#     4  11  22  33  53  83 111 136 173 225 267 305
#
# _framework density 21.792873
#
# number of rings (size 3 to 8) (size 9 to 14) (size 15 to 20)
#    0.000    2.500    1.667    1.500    2.333    2.333 
#    0.000    0.000    0.000    1.000    0.000    5.833 
#    0.000    0.000    0.000    0.000    0.000    0.000 
#
# Total GULP energy -134019.188929 kJ/mol
# GULP energy per Si atom -5584.132872 kJ/mol
# Density = 2.174327 g / cm^3
# Si number density = 21.792873 Si / 1000 Ang^3
#
#
#
# Elastic Constant Matrix: (Units=GPa)
#
#
# Indices 1 2 3 4 5 6 
#
# 1 24.7626 0.4181 -10.4202 0.0000 14.4623 0.0000
# 2 0.4181 52.7241 -8.6324 0.0000 1.2166 0.0000
# 3 -10.4202 -8.6324 60.7593 0.0000 -4.5466 0.0000
# 4 0.0000 0.0000 0.0000 19.0353 0.0000 -3.0850
# 5 14.4623 1.2166 -4.5466 0.0000 43.0983 0.0000
# 6 0.0000 0.0000 0.0000 -3.0850 0.0000 -1.5458
#
#
#
# Elastic Compliance Matrix: (Units=1/GPa)
#
#
# Indices 1 2 3 4 5 6 
#
# 1 0.053859 0.001302 0.008131 0.000000 -0.017252 0.000000
# 2 0.001302 0.019453 0.002936 0.000000 -0.000676 0.000000
# 3 0.008131 0.002936 0.018203 0.000000 -0.000891 0.000000
# 4 0.000000 0.000000 0.000000 0.039695 0.000000 -0.079221
# 5 -0.017252 -0.000676 -0.000891 0.000000 0.028917 0.000000
# 6 0.000000 0.000000 0.000000 -0.079221 0.000000 -0.488816
#
#
# Mechanical properties :
#
#
# Convention : Reuss Voigt Hill
#
# Bulk Modulus (GPa) = 8.60186 11.21967 9.91077
# Shear Modulus (GPa) = -15.88934 22.57627 3.34346
#
# Velocity S-wave (km/s) = -2.70313 3.22211 1.23997
# Velocity P-wave (km/s) = 2.40559 4.35914 2.57053
#
# Compressibility (1/GPa) = 0.11625395
#
# Stress axis : x y z
#
# Youngs Moduli (GPa) = 18.56705 51.40670 54.93497
#
# Poissons Ratio (x) = -0.06694 -0.44667
# Poissons Ratio (y) = -0.02418 -0.16132
# Poissons Ratio (z) = -0.15097 -0.15095
#
# Static dielectric constant tensor:
#      x y z
#    x 1.781420 0.000000 0.010040 
#    y 0.000000 1.872010 0.000000 
#    z 0.010040 0.000000 1.779530 
# 
# From -- ./inp_files/244916.got.cif
#   From: 2010.05.17/outbox.cif.g08.bks.cpg/sg12_123_cif.got.tgz:244916.got - 2010.06.03 13:09:07.
