data_PCOD9198131
_publ_section_title
;
Structure prediction by ZEFSAII (Michael W. Deem and Ramdas Pophale) SiO2 
 PCOD9198131
Probable space group: C 2/M
;
_chemical_formula_sum "Si O2"
_cell_formula_units_Z 52
_cell_length_a 13.281439
_cell_length_b 27.144955
_cell_length_c 7.195640
_cell_angle_alpha 90.000000
_cell_angle_beta 87.465035
_cell_angle_gamma 90.000000
_cell_volume 2591.662733
_symmetry_space_group_name_H-M "C 2/M"
_symmetry_group_IT_number 12
_symmetry_cell_setting 'monoclinic'
loop_
_space_group_symop_operation_xyz
x,y,z
-x,y,-z
-x,-y,-z
x,-y,z
1/2+x,1/2+y,z
1/2-x,1/2+y,-z
1/2-x,1/2-y,-z
1/2+x,1/2-y,z
loop_
_atom_site_type_symbol
_atom_site_label
_atom_site_fract_x
_atom_site_fract_y
_atom_site_fract_z
Si Si1 0.433409 0.201788 0.816845
Si Si2 0.840049 0.000000 0.400216
Si Si3 0.361201 0.605276 0.850301
Si Si4 0.000000 0.623887 0.500000
Si Si5 0.500256 0.305943 0.777124
Si Si6 0.216409 0.407742 0.522334
Si Si7 0.716896 0.666540 0.789638
Si Si8 0.050205 0.000000 0.208981
O O1 0.472698 0.159398 0.675418
O O2 0.447976 0.255506 0.722538
O O3 0.313784 0.195049 0.862398
O O4 0.500000 0.199338 0.000000
O O5 0.768713 0.952834 0.411197
O O6 0.899218 0.000000 0.591165
O O7 0.929671 0.000000 0.244444
O O8 0.440186 0.643304 0.743491
O O9 0.268245 0.597622 0.718142
O O10 0.411954 0.552044 0.875647
O O11 0.324062 0.630099 0.044760
O O12 0.903548 0.590948 0.457750
O O13 0.618325 0.305199 0.724106
O O14 0.500000 0.304353 0.000000
O O15 0.242688 0.361359 0.393250
#
# Coordination Sequence:
#
# PCOD9198131 Si02
#       8
#     8   4   8   4   8   8   8   4
#     4  10  21  37  56  76 108 145 178 222 266 312
#     4   9  18  34  55  80 108 143 174 214 272 317
#     4  10  20  36  56  80 111 142 172 218 270 318
#     4  10  22  37  54  82 104 137 190 222 258 316
#     4   9  20  35  54  80 108 142 179 217 265 320
#     4  10  21  36  56  78 108 142 178 222 266 316
#     4  10  21  36  54  81 109 140 181 219 265 317
#     4   9  18  33  57  84 107 137 178 214 264 326
#
# _framework density 20.064337999999999
#
# number of rings (size 3 to 8) (size 9 to 14) (size 15 to 20)
#    0.000    2.308    0.000    1.846    0.000   10.769 
#    0.000    7.308    0.000    0.000    0.000   10.769 
#    0.000    0.000    0.000    0.000    0.000    0.000 
#
# Total GULP energy -145002.372721 kJ/mol
# GULP energy per Si atom -5577.014335 kJ/mol
# Density = 2.001867 g / cm^3
# Si number density = 20.064338 Si / 1000 Ang^3
#
#
#
# Elastic Constant Matrix: (Units=GPa)
#
#
# Indices 1 2 3 4 5 6 
#
# 1 175.6521 73.7396 23.7367 0.0000 -3.1976 0.0000
# 2 73.7396 100.7752 10.9669 0.0000 4.6578 0.0000
# 3 23.7367 10.9669 58.1587 0.0000 8.7407 0.0000
# 4 0.0000 0.0000 0.0000 6.3198 0.0000 -0.9228
# 5 -3.1976 4.6578 8.7407 0.0000 25.7455 0.0000
# 6 0.0000 0.0000 0.0000 -0.9228 0.0000 16.8287
#
#
#
# Elastic Compliance Matrix: (Units=1/GPa)
#
#
# Indices 1 2 3 4 5 6 
#
# 1 0.008762 -0.006246 -0.002879 0.000000 0.003196 0.000000
# 2 -0.006246 0.014622 0.000323 0.000000 -0.003531 0.000000
# 3 -0.002879 0.000323 0.019359 0.000000 -0.006988 0.000000
# 4 0.000000 0.000000 0.000000 0.159509 0.000000 0.008747
# 5 0.003196 -0.003531 -0.006988 0.000000 0.042250 0.000000
# 6 0.000000 0.000000 0.000000 0.008747 0.000000 0.059902
#
#
# Mechanical properties :
#
#
# Convention : Reuss Voigt Hill
#
# Bulk Modulus (GPa) = 39.77972 61.27471 50.52721
# Shear Modulus (GPa) = 15.13375 24.85499 19.99437
#
# Velocity S-wave (km/s) = 2.74936 3.52343 3.16018
# Velocity P-wave (km/s) = 5.47245 6.86718 6.20910
#
# Compressibility (1/GPa) = 0.02513844
#
# Stress axis : x y z
#
# Youngs Moduli (GPa) = 114.12411 68.39224 51.65643
#
# Poissons Ratio (x) = 0.42718 0.14870
# Poissons Ratio (y) = 0.71283 -0.01667
# Poissons Ratio (z) = 0.32853 -0.02207
#
# Static dielectric constant tensor:
#      x y z
#    x 1.758030 0.000000 0.000200 
#    y 0.000000 1.741540 0.000000 
#    z 0.000200 0.000000 1.707750 
# 
# From -- ./inp_files/52630.got.cif
#   From: 2010.05.17/outbox.cif.g08.bks.cpg/sg12_27_cif.got.tgz:52630.got - 2010.06.03 13:09:07.
