data_PCOD9198132
_publ_section_title
;
Structure prediction by ZEFSAII (Michael W. Deem and Ramdas Pophale) SiO2 
 PCOD9198132
Probable space group: C 2/M
;
_chemical_formula_sum "Si O2"
_cell_formula_units_Z 52
_cell_length_a 10.359894
_cell_length_b 34.003680
_cell_length_c 7.239932
_cell_angle_alpha 90.000000
_cell_angle_beta 124.838557
_cell_angle_gamma 90.000000
_cell_volume 2093.314726
_symmetry_space_group_name_H-M "C 2/M"
_symmetry_group_IT_number 12
_symmetry_cell_setting 'monoclinic'
loop_
_space_group_symop_operation_xyz
x,y,z
-x,y,-z
-x,-y,-z
x,-y,z
1/2+x,1/2+y,z
1/2-x,1/2+y,-z
1/2-x,1/2-y,-z
1/2+x,1/2-y,z
loop_
_atom_site_type_symbol
_atom_site_label
_atom_site_fract_x
_atom_site_fract_y
_atom_site_fract_z
Si Si1 0.000000 0.677199 0.000000
Si Si2 0.975719 0.735355 0.699801
Si Si3 0.686654 0.956868 0.183488
Si Si4 0.185226 0.128008 0.105395
Si Si5 0.328664 0.687803 0.616505
Si Si6 0.188926 0.957495 0.131126
Si Si7 0.726030 0.374231 0.697657
O O1 0.921050 0.707616 0.082158
O O2 0.105905 0.646215 0.197583
O O3 0.805880 0.714310 0.588594
O O4 0.966135 0.780482 0.757793
O O5 0.000000 0.735470 0.500000
O O6 0.768260 0.920020 0.347841
O O7 0.704423 0.000000 0.284581
O O8 0.500000 0.949601 0.000000
O O9 0.767136 0.958657 0.049050
O O10 0.242433 0.166042 0.263467
O O11 0.249835 0.086070 0.234468
O O12 0.206789 0.129249 0.902948
O O13 0.000000 0.128440 0.000000
O O14 0.377113 0.652340 0.521376
O O15 0.245879 0.000000 0.253959
O O16 0.000000 0.956870 0.000000
#
# Coordination Sequence:
#
# PCOD9198132 Si02
#       7
#     4   8   8   8   8   8   8
#     4  10  20  36  59  78 102 148 183 216 284 336
#     4  10  22  38  56  77 108 141 178 232 277 328
#     4   9  16  29  54  84 112 146 187 228 274 330
#     4  10  21  34  55  81 108 145 182 224 273 325
#     4  10  23  37  53  83 107 138 187 227 274 329
#     4   8  15  30  51  77 110 147 184 222 272 330
#     4  10  20  36  56  80 111 144 181 224 273 331
#
# _framework density 24.840986999999998
#
# number of rings (size 3 to 8) (size 9 to 14) (size 15 to 20)
#    0.000    2.462    0.769    0.923    3.231    0.000 
#    0.000    5.385    0.000    0.000    0.000   16.154 
#    0.000    0.000    0.000    0.000    0.000    0.000 
#
# Total GULP energy -144900.812814 kJ/mol
# GULP energy per Si atom -5573.108185 kJ/mol
# Density = 2.478445 g / cm^3
# Si number density = 24.840987 Si / 1000 Ang^3
#
#
#
# Elastic Constant Matrix: (Units=GPa)
#
#
# Indices 1 2 3 4 5 6 
#
# 1 74.8921 22.4770 15.1113 0.0000 -26.4754 0.0000
# 2 22.4770 228.6087 41.3896 0.0000 -18.7079 0.0000
# 3 15.1113 41.3896 67.1049 0.0000 -31.9767 0.0000
# 4 0.0000 0.0000 0.0000 -93.1733 0.0000 -51.8741
# 5 -26.4754 -18.7079 -31.9767 0.0000 36.5756 0.0000
# 6 0.0000 0.0000 0.0000 -51.8741 0.0000 10.6400
#
#
#
# Elastic Compliance Matrix: (Units=1/GPa)
#
#
# Indices 1 2 3 4 5 6 
#
# 1 0.018831 -0.001305 0.004700 0.000000 0.017072 0.000000
# 2 -0.001305 0.005016 -0.003475 0.000000 -0.001418 0.000000
# 3 0.004700 -0.003475 0.028730 0.000000 0.026742 0.000000
# 4 0.000000 0.000000 0.000000 -0.002890 0.000000 -0.014087
# 5 0.017072 -0.001418 0.026742 0.000000 0.062353 0.000000
# 6 0.000000 0.000000 0.000000 -0.014087 0.000000 0.025303
#
#
# Mechanical properties :
#
#
# Convention : Reuss Voigt Hill
#
# Bulk Modulus (GPa) = 19.07815 58.72904 38.90360
# Shear Modulus (GPa) = 32.26258 10.25032 21.25645
#
# Velocity S-wave (km/s) = 3.60775 2.03355 2.92841
# Velocity P-wave (km/s) = 5.00512 5.40436 5.20857
#
# Compressibility (1/GPa) = 0.05241598
#
# Stress axis : x y z
#
# Youngs Moduli (GPa) = 53.10294 199.36931 34.80623
#
# Poissons Ratio (x) = 0.26024 -0.16358
# Poissons Ratio (y) = 0.06932 0.12096
# Poissons Ratio (z) = -0.24957 0.69287
#
# Static dielectric constant tensor:
#      x y z
#    x 2.011850 0.000000 -0.002740 
#    y 0.000000 2.061830 0.000000 
#    z -0.002740 0.000000 2.054920 
# 
# From -- ./inp_files/54378.got.cif
#   From: 2010.05.17/outbox.cif.g08.bks.cpg/sg12_28_cif.got.tgz:54378.got - 2010.06.03 13:09:07.
