data_PCOD9198013
_publ_section_title
;
Structure prediction by ZEFSAII (Michael W. Deem and Ramdas Pophale) SiO2 
 PCOD9198013
Probable space group: C 2/M
;
_chemical_formula_sum "Si O2"
_cell_formula_units_Z 44
_cell_length_a 19.178856
_cell_length_b 15.135921
_cell_length_c 25.583102
_cell_angle_alpha 90.000000
_cell_angle_beta 161.192954
_cell_angle_gamma 90.000000
_cell_volume 2394.173853
_symmetry_space_group_name_H-M "C 2/M"
_symmetry_group_IT_number 12
_symmetry_cell_setting 'monoclinic'
loop_
_space_group_symop_operation_xyz
x,y,z
-x,y,-z
-x,-y,-z
x,-y,z
1/2+x,1/2+y,z
1/2-x,1/2+y,-z
1/2-x,1/2-y,-z
1/2+x,1/2-y,z
loop_
_atom_site_type_symbol
_atom_site_label
_atom_site_fract_x
_atom_site_fract_y
_atom_site_fract_z
Si Si1 0.442578 0.843895 0.899998
Si Si2 0.814775 0.167429 0.082300
Si Si3 0.774828 0.606991 0.399064
Si Si4 0.858922 0.500000 0.104003
Si Si5 0.445248 0.500000 0.021807
Si Si6 0.742568 0.841058 0.731970
Si Si7 0.250802 0.500000 0.307362
O O1 0.310798 0.752336 0.803747
O O2 0.314636 0.916439 0.775039
O O3 0.500000 0.869878 0.000000
O O4 0.665669 0.829360 0.027248
O O5 0.063467 0.150085 0.274867
O O6 0.750000 0.250000 0.000000
O O7 0.750217 0.083880 0.001045
O O8 0.753662 0.500000 0.377662
O O9 0.777510 0.656650 0.345027
O O10 0.012169 0.625670 0.590836
O O11 0.104234 0.500000 0.256362
O O12 0.787848 0.500000 0.114519
O O13 0.569367 0.412145 0.127258
O O14 0.500000 0.500000 0.000000
O O15 0.500000 0.500000 0.500000
#
# Coordination Sequence:
#
# PCOD9198013 Si02
#       7
#     8   8   8   4   4   8   4
#     4  11  24  41  60  89 123 160 203 257 312 355
#     4  11  19  35  60  86 115 157 210 246 287 364
#     4  11  19  35  61  89 118 152 203 250 294 353
#     4  10  20  36  55  84 114 154 209 246 294 364
#     4  12  20  34  55  89 130 157 183 240 312 381
#     4  11  20  34  58  89 121 155 191 241 306 363
#     4  10  25  43  65  84 110 162 224 266 291 349
#
# _framework density 18.377946999999999
#
# number of rings (size 3 to 8) (size 9 to 14) (size 15 to 20)
#    0.000    1.091    6.364    1.364    2.545    0.000 
#    0.000    2.727    0.000    0.000    0.000    0.000 
#    0.000    0.000    0.000    0.000    0.000    0.000 
#
# Total GULP energy -122566.277212 kJ/mol
# GULP energy per Si atom -5571.194419 kJ/mol
# Density = 1.833612 g / cm^3
# Si number density = 18.377947 Si / 1000 Ang^3
#
#
#
# Elastic Constant Matrix: (Units=GPa)
#
#
# Indices 1 2 3 4 5 6 
#
# 1 127.4795 14.1623 57.8419 0.0039 16.1540 0.0076
# 2 14.1623 103.6089 39.3840 -0.0397 11.1642 -0.0140
# 3 57.8419 39.3840 112.1919 0.0113 36.4677 -0.0061
# 4 0.0039 -0.0397 0.0113 26.8495 -0.0127 5.0110
# 5 16.1540 11.1642 36.4677 -0.0127 28.8981 -0.0076
# 6 0.0076 -0.0140 -0.0061 5.0110 -0.0076 14.9273
#
#
#
# Elastic Compliance Matrix: (Units=1/GPa)
#
#
# Indices 1 2 3 4 5 6 
#
# 1 0.010332 0.000737 -0.006130 0.000004 0.001676 -0.000008
# 2 0.000737 0.011210 -0.004703 0.000019 0.001192 0.000003
# 3 -0.006130 -0.004703 0.020380 -0.000025 -0.020475 0.000005
# 4 0.000004 0.000019 -0.000025 0.039734 0.000036 -0.013338
# 5 0.001676 0.001192 -0.020475 0.000036 0.059045 0.000010
# 6 -0.000008 0.000003 0.000005 -0.013338 0.000010 0.071469
#
#
# Mechanical properties :
#
#
# Convention : Reuss Voigt Hill
#
# Bulk Modulus (GPa) = 46.01767 62.89516 54.45642
# Shear Modulus (GPa) = 20.86774 29.59444 25.23109
#
# Velocity S-wave (km/s) = 3.37334 4.01724 3.70929
# Velocity P-wave (km/s) = 6.34559 7.47095 6.93115
#
# Compressibility (1/GPa) = 0.02173078
#
# Stress axis : x y z
#
# Youngs Moduli (GPa) = 96.79053 89.20527 49.06807
#
# Poissons Ratio (x) = -0.06578 0.30079
# Poissons Ratio (y) = -0.07137 0.23075
# Poissons Ratio (z) = 0.59334 0.41950
#
# Static dielectric constant tensor:
#      x y z
#    x 1.187010 -0.000260 0.151510 
#    y -0.000260 1.623270 0.000070 
#    z 0.151510 0.000070 1.650740 
# 
# From -- ./inp_files/85614.got.cif
#   From: 2010.05.17/outbox.cif.g08.bks.cpg/sg12_43_cif.got.tgz:85614.got - 2010.06.03 13:09:07.
