data_PCOD9198164
_publ_section_title
;
Structure prediction by ZEFSAII (Michael W. Deem and Ramdas Pophale) SiO2 
 PCOD9198164
Probable space group: C 2/M
;
_chemical_formula_sum "Si O2"
_cell_formula_units_Z 48
_cell_length_a 31.704542
_cell_length_b 8.601653
_cell_length_c 9.525483
_cell_angle_alpha 90.000000
_cell_angle_beta 90.200327
_cell_angle_gamma 90.000000
_cell_volume 2597.692582
_symmetry_space_group_name_H-M "C 2/M"
_symmetry_group_IT_number 12
_symmetry_cell_setting 'monoclinic'
loop_
_space_group_symop_operation_xyz
x,y,z
-x,y,-z
-x,-y,-z
x,-y,z
1/2+x,1/2+y,z
1/2-x,1/2+y,-z
1/2-x,1/2-y,-z
1/2+x,1/2-y,z
loop_
_atom_site_type_symbol
_atom_site_label
_atom_site_fract_x
_atom_site_fract_y
_atom_site_fract_z
Si Si1 0.959725 0.811831 0.404266
Si Si2 0.381631 0.688525 0.591070
Si Si3 0.212937 0.186813 0.403474
Si Si4 0.288653 0.814563 0.910698
Si Si5 0.040989 0.313615 0.910683
Si Si6 0.380132 0.686867 0.916300
O O1 0.917901 0.757619 0.486607
O O2 0.962555 0.743846 0.248925
O O3 0.000000 0.770960 0.500000
O O4 0.958521 0.000000 0.392995
O O5 0.383453 0.500000 0.591825
O O6 0.334178 0.732436 0.546660
O O7 0.388003 0.736859 0.753695
O O8 0.250000 0.250000 0.500000
O O9 0.217117 0.254404 0.247832
O O10 0.214583 0.000000 0.397278
O O11 0.334326 0.751086 0.958893
O O12 0.288935 0.000000 0.914563
O O13 0.250000 0.750000 0.000000
O O14 0.043032 0.500000 0.912956
O O15 0.082651 0.246274 0.984831
O O16 0.000000 0.263950 0.000000
O O17 0.378664 0.500000 0.918718
#
# Coordination Sequence:
#
# PCOD9198164 Si02
#       6
#     8   8   8   8   8   8
#     4  10  20  36  59  84 108 140 185 232 279 334
#     4   8  17  34  56  81 108 138 178 230 281 330
#     4  10  20  36  56  81 114 152 193 236 284 338
#     4  11  22  38  59  85 117 153 193 237 288 343
#     4  11  24  39  55  81 117 153 189 231 281 337
#     4  10  20  38  62  85 111 146 189 236 287 340
#
# _framework density 18.477937000000001
#
# number of rings (size 3 to 8) (size 9 to 14) (size 15 to 20)
#    0.000    2.000    0.000    5.000    0.000    4.333 
#    0.000   10.000    0.000    0.000    0.000    0.000 
#    0.000    0.000    0.000    0.000    0.000    0.000 
#
# Total GULP energy -134039.563906 kJ/mol
# GULP energy per Si atom -5584.981829 kJ/mol
# Density = 1.843588 g / cm^3
# Si number density = 18.477937 Si / 1000 Ang^3
#
#
#
# Elastic Constant Matrix: (Units=GPa)
#
#
# Indices 1 2 3 4 5 6 
#
# 1 211.8616 66.3160 126.2994 0.0000 -2.9142 0.0000
# 2 66.3160 75.6428 47.5057 0.0000 2.4065 0.0000
# 3 126.2994 47.5057 127.0541 0.0000 -1.8711 0.0000
# 4 0.0000 0.0000 0.0000 28.7659 0.0000 1.5819
# 5 -2.9142 2.4065 -1.8711 0.0000 43.6656 0.0000
# 6 0.0000 0.0000 0.0000 1.5819 0.0000 26.4693
#
#
#
# Elastic Compliance Matrix: (Units=1/GPa)
#
#
# Indices 1 2 3 4 5 6 
#
# 1 0.012513 -0.004160 -0.010875 0.000000 0.000598 0.000000
# 2 -0.004160 0.018726 -0.002888 0.000000 -0.001433 0.000000
# 3 -0.010875 -0.002888 0.019765 0.000000 0.000280 0.000000
# 4 0.000000 0.000000 0.000000 0.034878 0.000000 -0.002085
# 5 0.000598 -0.001433 0.000280 0.000000 0.023032 0.000000
# 6 0.000000 0.000000 0.000000 -0.002085 0.000000 0.037904
#
#
# Mechanical properties :
#
#
# Convention : Reuss Voigt Hill
#
# Bulk Modulus (GPa) = 65.96545 99.42229 82.69387
# Shear Modulus (GPa) = 26.63592 31.40932 29.02262
#
# Velocity S-wave (km/s) = 3.80083 4.12737 3.96746
# Velocity P-wave (km/s) = 7.41881 8.75422 8.11403
#
# Compressibility (1/GPa) = 0.01515945
#
# Stress axis : x y z
#
# Youngs Moduli (GPa) = 79.91517 53.40143 50.59517
#
# Poissons Ratio (x) = 0.22214 0.55021
# Poissons Ratio (y) = 0.33243 0.14611
# Poissons Ratio (z) = 0.86906 0.15421
#
# Static dielectric constant tensor:
#      x y z
#    x 1.631970 0.000000 -0.011210 
#    y 0.000000 1.630880 0.000000 
#    z -0.011210 0.000000 1.599500 
# 
# From -- ./inp_files/108700.got.cif
#   From: 2010.05.17/outbox.cif.g08.bks.cpg/sg12_55_cif.got.tgz:108700.got - 2010.06.03 13:09:07.
