data_PCOD9198389
_publ_section_title
;
Structure prediction by ZEFSAII (Michael W. Deem and Ramdas Pophale) SiO2 
 PCOD9198389
Probable space group: C 2/M
;
_chemical_formula_sum "Si O2"
_cell_formula_units_Z 40
_cell_length_a 28.709749
_cell_length_b 12.693361
_cell_length_c 5.271300
_cell_angle_alpha 90.000000
_cell_angle_beta 112.179515
_cell_angle_gamma 90.000000
_cell_volume 1778.842024
_symmetry_space_group_name_H-M "C 2/M"
_symmetry_group_IT_number 12
_symmetry_cell_setting 'monoclinic'
loop_
_space_group_symop_operation_xyz
x,y,z
-x,y,-z
-x,-y,-z
x,-y,z
1/2+x,1/2+y,z
1/2-x,1/2+y,-z
1/2-x,1/2-y,-z
1/2+x,1/2-y,z
loop_
_atom_site_type_symbol
_atom_site_label
_atom_site_fract_x
_atom_site_fract_y
_atom_site_fract_z
Si Si1 0.614065 0.188860 0.184159
Si Si2 0.942751 0.316818 0.427390
Si Si3 0.891418 0.125520 0.153557
Si Si4 0.273296 0.126656 0.450713
Si Si5 0.784311 0.127013 0.171074
O O1 0.578803 0.155822 0.343354
O O2 0.611691 0.315329 0.124524
O O3 0.670553 0.157324 0.359128
O O4 0.592793 0.143299 0.875041
O O5 0.000000 0.347365 0.500000
O O6 0.935935 0.189352 0.382587
O O7 0.839735 0.158477 0.191034
O O8 0.895594 0.000000 0.148794
O O9 0.255908 0.153814 0.130781
O O10 0.271866 0.000000 0.453473
O O11 0.233739 0.160235 0.587735
O O12 0.786726 0.000000 0.182893
#
# Coordination Sequence:
#
# PCOD9198389 Si02
#       5
#     8   8   8   8   8
#     4  10  22  37  58  84 105 149 183 229 269 326
#     4  10  22  40  57  79 109 145 182 235 283 314
#     4   9  22  37  56  84 114 146 185 222 267 324
#     4  10  20  36  57  82 115 149 178 217 272 328
#     4   9  19  33  53  82 118 148 176 220 264 318
#
# _framework density 22.486536999999998
#
# number of rings (size 3 to 8) (size 9 to 14) (size 15 to 20)
#    1.200    1.200    0.000    1.800    2.800    2.800 
#    0.000    1.000    0.000    3.600    0.000    0.000 
#    0.000    0.000    0.000    0.000    0.000    0.000 
#
# Total GULP energy -111701.862679 kJ/mol
# GULP energy per Si atom -5585.093134 kJ/mol
# Density = 2.243536 g / cm^3
# Si number density = 22.486537 Si / 1000 Ang^3
#
#
#
# Elastic Constant Matrix: (Units=GPa)
#
#
# Indices 1 2 3 4 5 6 
#
# 1 121.0734 -6.3073 44.8444 0.0000 -16.6625 0.0000
# 2 -6.3073 26.1376 11.8727 0.0000 -5.9898 0.0000
# 3 44.8444 11.8727 104.6752 0.0000 -24.6281 0.0000
# 4 0.0000 0.0000 0.0000 33.1145 0.0000 -0.6352
# 5 -16.6625 -5.9898 -24.6281 0.0000 43.3091 0.0000
# 6 0.0000 0.0000 0.0000 -0.6352 0.0000 18.2219
#
#
#
# Elastic Compliance Matrix: (Units=1/GPa)
#
#
# Indices 1 2 3 4 5 6 
#
# 1 0.010518 0.005111 -0.004580 0.000000 0.002149 0.000000
# 2 0.005111 0.043269 -0.006034 0.000000 0.004519 0.000000
# 3 -0.004580 -0.006034 0.013379 0.000000 0.005011 0.000000
# 4 0.000000 0.000000 0.000000 0.030219 0.000000 0.001053
# 5 0.002149 0.004519 0.005011 0.000000 0.027391 0.000000
# 6 0.000000 0.000000 0.000000 0.001053 0.000000 0.054916
#
#
# Mechanical properties :
#
#
# Convention : Reuss Voigt Hill
#
# Bulk Modulus (GPa) = 17.80640 39.18954 28.49797
# Shear Modulus (GPa) = 23.87569 32.36084 28.11826
#
# Velocity S-wave (km/s) = 3.26203 3.79769 3.54000
# Velocity P-wave (km/s) = 4.70358 6.05770 5.42307
#
# Compressibility (1/GPa) = 0.05615957
#
# Stress axis : x y z
#
# Youngs Moduli (GPa) = 95.07618 23.11122 74.74360
#
# Poissons Ratio (x) = -0.11812 0.34233
# Poissons Ratio (y) = -0.48593 0.45101
# Poissons Ratio (z) = 0.43546 0.13946
#
# Static dielectric constant tensor:
#      x y z
#    x 1.780900 0.000000 -0.025040 
#    y 0.000000 1.928780 0.000000 
#    z -0.025040 0.000000 1.820680 
# 
# From -- ./inp_files/24116.got.cif
#   From: 2010.05.17/outbox.cif.g08.bks.cpg/sg12_13_cif.got.tgz:24116.got - 2010.06.03 13:09:07.
