data_PCOD9198122
_publ_section_title
;
Structure prediction by ZEFSAII (Michael W. Deem and Ramdas Pophale) SiO2 
 PCOD9198122
Probable space group: C 2/M
;
_chemical_formula_sum "Si O2"
_cell_formula_units_Z 64
_cell_length_a 11.148710
_cell_length_b 26.857877
_cell_length_c 12.704024
_cell_angle_alpha 90.000000
_cell_angle_beta 108.774407
_cell_angle_gamma 90.000000
_cell_volume 3601.576935
_symmetry_space_group_name_H-M "C 2/M"
_symmetry_group_IT_number 12
_symmetry_cell_setting 'monoclinic'
loop_
_space_group_symop_operation_xyz
x,y,z
-x,y,-z
-x,-y,-z
x,-y,z
1/2+x,1/2+y,z
1/2-x,1/2+y,-z
1/2-x,1/2-y,-z
1/2+x,1/2-y,z
loop_
_atom_site_type_symbol
_atom_site_label
_atom_site_fract_x
_atom_site_fract_y
_atom_site_fract_z
Si Si1 0.484676 0.055955 0.621259
Si Si2 0.798331 0.383986 0.245267
Si Si3 0.388337 0.401782 0.205102
Si Si4 0.311421 0.281439 0.861153
Si Si5 0.146905 0.059114 0.022791
Si Si6 0.641160 0.442352 0.360160
Si Si7 0.908391 0.791451 0.126300
Si Si8 0.807285 0.056960 0.395253
O O1 0.500000 0.061670 0.500000
O O2 0.556678 0.099337 0.704213
O O3 0.338008 0.056494 0.609491
O O4 0.534350 0.000000 0.662286
O O5 0.756627 0.327595 0.215451
O O6 0.741577 0.405865 0.337089
O O7 0.733510 0.414285 0.132353
O O8 0.316817 0.424867 0.085064
O O9 0.515977 0.433638 0.256937
O O10 0.419733 0.345231 0.183774
O O11 0.322655 0.408144 0.299135
O O12 0.201400 0.240094 0.845552
O O13 0.447688 0.269369 0.843892
O O14 0.354994 0.297009 0.991864
O O15 0.153985 0.000000 0.037045
O O16 0.000000 0.074695 0.000000
O O17 0.680892 0.500000 0.366084
O O18 0.619915 0.430108 0.476337
O O19 0.843786 0.000000 0.375244
#
# Coordination Sequence:
#
# PCOD9198122 Si02
#       8
#     8   8   8   8   8   8   8   8
#     4  10  20  36  56  79 115 161 203 236 271 339
#     4  12  20  34  59  88 113 145 199 243 287 344
#     4  12  21  35  56  86 121 153 190 239 296 354
#     4  10  21  39  61  87 114 148 200 254 302 360
#     4  11  20  30  50  83 120 151 178 224 290 354
#     4  11  20  33  58  89 121 154 193 237 281 342
#     4  10  21  39  61  85 115 153 197 251 303 358
#     4  10  22  37  54  84 123 163 201 235 279 343
#
# _framework density 17.769994000000001
#
# number of rings (size 3 to 8) (size 9 to 14) (size 15 to 20)
#    0.000    1.250    5.000    2.625    0.000    2.000 
#    0.000    0.625    0.000    4.500    0.000    0.000 
#    0.000    0.000    0.000    0.000    0.000    0.000 
#
# Total GULP energy -178472.199485 kJ/mol
# GULP energy per Si atom -5577.256234 kJ/mol
# Density = 1.772955 g / cm^3
# Si number density = 17.769994 Si / 1000 Ang^3
#
#
#
# Elastic Constant Matrix: (Units=GPa)
#
#
# Indices 1 2 3 4 5 6 
#
# 1 53.3689 21.4891 15.2591 0.0000 -4.7187 0.0000
# 2 21.4891 57.6313 18.6681 0.0000 -3.7418 0.0000
# 3 15.2591 18.6681 70.2714 0.0000 -6.7141 0.0000
# 4 0.0000 0.0000 0.0000 16.0698 0.0000 -6.0031
# 5 -4.7187 -3.7418 -6.7141 0.0000 29.9163 0.0000
# 6 0.0000 0.0000 0.0000 -6.0031 0.0000 19.1629
#
#
#
# Elastic Compliance Matrix: (Units=1/GPa)
#
#
# Indices 1 2 3 4 5 6 
#
# 1 0.022701 -0.007439 -0.002759 0.000000 0.002031 0.000000
# 2 -0.007439 0.021471 -0.004030 0.000000 0.000608 0.000000
# 3 -0.002759 -0.004030 0.016157 0.000000 0.002687 0.000000
# 4 0.000000 0.000000 0.000000 0.070476 0.000000 0.022078
# 5 0.002031 0.000608 0.002687 0.000000 0.034426 0.000000
# 6 0.000000 0.000000 0.000000 0.022078 0.000000 0.059100
#
#
# Mechanical properties :
#
#
# Convention : Reuss Voigt Hill
#
# Bulk Modulus (GPa) = 31.37588 32.45603 31.91595
# Shear Modulus (GPa) = 18.98164 21.42014 20.20089
#
# Velocity S-wave (km/s) = 3.27186 3.47567 3.37530
# Velocity P-wave (km/s) = 5.65406 5.86611 5.76106
#
# Compressibility (1/GPa) = 0.03187162
#
# Stress axis : x y z
#
# Youngs Moduli (GPa) = 44.05022 46.57553 61.89228
#
# Poissons Ratio (x) = 0.34648 0.17077
# Poissons Ratio (y) = 0.32769 0.24945
# Poissons Ratio (z) = 0.12154 0.18772
#
# Static dielectric constant tensor:
#      x y z
#    x 1.687170 0.000000 -0.002880 
#    y 0.000000 1.585860 0.000000 
#    z -0.002880 0.000000 1.601460 
# 
# From -- ./inp_files/135987.got.cif
#   From: 2010.05.17/outbox.cif.g08.bks.cpg/sg12_68_cif.got.tgz:135987.got - 2010.06.03 13:09:07.
