data_PCOD9198599
_publ_section_title
;
Structure prediction by ZEFSAII (Michael W. Deem and Ramdas Pophale) SiO2 
 PCOD9198599
Probable space group: C 2/M
;
_chemical_formula_sum "Si O2"
_cell_formula_units_Z 42
_cell_length_a 21.785067
_cell_length_b 12.588968
_cell_length_c 8.899776
_cell_angle_alpha 90.000000
_cell_angle_beta 108.943337
_cell_angle_gamma 90.000000
_cell_volume 2308.584745
_symmetry_space_group_name_H-M "C 2/M"
_symmetry_group_IT_number 12
_symmetry_cell_setting 'monoclinic'
loop_
_space_group_symop_operation_xyz
x,y,z
-x,y,-z
-x,-y,-z
x,-y,z
1/2+x,1/2+y,z
1/2-x,1/2+y,-z
1/2-x,1/2-y,-z
1/2+x,1/2-y,z
loop_
_atom_site_type_symbol
_atom_site_label
_atom_site_fract_x
_atom_site_fract_y
_atom_site_fract_z
Si Si1 0.500000 0.000000 0.500000
Si Si2 0.077843 0.119868 0.561495
Si Si3 0.222595 0.380119 0.625734
Si Si4 0.606481 0.161206 0.736960
Si Si5 0.852223 0.776208 0.660187
Si Si6 0.077665 0.380393 0.060055
O O1 0.551271 0.092985 0.604445
O O2 0.098969 0.214623 0.689100
O O3 0.105839 0.151594 0.419727
O O4 0.000000 0.120172 0.500000
O O5 0.099860 0.000000 0.617771
O O6 0.223467 0.500000 0.570323
O O7 0.177333 0.373173 0.735680
O O8 0.185837 0.306573 0.476617
O O9 0.295996 0.340464 0.700774
O O10 0.598934 0.139584 0.906504
O O11 0.895256 0.707832 0.806991
O O12 0.097502 0.500000 0.123905
O O13 0.000000 0.377540 0.000000
#
# Coordination Sequence:
#
# PCOD9198599 Si02
#       6
#     2   8   8   8   8   8
#     4  12  20  36  64  96 120 152 202 258 282 378
#     4  10  20  36  58  81 112 156 200 239 283 349
#     4  10  20  37  59  81 112 159 203 242 292 357
#     4  11  22  36  61  90 118 155 198 244 304 348
#     4  10  22  36  57  86 118 154 199 246 294 361
#     4  11  23  36  57  92 125 151 189 254 318 355
#
# _framework density 18.192965000000001
#
# number of rings (size 3 to 8) (size 9 to 14) (size 15 to 20)
#    0.000    1.524    2.857    2.286    2.667    0.762 
#    0.000    2.857    0.000    5.143    0.000    0.000 
#    0.000    0.000    0.000    0.000    0.000    0.000 
#
# Total GULP energy -116925.158932 kJ/mol
# GULP energy per Si atom -5567.864711 kJ/mol
# Density = 1.815156 g / cm^3
# Si number density = 18.192965 Si / 1000 Ang^3
#
#
#
# Elastic Constant Matrix: (Units=GPa)
#
#
# Indices 1 2 3 4 5 6 
#
# 1 104.5965 34.5977 24.0232 0.0000 -9.1106 0.0000
# 2 34.5977 138.2246 11.2406 0.0000 3.1640 0.0000
# 3 24.0232 11.2406 26.4880 0.0000 -4.2607 0.0000
# 4 0.0000 0.0000 0.0000 11.5878 0.0000 6.7917
# 5 -9.1106 3.1640 -4.2607 0.0000 20.1095 0.0000
# 6 0.0000 0.0000 0.0000 6.7917 0.0000 13.1849
#
#
#
# Elastic Compliance Matrix: (Units=1/GPa)
#
#
# Indices 1 2 3 4 5 6 
#
# 1 0.013093 -0.002550 -0.010119 0.000000 0.004189 0.000000
# 2 -0.002550 0.008062 -0.001551 0.000000 -0.002752 0.000000
# 3 -0.010119 -0.001551 0.048545 0.000000 0.005945 0.000000
# 4 0.000000 0.000000 0.000000 0.123619 0.000000 -0.063678
# 5 0.004189 -0.002752 0.005945 0.000000 0.053318 0.000000
# 6 0.000000 0.000000 0.000000 -0.063678 0.000000 0.108645
#
#
# Mechanical properties :
#
#
# Convention : Reuss Voigt Hill
#
# Bulk Modulus (GPa) = 24.23664 45.44802 34.84233
# Shear Modulus (GPa) = 12.57938 22.27293 17.42615
#
# Velocity S-wave (km/s) = 2.63238 3.50274 3.09827
# Velocity P-wave (km/s) = 4.75291 6.43384 5.65616
#
# Compressibility (1/GPa) = 0.04125984
#
# Stress axis : x y z
#
# Youngs Moduli (GPa) = 76.37700 124.03765 20.59961
#
# Poissons Ratio (x) = 0.31632 0.20844
# Poissons Ratio (y) = 0.19478 0.03195
# Poissons Ratio (z) = 0.77282 0.19240
#
# Static dielectric constant tensor:
#      x y z
#    x 1.648970 0.000000 -0.029860 
#    y 0.000000 1.644910 0.000000 
#    z -0.029860 0.000000 1.595800 
# 
# From -- ./inp_files/84241.got.cif
#   From: 2010.05.17/outbox.cif.g08.bks.cpg/sg12_43_cif.got.tgz:84241.got - 2010.06.03 13:09:07.
