data_PCOD9198058
_publ_section_title
;
Structure prediction by ZEFSAII (Michael W. Deem and Ramdas Pophale) SiO2 
 PCOD9198058
Probable space group: C 2/M
;
_chemical_formula_sum "Si O2"
_cell_formula_units_Z 56
_cell_length_a 8.514799
_cell_length_b 11.076407
_cell_length_c 32.060704
_cell_angle_alpha 90.000000
_cell_angle_beta 117.459975
_cell_angle_gamma 90.000000
_cell_volume 2683.076661
_symmetry_space_group_name_H-M "C 2/M"
_symmetry_group_IT_number 12
_symmetry_cell_setting 'monoclinic'
loop_
_space_group_symop_operation_xyz
x,y,z
-x,y,-z
-x,-y,-z
x,-y,z
1/2+x,1/2+y,z
1/2-x,1/2+y,-z
1/2-x,1/2-y,-z
1/2+x,1/2-y,z
loop_
_atom_site_type_symbol
_atom_site_label
_atom_site_fract_x
_atom_site_fract_y
_atom_site_fract_z
Si Si1 0.078849 0.632975 0.156664
Si Si2 0.422374 0.136521 0.743858
Si Si3 0.694900 0.363729 0.964660
Si Si4 0.521514 0.361650 0.702582
Si Si5 0.933400 0.186397 0.535103
Si Si6 0.303507 0.716778 0.902064
Si Si7 0.751893 0.631545 0.404701
O O1 0.152081 0.500000 0.156897
O O2 0.876078 0.642016 0.116232
O O3 0.078234 0.649336 0.206123
O O4 0.180374 0.733200 0.142821
O O5 0.514170 0.251346 0.734142
O O6 0.215649 0.139849 0.705925
O O7 0.491461 0.000000 0.742547
O O8 0.743019 0.500000 0.983999
O O9 0.482209 0.354029 0.934523
O O10 0.782256 0.329969 0.930900
O O11 0.750000 0.250000 0.000000
O O12 0.499084 0.500000 0.716741
O O13 0.369656 0.339925 0.649866
O O14 0.750000 0.250000 0.500000
O O15 0.876598 0.124202 0.570956
O O16 0.000000 0.127075 0.500000
O O17 0.091095 0.276489 0.567116
O O18 0.834294 0.500000 0.408019
#
# Coordination Sequence:
#
# PCOD9198058 Si02
#       7
#     8   8   8   8   8   8   8
#     4  10  20  37  59  83 114 150 186 231 285 335
#     4  10  21  37  59  87 117 149 189 236 283 335
#     4  11  24  40  60  86 115 150 192 236 284 338
#     4  10  21  37  57  83 116 153 191 232 280 337
#     4   9  19  34  53  79 106 136 181 229 274 332
#     4  10  22  38  59  84 114 149 190 234 280 338
#     4  10  20  36  56  77 109 148 183 226 279 334
#
# _framework density 20.871561
#
# number of rings (size 3 to 8) (size 9 to 14) (size 15 to 20)
#    0.000    2.000    0.000    3.000    0.000    8.000 
#    0.000    6.429    0.000    0.000    0.000    0.000 
#    0.000    0.000    0.000    0.000    0.000    0.000 
#
# Total GULP energy -156123.427412 kJ/mol
# GULP energy per Si atom -5575.836693 kJ/mol
# Density = 2.082406 g / cm^3
# Si number density = 20.871561 Si / 1000 Ang^3
#
#
#
# Elastic Constant Matrix: (Units=GPa)
#
#
# Indices 1 2 3 4 5 6 
#
# 1 58.3637 23.7008 -2.7640 0.0000 3.2624 0.0000
# 2 23.7008 122.7867 34.6163 0.0000 -7.1222 0.0000
# 3 -2.7640 34.6163 60.3439 0.0000 0.3984 0.0000
# 4 0.0000 0.0000 0.0000 37.6442 0.0000 -1.4096
# 5 3.2624 -7.1222 0.3984 0.0000 32.0886 0.0000
# 6 0.0000 0.0000 0.0000 -1.4096 0.0000 13.9479
#
#
#
# Elastic Compliance Matrix: (Units=1/GPa)
#
#
# Indices 1 2 3 4 5 6 
#
# 1 0.019529 -0.005022 0.003796 0.000000 -0.003147 0.000000
# 2 -0.005022 0.011169 -0.006657 0.000000 0.003072 0.000000
# 3 0.003796 -0.006657 0.020579 0.000000 -0.002119 0.000000
# 4 0.000000 0.000000 0.000000 0.026665 0.000000 0.002695
# 5 -0.003147 0.003072 -0.002119 0.000000 0.032192 0.000000
# 6 0.000000 0.000000 0.000000 0.002695 0.000000 0.071968
#
#
# Mechanical properties :
#
#
# Convention : Reuss Voigt Hill
#
# Bulk Modulus (GPa) = 28.16117 39.17781 33.66949
# Shear Modulus (GPa) = 23.84304 29.13222 26.48763
#
# Velocity S-wave (km/s) = 3.38356 3.74007 3.56628
# Velocity P-wave (km/s) = 5.36531 6.12066 5.75539
#
# Compressibility (1/GPa) = 0.03550989
#
# Stress axis : x y z
#
# Youngs Moduli (GPa) = 51.20527 89.53591 48.59434
#
# Poissons Ratio (x) = 0.44969 -0.18449
# Poissons Ratio (y) = 0.25718 0.32351
# Poissons Ratio (z) = -0.19440 0.59606
#
# Static dielectric constant tensor:
#      x y z
#    x 1.728120 0.000000 -0.015400 
#    y 0.000000 1.758650 0.000000 
#    z -0.015400 0.000000 1.771760 
# 
# From -- ./inp_files/372218.got.cif
#   From: 2010.05.17/outbox.cif.g08.bks.cpg/sg12_187_cif.got.tgz:372218.got - 2010.06.03 13:09:07.
