data_PCOD9198293
_publ_section_title
;
Structure prediction by ZEFSAII (Michael W. Deem and Ramdas Pophale) SiO2 
 PCOD9198293
Probable space group: C 2/M
;
_chemical_formula_sum "Si O2"
_cell_formula_units_Z 48
_cell_length_a 20.719259
_cell_length_b 8.681004
_cell_length_c 15.895447
_cell_angle_alpha 90.000000
_cell_angle_beta 71.204630
_cell_angle_gamma 90.000000
_cell_volume 2706.561915
_symmetry_space_group_name_H-M "C 2/M"
_symmetry_group_IT_number 12
_symmetry_cell_setting 'monoclinic'
loop_
_space_group_symop_operation_xyz
x,y,z
-x,y,-z
-x,-y,-z
x,-y,z
1/2+x,1/2+y,z
1/2-x,1/2+y,-z
1/2-x,1/2-y,-z
1/2+x,1/2-y,z
loop_
_atom_site_type_symbol
_atom_site_label
_atom_site_fract_x
_atom_site_fract_y
_atom_site_fract_z
Si Si1 0.157195 0.814844 0.601593
Si Si2 0.203783 0.183511 0.394688
Si Si3 0.680183 0.684175 0.066142
Si Si4 0.039037 0.684932 0.069396
Si Si5 0.369223 0.816652 0.737065
Si Si6 0.509351 0.314843 0.734680
O O1 0.167959 0.776327 0.498737
O O2 0.217837 0.734368 0.627198
O O3 0.082582 0.772816 0.665977
O O4 0.165174 0.000000 0.606244
O O5 0.168012 0.266594 0.332200
O O6 0.199463 0.000000 0.384869
O O7 0.680715 0.500000 0.064653
O O8 0.615012 0.746216 0.041713
O O9 0.667974 0.742882 0.166349
O O10 0.750000 0.750000 0.000000
O O11 0.043150 0.500000 0.075103
O O12 0.000166 0.751615 0.166970
O O13 0.000000 0.723722 0.000000
O O14 0.446547 0.754192 0.708370
O O15 0.369424 0.000000 0.746227
O O16 0.503247 0.500000 0.738160
#
# Coordination Sequence:
#
# PCOD9198293 Si02
#       6
#     8   8   8   8   8   8
#     4   9  20  37  56  80 110 143 180 225 274 325
#     4  10  20  36  57  80 109 144 182 224 272 324
#     4  11  22  38  59  82 110 143 181 223 270 321
#     4  10  21  37  56  80 111 144 180 222 268 320
#     4  11  22  37  56  80 111 143 181 225 269 320
#     4  10  20  36  57  80 108 141 180 224 271 322
#
# _framework density 17.734677000000001
#
# number of rings (size 3 to 8) (size 9 to 14) (size 15 to 20)
#    0.000    1.833    0.000    6.500    0.000    5.333 
#    0.000    6.667    0.000    0.000    0.000    0.000 
#    0.000    0.000    0.000    0.000    0.000    0.000 
#
# Total GULP energy -134071.717921 kJ/mol
# GULP energy per Si atom -5586.321580 kJ/mol
# Density = 1.769431 g / cm^3
# Si number density = 17.734677 Si / 1000 Ang^3
#
#
#
# Elastic Constant Matrix: (Units=GPa)
#
#
# Indices 1 2 3 4 5 6 
#
# 1 163.9634 75.4106 114.7797 0.0000 -5.7133 0.0000
# 2 75.4106 103.9689 56.5163 0.0000 0.7829 0.0000
# 3 114.7797 56.5163 92.5087 0.0000 -4.0065 0.0000
# 4 0.0000 0.0000 0.0000 29.0888 0.0000 2.7639
# 5 -5.7133 0.7829 -4.0065 0.0000 42.7425 0.0000
# 6 0.0000 0.0000 0.0000 2.7639 0.0000 35.8015
#
#
#
# Elastic Compliance Matrix: (Units=1/GPa)
#
#
# Indices 1 2 3 4 5 6 
#
# 1 0.047336 -0.003656 -0.056451 0.000000 0.001103 0.000000
# 2 -0.003656 0.014734 -0.004516 0.000000 -0.001182 0.000000
# 3 -0.056451 -0.004516 0.083626 0.000000 0.000376 0.000000
# 4 0.000000 0.000000 0.000000 0.034631 0.000000 -0.002674
# 5 0.001103 -0.001182 0.000376 0.000000 0.023600 0.000000
# 6 0.000000 0.000000 0.000000 -0.002674 0.000000 0.028138
#
#
# Mechanical properties :
#
#
# Convention : Reuss Voigt Hill
#
# Bulk Modulus (GPa) = 60.79001 94.87271 77.83136
# Shear Modulus (GPa) = 13.63152 29.10888 21.37020
#
# Velocity S-wave (km/s) = 2.77544 4.05576 3.47507
# Velocity P-wave (km/s) = 6.68002 8.69160 7.75134
#
# Compressibility (1/GPa) = 0.01645007
#
# Stress axis : x y z
#
# Youngs Moduli (GPa) = 21.12535 67.87001 11.95794
#
# Poissons Ratio (x) = 0.24815 0.67504
# Poissons Ratio (y) = 0.07724 0.05400
# Poissons Ratio (z) = 1.19255 0.30651
#
# Static dielectric constant tensor:
#      x y z
#    x 1.578610 0.000000 -0.002780 
#    y 0.000000 1.595300 0.000000 
#    z -0.002780 0.000000 1.583370 
# 
# From -- ./inp_files/229941.got.cif
#   From: 2010.05.17/outbox.cif.g08.bks.cpg/sg12_115_cif.got.tgz:229941.got - 2010.06.03 13:09:07.
