data_PCOD9198082
_publ_section_title
;
Structure prediction by ZEFSAII (Michael W. Deem and Ramdas Pophale) SiO2 
 PCOD9198082
Probable space group: C 2/M
;
_chemical_formula_sum "Si O2"
_cell_formula_units_Z 48
_cell_length_a 9.243638
_cell_length_b 12.787340
_cell_length_c 25.501591
_cell_angle_alpha 90.000000
_cell_angle_beta 123.333326
_cell_angle_gamma 90.000000
_cell_volume 2518.433996
_symmetry_space_group_name_H-M "C 2/M"
_symmetry_group_IT_number 12
_symmetry_cell_setting 'monoclinic'
loop_
_space_group_symop_operation_xyz
x,y,z
-x,y,-z
-x,-y,-z
x,-y,z
1/2+x,1/2+y,z
1/2-x,1/2+y,-z
1/2-x,1/2-y,-z
1/2+x,1/2-y,z
loop_
_atom_site_type_symbol
_atom_site_label
_atom_site_fract_x
_atom_site_fract_y
_atom_site_fract_z
Si Si1 0.137782 0.626085 0.486627
Si Si2 0.892624 0.625568 0.641128
Si Si3 0.114215 0.623712 0.075049
Si Si4 0.325231 0.872935 0.218434
Si Si5 0.532264 0.247176 0.854513
Si Si6 0.484616 0.382042 0.433772
O O1 0.147275 0.500000 0.494355
O O2 0.081581 0.640017 0.415538
O O3 0.000000 0.668415 0.500000
O O4 0.328289 0.663941 0.541196
O O5 0.881676 0.500000 0.646064
O O6 0.047882 0.660619 0.708742
O O7 0.700010 0.667326 0.616559
O O8 0.137097 0.500000 0.089600
O O9 0.299668 0.679538 0.104089
O O10 0.016275 0.678269 0.104267
O O11 0.000000 0.636325 0.000000
O O12 0.415184 0.827851 0.183598
O O13 0.137766 0.819137 0.188644
O O14 0.311112 0.000000 0.213768
O O15 0.500000 0.393289 0.500000
O O16 0.481241 0.500000 0.410835
#
# Coordination Sequence:
#
# PCOD9198082 Si02
#       6
#     8   8   8   8   8   8
#     4   8  12  19  34  61  94 121 158 219 274 317
#     4   8  14  25  42  64  92 131 174 212 261 324
#     4  10  20  36  59  86 116 148 183 225 270 317
#     4  10  20  36  56  78 110 149 186 226 270 323
#     4  10  21  36  56  84 114 148 186 224 268 320
#     4   7  10  18  33  55  84 117 158 207 255 309
#
# _framework density 19.059462
#
# number of rings (size 3 to 8) (size 9 to 14) (size 15 to 20)
#    0.000    3.167    0.000    3.500    0.000    0.000 
#    0.000    3.333    0.000   18.000    0.000   15.167 
#    0.000    0.000    0.000    0.000    0.000   57.333 
#
# Total GULP energy -133774.643078 kJ/mol
# GULP energy per Si atom -5573.943462 kJ/mol
# Density = 1.901608 g / cm^3
# Si number density = 19.059462 Si / 1000 Ang^3
#
#
#
# Elastic Constant Matrix: (Units=GPa)
#
#
# Indices 1 2 3 4 5 6 
#
# 1 146.1629 33.6059 70.5726 0.0000 31.7398 0.0000
# 2 33.6059 98.1644 46.9125 0.0000 14.0279 0.0000
# 3 70.5726 46.9125 130.6909 0.0000 28.4872 0.0000
# 4 0.0000 0.0000 0.0000 22.1448 0.0000 8.3535
# 5 31.7398 14.0279 28.4872 0.0000 23.4677 0.0000
# 6 0.0000 0.0000 0.0000 8.3535 0.0000 -3.2289
#
#
#
# Elastic Compliance Matrix: (Units=1/GPa)
#
#
# Indices 1 2 3 4 5 6 
#
# 1 0.010837 -0.000629 -0.003417 0.000000 -0.010132 0.000000
# 2 -0.000629 0.012461 -0.003665 0.000000 -0.002149 0.000000
# 3 -0.003417 -0.003665 0.012684 0.000000 -0.008584 0.000000
# 4 0.000000 0.000000 0.000000 0.022854 0.000000 0.059125
# 5 -0.010132 -0.002149 -0.008584 0.000000 0.068020 0.000000
# 6 0.000000 0.000000 0.000000 0.059125 0.000000 -0.156740
#
#
# Mechanical properties :
#
#
# Convention : Reuss Voigt Hill
#
# Bulk Modulus (GPa) = 48.64104 75.24446 61.94275
# Shear Modulus (GPa) = -657.00744 23.40520 -316.80112
#
# Velocity S-wave (km/s) = -18.58663 3.50810 -12.90651
# Velocity P-wave (km/s) = 20.85764 7.48154 13.76713
#
# Compressibility (1/GPa) = 0.02055877
#
# Stress axis : x y z
#
# Youngs Moduli (GPa) = 92.28060 80.25152 78.84163
#
# Poissons Ratio (x) = 0.05046 0.26944
# Poissons Ratio (y) = 0.05802 0.28895
# Poissons Ratio (z) = 0.31537 0.29411
#
# Static dielectric constant tensor:
#      x y z
#    x 1.691420 0.000000 0.026890 
#    y 0.000000 1.707640 0.000000 
#    z 0.026890 0.000000 1.638250 
# 
# From -- ./inp_files/356364.got.cif
#   From: 2010.05.17/outbox.cif.g08.bks.cpg/sg12_179_cif.got.tgz:356364.got - 2010.06.03 13:09:07.
