data_PCOD9198366
_publ_section_title
;
Structure prediction by ZEFSAII (Michael W. Deem and Ramdas Pophale) SiO2 
 PCOD9198366
Probable space group: C 2/M
;
_chemical_formula_sum "Si O2"
_cell_formula_units_Z 58
_cell_length_a 20.094524
_cell_length_b 9.784478
_cell_length_c 16.363765
_cell_angle_alpha 90.000000
_cell_angle_beta 72.691034
_cell_angle_gamma 90.000000
_cell_volume 3071.652092
_symmetry_space_group_name_H-M "C 2/M"
_symmetry_group_IT_number 12
_symmetry_cell_setting 'monoclinic'
loop_
_space_group_symop_operation_xyz
x,y,z
-x,y,-z
-x,-y,-z
x,-y,z
1/2+x,1/2+y,z
1/2-x,1/2+y,-z
1/2-x,1/2-y,-z
1/2+x,1/2-y,z
loop_
_atom_site_type_symbol
_atom_site_label
_atom_site_fract_x
_atom_site_fract_y
_atom_site_fract_z
Si Si1 0.565639 0.257718 0.582118
Si Si2 0.023542 0.660226 0.232628
Si Si3 0.000000 0.000000 0.500000
Si Si4 0.353454 0.849317 0.592989
Si Si5 0.804137 0.662877 0.196640
Si Si6 0.854932 0.162705 0.749098
Si Si7 0.949503 0.665177 0.089202
Si Si8 0.805783 0.844568 0.356456
O O1 0.521902 0.185796 0.669330
O O2 0.523488 0.381108 0.557459
O O3 0.590724 0.163173 0.498700
O O4 0.637093 0.312497 0.596737
O O5 0.042124 0.500000 0.220632
O O6 0.090460 0.757280 0.215367
O O7 0.979518 0.696883 0.167991
O O8 0.362252 0.730372 0.656366
O O9 0.274922 0.836283 0.586466
O O10 0.358332 0.000000 0.630724
O O11 0.810035 0.500000 0.209157
O O12 0.725368 0.687273 0.195684
O O13 0.868366 0.706331 0.115990
O O14 0.812732 0.740809 0.278931
O O15 0.867594 0.000000 0.740769
O O16 0.949973 0.500000 0.082303
O O17 0.000000 0.719477 0.000000
O O18 0.816820 0.000000 0.323304
#
# Coordination Sequence:
#
# PCOD9198366 Si02
#       8
#     8   8   2   8   8   8   8   8
#     4  12  23  37  54  78 118 155 201 237 290 341
#     4  11  23  38  62  87 117 155 200 244 293 350
#     4  12  28  36  50  80 118 160 194 238 286 348
#     4  10  22  37  56  80 113 150 198 249 288 330
#     4   9  18  37  61  88 115 150 193 238 292 351
#     4  10  22  37  58  83 119 158 193 237 292 350
#     4   9  18  36  64  94 118 145 191 245 294 350
#     4  10  20  36  57  82 110 151 194 245 287 342
#
# _framework density 18.882346999999999
#
# number of rings (size 3 to 8) (size 9 to 14) (size 15 to 20)
#    0.000    1.793    2.069    2.069    3.862    1.103 
#    0.000    2.759    0.000    1.655    0.000    0.000 
#    0.000    0.000    0.000    0.000    0.000    0.000 
#
# Total GULP energy -161578.956104 kJ/mol
# GULP energy per Si atom -5571.688142 kJ/mol
# Density = 1.883937 g / cm^3
# Si number density = 18.882347 Si / 1000 Ang^3
#
#
#
# Elastic Constant Matrix: (Units=GPa)
#
#
# Indices 1 2 3 4 5 6 
#
# 1 102.7876 42.7216 33.9174 0.0000 -18.8795 0.0000
# 2 42.7216 76.3885 17.1992 0.0000 -10.0309 0.0000
# 3 33.9174 17.1992 77.0358 0.0000 -32.1955 0.0000
# 4 0.0000 0.0000 0.0000 12.3842 0.0000 8.6297
# 5 -18.8795 -10.0309 -32.1955 0.0000 24.4017 0.0000
# 6 0.0000 0.0000 0.0000 8.6297 0.0000 18.6194
#
#
#
# Elastic Compliance Matrix: (Units=1/GPa)
#
#
# Indices 1 2 3 4 5 6 
#
# 1 0.014326 -0.006768 -0.002958 0.000000 0.004399 0.000000
# 2 -0.006768 0.017123 -0.000200 0.000000 0.001538 0.000000
# 3 -0.002958 -0.000200 0.029732 0.000000 0.036857 0.000000
# 4 0.000000 0.000000 0.000000 0.119267 0.000000 -0.055278
# 5 0.004399 0.001538 0.036857 0.000000 0.093646 0.000000
# 6 0.000000 0.000000 0.000000 -0.055278 0.000000 0.079328
#
#
# Mechanical properties :
#
#
# Convention : Reuss Voigt Hill
#
# Bulk Modulus (GPa) = 24.19655 49.32094 36.75874
# Shear Modulus (GPa) = 12.91821 21.90597 17.41209
#
# Velocity S-wave (km/s) = 2.61845 3.40976 3.03996
# Velocity P-wave (km/s) = 4.68870 6.45591 5.64193
#
# Compressibility (1/GPa) = 0.04132821
#
# Stress axis : x y z
#
# Youngs Moduli (GPa) = 69.80333 58.39961 33.63429
#
# Poissons Ratio (x) = 0.39527 0.09948
# Poissons Ratio (y) = 0.47246 0.00673
# Poissons Ratio (z) = 0.20647 0.01169
#
# Static dielectric constant tensor:
#      x y z
#    x 1.694570 0.000000 -0.035330 
#    y 0.000000 1.640750 0.000000 
#    z -0.035330 0.000000 1.641420 
# 
# From -- ./inp_files/281129.got.cif
#   From: 2010.05.17/outbox.cif.g08.bks.cpg/sg12_141_cif.got.tgz:281129.got - 2010.06.03 13:09:07.
