data_PCOD9198734
_publ_section_title
;
Structure prediction by ZEFSAII (Michael W. Deem and Ramdas Pophale) SiO2 
 PCOD9198734
Probable space group: C 2/M
;
_chemical_formula_sum "Si O2"
_cell_formula_units_Z 64
_cell_length_a 14.679327
_cell_length_b 8.458982
_cell_length_c 28.500883
_cell_angle_alpha 90.000000
_cell_angle_beta 118.021285
_cell_angle_gamma 90.000000
_cell_volume 3124.148471
_symmetry_space_group_name_H-M "C 2/M"
_symmetry_group_IT_number 12
_symmetry_cell_setting 'monoclinic'
loop_
_space_group_symop_operation_xyz
x,y,z
-x,y,-z
-x,-y,-z
x,-y,z
1/2+x,1/2+y,z
1/2-x,1/2+y,-z
1/2-x,1/2-y,-z
1/2+x,1/2-y,z
loop_
_atom_site_type_symbol
_atom_site_label
_atom_site_fract_x
_atom_site_fract_y
_atom_site_fract_z
Si Si1 0.324366 0.690856 0.584333
Si Si2 0.833683 0.308427 0.091150
Si Si3 0.208610 0.682226 0.231707
Si Si4 0.606951 0.312085 0.296896
Si Si5 0.889513 0.816184 0.962509
Si Si6 0.112328 0.313712 0.788509
Si Si7 0.396089 0.691265 0.500466
Si Si8 0.046690 0.179418 0.126495
O O1 0.324258 0.500000 0.584292
O O2 0.372105 0.744558 0.645068
O O3 0.386103 0.742207 0.552530
O O4 0.207327 0.749061 0.549797
O O5 0.834269 0.500000 0.087710
O O6 0.720444 0.248844 0.048847
O O7 0.854081 0.265833 0.150754
O O8 0.930678 0.235112 0.087940
O O9 0.238119 0.500000 0.237194
O O10 0.185387 0.735651 0.278742
O O11 0.295562 0.779850 0.225463
O O12 0.102174 0.709863 0.177368
O O13 0.621202 0.500000 0.298761
O O14 0.491174 0.272283 0.252872
O O15 0.888438 0.820412 0.905624
O O16 0.894188 0.000000 0.980386
O O17 0.000000 0.739255 0.000000
O O18 0.090923 0.500000 0.784862
O O19 0.500000 0.745970 0.500000
O O20 0.395383 0.500000 0.499374
O O21 0.045092 0.000000 0.144412
#
# Coordination Sequence:
#
# PCOD9198734 Si02
#       8
#     8   8   8   8   8   8   8   8
#     4   9  20  37  56  84 119 152 190 238 287 336
#     4  10  20  36  58  84 113 146 186 232 283 347
#     4  12  24  38  58  84 114 153 197 242 292 347
#     4  11  23  39  58  85 122 158 197 245 290 342
#     4   9  19  37  59  82 112 150 188 232 289 348
#     4  11  22  38  59  86 116 152 193 237 292 352
#     4   9  18  35  60  86 115 153 194 234 283 342
#     4  11  21  36  59  85 112 147 190 235 287 346
#
# _framework density 20.485582000000001
#
# number of rings (size 3 to 8) (size 9 to 14) (size 15 to 20)
#    0.000    1.750    2.500    2.250    0.000    3.250 
#    0.000    1.250    0.000    2.625    0.000    0.000 
#    0.000    0.000    0.000    0.000    0.000    0.000 
#
# Total GULP energy -178761.995073 kJ/mol
# GULP energy per Si atom -5586.312346 kJ/mol
# Density = 2.043896 g / cm^3
# Si number density = 20.485582 Si / 1000 Ang^3
#
#
#
# Elastic Constant Matrix: (Units=GPa)
#
#
# Indices 1 2 3 4 5 6 
#
# 1 111.5771 -8.4413 11.9618 0.0000 -2.9145 0.0000
# 2 -8.4413 17.4150 3.7821 0.0000 -4.1865 0.0000
# 3 11.9618 3.7821 65.8201 0.0000 -7.6075 0.0000
# 4 0.0000 0.0000 0.0000 15.6310 0.0000 7.1683
# 5 -2.9145 -4.1865 -7.6075 0.0000 15.2736 0.0000
# 6 0.0000 0.0000 0.0000 7.1683 0.0000 27.4183
#
#
#
# Elastic Compliance Matrix: (Units=1/GPa)
#
#
# Indices 1 2 3 4 5 6 
#
# 1 0.009648 0.005667 -0.001790 0.000000 0.002503 0.000000
# 2 0.005667 0.064977 -0.002738 0.000000 0.017528 0.000000
# 3 -0.001790 -0.002738 0.016499 0.000000 0.007126 0.000000
# 4 0.000000 0.000000 0.000000 0.072691 0.000000 -0.019005
# 5 0.002503 0.017528 0.007126 0.000000 0.074304 0.000000
# 6 0.000000 0.000000 0.000000 -0.019005 0.000000 0.041441
#
#
# Mechanical properties :
#
#
# Convention : Reuss Voigt Hill
#
# Bulk Modulus (GPa) = 10.70615 23.26859 16.98737
# Shear Modulus (GPa) = 16.21189 24.16521 20.18855
#
# Velocity S-wave (km/s) = 2.81620 3.43829 3.14267
# Velocity P-wave (km/s) = 3.97645 5.21014 4.63453
#
# Compressibility (1/GPa) = 0.09340422
#
# Stress axis : x y z
#
# Youngs Moduli (GPa) = 103.64396 15.39002 60.60928
#
# Poissons Ratio (x) = -0.08722 0.10848
# Poissons Ratio (y) = -0.58737 0.16593
# Poissons Ratio (z) = 0.18550 0.04213
#
# Static dielectric constant tensor:
#      x y z
#    x 1.725330 0.000000 -0.009030 
#    y 0.000000 1.692950 0.000000 
#    z -0.009030 0.000000 1.738760 
# 
# From -- ./inp_files/375085.got.cif
#   From: 2010.05.17/outbox.cif.g08.bks.cpg/sg12_188_cif.got.tgz:375085.got - 2010.06.03 13:09:07.
