data_PCOD9198935
_publ_section_title
;
Structure prediction by ZEFSAII (Michael W. Deem and Ramdas Pophale) SiO2 
 PCOD9198935
Probable space group: C 2/M
;
_chemical_formula_sum "Si O2"
_cell_formula_units_Z 64
_cell_length_a 18.721691
_cell_length_b 7.724841
_cell_length_c 31.511831
_cell_angle_alpha 90.000000
_cell_angle_beta 137.745998
_cell_angle_gamma 90.000000
_cell_volume 3064.417401
_symmetry_space_group_name_H-M "C 2/M"
_symmetry_group_IT_number 12
_symmetry_cell_setting 'monoclinic'
loop_
_space_group_symop_operation_xyz
x,y,z
-x,y,-z
-x,-y,-z
x,-y,z
1/2+x,1/2+y,z
1/2-x,1/2+y,-z
1/2-x,1/2-y,-z
1/2+x,1/2-y,z
loop_
_atom_site_type_symbol
_atom_site_label
_atom_site_fract_x
_atom_site_fract_y
_atom_site_fract_z
Si Si1 0.919542 0.702418 0.802659
Si Si2 0.476088 0.787386 0.313298
Si Si3 0.669959 0.711024 0.068804
Si Si4 0.408466 0.787907 0.189270
Si Si5 0.989714 0.790518 0.926936
Si Si6 0.785829 0.705353 0.563232
Si Si7 0.882108 0.292392 0.437878
Si Si8 0.680098 0.796432 0.681924
O O1 0.905377 0.500000 0.787618
O O2 0.968778 0.724734 0.870844
O O3 0.802663 0.781009 0.748524
O O4 0.000964 0.772351 0.803308
O O5 0.435497 0.735229 0.249055
O O6 0.596148 0.726912 0.374604
O O7 0.397278 0.725538 0.315685
O O8 0.475567 0.000000 0.313179
O O9 0.670457 0.500000 0.068722
O O10 0.790963 0.769918 0.123956
O O11 0.604276 0.761952 0.082003
O O12 0.599766 0.765448 0.997497
O O13 0.407587 0.000000 0.187890
O O14 0.989348 0.000000 0.925228
O O15 0.793264 0.500000 0.568974
O O16 0.750000 0.750000 0.500000
O O17 0.699944 0.759729 0.560354
O O18 0.890335 0.500000 0.438033
O O19 0.840978 0.224099 0.374410
O O20 0.000000 0.225010 0.500000
O O21 0.654973 0.000000 0.668696
#
# Coordination Sequence:
#
# PCOD9198935 Si02
#       8
#     8   8   8   8   8   8   8   8
#     4  11  22  33  48  75 110 142 170 209 264 319
#     4   9  18  34  57  80 101 134 180 224 265 312
#     4   8  15  30  54  78  96 125 174 221 256 302
#     4   9  17  30  49  74 104 135 169 211 260 314
#     4   9  17  32  55  78  98 127 173 221 258 304
#     4  11  22  37  58  84 114 147 184 224 270 325
#     4  10  21  38  59  84 114 145 181 226 273 322
#     4  10  20  36  59  80 101 136 180 223 264 309
#
# _framework density 20.884882000000001
#
# number of rings (size 3 to 8) (size 9 to 14) (size 15 to 20)
#    0.000    2.375    0.000    3.750    0.000    6.250 
#    0.000    3.750    0.000    8.250    0.000    0.000 
#    0.000    0.000    0.000    0.000    0.000    0.000 
#
# Total GULP energy -178737.372862 kJ/mol
# GULP energy per Si atom -5585.542902 kJ/mol
# Density = 2.083735 g / cm^3
# Si number density = 20.884882 Si / 1000 Ang^3
#
#
#
# Elastic Constant Matrix: (Units=GPa)
#
#
# Indices 1 2 3 4 5 6 
#
# 1 201.0138 0.7567 123.1345 -0.0001 3.0038 0.0001
# 2 0.7567 30.1711 -3.7483 -0.0002 1.1823 0.0002
# 3 123.1345 -3.7483 173.6550 0.0000 3.1102 0.0001
# 4 -0.0001 -0.0002 0.0000 3.0035 0.0000 -4.0699
# 5 3.0038 1.1823 3.1102 0.0000 43.2218 -0.0001
# 6 0.0001 0.0002 0.0001 -4.0699 -0.0001 15.2441
#
#
#
# Elastic Compliance Matrix: (Units=1/GPa)
#
#
# Indices 1 2 3 4 5 6 
#
# 1 0.008826 -0.000996 -0.006277 0.000000 -0.000134 0.000000
# 2 -0.000996 0.033386 0.001444 0.000002 -0.000948 0.000000
# 3 -0.006277 0.001444 0.010247 0.000000 -0.000341 0.000000
# 4 0.000000 0.000002 0.000000 0.521667 0.000000 0.139275
# 5 -0.000134 -0.000948 -0.000341 0.000000 0.023196 0.000000
# 6 0.000000 0.000000 0.000000 0.139275 0.000000 0.102783
#
#
# Mechanical properties :
#
#
# Convention : Reuss Voigt Hill
#
# Bulk Modulus (GPa) = 24.50999 71.68064 48.09531
# Shear Modulus (GPa) = 6.89310 31.27369 19.08339
#
# Velocity S-wave (km/s) = 1.81871 3.87386 3.02610
# Velocity P-wave (km/s) = 4.02138 7.37600 5.94041
#
# Compressibility (1/GPa) = 0.04079969
#
# Stress axis : x y z
#
# Youngs Moduli (GPa) = 113.30468 29.95283 97.59117
#
# Poissons Ratio (x) = 0.02983 0.61260
# Poissons Ratio (y) = 0.11284 -0.14090
# Poissons Ratio (z) = 0.71124 -0.04325
#
# Static dielectric constant tensor:
#      x y z
#    x 1.706560 0.000000 0.008690 
#    y 0.000000 1.786330 0.000000 
#    z 0.008690 0.000000 1.719380 
# 
# From -- ./inp_files/378452.got.cif
#   From: 2010.05.17/outbox.cif.g08.bks.cpg/sg12_190_cif.got.tgz:378452.got - 2010.06.03 13:09:07.
