data_PCOD9198766
_publ_section_title
;
Structure prediction by ZEFSAII (Michael W. Deem and Ramdas Pophale) SiO2 
 PCOD9198766
Probable space group: C 2/M
;
_chemical_formula_sum "Si O2"
_cell_formula_units_Z 56
_cell_length_a 17.060756
_cell_length_b 17.089270
_cell_length_c 12.803940
_cell_angle_alpha 90.000000
_cell_angle_beta 32.187466
_cell_angle_gamma 90.000000
_cell_volume 1988.570056
_symmetry_space_group_name_H-M "C 2/M"
_symmetry_group_IT_number 12
_symmetry_cell_setting 'monoclinic'
loop_
_space_group_symop_operation_xyz
x,y,z
-x,y,-z
-x,-y,-z
x,-y,z
1/2+x,1/2+y,z
1/2-x,1/2+y,-z
1/2-x,1/2-y,-z
1/2+x,1/2-y,z
loop_
_atom_site_type_symbol
_atom_site_label
_atom_site_fract_x
_atom_site_fract_y
_atom_site_fract_z
Si Si1 0.004905 0.713872 0.324854
Si Si2 0.463931 0.412094 0.893407
Si Si3 0.579838 0.617698 0.306168
Si Si4 0.121744 0.584088 0.103161
Si Si5 0.130278 0.584537 0.772027
Si Si6 0.371234 0.743595 0.274585
Si Si7 0.335818 0.087964 0.634754
O O1 0.045661 0.790487 0.339952
O O2 0.132505 0.650389 0.176617
O O3 0.135767 0.667772 0.467239
O O4 0.008236 0.734094 0.196921
O O5 0.517531 0.500000 0.854787
O O6 0.458698 0.407266 0.770677
O O7 0.574018 0.344186 0.810735
O O8 0.308533 0.404835 0.129562
O O9 0.500000 0.587014 0.500000
O O10 0.751277 0.597279 0.123956
O O11 0.149550 0.500000 0.120221
O O12 0.958577 0.583289 0.238090
O O13 0.216247 0.500000 0.678296
O O14 0.172809 0.677093 0.740298
O O15 0.000000 0.575871 0.000000
O O16 0.250000 0.750000 0.500000
O O17 0.500000 0.085025 0.500000
O O18 0.323632 0.000000 0.599159
#
# Coordination Sequence:
#
# PCOD9198766 Si02
#       7
#     8   8   8   8   8   8   8
#     4  10  21  37  58  84 115 150 196 249 304 365
#     4  10  23  42  62  89 125 161 203 257 312 369
#     4  11  23  36  55  85 120 157 195 240 303 372
#     4  10  20  36  58  84 116 153 196 248 302 364
#     4   9  20  38  60  85 113 150 197 247 296 350
#     4  10  23  40  60  85 116 159 204 252 305 359
#     4  10  20  36  61  90 120 157 198 245 308 375
#
# _framework density 28.160938000000002
#
# number of rings (size 3 to 8) (size 9 to 14) (size 15 to 20)
#    0.000    2.000    0.000    2.571    0.000   12.571 
#    0.000    1.429    0.000    2.143    0.000    0.000 
#    0.000    0.000    0.000    0.000    0.000    0.000 
#
# Total GULP energy -155924.030900 kJ/mol
# GULP energy per Si atom -5568.715389 kJ/mol
# Density = 2.809684 g / cm^3
# Si number density = 28.160938 Si / 1000 Ang^3
#
#
#
# Elastic Constant Matrix: (Units=GPa)
#
#
# Indices 1 2 3 4 5 6 
#
# 1 75.2500 18.5972 15.0229 -0.0002 10.9930 0.0004
# 2 18.5972 264.8913 69.3973 -0.0002 10.6278 0.0002
# 3 15.0229 69.3973 183.6405 0.0001 13.4077 0.0000
# 4 -0.0002 -0.0002 0.0001 94.9412 0.0002 -42.1263
# 5 10.9930 10.6278 13.4077 0.0002 41.0757 -0.0003
# 6 0.0004 0.0002 0.0000 -42.1263 -0.0003 48.7135
#
#
#
# Elastic Compliance Matrix: (Units=1/GPa)
#
#
# Indices 1 2 3 4 5 6 
#
# 1 0.014081 -0.000683 -0.000647 0.000000 -0.003380 0.000000
# 2 -0.000683 0.004237 -0.001515 0.000000 -0.000419 0.000000
# 3 -0.000647 -0.001515 0.006177 0.000000 -0.001451 0.000000
# 4 0.000000 0.000000 0.000000 0.017091 0.000000 0.014780
# 5 -0.003380 -0.000419 -0.001451 0.000000 0.025832 0.000000
# 6 0.000000 0.000000 0.000000 0.014780 0.000000 0.033309
#
#
# Mechanical properties :
#
#
# Convention : Reuss Voigt Hill
#
# Bulk Modulus (GPa) = 53.17854 81.09073 67.13464
# Shear Modulus (GPa) = 44.37179 64.99705 54.68442
#
# Velocity S-wave (km/s) = 3.97375 4.80944 4.41143
# Velocity P-wave (km/s) = 6.32290 7.72650 7.05967
#
# Compressibility (1/GPa) = 0.01880458
#
# Stress axis : x y z
#
# Youngs Moduli (GPa) = 71.01807 236.03206 161.90060
#
# Poissons Ratio (x) = 0.16133 0.10472
# Poissons Ratio (y) = 0.04854 0.24521
# Poissons Ratio (z) = 0.04593 0.35748
#
# Static dielectric constant tensor:
#      x y z
#    x 2.278650 0.000000 0.039070 
#    y 0.000000 2.408400 0.000000 
#    z 0.039070 0.000000 2.180240 
# 
# From -- ./inp_files/234675.got.cif
#   From: 2010.05.17/outbox.cif.g08.bks.cpg/sg12_118_cif.got.tgz:234675.got - 2010.06.03 13:09:07.
