data_PCOD9198015
_publ_section_title
;
Structure prediction by ZEFSAII (Michael W. Deem and Ramdas Pophale) SiO2 
 PCOD9198015
Probable space group: C 2/M
;
_chemical_formula_sum "Si O2"
_cell_formula_units_Z 42
_cell_length_a 29.080613
_cell_length_b 7.525143
_cell_length_c 15.321375
_cell_angle_alpha 90.000000
_cell_angle_beta 32.262875
_cell_angle_gamma 90.000000
_cell_volume 1789.774537
_symmetry_space_group_name_H-M "C 2/M"
_symmetry_group_IT_number 12
_symmetry_cell_setting 'monoclinic'
loop_
_space_group_symop_operation_xyz
x,y,z
-x,y,-z
-x,-y,-z
x,-y,z
1/2+x,1/2+y,z
1/2-x,1/2+y,-z
1/2-x,1/2-y,-z
1/2+x,1/2-y,z
loop_
_atom_site_type_symbol
_atom_site_label
_atom_site_fract_x
_atom_site_fract_y
_atom_site_fract_z
Si Si1 0.668025 0.802713 0.075731
Si Si2 0.973626 0.201874 0.405295
Si Si3 0.165963 0.213326 0.889482
Si Si4 0.673411 0.287814 0.687891
Si Si5 0.535585 0.714453 0.774883
Si Si6 0.000000 0.500000 0.500000
O O1 0.578988 0.695711 0.226731
O O2 0.639315 0.000000 0.149744
O O3 0.750000 0.750000 0.000000
O O4 0.697995 0.796966 0.927389
O O5 0.941209 0.267001 0.361647
O O6 0.955890 0.342295 0.508945
O O7 0.943882 0.000000 0.470240
O O8 0.197295 0.278866 0.745579
O O9 0.177859 0.000000 0.878826
O O10 0.064082 0.254254 0.050772
O O11 0.660141 0.500000 0.720667
O O12 0.750000 0.250000 0.500000
O O13 0.590832 0.217829 0.767518
O O14 0.543533 0.500000 0.761600
#
# Coordination Sequence:
#
# PCOD9198015 Si02
#       6
#     8   8   8   8   8   2
#     4  11  21  38  61  88 120 155 203 257 304 359
#     4  10  21  40  62  89 122 162 204 254 302 365
#     4   9  18  35  60  85 108 151 203 246 296 356
#     4  10  20  36  55  84 119 152 189 240 302 365
#     4   8  16  35  62  81 108 153 201 244 293 350
#     4  12  22  40  60  94 126 156 210 248 312 366
#
# _framework density 23.466643999999999
#
# number of rings (size 3 to 8) (size 9 to 14) (size 15 to 20)
#    0.000    2.286    0.952    3.714    0.000    3.048 
#    5.143    0.000    0.000    3.429    0.000    0.000 
#    0.000    0.000    0.000    0.000    0.000    0.000 
#
# Total GULP energy -117042.204274 kJ/mol
# GULP energy per Si atom -5573.438299 kJ/mol
# Density = 2.341323 g / cm^3
# Si number density = 23.466644 Si / 1000 Ang^3
#
#
#
# Elastic Constant Matrix: (Units=GPa)
#
#
# Indices 1 2 3 4 5 6 
#
# 1 138.9413 4.9056 20.5021 -0.0001 12.8977 0.0000
# 2 4.9056 100.9169 -3.4466 -0.0005 10.2557 0.0003
# 3 20.5021 -3.4466 15.7030 -0.0003 16.1468 0.0001
# 4 -0.0001 -0.0005 -0.0003 21.9233 0.0001 10.0412
# 5 12.8977 10.2557 16.1468 0.0001 34.2221 0.0000
# 6 0.0000 0.0003 0.0001 10.0412 0.0000 11.1099
#
#
#
# Elastic Compliance Matrix: (Units=1/GPa)
#
#
# Indices 1 2 3 4 5 6 
#
# 1 0.009472 -0.001677 -0.018609 -0.000001 0.005713 0.000001
# 2 -0.001677 0.011488 0.014764 0.000001 -0.009777 -0.000002
# 3 -0.018609 0.014764 0.172007 0.000007 -0.078568 -0.000009
# 4 -0.000001 0.000001 0.000007 0.077834 -0.000004 -0.070347
# 5 0.005713 -0.009777 -0.078568 -0.000004 0.067068 0.000005
# 6 0.000001 -0.000002 -0.000009 -0.070347 0.000005 0.153591
#
#
# Mechanical properties :
#
#
# Convention : Reuss Voigt Hill
#
# Bulk Modulus (GPa) = 5.49680 33.27592 19.38636
# Shear Modulus (GPa) = 8.87870 29.02441 18.95155
#
# Velocity S-wave (km/s) = 1.94724 3.52068 2.84491
# Velocity P-wave (km/s) = 2.72087 5.54417 4.36698
#
# Compressibility (1/GPa) = 0.18192387
#
# Stress axis : x y z
#
# Youngs Moduli (GPa) = 105.57305 87.04406 5.81370
#
# Poissons Ratio (x) = 0.14593 0.10819
# Poissons Ratio (y) = 0.17700 -0.08583
# Poissons Ratio (z) = 1.96462 -1.28509
#
# Static dielectric constant tensor:
#      x y z
#    x 1.900850 0.000000 0.034150 
#    y 0.000000 1.977350 0.000000 
#    z 0.034150 0.000000 2.030540 
# 
# From -- ./inp_files/220711.got.cif
#   From: 2010.05.17/outbox.cif.g08.bks.cpg/sg12_111_cif.got.tgz:220711.got - 2010.06.03 13:09:07.
