data_PCOD9198788
_publ_section_title
;
Structure prediction by ZEFSAII (Michael W. Deem and Ramdas Pophale) SiO2 
 PCOD9198788
Probable space group: C 2/M
;
_chemical_formula_sum "Si O2"
_cell_formula_units_Z 48
_cell_length_a 20.012784
_cell_length_b 9.904893
_cell_length_c 17.800243
_cell_angle_alpha 90.000000
_cell_angle_beta 137.834931
_cell_angle_gamma 90.000000
_cell_volume 2368.534448
_symmetry_space_group_name_H-M "C 2/M"
_symmetry_group_IT_number 12
_symmetry_cell_setting 'monoclinic'
loop_
_space_group_symop_operation_xyz
x,y,z
-x,y,-z
-x,-y,-z
x,-y,z
1/2+x,1/2+y,z
1/2-x,1/2+y,-z
1/2-x,1/2-y,-z
1/2+x,1/2-y,z
loop_
_atom_site_type_symbol
_atom_site_label
_atom_site_fract_x
_atom_site_fract_y
_atom_site_fract_z
Si Si1 0.420738 0.150746 0.088612
Si Si2 0.295604 0.355055 0.636593
Si Si3 0.046635 0.656362 0.709999
Si Si4 0.076940 0.217739 0.122536
Si Si5 0.219842 0.162544 0.116311
Si Si6 0.628389 0.655116 0.471742
O O1 0.462882 0.169110 0.207383
O O2 0.509593 0.163785 0.101723
O O3 0.376549 0.000000 0.048439
O O4 0.340477 0.265404 0.001264
O O5 0.242174 0.500000 0.596428
O O6 0.382851 0.354420 0.770185
O O7 0.340366 0.343874 0.590554
O O8 0.218932 0.234170 0.586410
O O9 0.024482 0.500000 0.672335
O O10 0.162540 0.682709 0.790366
O O11 0.972149 0.758496 0.607683
O O12 0.173448 0.234033 0.151152
O O13 0.000000 0.149247 0.000000
O O14 0.202533 0.000000 0.104039
O O15 0.618275 0.500000 0.486976
#
# Coordination Sequence:
#
# PCOD9198788 Si02
#       6
#     8   8   8   8   8   8
#     4  10  21  36  57  83 116 156 196 238 287 341
#     4  10  20  36  58  85 115 148 189 241 290 337
#     4  10  20  38  58  83 116 153 195 239 288 341
#     4  10  21  37  59  88 117 150 191 235 286 343
#     4  10  22  36  56  84 118 155 193 238 287 342
#     4  10  21  36  59  88 112 147 196 244 290 335
#
# _framework density 20.265695999999998
#
# number of rings (size 3 to 8) (size 9 to 14) (size 15 to 20)
#    0.000    2.000    1.667    1.500    0.000   11.667 
#    0.000    0.833    0.000    4.000    0.000    0.000 
#    0.000    0.000    0.000    0.000    0.000    0.000 
#
# Total GULP energy -133744.904162 kJ/mol
# GULP energy per Si atom -5572.704340 kJ/mol
# Density = 2.021957 g / cm^3
# Si number density = 20.265696 Si / 1000 Ang^3
#
#
#
# Elastic Constant Matrix: (Units=GPa)
#
#
# Indices 1 2 3 4 5 6 
#
# 1 63.9442 28.3272 12.2708 0.0000 15.1542 0.0000
# 2 28.3272 110.4474 50.5961 0.0000 34.0658 0.0000
# 3 12.2708 50.5961 89.0727 0.0000 8.3225 0.0000
# 4 0.0000 0.0000 0.0000 21.4361 0.0000 16.9646
# 5 15.1542 34.0658 8.3225 0.0000 28.4225 0.0000
# 6 0.0000 0.0000 0.0000 16.9646 0.0000 16.0077
#
#
#
# Elastic Compliance Matrix: (Units=1/GPa)
#
#
# Indices 1 2 3 4 5 6 
#
# 1 0.018408 -0.002363 -0.000557 0.000000 -0.006820 0.000000
# 2 -0.002363 0.020077 -0.009200 0.000000 -0.020110 0.000000
# 3 -0.000557 -0.009200 0.015907 0.000000 0.006666 0.000000
# 4 0.000000 0.000000 0.000000 0.289238 0.000000 -0.306528
# 5 -0.006820 -0.020110 0.006666 0.000000 0.060971 0.000000
# 6 0.000000 0.000000 0.000000 -0.306528 0.000000 0.387322
#
#
# Mechanical properties :
#
#
# Convention : Reuss Voigt Hill
#
# Bulk Modulus (GPa) = 33.16384 49.53917 41.35151
# Shear Modulus (GPa) = 6.05171 24.65793 15.35482
#
# Velocity S-wave (km/s) = 1.72993 3.49195 2.75558
# Velocity P-wave (km/s) = 4.51556 6.38406 5.52931
#
# Compressibility (1/GPa) = 0.03015333
#
# Stress axis : x y z
#
# Youngs Moduli (GPa) = 54.32286 49.80764 62.86719
#
# Poissons Ratio (x) = 0.11769 0.03499
# Poissons Ratio (y) = 0.12836 0.57838
# Poissons Ratio (z) = 0.03024 0.45823
#
# Static dielectric constant tensor:
#      x y z
#    x 1.744580 0.000000 -0.011430 
#    y 0.000000 1.723450 0.000000 
#    z -0.011430 0.000000 1.710370 
# 
# From -- ./inp_files/323875.got.cif
#   From: 2010.05.17/outbox.cif.g08.bks.cpg/sg12_162_cif.got.tgz:323875.got - 2010.06.03 13:09:07.
