data_PCOD9198078
_publ_section_title
;
Structure prediction by ZEFSAII (Michael W. Deem and Ramdas Pophale) SiO2 
 PCOD9198078
Probable space group: C 2/M
;
_chemical_formula_sum "Si O2"
_cell_formula_units_Z 44
_cell_length_a 13.867456
_cell_length_b 10.055022
_cell_length_c 24.969330
_cell_angle_alpha 90.000000
_cell_angle_beta 34.648785
_cell_angle_gamma 90.000000
_cell_volume 1979.479924
_symmetry_space_group_name_H-M "C 2/M"
_symmetry_group_IT_number 12
_symmetry_cell_setting 'monoclinic'
loop_
_space_group_symop_operation_xyz
x,y,z
-x,y,-z
-x,-y,-z
x,-y,z
1/2+x,1/2+y,z
1/2-x,1/2+y,-z
1/2-x,1/2-y,-z
1/2+x,1/2-y,z
loop_
_atom_site_type_symbol
_atom_site_label
_atom_site_fract_x
_atom_site_fract_y
_atom_site_fract_z
Si Si1 0.800736 0.349457 0.553297
Si Si2 0.682917 0.849719 0.075527
Si Si3 0.538934 0.650913 0.763274
Si Si4 0.000000 0.790293 0.000000
Si Si5 0.991292 0.154693 0.608771
Si Si6 0.758874 0.651493 0.190410
O O1 0.867306 0.500000 0.520655
O O2 0.709726 0.326205 0.651695
O O3 0.645895 0.345942 0.581199
O O4 0.938629 0.244478 0.470880
O O5 0.518856 0.773359 0.173729
O O6 0.651503 0.000000 0.071508
O O7 0.750000 0.750000 0.000000
O O8 0.833439 0.858139 0.051167
O O9 0.543231 0.500000 0.785449
O O10 0.387688 0.647856 0.788182
O O11 0.079829 0.712047 0.912968
O O12 0.831974 0.211759 0.715531
O O13 0.961038 0.000000 0.607429
O O14 0.796006 0.500000 0.187361
#
# Coordination Sequence:
#
# PCOD9198078 Si02
#       6
#     8   8   8   4   8   8
#     4   8  13  22  37  59  90 128 166 207 257 307
#     4  11  23  38  56  81 111 142 179 221 267 318
#     4   8  15  29  47  68  97 133 174 217 260 311
#     4  10  20  36  56  78 109 144 181 224 269 310
#     4   8  13  21  34  59  93 126 166 212 254 303
#     4   8  14  25  44  69  97 134 177 217 260 313
#
# _framework density 22.228062000000001
#
# number of rings (size 3 to 8) (size 9 to 14) (size 15 to 20)
#    0.000    3.273    0.000    3.273    0.000    2.909 
#    0.000   10.000    0.000    0.000    0.000    1.273 
#    0.000    8.727    0.000    0.727    0.000    0.182 
#
# Total GULP energy -122671.670583 kJ/mol
# GULP energy per Si atom -5575.985026 kJ/mol
# Density = 2.217747 g / cm^3
# Si number density = 22.228062 Si / 1000 Ang^3
#
#
#
# Elastic Constant Matrix: (Units=GPa)
#
#
# Indices 1 2 3 4 5 6 
#
# 1 70.5764 13.1063 17.1077 0.0000 -15.4070 0.0000
# 2 13.1063 162.5939 108.6191 0.0000 32.1155 0.0000
# 3 17.1077 108.6191 164.8416 -0.0001 16.8549 0.0000
# 4 0.0000 0.0000 -0.0001 17.8581 0.0000 15.1000
# 5 -15.4070 32.1155 16.8549 0.0000 42.3689 0.0000
# 6 0.0000 0.0000 0.0000 15.1000 0.0000 2.6190
#
#
#
# Elastic Compliance Matrix: (Units=1/GPa)
#
#
# Indices 1 2 3 4 5 6 
#
# 1 0.016630 -0.002220 -0.001098 0.000000 0.008167 0.000000
# 2 -0.002220 0.012771 -0.007414 0.000000 -0.007538 0.000000
# 3 -0.001098 -0.007414 0.010979 0.000000 0.000853 0.000000
# 4 0.000000 0.000000 0.000000 -0.014451 0.000000 0.083315
# 5 0.008167 -0.007538 0.000853 0.000000 0.031947 0.000000
# 6 0.000000 0.000000 0.000000 0.083315 0.000000 -0.098533
#
#
# Mechanical properties :
#
#
# Convention : Reuss Voigt Hill
#
# Bulk Modulus (GPa) = 52.86691 75.07534 63.97112
# Shear Modulus (GPa) = -387.97382 29.84778 -179.06302
#
# Velocity S-wave (km/s) = -13.22578 3.66840 -8.98510
# Velocity P-wave (km/s) = 14.47041 7.19661 8.87698
#
# Compressibility (1/GPa) = 0.01891542
#
# Stress axis : x y z
#
# Youngs Moduli (GPa) = 60.13076 78.30163 91.08691
#
# Poissons Ratio (x) = 0.17384 0.10002
# Poissons Ratio (y) = 0.13350 0.67533
# Poissons Ratio (z) = 0.06603 0.58053
#
# Static dielectric constant tensor:
#      x y z
#    x 1.894210 0.000000 -0.021760 
#    y 0.000000 1.790250 0.000000 
#    z -0.021760 0.000000 1.831710 
# 
# From -- ./inp_files/360711.got.cif
#   From: 2010.05.17/outbox.cif.g08.bks.cpg/sg12_181_cif.got.tgz:360711.got - 2010.06.03 13:09:07.
