data_PCOD9198067
_publ_section_title
;
Structure prediction by ZEFSAII (Michael W. Deem and Ramdas Pophale) SiO2 
 PCOD9198067
Probable space group: C 2/M
;
_chemical_formula_sum "Si O2"
_cell_formula_units_Z 56
_cell_length_a 19.059145
_cell_length_b 9.116431
_cell_length_c 27.753772
_cell_angle_alpha 90.000000
_cell_angle_beta 38.957093
_cell_angle_gamma 90.000000
_cell_volume 3031.936846
_symmetry_space_group_name_H-M "C 2/M"
_symmetry_group_IT_number 12
_symmetry_cell_setting 'monoclinic'
loop_
_space_group_symop_operation_xyz
x,y,z
-x,y,-z
-x,-y,-z
x,-y,z
1/2+x,1/2+y,z
1/2-x,1/2+y,-z
1/2-x,1/2-y,-z
1/2+x,1/2-y,z
loop_
_atom_site_type_symbol
_atom_site_label
_atom_site_fract_x
_atom_site_fract_y
_atom_site_fract_z
Si Si1 0.901893 0.821504 0.156972
Si Si2 0.386859 0.328790 0.539098
Si Si3 0.327234 0.323846 0.301057
Si Si4 0.158796 0.823176 0.013789
Si Si5 0.234339 0.823372 0.865059
Si Si6 0.475186 0.676509 0.732129
Si Si7 0.366604 0.331317 0.437849
O O1 0.836917 0.776794 0.240167
O O2 0.842021 0.774421 0.139418
O O3 0.903101 0.000000 0.155570
O O4 0.031289 0.776150 0.092018
O O5 0.500000 0.263945 0.500000
O O6 0.376867 0.500000 0.559116
O O7 0.276059 0.248002 0.615987
O O8 0.403930 0.325509 0.472845
O O9 0.314440 0.500000 0.309485
O O10 0.442875 0.289327 0.266936
O O11 0.183197 0.788992 0.944712
O O12 0.165314 0.000000 0.016331
O O13 0.250000 0.750000 0.000000
O O14 0.356397 0.753099 0.797734
O O15 0.243397 0.000000 0.857192
O O16 0.459542 0.500000 0.739097
O O17 0.542958 0.725185 0.648271
O O18 0.346056 0.500000 0.434743
O O19 0.250000 0.250000 0.500000
#
# Coordination Sequence:
#
# PCOD9198067 Si02
#       7
#     8   8   8   8   8   8   8
#     4   9  19  36  57  81 111 144 178 221 269 317
#     4  10  22  37  54  77 108 143 180 225 276 323
#     4  10  20  36  56  78 105 142 184 222 266 323
#     4  10  20  37  61  84 111 145 180 219 265 319
#     4  10  21  36  57  85 110 140 183 223 264 318
#     4  10  21  36  55  80 111 144 179 222 277 326
#     4  10  20  36  56  78 106 143 184 226 273 324
#
# _framework density 18.470040999999998
#
# number of rings (size 3 to 8) (size 9 to 14) (size 15 to 20)
#    0.000    2.143    1.429    1.286    2.000    4.857 
#    0.000    1.429    0.000    1.714    0.000    0.000 
#    0.000    0.000    0.000    0.000    0.000    0.000 
#
# Total GULP energy -156210.337594 kJ/mol
# GULP energy per Si atom -5578.940628 kJ/mol
# Density = 1.842800 g / cm^3
# Si number density = 18.470041 Si / 1000 Ang^3
#
#
#
# Elastic Constant Matrix: (Units=GPa)
#
#
# Indices 1 2 3 4 5 6 
#
# 1 110.2723 21.9226 32.9766 0.0000 1.2940 0.0000
# 2 21.9226 8.2514 14.3343 0.0000 4.4526 0.0001
# 3 32.9766 14.3343 76.7277 0.0000 14.4468 0.0000
# 4 0.0000 0.0000 0.0000 27.0595 0.0000 -2.6006
# 5 1.2940 4.4526 14.4468 0.0000 30.6324 0.0000
# 6 0.0000 0.0001 0.0000 -2.6006 0.0000 22.1690
#
#
#
# Elastic Compliance Matrix: (Units=1/GPa)
#
#
# Indices 1 2 3 4 5 6 
#
# 1 0.020850 -0.061334 0.001080 0.000000 0.007525 0.000000
# 2 -0.061334 0.363460 -0.035208 -0.000001 -0.033635 -0.000002
# 3 0.001080 -0.035208 0.019964 0.000000 -0.004343 0.000000
# 4 0.000000 -0.000001 0.000000 0.037377 0.000000 0.004385
# 5 0.007525 -0.033635 -0.004343 0.000000 0.039265 0.000000
# 6 0.000000 -0.000002 0.000000 0.004385 0.000000 0.045622
#
#
# Mechanical properties :
#
#
# Convention : Reuss Voigt Hill
#
# Bulk Modulus (GPa) = 4.68710 37.07982 20.88346
# Shear Modulus (GPa) = 6.34051 24.37338 15.35695
#
# Velocity S-wave (km/s) = 1.85481 3.63659 2.88662
# Velocity P-wave (km/s) = 2.67026 6.14429 4.73722
#
# Compressibility (1/GPa) = 0.21335138
#
# Stress axis : x y z
#
# Youngs Moduli (GPa) = 47.96055 2.75133 50.08947
#
# Poissons Ratio (x) = 0.16875 -0.05411
# Poissons Ratio (y) = 2.94159 1.76357
# Poissons Ratio (z) = -0.05181 0.09687
#
# Static dielectric constant tensor:
#      x y z
#    x 1.592400 0.000000 0.002960 
#    y 0.000000 1.631910 0.000000 
#    z 0.002960 0.000000 1.611140 
# 
# From -- ./inp_files/275066.got.cif
#   From: 2010.05.17/outbox.cif.g08.bks.cpg/sg12_138_cif.got.tgz:275066.got - 2010.06.03 13:09:07.
