data_PCOD9198362
_publ_section_title
;
Structure prediction by ZEFSAII (Michael W. Deem and Ramdas Pophale) SiO2 
 PCOD9198362
Probable space group: C 2/M
;
_chemical_formula_sum "Si O2"
_cell_formula_units_Z 64
_cell_length_a 26.902546
_cell_length_b 23.438899
_cell_length_c 10.278117
_cell_angle_alpha 90.000000
_cell_angle_beta 32.434236
_cell_angle_gamma 90.000000
_cell_volume 3475.979596
_symmetry_space_group_name_H-M "C 2/M"
_symmetry_group_IT_number 12
_symmetry_cell_setting 'monoclinic'
loop_
_space_group_symop_operation_xyz
x,y,z
-x,y,-z
-x,-y,-z
x,-y,z
1/2+x,1/2+y,z
1/2-x,1/2+y,-z
1/2-x,1/2-y,-z
1/2+x,1/2-y,z
loop_
_atom_site_type_symbol
_atom_site_label
_atom_site_fract_x
_atom_site_fract_y
_atom_site_fract_z
Si Si1 0.007114 0.150320 0.130503
Si Si2 0.650612 0.262185 0.431167
Si Si3 0.542060 0.938472 0.201938
Si Si4 0.652121 0.939238 0.217035
Si Si5 0.203031 0.152418 0.095459
Si Si6 0.842187 0.781431 0.062739
Si Si7 0.489163 0.183018 0.679971
Si Si8 0.947374 0.934843 0.478409
O O1 0.919727 0.192991 0.347306
O O2 0.001301 0.099667 0.248055
O O3 0.100518 0.186131 0.952296
O O4 0.000000 0.128940 0.000000
O O5 0.701178 0.295945 0.201531
O O6 0.582238 0.214208 0.523874
O O7 0.736173 0.236852 0.324086
O O8 0.623594 0.938187 0.128973
O O9 0.443687 0.942127 0.493239
O O10 0.536130 0.872149 0.174877
O O11 0.550873 0.000000 0.109183
O O12 0.702191 0.000000 0.133147
O O13 0.702964 0.881215 0.139364
O O14 0.161828 0.176733 0.053449
O O15 0.142793 0.102624 0.294228
O O16 0.905674 0.727922 0.880913
O O17 0.500000 0.169883 0.500000
O O18 0.000000 0.934904 0.500000
O O19 0.929092 0.000000 0.480974
#
# Coordination Sequence:
#
# PCOD9198362 Si02
#       8
#     8   8   8   8   8   8   8   8
#     4  10  23  41  57  77 111 149 189 233 275 330
#     4  10  22  31  51  80 105 141 181 221 278 327
#     4   9  17  27  38  58  96 144 172 199 245 317
#     4   9  16  24  37  60  93 135 172 197 245 310
#     4  11  18  29  48  77 110 138 166 219 277 329
#     4  11  21  32  51  79 107 142 180 224 273 332
#     4  11  18  28  45  70 107 139 173 214 265 328
#     4  10  20  36  57  82 110 140 180 231 279 324
#
# _framework density 18.412075000000002
#
# number of rings (size 3 to 8) (size 9 to 14) (size 15 to 20)
#    0.000    1.875    3.750    3.000    0.000    0.750 
#    0.000    0.000    0.000    0.000    0.000    0.000 
#    0.000    8.000    0.000    0.000    0.000   72.750 
#
# Total GULP energy -178152.908159 kJ/mol
# GULP energy per Si atom -5567.278380 kJ/mol
# Density = 1.837017 g / cm^3
# Si number density = 18.412075 Si / 1000 Ang^3
#
#
#
# Elastic Constant Matrix: (Units=GPa)
#
#
# Indices 1 2 3 4 5 6 
#
# 1 58.6883 28.8678 23.6973 0.0000 -6.9372 0.0000
# 2 28.8678 142.4695 33.9384 0.0000 -13.6394 0.0000
# 3 23.6973 33.9384 45.1880 0.0000 -22.1736 0.0000
# 4 0.0000 0.0000 0.0000 11.3368 0.0000 -17.5195
# 5 -6.9372 -13.6394 -22.1736 0.0000 24.7734 0.0000
# 6 0.0000 0.0000 0.0000 -17.5195 0.0000 12.8066
#
#
#
# Elastic Compliance Matrix: (Units=1/GPa)
#
#
# Indices 1 2 3 4 5 6 
#
# 1 0.022827 -0.001973 -0.014061 0.000000 -0.007280 0.000000
# 2 -0.001973 0.008767 -0.006156 0.000000 -0.001236 0.000000
# 3 -0.014061 -0.006156 0.054444 0.000000 0.041403 0.000000
# 4 0.000000 0.000000 0.000000 -0.079177 0.000000 -0.108315
# 5 -0.007280 -0.001236 0.041403 0.000000 0.074705 0.000000
# 6 0.000000 0.000000 0.000000 -0.108315 0.000000 -0.070090
#
#
# Mechanical properties :
#
#
# Convention : Reuss Voigt Hill
#
# Bulk Modulus (GPa) = 24.00549 46.59476 35.30012
# Shear Modulus (GPa) = 71.69283 20.43950 46.06617
#
# Velocity S-wave (km/s) = 6.24680 3.33545 5.00738
# Velocity P-wave (km/s) = 8.06822 6.33997 7.25574
#
# Compressibility (1/GPa) = 0.04165714
#
# Stress axis : x y z
#
# Youngs Moduli (GPa) = 43.80855 114.06436 18.36751
#
# Poissons Ratio (x) = 0.22500 0.25827
# Poissons Ratio (y) = 0.08641 0.11308
# Poissons Ratio (z) = 0.61600 0.70223
#
# Static dielectric constant tensor:
#      x y z
#    x 1.621730 0.000000 -0.032590 
#    y 0.000000 1.716820 0.000000 
#    z -0.032590 0.000000 1.678920 
# 
# From -- ./inp_files/184938.got.cif
#   From: 2010.05.17/outbox.cif.g08.bks.cpg/sg12_93_cif.got.tgz:184938.got - 2010.06.03 13:09:07.
