data_PCOD9198793
_publ_section_title
;
Structure prediction by ZEFSAII (Michael W. Deem and Ramdas Pophale) SiO2 
 PCOD9198793
Probable space group: C 2/M
;
_chemical_formula_sum "Si O2"
_cell_formula_units_Z 56
_cell_length_a 16.775059
_cell_length_b 14.467775
_cell_length_c 11.764765
_cell_angle_alpha 90.000000
_cell_angle_beta 68.046512
_cell_angle_gamma 90.000000
_cell_volume 2648.239106
_symmetry_space_group_name_H-M "C 2/M"
_symmetry_group_IT_number 12
_symmetry_cell_setting 'monoclinic'
loop_
_space_group_symop_operation_xyz
x,y,z
-x,y,-z
-x,-y,-z
x,-y,z
1/2+x,1/2+y,z
1/2-x,1/2+y,-z
1/2-x,1/2-y,-z
1/2+x,1/2-y,z
loop_
_atom_site_type_symbol
_atom_site_label
_atom_site_fract_x
_atom_site_fract_y
_atom_site_fract_z
Si Si1 0.545895 0.105396 0.868181
Si Si2 0.765175 0.599142 0.284210
Si Si3 0.161432 0.105051 0.733981
Si Si4 0.038073 0.252400 0.674021
Si Si5 0.770211 0.890159 0.057742
Si Si6 0.842835 0.777835 0.805973
Si Si7 0.308641 0.835743 0.504558
O O1 0.647720 0.103362 0.834899
O O2 0.528904 0.164252 0.767406
O O3 0.516014 0.000000 0.869912
O O4 0.500000 0.148869 0.000000
O O5 0.721236 0.500000 0.288888
O O6 0.710536 0.686017 0.274353
O O7 0.797664 0.602825 0.396605
O O8 0.098785 0.175781 0.702670
O O9 0.167274 0.119978 0.865831
O O10 0.259069 0.117047 0.634226
O O11 0.134176 0.000000 0.725409
O O12 0.094438 0.296614 0.541405
O O13 0.941539 0.217308 0.715004
O O14 0.690136 0.822190 0.131527
O O15 0.749830 0.000000 0.056683
O O16 0.816671 0.848643 0.921493
O O17 0.250000 0.750000 0.500000
#
# Coordination Sequence:
#
# PCOD9198793 Si02
#       7
#     8   8   8   8   8   8   8
#     4   9  19  33  55  83 111 147 193 248 293 338
#     4  10  20  36  58  85 116 154 195 240 300 355
#     4  10  21  40  63  85 115 157 203 241 287 351
#     4  10  22  35  59  88 117 149 195 250 297 350
#     4  10  23  40  58  82 118 164 200 234 290 359
#     4  11  23  37  58  86 122 160 190 243 303 361
#     4   9  18  38  62  83 110 150 199 248 289 343
#
# _framework density 21.146127
#
# number of rings (size 3 to 8) (size 9 to 14) (size 15 to 20)
#    0.000    2.143    0.000    3.429    6.000    2.286 
#    0.000    7.857    0.000    6.000    0.000    0.000 
#    0.000    0.000    0.000    0.000    0.000    0.000 
#
# Total GULP energy -156151.570423 kJ/mol
# GULP energy per Si atom -5576.841801 kJ/mol
# Density = 2.109800 g / cm^3
# Si number density = 21.146127 Si / 1000 Ang^3
#
#
#
# Elastic Constant Matrix: (Units=GPa)
#
#
# Indices 1 2 3 4 5 6 
#
# 1 64.8220 16.4926 30.2863 0.0000 -14.8452 0.0000
# 2 16.4926 106.2054 13.9466 0.0000 1.0127 0.0000
# 3 30.2863 13.9466 77.0206 0.0000 -3.7866 0.0000
# 4 0.0000 0.0000 0.0000 24.7442 0.0000 19.5857
# 5 -14.8452 1.0127 -3.7866 0.0000 26.8450 0.0000
# 6 0.0000 0.0000 0.0000 19.5857 0.0000 67.6493
#
#
#
# Elastic Compliance Matrix: (Units=1/GPa)
#
#
# Indices 1 2 3 4 5 6 
#
# 1 0.022290 -0.002552 -0.007746 0.000000 0.011330 0.000000
# 2 -0.002552 0.009947 -0.000892 0.000000 -0.001912 0.000000
# 3 -0.007746 -0.000892 0.016093 0.000000 -0.001980 0.000000
# 4 0.000000 0.000000 0.000000 0.052428 0.000000 -0.015179
# 5 0.011330 -0.001912 -0.001980 0.000000 0.043309 0.000000
# 6 0.000000 0.000000 0.000000 -0.015179 0.000000 0.019177
#
#
# Mechanical properties :
#
#
# Convention : Reuss Voigt Hill
#
# Bulk Modulus (GPa) = 38.53345 41.05543 39.79444
# Shear Modulus (GPa) = 25.73675 36.33587 31.03631
#
# Velocity S-wave (km/s) = 3.49247 4.14976 3.83522
# Velocity P-wave (km/s) = 5.87581 6.51291 6.20254
#
# Compressibility (1/GPa) = 0.02595148
#
# Stress axis : x y z
#
# Youngs Moduli (GPa) = 44.86318 100.52896 62.13692
#
# Poissons Ratio (x) = 0.25658 0.48130
# Poissons Ratio (y) = 0.11450 0.05540
# Poissons Ratio (z) = 0.34750 0.08964
#
# Static dielectric constant tensor:
#      x y z
#    x 1.783660 0.000000 -0.009490 
#    y 0.000000 1.796820 0.000000 
#    z -0.009490 0.000000 1.805280 
# 
# From -- ./inp_files/156526.got.cif
#   From: 2010.05.17/outbox.cif.g08.bks.cpg/sg12_79_cif.got.tgz:156526.got - 2010.06.03 13:09:07.
