data_PCOD9198998
_publ_section_title
;
Structure prediction by ZEFSAII (Michael W. Deem and Ramdas Pophale) SiO2 
 PCOD9198998
Probable space group: C 2/M
;
_chemical_formula_sum "Si O2"
_cell_formula_units_Z 56
_cell_length_a 19.127619
_cell_length_b 7.842833
_cell_length_c 27.971724
_cell_angle_alpha 90.000000
_cell_angle_beta 141.613163
_cell_angle_gamma 90.000000
_cell_volume 2605.686357
_symmetry_space_group_name_H-M "C 2/M"
_symmetry_group_IT_number 12
_symmetry_cell_setting 'monoclinic'
loop_
_space_group_symop_operation_xyz
x,y,z
-x,y,-z
-x,-y,-z
x,-y,z
1/2+x,1/2+y,z
1/2-x,1/2+y,-z
1/2-x,1/2-y,-z
1/2+x,1/2-y,z
loop_
_atom_site_type_symbol
_atom_site_label
_atom_site_fract_x
_atom_site_fract_y
_atom_site_fract_z
Si Si1 0.353059 0.705308 0.520154
Si Si2 0.721215 0.291174 0.624791
Si Si3 0.823145 0.705110 0.198824
Si Si4 0.894523 0.204801 0.338850
Si Si5 0.106261 0.797549 0.023482
Si Si6 0.480052 0.790908 0.763489
Si Si7 0.121312 0.695309 0.927601
O O1 0.356726 0.500000 0.521503
O O2 0.250000 0.750000 0.500000
O O3 0.331408 0.762490 0.453964
O O4 0.477625 0.768380 0.601301
O O5 0.718812 0.500000 0.624190
O O6 0.656912 0.233692 0.638300
O O7 0.851278 0.235264 0.694115
O O8 0.819391 0.500000 0.194504
O O9 0.820001 0.753810 0.252548
O O10 0.719247 0.767056 0.110321
O O11 0.940912 0.762068 0.238276
O O12 0.899594 0.000000 0.345082
O O13 0.122139 0.000000 0.023389
O O14 0.077848 0.716772 0.957587
O O15 0.000000 0.773528 0.000000
O O16 0.543849 0.725633 0.845219
O O17 0.475635 0.000000 0.760387
O O18 0.125591 0.500000 0.915990
O O19 0.250000 0.750000 0.000000
#
# Coordination Sequence:
#
# PCOD9198998 Si02
#       7
#     8   8   8   8   8   8   8
#     4  10  20  36  59  84 110 144 181 220 268 323
#     4   9  18  34  56  80 109 144 177 219 272 322
#     4  10  20  37  56  77 110 149 184 220 277 341
#     4  10  21  35  55  84 113 138 180 231 270 318
#     4  10  22  39  57  79 113 152 191 236 287 340
#     4   9  18  33  54  78 105 141 185 225 267 330
#     4  11  21  36  58  83 112 148 192 238 283 335
#
# _framework density 21.491458000000002
#
# number of rings (size 3 to 8) (size 9 to 14) (size 15 to 20)
#    0.000    2.143    1.429    1.714    2.000    4.286 
#    0.000    0.714    0.000    3.429    0.000    0.000 
#    0.000    0.000    0.000    0.000    0.000    0.000 
#
# Total GULP energy -156320.948874 kJ/mol
# GULP energy per Si atom -5582.891031 kJ/mol
# Density = 2.144254 g / cm^3
# Si number density = 21.491458 Si / 1000 Ang^3
#
#
#
# Elastic Constant Matrix: (Units=GPa)
#
#
# Indices 1 2 3 4 5 6 
#
# 1 55.3590 17.0360 26.6637 0.0000 -14.5113 0.0001
# 2 17.0360 8.3817 -5.7572 0.0000 7.4707 0.0000
# 3 26.6637 -5.7572 87.2096 0.0000 -12.0171 0.0000
# 4 0.0000 0.0000 0.0000 10.7527 0.0000 -3.5668
# 5 -14.5113 7.4707 -12.0171 0.0000 39.2175 0.0000
# 6 0.0001 0.0000 0.0000 -3.5668 0.0000 16.5183
#
#
#
# Elastic Compliance Matrix: (Units=1/GPa)
#
#
# Indices 1 2 3 4 5 6 
#
# 1 -0.052809 0.160587 0.020714 0.000000 -0.043784 0.000000
# 2 0.160587 -0.341590 -0.056897 -0.000001 0.107058 -0.000001
# 3 0.020714 -0.056897 0.004100 0.000000 0.019759 0.000000
# 4 0.000000 -0.000001 0.000000 0.100175 0.000000 0.021631
# 5 -0.043784 0.107058 0.019759 0.000000 -0.005041 0.000000
# 6 0.000000 -0.000001 0.000000 0.021631 0.000000 0.065210
#
#
# Mechanical properties :
#
#
# Convention : Reuss Voigt Hill
#
# Bulk Modulus (GPa) = -7.06765 25.20392 9.06813
# Shear Modulus (GPa) = -9.50703 20.83154 5.66226
#
# Velocity S-wave (km/s) = -2.10552 3.11673 1.62492
# Velocity P-wave (km/s) = 3.03426 4.97040 2.78372
#
# Compressibility (1/GPa) = -0.14148979
#
# Stress axis : x y z
#
# Youngs Moduli (GPa) = -18.93630 -2.92748 243.88955
#
# Poissons Ratio (x) = 0.47012 -5.05189
# Poissons Ratio (y) = 3.04093 13.87648
# Poissons Ratio (z) = 0.39224 -0.16656
#
# Static dielectric constant tensor:
#      x y z
#    x 1.837790 0.000000 -0.073680 
#    y 0.000000 1.805700 0.000000 
#    z -0.073680 0.000000 1.806700 
# 
# From -- ./inp_files/363165.got.cif
#   From: 2010.05.17/outbox.cif.g08.bks.cpg/sg12_182_cif.got.tgz:363165.got - 2010.06.03 13:09:07.
