data_PCOD9198364
_publ_section_title
;
Structure prediction by ZEFSAII (Michael W. Deem and Ramdas Pophale) SiO2 
 PCOD9198364
Probable space group: C 2/M
;
_chemical_formula_sum "Si O2"
_cell_formula_units_Z 56
_cell_length_a 19.506827
_cell_length_b 7.639453
_cell_length_c 25.968047
_cell_angle_alpha 90.000000
_cell_angle_beta 39.839680
_cell_angle_gamma 90.000000
_cell_volume 2479.153015
_symmetry_space_group_name_H-M "C 2/M"
_symmetry_group_IT_number 12
_symmetry_cell_setting 'monoclinic'
loop_
_space_group_symop_operation_xyz
x,y,z
-x,y,-z
-x,-y,-z
x,-y,z
1/2+x,1/2+y,z
1/2-x,1/2+y,-z
1/2-x,1/2-y,-z
1/2+x,1/2-y,z
loop_
_atom_site_type_symbol
_atom_site_label
_atom_site_fract_x
_atom_site_fract_y
_atom_site_fract_z
Si Si1 0.959313 0.702442 0.577371
Si Si2 0.299401 0.791114 0.416761
Si Si3 0.424147 0.215028 0.996089
Si Si4 0.735382 0.786872 0.673063
Si Si5 0.180209 0.795427 0.141563
Si Si6 0.474962 0.212384 0.681366
Si Si7 0.498139 0.207816 0.840838
O O1 0.994761 0.500000 0.556862
O O2 0.830748 0.712371 0.651717
O O3 0.991684 0.779667 0.613696
O O4 0.000000 0.783018 0.500000
O O5 0.250000 0.750000 0.500000
O O6 0.241288 0.728044 0.399205
O O7 0.421634 0.729417 0.346246
O O8 0.302630 0.000000 0.410506
O O9 0.466816 0.273337 0.915578
O O10 0.423976 0.000000 0.996887
O O11 0.500000 0.269123 0.000000
O O12 0.300833 0.276169 0.071121
O O13 0.615574 0.728086 0.756046
O O14 0.740553 0.000000 0.673343
O O15 0.128523 0.768403 0.227548
O O16 0.095822 0.731260 0.147111
O O17 0.189758 0.000000 0.125786
O O18 0.473543 0.000000 0.680217
O O19 0.511352 0.000000 0.838018
#
# Coordination Sequence:
#
# PCOD9198364 Si02
#       7
#     8   8   8   8   8   8   8
#     4  10  22  39  59  82 113 154 193 237 291 342
#     4  10  20  36  57  82 110 146 192 234 280 337
#     4   9  20  37  60  89 117 150 190 232 282 341
#     4  10  21  36  58  85 112 149 192 233 282 342
#     4  11  22  36  60  91 117 147 194 242 279 331
#     4  10  21  39  59  81 116 157 191 227 288 352
#     4  10  20  39  63  83 116 158 188 230 292 346
#
# _framework density 22.588359000000001
#
# number of rings (size 3 to 8) (size 9 to 14) (size 15 to 20)
#    0.000    2.000    1.429    1.714    2.000    3.714 
#    0.000    0.714    0.000    2.143    0.000    0.000 
#    0.000    0.000    0.000    0.000    0.000    0.000 
#
# Total GULP energy -156360.338565 kJ/mol
# GULP energy per Si atom -5584.297806 kJ/mol
# Density = 2.253695 g / cm^3
# Si number density = 22.588359 Si / 1000 Ang^3
#
#
#
# Elastic Constant Matrix: (Units=GPa)
#
#
# Indices 1 2 3 4 5 6 
#
# 1 100.5867 -3.5172 24.1597 -0.0003 4.8185 0.0000
# 2 -3.5172 39.4246 -3.0138 -0.0011 -0.7483 0.0002
# 3 24.1597 -3.0138 109.3249 0.0000 2.8322 0.0001
# 4 -0.0003 -0.0011 0.0000 12.5704 0.0001 -4.9773
# 5 4.8185 -0.7483 2.8322 0.0001 41.2793 -0.0001
# 6 0.0000 0.0002 0.0001 -4.9773 -0.0001 10.9994
#
#
#
# Elastic Compliance Matrix: (Units=1/GPa)
#
#
# Indices 1 2 3 4 5 6 
#
# 1 0.010568 0.000748 -0.002287 0.000000 -0.001063 0.000000
# 2 0.000748 0.025478 0.000528 0.000002 0.000338 0.000001
# 3 -0.002287 0.000528 0.009677 0.000000 -0.000387 0.000000
# 4 0.000000 0.000002 0.000000 0.096917 0.000000 0.043856
# 5 -0.001063 0.000338 -0.000387 0.000000 0.024382 0.000000
# 6 0.000000 0.000001 0.000000 0.043856 0.000000 0.110760
#
#
# Mechanical properties :
#
#
# Convention : Reuss Voigt Hill
#
# Bulk Modulus (GPa) = 22.88257 31.62150 27.25204
# Shear Modulus (GPa) = 16.98530 28.41699 22.70114
#
# Velocity S-wave (km/s) = 2.74514 3.55073 3.17360
# Velocity P-wave (km/s) = 4.49444 5.55335 5.05172
#
# Compressibility (1/GPa) = 0.04370138
#
# Stress axis : x y z
#
# Youngs Moduli (GPa) = 94.62418 39.24892 103.33660
#
# Poissons Ratio (x) = -0.02935 0.23636
# Poissons Ratio (y) = -0.07076 -0.05460
# Poissons Ratio (z) = 0.21643 -0.02074
#
# Static dielectric constant tensor:
#      x y z
#    x 1.756880 0.000000 -0.041900 
#    y 0.000000 1.827200 0.000000 
#    z -0.041900 0.000000 1.818660 
# 
# From -- ./inp_files/362966.got.cif
#   From: 2010.05.17/outbox.cif.g08.bks.cpg/sg12_182_cif.got.tgz:362966.got - 2010.06.03 13:09:07.
