data_PCOD9198616
_publ_section_title
;
Structure prediction by ZEFSAII (Michael W. Deem and Ramdas Pophale) SiO2 
 PCOD9198616
Probable space group: C 2/M
;
_chemical_formula_sum "Si O2"
_cell_formula_units_Z 64
_cell_length_a 21.027958
_cell_length_b 8.585657
_cell_length_c 32.785143
_cell_angle_alpha 90.000000
_cell_angle_beta 36.532177
_cell_angle_gamma 90.000000
_cell_volume 3523.422552
_symmetry_space_group_name_H-M "C 2/M"
_symmetry_group_IT_number 12
_symmetry_cell_setting 'monoclinic'
loop_
_space_group_symop_operation_xyz
x,y,z
-x,y,-z
-x,-y,-z
x,-y,z
1/2+x,1/2+y,z
1/2-x,1/2+y,-z
1/2-x,1/2-y,-z
1/2+x,1/2-y,z
loop_
_atom_site_type_symbol
_atom_site_label
_atom_site_fract_x
_atom_site_fract_y
_atom_site_fract_z
Si Si1 0.061288 0.313001 0.792814
Si Si2 0.487296 0.312892 0.053777
Si Si3 0.366761 0.812851 0.950166
Si Si4 0.071400 0.312999 0.341824
Si Si5 0.651261 0.687187 0.577320
Si Si6 0.900729 0.310095 0.578731
Si Si7 0.325153 0.687663 0.341276
Si Si8 0.705697 0.813064 0.794359
O O1 0.063321 0.500000 0.789046
O O2 0.085455 0.243612 0.736386
O O3 0.153471 0.265054 0.777646
O O4 0.950247 0.266931 0.871361
O O5 0.486801 0.500000 0.056265
O O6 0.581663 0.250326 0.034459
O O7 0.376750 0.248767 0.129449
O O8 0.500000 0.266496 0.000000
O O9 0.365136 0.000000 0.953096
O O10 0.250000 0.750000 0.000000
O O11 0.068254 0.500000 0.342233
O O12 0.085546 0.261995 0.381619
O O13 0.175559 0.253525 0.264223
O O14 0.960912 0.246559 0.382178
O O15 0.654111 0.500000 0.574856
O O16 0.750000 0.750000 0.500000
O O17 0.661048 0.739165 0.619368
O O18 0.900073 0.500000 0.578620
O O19 0.788860 0.257139 0.617485
O O20 0.000000 0.258841 0.500000
O O21 0.324455 0.500000 0.341503
O O22 0.707742 0.000000 0.794741
#
# Coordination Sequence:
#
# PCOD9198616 Si02
#       8
#     8   8   8   8   8   8   8   8
#     4   9  19  35  57  85 117 148 183 235 289 333
#     4  10  21  38  61  89 120 155 196 241 289 345
#     4  10  21  38  60  88 120 157 195 238 289 345
#     4  11  21  36  60  85 114 151 190 236 288 341
#     4  11  24  41  59  81 114 153 192 236 290 350
#     4   9  17  31  54  83 109 137 182 233 275 326
#     4  10  20  36  58  82 109 147 192 232 278 339
#     4  10  20  36  59  87 120 153 190 237 288 344
#
# _framework density 18.164155999999998
#
# number of rings (size 3 to 8) (size 9 to 14) (size 15 to 20)
#    0.000    2.000    1.250    3.375    0.000    6.500 
#    2.250    0.000    0.000    1.875    0.000    0.000 
#    0.000    0.000    0.000    0.000    0.000    0.000 
#
# Total GULP energy -178670.444827 kJ/mol
# GULP energy per Si atom -5583.451401 kJ/mol
# Density = 1.812281 g / cm^3
# Si number density = 18.164156 Si / 1000 Ang^3
#
#
#
# Elastic Constant Matrix: (Units=GPa)
#
#
# Indices 1 2 3 4 5 6 
#
# 1 159.9524 42.2967 110.2618 0.0018 -0.8340 0.0176
# 2 42.2967 43.2792 41.2476 0.0049 0.6228 0.0013
# 3 110.2618 41.2476 162.9014 0.0016 -0.7710 0.0006
# 4 0.0018 0.0049 0.0016 30.0195 -0.0008 -3.2734
# 5 -0.8340 0.6228 -0.7710 -0.0008 39.5127 0.0014
# 6 0.0176 0.0013 0.0006 -3.2734 0.0014 28.2693
#
#
#
# Elastic Compliance Matrix: (Units=1/GPa)
#
#
# Indices 1 2 3 4 5 6 
#
# 1 0.012656 -0.005547 -0.007161 0.000000 0.000215 -0.000007
# 2 -0.005547 0.032902 -0.004580 -0.000005 -0.000725 0.000002
# 3 -0.007161 -0.004580 0.012146 0.000001 0.000158 0.000005
# 4 0.000000 -0.000005 0.000001 0.033738 0.000001 0.003907
# 5 0.000215 -0.000725 0.000158 0.000001 0.025327 -0.000001
# 6 -0.000007 0.000002 0.000005 0.003907 -0.000001 0.035826
#
#
# Mechanical properties :
#
#
# Convention : Reuss Voigt Hill
#
# Bulk Modulus (GPa) = 43.23629 83.74945 63.49287
# Shear Modulus (GPa) = 25.65667 31.04876 28.35271
#
# Velocity S-wave (km/s) = 3.76239 4.13890 3.95513
# Velocity P-wave (km/s) = 6.53673 8.30950 7.47585
#
# Compressibility (1/GPa) = 0.02312872
#
# Stress axis : x y z
#
# Youngs Moduli (GPa) = 79.01323 30.39299 82.33184
#
# Poissons Ratio (x) = 0.16860 0.58957
# Poissons Ratio (y) = 0.43830 0.37706
# Poissons Ratio (z) = 0.56580 0.13919
#
# Static dielectric constant tensor:
#      x y z
#    x 1.601300 0.000000 0.006940 
#    y 0.000000 1.617940 0.000000 
#    z 0.006940 0.000000 1.609370 
# 
# From -- ./inp_files/378197.got.cif
#   From: 2010.05.17/outbox.cif.g08.bks.cpg/sg12_190_cif.got.tgz:378197.got - 2010.06.03 13:09:07.
