data_PCOD9198262
_publ_section_title
;
Structure prediction by ZEFSAII (Michael W. Deem and Ramdas Pophale) SiO2 
 PCOD9198262
Probable space group: C 2/M
;
_chemical_formula_sum "Si O2"
_cell_formula_units_Z 40
_cell_length_a 13.475531
_cell_length_b 12.934219
_cell_length_c 11.331270
_cell_angle_alpha 90.000000
_cell_angle_beta 90.006488
_cell_angle_gamma 90.000000
_cell_volume 1974.989007
_symmetry_space_group_name_H-M "C 2/M"
_symmetry_group_IT_number 12
_symmetry_cell_setting 'monoclinic'
loop_
_space_group_symop_operation_xyz
x,y,z
-x,y,-z
-x,-y,-z
x,-y,z
1/2+x,1/2+y,z
1/2-x,1/2+y,-z
1/2-x,1/2-y,-z
1/2+x,1/2-y,z
loop_
_atom_site_type_symbol
_atom_site_label
_atom_site_fract_x
_atom_site_fract_y
_atom_site_fract_z
Si Si1 0.886763 0.124955 0.500046
Si Si2 0.316739 0.617923 0.242564
Si Si3 0.388689 0.176667 0.861205
Si Si4 0.183403 0.117935 0.242525
Si Si5 0.111150 0.676668 0.861065
O O1 0.834524 0.152532 0.377603
O O2 0.834556 0.152567 0.622481
O O3 0.000000 0.163867 0.500000
O O4 0.890228 0.000000 0.500078
O O5 0.351824 0.500000 0.228661
O O6 0.201036 0.624387 0.208819
O O7 0.372828 0.700852 0.161486
O O8 0.372598 0.299144 0.838672
O O9 0.499901 0.147110 0.824748
O O10 0.377473 0.154639 0.000076
O O11 0.299152 0.124414 0.209014
O O12 0.148367 0.000000 0.228556
#
# Coordination Sequence:
#
# PCOD9198262 Si02
#       5
#     8   8   8   8   8
#     4   9  18  33  55  83 110 137 175 222 269 317
#     4  10  20  36  57  79 106 142 181 220 266 319
#     4  10  22  37  53  80 113 141 178 225 267 313
#     4  10  20  36  57  79 106 142 181 220 266 319
#     4  10  22  37  53  80 113 141 178 225 267 313
#
# _framework density 20.253277000000001
#
# number of rings (size 3 to 8) (size 9 to 14) (size 15 to 20)
#    0.000    2.200    0.000    3.600    0.000    9.600 
#    0.000    7.000    0.000    3.600    0.000    0.000 
#    0.000    0.000    0.000    0.000    0.000    0.000 
#
# Total GULP energy -111640.878969 kJ/mol
# GULP energy per Si atom -5582.043948 kJ/mol
# Density = 2.020718 g / cm^3
# Si number density = 20.253277 Si / 1000 Ang^3
#
#
#
# Elastic Constant Matrix: (Units=GPa)
#
#
# Indices 1 2 3 4 5 6 
#
# 1 139.4760 -17.9774 69.1466 0.0000 -0.6420 0.0000
# 2 -17.9774 47.5238 -7.5473 0.0000 0.0787 0.0000
# 3 69.1466 -7.5473 96.4462 0.0000 -0.4817 0.0000
# 4 0.0000 0.0000 0.0000 18.4469 0.0000 0.0084
# 5 -0.6420 0.0787 -0.4817 0.0000 7.0980 0.0000
# 6 0.0000 0.0000 0.0000 0.0084 0.0000 8.9032
#
#
#
# Elastic Compliance Matrix: (Units=1/GPa)
#
#
# Indices 1 2 3 4 5 6 
#
# 1 0.011557 0.003094 -0.008041 0.000000 0.000465 0.000000
# 2 0.003094 0.022135 -0.000486 0.000000 0.000001 0.000000
# 3 -0.008041 -0.000486 0.016098 0.000000 0.000370 0.000000
# 4 0.000000 0.000000 0.000000 0.054210 0.000000 -0.000051
# 5 0.000465 0.000001 0.000370 0.000000 0.140952 0.000000
# 6 0.000000 0.000000 0.000000 -0.000051 0.000000 0.112320
#
#
# Mechanical properties :
#
#
# Convention : Reuss Voigt Hill
#
# Bulk Modulus (GPa) = 25.69162 41.18776 33.43969
# Shear Modulus (GPa) = 13.11948 22.87789 17.99869
#
# Velocity S-wave (km/s) = 2.54790 3.36458 2.98431
# Velocity P-wave (km/s) = 4.62260 5.95604 5.33117
#
# Compressibility (1/GPa) = 0.03892320
#
# Stress axis : x y z
#
# Youngs Moduli (GPa) = 86.52554 45.17664 62.12108
#
# Poissons Ratio (x) = -0.13978 0.49955
# Poissons Ratio (y) = -0.26771 0.03020
# Poissons Ratio (z) = 0.69579 0.02196
#
# Static dielectric constant tensor:
#      x y z
#    x 1.718900 0.000000 -0.000050 
#    y 0.000000 1.750530 0.000000 
#    z -0.000050 0.000000 1.700630 
# 
# From -- ./inp_files/59070.got.cif
#   From: 2010.05.17/outbox.cif.g08.bks.cpg/sg12_30_cif.got.tgz:59070.got - 2010.06.03 13:09:07.
