data_PCOD9198064
_publ_section_title
;
Structure prediction by ZEFSAII (Michael W. Deem and Ramdas Pophale) SiO2 
 PCOD9198064
Probable space group: C 2/M
;
_chemical_formula_sum "Si O2"
_cell_formula_units_Z 60
_cell_length_a 13.921142
_cell_length_b 23.578874
_cell_length_c 12.168507
_cell_angle_alpha 90.000000
_cell_angle_beta 110.853011
_cell_angle_gamma 90.000000
_cell_volume 3732.613353
_symmetry_space_group_name_H-M "C 2/M"
_symmetry_group_IT_number 12
_symmetry_cell_setting 'monoclinic'
loop_
_space_group_symop_operation_xyz
x,y,z
-x,y,-z
-x,-y,-z
x,-y,z
1/2+x,1/2+y,z
1/2-x,1/2+y,-z
1/2-x,1/2-y,-z
1/2+x,1/2-y,z
loop_
_atom_site_type_symbol
_atom_site_label
_atom_site_fract_x
_atom_site_fract_y
_atom_site_fract_z
Si Si1 0.690547 0.260931 0.860409
Si Si2 0.032024 0.766177 0.137075
Si Si3 0.185236 0.664809 0.247845
Si Si4 0.217398 0.842608 0.236336
Si Si5 0.623725 0.932583 0.732402
Si Si6 0.289642 0.186174 0.501865
Si Si7 0.000000 0.640159 0.500000
Si Si8 0.965030 0.564214 0.860494
O O1 0.571818 0.270273 0.837216
O O2 0.736487 0.314267 0.813372
O O3 0.711895 0.206253 0.792052
O O4 0.750000 0.250000 0.000000
O O5 0.103269 0.716863 0.216139
O O6 0.102359 0.822556 0.160875
O O7 0.000000 0.750033 0.000000
O O8 0.230179 0.658454 0.387930
O O9 0.124472 0.608693 0.194016
O O10 0.265652 0.901853 0.217737
O O11 0.231051 0.839046 0.373026
O O12 0.558176 0.899945 0.611763
O O13 0.560483 0.923370 0.818893
O O14 0.630486 0.000000 0.714332
O O15 0.250000 0.250000 0.500000
O O16 0.410592 0.177301 0.521501
O O17 0.931342 0.500000 0.822078
O O18 0.000000 0.567427 0.000000
#
# Coordination Sequence:
#
# PCOD9198064 Si02
#       8
#     8   8   8   8   8   8   4   8
#     4  11  21  33  52  80 101 141 178 215 269 328
#     4  11  20  33  50  77 105 136 173 218 265 324
#     4  11  21  34  54  73 112 141 180 218 267 324
#     4  10  22  34  51  77 110 134 177 223 268 323
#     4  10  20  36  56  78 104 141 182 222 271 316
#     4  11  20  35  47  78 109 147 170 218 272 313
#     4  10  21  34  56  76 112 140 185 222 260 324
#     4  10  21  34  52  79 109 142 179 223 274 324
#
# _framework density 16.074528999999998
#
# number of rings (size 3 to 8) (size 9 to 14) (size 15 to 20)
#    0.000    1.467    6.667    1.400    3.733    0.000 
#    0.000    0.000    0.000    1.200    0.000    0.000 
#    0.000    3.467    0.000    0.000    0.000    0.000 
#
# Total GULP energy -167268.300819 kJ/mol
# GULP energy per Si atom -5575.610027 kJ/mol
# Density = 1.603794 g / cm^3
# Si number density = 16.074529 Si / 1000 Ang^3
#
#
#
# Elastic Constant Matrix: (Units=GPa)
#
#
# Indices 1 2 3 4 5 6 
#
# 1 119.8591 42.2807 19.3222 0.0000 -8.5320 0.0000
# 2 42.2807 78.6696 17.8851 0.0000 -6.3347 0.0000
# 3 19.3222 17.8851 71.3592 0.0000 -18.3950 0.0000
# 4 0.0000 0.0000 0.0000 23.0532 0.0000 4.4300
# 5 -8.5320 -6.3347 -18.3950 0.0000 26.4620 0.0000
# 6 0.0000 0.0000 0.0000 4.4300 0.0000 29.4997
#
#
#
# Elastic Compliance Matrix: (Units=1/GPa)
#
#
# Indices 1 2 3 4 5 6 
#
# 1 0.010482 -0.005259 -0.001186 0.000000 0.001296 0.000000
# 2 -0.005259 0.016143 -0.002513 0.000000 0.000422 0.000000
# 3 -0.001186 -0.002513 0.017923 0.000000 0.011475 0.000000
# 4 0.000000 0.000000 0.000000 0.044667 0.000000 -0.006708
# 5 0.001296 0.000422 0.011475 0.000000 0.046286 0.000000
# 6 0.000000 0.000000 0.000000 -0.006708 0.000000 0.034906
#
#
# Mechanical properties :
#
#
# Convention : Reuss Voigt Hill
#
# Bulk Modulus (GPa) = 37.55073 47.65156 42.60115
# Shear Modulus (GPa) = 25.35492 28.49632 26.92562
#
# Velocity S-wave (km/s) = 3.97588 4.21499 4.09718
# Velocity P-wave (km/s) = 6.66993 7.30730 6.99588
#
# Compressibility (1/GPa) = 0.02663064
#
# Stress axis : x y z
#
# Youngs Moduli (GPa) = 95.40297 61.94488 55.79544
#
# Poissons Ratio (x) = 0.32580 0.06617
# Poissons Ratio (y) = 0.50177 0.14023
# Poissons Ratio (z) = 0.11314 0.15568
#
# Static dielectric constant tensor:
#      x y z
#    x 1.545940 0.000000 0.006150 
#    y 0.000000 1.533620 0.000000 
#    z 0.006150 0.000000 1.637350 
# 
# From -- ./inp_files/148680.got.cif
#   From: 2010.05.17/outbox.cif.g08.bks.cpg/sg12_75_cif.got.tgz:148680.got - 2010.06.03 13:09:07.
