data_PCOD9198687
_publ_section_title
;
Structure prediction by ZEFSAII (Michael W. Deem and Ramdas Pophale) SiO2 
 PCOD9198687
Probable space group: C 2/M
;
_chemical_formula_sum "Si O2"
_cell_formula_units_Z 56
_cell_length_a 28.646829
_cell_length_b 17.018579
_cell_length_c 8.889012
_cell_angle_alpha 90.000000
_cell_angle_beta 36.718408
_cell_angle_gamma 90.000000
_cell_volume 2591.011485
_symmetry_space_group_name_H-M "C 2/M"
_symmetry_group_IT_number 12
_symmetry_cell_setting 'monoclinic'
loop_
_space_group_symop_operation_xyz
x,y,z
-x,y,-z
-x,-y,-z
x,-y,z
1/2+x,1/2+y,z
1/2-x,1/2+y,-z
1/2-x,1/2-y,-z
1/2+x,1/2-y,z
loop_
_atom_site_type_symbol
_atom_site_label
_atom_site_fract_x
_atom_site_fract_y
_atom_site_fract_z
Si Si1 0.327805 0.155570 0.266388
Si Si2 0.758310 0.589701 0.926577
Si Si3 0.783506 0.189068 0.692344
Si Si4 0.183468 0.906555 0.831127
Si Si5 0.978293 0.407820 0.731756
Si Si6 0.612519 0.831889 0.563613
Si Si7 0.914007 0.095134 0.178908
O O1 0.277890 0.211667 0.282184
O O2 0.258700 0.108703 0.530688
O O3 0.379816 0.181546 0.276286
O O4 0.387848 0.108398 0.006201
O O5 0.741028 0.500000 0.012405
O O6 0.695576 0.623103 0.968480
O O7 0.837259 0.594004 0.625412
O O8 0.761731 0.641992 0.064056
O O9 0.834711 0.259169 0.628116
O O10 0.848087 0.130651 0.455785
O O11 0.109453 0.878373 0.928371
O O12 0.177061 0.000000 0.864707
O O13 0.994147 0.500000 0.724773
O O14 0.000000 0.395036 0.500000
O O15 0.029800 0.349411 0.703030
O O16 0.911373 0.000000 0.192815
O O17 0.000000 0.121721 0.000000
#
# Coordination Sequence:
#
# PCOD9198687 Si02
#       7
#     8   8   8   8   8   8   8
#     4  10  21  37  60  86 117 157 201 241 290 356
#     4  10  20  36  58  83 113 150 194 242 293 354
#     4  11  22  38  60  87 116 153 198 247 302 360
#     4   8  16  32  55  82 110 145 190 240 292 348
#     4  11  24  41  62  91 126 162 203 252 303 356
#     4  11  23  39  58  86 122 158 195 243 302 364
#     4   9  18  34  55  79 109 147 194 247 300 355
#
# _framework density 21.61318
#
# number of rings (size 3 to 8) (size 9 to 14) (size 15 to 20)
#    0.000    2.000    0.000    3.429    0.000    6.286 
#    0.000    2.143    0.000    3.429    0.000    0.000 
#    0.000    0.000    0.000    0.000    0.000    0.000 
#
# Total GULP energy -156050.126922 kJ/mol
# GULP energy per Si atom -5573.218819 kJ/mol
# Density = 2.156399 g / cm^3
# Si number density = 21.613180 Si / 1000 Ang^3
#
#
#
# Elastic Constant Matrix: (Units=GPa)
#
#
# Indices 1 2 3 4 5 6 
#
# 1 148.9730 33.2816 49.1604 0.0000 -9.3461 0.0000
# 2 33.2816 52.3489 18.3440 0.0000 2.5547 0.0000
# 3 49.1604 18.3440 65.7650 0.0000 6.8199 0.0000
# 4 0.0000 0.0000 0.0000 24.6880 0.0000 1.4855
# 5 -9.3461 2.5547 6.8199 0.0000 32.5210 0.0000
# 6 0.0000 0.0000 0.0000 1.4855 0.0000 27.9658
#
#
#
# Elastic Compliance Matrix: (Units=1/GPa)
#
#
# Indices 1 2 3 4 5 6 
#
# 1 0.010277 -0.004323 -0.006969 0.000000 0.004754 0.000000
# 2 -0.004323 0.022997 -0.002930 0.000000 -0.002434 0.000000
# 3 -0.006969 -0.002930 0.021892 0.000000 -0.006364 0.000000
# 4 0.000000 0.000000 0.000000 0.040635 0.000000 -0.002158
# 5 0.004754 -0.002434 -0.006364 0.000000 0.033641 0.000000
# 6 0.000000 0.000000 0.000000 -0.002158 0.000000 0.035873
#
#
# Mechanical properties :
#
#
# Convention : Reuss Voigt Hill
#
# Bulk Modulus (GPa) = 37.42455 52.07319 44.74887
# Shear Modulus (GPa) = 24.67097 28.12169 26.39633
#
# Velocity S-wave (km/s) = 3.38224 3.61104 3.49851
# Velocity P-wave (km/s) = 5.71016 6.44451 6.08842
#
# Compressibility (1/GPa) = 0.02672043
#
# Stress axis : x y z
#
# Youngs Moduli (GPa) = 97.30932 43.48413 45.67804
#
# Poissons Ratio (x) = 0.18800 0.31833
# Poissons Ratio (y) = 0.42071 0.13385
# Poissons Ratio (z) = 0.67815 0.12742
#
# Static dielectric constant tensor:
#      x y z
#    x 1.879860 0.000000 -0.012690 
#    y 0.000000 1.819100 0.000000 
#    z -0.012690 0.000000 1.779600 
# 
# From -- ./inp_files/105957.got.cif
#   From: 2010.05.17/outbox.cif.g08.bks.cpg/sg12_53_cif.got.tgz:105957.got - 2010.06.03 13:09:07.
