data_PCOD9198839
_publ_section_title
;
Structure prediction by ZEFSAII (Michael W. Deem and Ramdas Pophale) SiO2 
 PCOD9198839
Probable space group: C 2/M
;
_chemical_formula_sum "Si O2"
_cell_formula_units_Z 56
_cell_length_a 28.624042
_cell_length_b 11.512894
_cell_length_c 10.008961
_cell_angle_alpha 90.000000
_cell_angle_beta 121.597453
_cell_angle_gamma 90.000000
_cell_volume 2809.420333
_symmetry_space_group_name_H-M "C 2/M"
_symmetry_group_IT_number 12
_symmetry_cell_setting 'monoclinic'
loop_
_space_group_symop_operation_xyz
x,y,z
-x,y,-z
-x,-y,-z
x,-y,z
1/2+x,1/2+y,z
1/2-x,1/2+y,-z
1/2-x,1/2-y,-z
1/2+x,1/2-y,z
loop_
_atom_site_type_symbol
_atom_site_label
_atom_site_fract_x
_atom_site_fract_y
_atom_site_fract_z
Si Si1 0.838577 0.635881 0.172961
Si Si2 0.150104 0.710390 0.113573
Si Si3 0.424644 0.369127 0.663158
Si Si4 0.560547 0.706711 0.607219
Si Si5 0.448956 0.370497 0.106450
Si Si6 0.858235 0.629156 0.614289
Si Si7 0.755215 0.365382 0.264918
O O1 0.842908 0.500000 0.207508
O O2 0.891283 0.700464 0.310935
O O3 0.785317 0.678013 0.174728
O O4 0.838812 0.655891 0.015068
O O5 0.149587 0.626677 0.238545
O O6 0.200184 0.797838 0.213009
O O7 0.092018 0.777794 0.018388
O O8 0.404442 0.500000 0.671796
O O9 0.430614 0.369323 0.510990
O O10 0.391423 0.249986 0.640892
O O11 0.485954 0.353694 0.814919
O O12 0.500000 0.761061 0.500000
O O13 0.560549 0.639207 0.747515
O O14 0.434683 0.500000 0.039976
O O15 0.880905 0.500000 0.607412
O O16 0.801130 0.642733 0.449064
O O17 0.741006 0.500000 0.224732
#
# Coordination Sequence:
#
# PCOD9198839 Si02
#       7
#     8   8   8   8   8   8   8
#     4  10  20  36  58  86 121 155 197 248 298 351
#     4  11  22  38  59  86 119 158 203 241 297 359
#     4  10  20  37  61  90 121 156 201 248 297 356
#     4   9  17  32  57  87 119 153 195 246 299 352
#     4   9  19  35  58  88 121 154 194 252 305 350
#     4  11  24  42  62  87 124 162 198 246 300 353
#     4  10  21  39  63  85 114 157 202 251 298 349
#
# _framework density 19.932936999999999
#
# number of rings (size 3 to 8) (size 9 to 14) (size 15 to 20)
#    0.000    2.000    1.429    2.143    0.000    3.714 
#    0.000   10.000    0.000    0.000    0.000    0.000 
#    0.000    0.000    0.000    0.000    0.000    0.000 
#
# Total GULP energy -156146.804007 kJ/mol
# GULP energy per Si atom -5576.671572 kJ/mol
# Density = 1.988757 g / cm^3
# Si number density = 19.932937 Si / 1000 Ang^3
#
#
#
# Elastic Constant Matrix: (Units=GPa)
#
#
# Indices 1 2 3 4 5 6 
#
# 1 48.4682 46.5346 16.0407 0.0000 11.5148 0.0000
# 2 46.5346 118.1277 26.8072 0.0000 17.3367 0.0000
# 3 16.0407 26.8072 93.7329 0.0000 -12.2501 0.0000
# 4 0.0000 0.0000 0.0000 -111.9162 0.0000 -72.4081
# 5 11.5148 17.3367 -12.2501 0.0000 24.1497 0.0000
# 6 0.0000 0.0000 0.0000 -72.4081 0.0000 -16.2218
#
#
#
# Elastic Compliance Matrix: (Units=1/GPa)
#
#
# Indices 1 2 3 4 5 6 
#
# 1 0.035650 -0.011480 -0.004244 0.000000 -0.010910 0.000000
# 2 -0.011480 0.014661 -0.003094 0.000000 -0.006621 0.000000
# 3 -0.004244 -0.003094 0.013746 0.000000 0.011217 0.000000
# 4 0.000000 0.000000 0.000000 0.004733 0.000000 -0.021126
# 5 -0.010910 -0.006621 0.011217 0.000000 0.057053 0.000000
# 6 0.000000 0.000000 0.000000 -0.021126 0.000000 0.032653
#
#
# Mechanical properties :
#
#
# Convention : Reuss Voigt Hill
#
# Bulk Modulus (GPa) = 37.84587 48.78820 43.31704
# Shear Modulus (GPa) = 24.39761 -9.40125 7.49818
#
# Velocity S-wave (km/s) = 3.50234 -2.17409 1.94162
# Velocity P-wave (km/s) = 5.94836 4.26932 5.17736
#
# Compressibility (1/GPa) = 0.02642296
#
# Stress axis : x y z
#
# Youngs Moduli (GPa) = 28.05045 68.20602 72.75042
#
# Poissons Ratio (x) = 0.78298 0.30872
# Poissons Ratio (y) = 0.32201 0.22508
# Poissons Ratio (z) = 0.11903 0.21102
#
# Static dielectric constant tensor:
#      x y z
#    x 1.714290 0.000000 -0.048890 
#    y 0.000000 1.687590 0.000000 
#    z -0.048890 0.000000 1.708260 
# 
# From -- ./inp_files/110548.got.cif
#   From: 2010.05.17/outbox.cif.g08.bks.cpg/sg12_56_cif.got.tgz:110548.got - 2010.06.03 13:09:07.
