data_PCOD9198997
_publ_section_title
;
Structure prediction by ZEFSAII (Michael W. Deem and Ramdas Pophale) SiO2 
 PCOD9198997
Probable space group: C 2/M
;
_chemical_formula_sum "Si O2"
_cell_formula_units_Z 64
_cell_length_a 14.196838
_cell_length_b 11.749394
_cell_length_c 20.013274
_cell_angle_alpha 90.000000
_cell_angle_beta 106.789259
_cell_angle_gamma 90.000000
_cell_volume 3195.999569
_symmetry_space_group_name_H-M "C 2/M"
_symmetry_group_IT_number 12
_symmetry_cell_setting 'monoclinic'
loop_
_space_group_symop_operation_xyz
x,y,z
-x,y,-z
-x,-y,-z
x,-y,z
1/2+x,1/2+y,z
1/2-x,1/2+y,-z
1/2-x,1/2-y,-z
1/2+x,1/2-y,z
loop_
_atom_site_type_symbol
_atom_site_label
_atom_site_fract_x
_atom_site_fract_y
_atom_site_fract_z
Si Si1 0.640654 0.367164 0.282078
Si Si2 0.654958 0.629091 0.032501
Si Si3 0.795785 0.876239 0.193514
Si Si4 0.631395 0.211018 0.899667
Si Si5 0.289778 0.627414 0.483245
Si Si6 0.017479 0.128967 0.393319
Si Si7 0.413562 0.221029 0.859422
Si Si8 0.314887 0.293420 0.345679
O O1 0.645070 0.500000 0.265021
O O2 0.573123 0.355601 0.334059
O O3 0.601755 0.293402 0.211801
O O4 0.747846 0.317875 0.323495
O O5 0.622759 0.500000 0.020085
O O6 0.772426 0.633287 0.072551
O O7 0.598901 0.693998 0.080474
O O8 0.640047 0.697314 0.961110
O O9 0.853218 0.778524 0.166221
O O10 0.680103 0.861713 0.153851
O O11 0.806785 0.859332 0.274372
O O12 0.831951 0.000000 0.180021
O O13 0.520868 0.164236 0.880750
O O14 0.253493 0.500000 0.498323
O O15 0.250000 0.750000 0.500000
O O16 0.402131 0.631402 0.531943
O O17 0.277507 0.636014 0.401374
O O18 0.930935 0.219769 0.382118
O O19 0.975110 0.000000 0.385005
#
# Coordination Sequence:
#
# PCOD9198997 Si02
#       8
#     8   8   8   8   8   8   8   8
#     4  10  21  37  57  82 116 150 186 235 288 337
#     4  10  21  36  55  80 110 145 183 225 275 327
#     4  10  21  36  55  81 109 142 182 228 277 326
#     4  10  21  37  55  80 112 143 182 230 273 326
#     4  11  22  38  60  87 117 152 191 240 290 343
#     4  10  20  36  59  84 109 148 192 230 279 338
#     4  10  21  35  55  81 110 144 186 227 274 333
#     4  11  21  36  60  84 113 145 191 238 279 335
#
# _framework density 20.025034000000002
#
# number of rings (size 3 to 8) (size 9 to 14) (size 15 to 20)
#    0.000    1.750    1.250    3.375    0.000    5.000 
#    0.000    0.625    0.000    9.000    0.000    0.000 
#    0.000    0.000    0.000    0.000    0.000    0.000 
#
# Total GULP energy -178539.994051 kJ/mol
# GULP energy per Si atom -5579.374814 kJ/mol
# Density = 1.997946 g / cm^3
# Si number density = 20.025034 Si / 1000 Ang^3
#
#
#
# Elastic Constant Matrix: (Units=GPa)
#
#
# Indices 1 2 3 4 5 6 
#
# 1 82.8772 5.4013 1.5926 0.0000 11.4663 0.0000
# 2 5.4013 64.3123 10.9183 0.0000 -1.2417 0.0000
# 3 1.5926 10.9183 75.0131 0.0000 -16.5313 0.0000
# 4 0.0000 0.0000 0.0000 12.1243 0.0000 -3.0185
# 5 11.4663 -1.2417 -16.5313 0.0000 27.6520 0.0000
# 6 0.0000 0.0000 0.0000 -3.0185 0.0000 13.0569
#
#
#
# Elastic Compliance Matrix: (Units=1/GPa)
#
#
# Indices 1 2 3 4 5 6 
#
# 1 0.013040 -0.000956 -0.001542 0.000000 -0.006372 0.000000
# 2 -0.000956 0.016028 -0.002380 0.000000 -0.000307 0.000000
# 3 -0.001542 -0.002380 0.015926 0.000000 0.010053 0.000000
# 4 0.000000 0.000000 0.000000 0.087516 0.000000 0.020232
# 5 -0.006372 -0.000307 0.010053 0.000000 0.044802 0.000000
# 6 0.000000 0.000000 0.000000 0.020232 0.000000 0.081265
#
#
# Mechanical properties :
#
#
# Convention : Reuss Voigt Hill
#
# Bulk Modulus (GPa) = 28.37994 28.66969 28.52482
# Shear Modulus (GPa) = 17.85216 24.18599 21.01907
#
# Velocity S-wave (km/s) = 2.98903 3.47909 3.24333
# Velocity P-wave (km/s) = 5.11032 5.52149 5.31988
#
# Compressibility (1/GPa) = 0.03523615
#
# Stress axis : x y z
#
# Youngs Moduli (GPa) = 76.68974 62.39236 62.79150
#
# Poissons Ratio (x) = 0.05967 0.09681
# Poissons Ratio (y) = 0.07335 0.14945
# Poissons Ratio (z) = 0.11824 0.14850
#
# Static dielectric constant tensor:
#      x y z
#    x 1.736440 0.000000 0.014300 
#    y 0.000000 1.682410 0.000000 
#    z 0.014300 0.000000 1.720190 
# 
# From -- ./inp_files/309915.got.cif
#   From: 2010.05.17/outbox.cif.g08.bks.cpg/sg12_155_cif.got.tgz:309915.got - 2010.06.03 13:09:07.
