data_PCOD9198952
_publ_section_title
;
Structure prediction by ZEFSAII (Michael W. Deem and Ramdas Pophale) SiO2 
 PCOD9198952
Probable space group: C 2/M
;
_chemical_formula_sum "Si O2"
_cell_formula_units_Z 64
_cell_length_a 18.930346
_cell_length_b 14.241724
_cell_length_c 17.948652
_cell_angle_alpha 90.000000
_cell_angle_beta 129.737121
_cell_angle_gamma 90.000000
_cell_volume 3721.098199
_symmetry_space_group_name_H-M "C 2/M"
_symmetry_group_IT_number 12
_symmetry_cell_setting 'monoclinic'
loop_
_space_group_symop_operation_xyz
x,y,z
-x,y,-z
-x,-y,-z
x,-y,z
1/2+x,1/2+y,z
1/2-x,1/2+y,-z
1/2-x,1/2-y,-z
1/2+x,1/2-y,z
loop_
_atom_site_type_symbol
_atom_site_label
_atom_site_fract_x
_atom_site_fract_y
_atom_site_fract_z
Si Si1 0.102181 0.766865 0.378082
Si Si2 0.642748 0.230847 0.917551
Si Si3 0.225137 0.242431 0.606620
Si Si4 0.599313 0.108262 0.592345
Si Si5 0.900585 0.391527 0.970643
Si Si6 0.430520 0.388685 0.231020
Si Si7 0.051790 0.609083 0.729872
Si Si8 0.223545 0.111090 0.748870
O O1 0.160249 0.781060 0.492419
O O2 0.173758 0.757361 0.358607
O O3 0.040178 0.672287 0.337980
O O4 0.030746 0.851549 0.320336
O O5 0.598366 0.328605 0.860664
O O6 0.616400 0.157597 0.834498
O O7 0.750000 0.250000 0.000000
O O8 0.605765 0.182894 0.967381
O O9 0.182063 0.336142 0.612276
O O10 0.221116 0.167148 0.670251
O O11 0.500000 0.147983 0.500000
O O12 0.599672 0.112655 0.681630
O O13 0.601600 0.000000 0.569472
O O14 0.886687 0.500000 0.988031
O O15 0.819113 0.372393 0.856909
O O16 0.000000 0.387039 0.000000
O O17 0.426357 0.500000 0.216734
O O18 0.358969 0.363863 0.249543
O O19 0.031905 0.500000 0.733812
O O20 0.216387 0.000000 0.729268
#
# Coordination Sequence:
#
# PCOD9198952 Si02
#       8
#     8   8   8   8   8   8   8   8
#     4  10  23  37  56  86 113 156 188 233 289 338
#     4  11  21  36  61  85 113 150 190 233 286 340
#     4  11  22  37  58  83 118 149 193 235 284 344
#     4  10  20  36  59  82 109 146 185 236 287 331
#     4  10  22  39  60  89 119 147 184 239 298 341
#     4  10  22  40  58  81 117 154 193 233 282 345
#     4  10  21  37  59  87 112 143 191 238 286 340
#     4  10  22  38  59  87 116 150 190 238 291 344
#
# _framework density 17.199224000000001
#
# number of rings (size 3 to 8) (size 9 to 14) (size 15 to 20)
#    0.000    1.750    2.500    1.875    3.500    2.000 
#    0.000    3.750    0.000    0.375    0.000    0.000 
#    0.000    0.000    0.000    0.000    0.000    0.000 
#
# Total GULP energy -178567.170543 kJ/mol
# GULP energy per Si atom -5580.224079 kJ/mol
# Density = 1.716008 g / cm^3
# Si number density = 17.199224 Si / 1000 Ang^3
#
#
#
# Elastic Constant Matrix: (Units=GPa)
#
#
# Indices 1 2 3 4 5 6 
#
# 1 117.2173 57.8561 53.3583 0.0000 1.2053 0.0000
# 2 57.8561 106.4005 52.4613 0.0000 -11.5175 0.0000
# 3 53.3583 52.4613 100.4984 0.0000 -0.5784 0.0000
# 4 0.0000 0.0000 0.0000 21.2461 0.0000 2.7012
# 5 1.2053 -11.5175 -0.5784 0.0000 24.9945 0.0000
# 6 0.0000 0.0000 0.0000 2.7012 0.0000 19.9203
#
#
#
# Elastic Compliance Matrix: (Units=1/GPa)
#
#
# Indices 1 2 3 4 5 6 
#
# 1 0.013145 -0.005452 -0.004152 0.000000 -0.003242 0.000000
# 2 -0.005452 0.015778 -0.005299 0.000000 0.007411 0.000000
# 3 -0.004152 -0.005299 0.014910 0.000000 -0.001897 0.000000
# 4 0.000000 0.000000 0.000000 0.047893 0.000000 -0.006494
# 5 -0.003242 0.007411 -0.001897 0.000000 0.043536 0.000000
# 6 0.000000 0.000000 0.000000 -0.006494 0.000000 0.051081
#
#
# Mechanical properties :
#
#
# Convention : Reuss Voigt Hill
#
# Bulk Modulus (GPa) = 71.28805 72.38527 71.83666
# Shear Modulus (GPa) = 22.64238 23.92821 23.28529
#
# Velocity S-wave (km/s) = 3.63226 3.73398 3.68347
# Velocity P-wave (km/s) = 7.68957 7.79537 7.74265
#
# Compressibility (1/GPa) = 0.01402760
#
# Stress axis : x y z
#
# Youngs Moduli (GPa) = 76.07198 63.38068 67.06800
#
# Poissons Ratio (x) = 0.34553 0.27848
# Poissons Ratio (y) = 0.41471 0.35540
# Poissons Ratio (z) = 0.31587 0.33586
#
# Static dielectric constant tensor:
#      x y z
#    x 1.564030 0.000000 0.002670 
#    y 0.000000 1.582800 0.000000 
#    z 0.002670 0.000000 1.586560 
# 
# From -- ./inp_files/225295.got.cif
#   From: 2010.05.17/outbox.cif.g08.bks.cpg/sg12_113_cif.got.tgz:225295.got - 2010.06.03 13:09:07.
