data_PCOD9198387
_publ_section_title
;
Structure prediction by ZEFSAII (Michael W. Deem and Ramdas Pophale) SiO2 
 PCOD9198387
Probable space group: C 2/M
;
_chemical_formula_sum "Si O2"
_cell_formula_units_Z 50
_cell_length_a 14.054651
_cell_length_b 7.952353
_cell_length_c 20.116461
_cell_angle_alpha 90.000000
_cell_angle_beta 91.717264
_cell_angle_gamma 90.000000
_cell_volume 2247.357685
_symmetry_space_group_name_H-M "C 2/M"
_symmetry_group_IT_number 12
_symmetry_cell_setting 'monoclinic'
loop_
_space_group_symop_operation_xyz
x,y,z
-x,y,-z
-x,-y,-z
x,-y,z
1/2+x,1/2+y,z
1/2-x,1/2+y,-z
1/2-x,1/2-y,-z
1/2+x,1/2-y,z
loop_
_atom_site_type_symbol
_atom_site_label
_atom_site_fract_x
_atom_site_fract_y
_atom_site_fract_z
Si Si1 0.385722 0.685792 0.950921
Si Si2 0.000000 0.500000 0.000000
Si Si3 0.193786 0.806427 0.900017
Si Si4 0.056225 0.799621 0.786921
Si Si5 0.590161 0.695298 0.315529
Si Si6 0.200007 0.193829 0.667721
Si Si7 0.958833 0.304210 0.430700
O O1 0.429070 0.500000 0.939568
O O2 0.451245 0.849326 0.952601
O O3 0.293316 0.709025 0.902657
O O4 0.344192 0.688571 0.025398
O O5 0.111591 0.730835 0.851874
O O6 0.212795 0.000000 0.880387
O O7 0.129236 0.772243 0.727531
O O8 0.955413 0.740364 0.755061
O O9 0.045674 0.000000 0.799514
O O10 0.560312 0.500000 0.320849
O O11 0.702759 0.706212 0.323170
O O12 0.539172 0.787081 0.375632
O O13 0.137186 0.225136 0.600887
O O14 0.227990 0.000000 0.671191
O O15 0.937702 0.500000 0.441418
O O16 0.000000 0.231013 0.500000
#
# Coordination Sequence:
#
# PCOD9198387 Si02
#       7
#     8   2   8   8   8   8   8
#     4  10  21  36  60  85 115 151 193 234 296 349
#     4  12  22  40  56  86 120 150 182 256 288 338
#     4   9  17  37  60  81 109 152 188 231 285 348
#     4   8  17  35  58  81 110 150 190 230 282 335
#     4  10  20  36  57  82 114 148 186 231 279 332
#     4  10  20  36  57  83 114 148 187 231 280 335
#     4  10  21  37  58  82 109 144 186 232 283 337
#
# _framework density 22.248348
#
# number of rings (size 3 to 8) (size 9 to 14) (size 15 to 20)
#    0.000    2.400    0.800    2.640    1.120    1.920 
#    2.880    4.800    0.000    0.000    0.000    0.000 
#    0.000    0.000    0.000    0.000    0.000    0.000 
#
# Total GULP energy -139272.120490 kJ/mol
# GULP energy per Si atom -5570.884820 kJ/mol
# Density = 2.219771 g / cm^3
# Si number density = 22.248348 Si / 1000 Ang^3
#
#
#
# Elastic Constant Matrix: (Units=GPa)
#
#
# Indices 1 2 3 4 5 6 
#
# 1 97.1637 27.8548 43.1749 0.0000 36.8828 0.0000
# 2 27.8548 85.4719 10.0696 0.0000 6.1664 0.0000
# 3 43.1749 10.0696 112.6460 0.0000 43.7870 0.0000
# 4 0.0000 0.0000 0.0000 7.7289 0.0000 2.2746
# 5 36.8828 6.1664 43.7870 0.0000 32.6513 0.0000
# 6 0.0000 0.0000 0.0000 2.2746 0.0000 10.9868
#
#
#
# Elastic Compliance Matrix: (Units=1/GPa)
#
#
# Indices 1 2 3 4 5 6 
#
# 1 0.020209 -0.005061 0.002525 0.000000 -0.025258 0.000000
# 2 -0.005061 0.013137 -0.001029 0.000000 0.004615 0.000000
# 3 0.002525 -0.001029 0.018873 0.000000 -0.027967 0.000000
# 4 0.000000 0.000000 0.000000 0.137780 0.000000 -0.028524
# 5 -0.025258 0.004615 -0.027967 0.000000 0.095792 0.000000
# 6 0.000000 0.000000 0.000000 -0.028524 0.000000 0.096923
#
#
# Mechanical properties :
#
#
# Convention : Reuss Voigt Hill
#
# Bulk Modulus (GPa) = 22.17827 50.83114 36.50471
# Shear Modulus (GPa) = 12.34957 24.55222 18.45089
#
# Velocity S-wave (km/s) = 2.35856 3.32558 2.88291
# Velocity P-wave (km/s) = 4.17220 6.13537 5.24643
#
# Compressibility (1/GPa) = 0.04508918
#
# Stress axis : x y z
#
# Youngs Moduli (GPa) = 49.48391 76.11892 52.98636
#
# Poissons Ratio (x) = 0.38525 -0.13379
# Poissons Ratio (y) = 0.25044 0.05450
# Poissons Ratio (z) = -0.12494 0.07829
#
# Static dielectric constant tensor:
#      x y z
#    x 1.820710 0.000000 0.031900 
#    y 0.000000 1.831890 0.000000 
#    z 0.031900 0.000000 1.853660 
# 
# From -- ./inp_files/308553.got.cif
#   From: 2010.05.17/outbox.cif.g08.bks.cpg/sg12_155_cif.got.tgz:308553.got - 2010.06.03 13:09:07.
