data_PCOD9198393
_publ_section_title
;
Structure prediction by ZEFSAII (Michael W. Deem and Ramdas Pophale) SiO2 
 PCOD9198393
Probable space group: C 2/M
;
_chemical_formula_sum "Si O2"
_cell_formula_units_Z 56
_cell_length_a 12.478740
_cell_length_b 11.455059
_cell_length_c 21.194020
_cell_angle_alpha 90.000000
_cell_angle_beta 115.908508
_cell_angle_gamma 90.000000
_cell_volume 2725.079329
_symmetry_space_group_name_H-M "C 2/M"
_symmetry_group_IT_number 12
_symmetry_cell_setting 'monoclinic'
loop_
_space_group_symop_operation_xyz
x,y,z
-x,y,-z
-x,-y,-z
x,-y,z
1/2+x,1/2+y,z
1/2-x,1/2+y,-z
1/2-x,1/2-y,-z
1/2+x,1/2-y,z
loop_
_atom_site_type_symbol
_atom_site_label
_atom_site_fract_x
_atom_site_fract_y
_atom_site_fract_z
Si Si1 0.271472 0.632182 0.692512
Si Si2 0.253783 0.708921 0.829456
Si Si3 0.539370 0.131021 0.078042
Si Si4 0.041539 0.867250 0.741892
Si Si5 0.724855 0.872055 0.956629
Si Si6 0.177216 0.132653 0.500199
Si Si7 0.406174 0.324262 0.387152
O O1 0.267188 0.500000 0.670003
O O2 0.261355 0.641610 0.765698
O O3 0.403980 0.675903 0.706929
O O4 0.157783 0.699387 0.636071
O O5 0.360604 0.801254 0.859434
O O6 0.129720 0.780234 0.800546
O O7 0.271413 0.636787 0.897655
O O8 0.417689 0.124741 0.084428
O O9 0.583694 0.000000 0.075654
O O10 0.500000 0.182953 0.000000
O O11 0.094003 0.871639 0.684228
O O12 0.041624 0.000000 0.767588
O O13 0.761711 0.000000 0.994007
O O14 0.750000 0.750000 0.000000
O O15 0.250000 0.250000 0.500000
O O16 0.168386 0.123838 0.573932
O O17 0.043280 0.161045 0.442247
O O18 0.211024 0.000000 0.486105
#
# Coordination Sequence:
#
# PCOD9198393 Si02
#       7
#     8   8   8   8   8   8   8
#     4  10  22  39  59  87 123 159 202 259 313 363
#     4  11  21  37  59  86 116 156 199 251 314 372
#     4  10  20  36  57  82 116 155 199 247 299 371
#     4  10  20  36  60  86 116 156 206 254 301 362
#     4  11  23  39  59  83 115 152 193 245 303 366
#     4  11  23  40  64  96 134 169 209 256 302 356
#     4  10  21  38  62  88 122 169 210 249 299 358
#
# _framework density 20.549859999999999
#
# number of rings (size 3 to 8) (size 9 to 14) (size 15 to 20)
#    0.000    1.571    1.429    4.286    0.000    2.857 
#    0.000    3.571    0.000   11.143    0.000    0.000 
#    0.000    0.000    0.000    0.000    0.000    0.000 
#
# Total GULP energy -155937.537874 kJ/mol
# GULP energy per Si atom -5569.197781 kJ/mol
# Density = 2.050309 g / cm^3
# Si number density = 20.549860 Si / 1000 Ang^3
#
#
#
# Elastic Constant Matrix: (Units=GPa)
#
#
# Indices 1 2 3 4 5 6 
#
# 1 65.0232 38.7745 -3.3544 0.0000 -4.8555 0.0000
# 2 38.7745 134.7464 36.9220 0.0000 13.7379 0.0000
# 3 -3.3544 36.9220 53.1850 0.0000 -10.9198 0.0000
# 4 0.0000 0.0000 0.0000 11.2965 0.0000 3.4144
# 5 -4.8555 13.7379 -10.9198 0.0000 36.6220 0.0000
# 6 0.0000 0.0000 0.0000 3.4144 0.0000 20.6685
#
#
#
# Elastic Compliance Matrix: (Units=1/GPa)
#
#
# Indices 1 2 3 4 5 6 
#
# 1 0.023132 -0.010744 0.011052 0.000000 0.010393 0.000000
# 2 -0.010744 0.015419 -0.013700 0.000000 -0.011294 0.000000
# 3 0.011052 -0.013700 0.032347 0.000000 0.016250 0.000000
# 4 0.000000 0.000000 0.000000 0.093175 0.000000 -0.015393
# 5 0.010393 -0.011294 0.016250 0.000000 0.037766 0.000000
# 6 0.000000 0.000000 0.000000 -0.015393 0.000000 0.050926
#
#
# Mechanical properties :
#
#
# Convention : Reuss Voigt Hill
#
# Bulk Modulus (GPa) = 22.66966 44.18210 33.42588
# Shear Modulus (GPa) = 16.99209 25.75823 21.37516
#
# Velocity S-wave (km/s) = 2.87866 3.54425 3.22865
# Velocity P-wave (km/s) = 4.70153 6.18834 5.49545
#
# Compressibility (1/GPa) = 0.04411183
#
# Stress axis : x y z
#
# Youngs Moduli (GPa) = 43.22929 64.85654 30.91504
#
# Poissons Ratio (x) = 0.69685 -0.34167
# Poissons Ratio (y) = 0.46448 0.42355
# Poissons Ratio (z) = -0.47776 0.88856
#
# Static dielectric constant tensor:
#      x y z
#    x 1.753430 0.000000 -0.040590 
#    y 0.000000 1.342710 0.000000 
#    z -0.040590 0.000000 1.753390 
# 
# From -- ./inp_files/335330.got.cif
#   From: 2010.05.17/outbox.cif.g08.bks.cpg/sg12_168_cif.got.tgz:335330.got - 2010.06.03 13:09:07.
