data_PCOD9198762
_publ_section_title
;
Structure prediction by ZEFSAII (Michael W. Deem and Ramdas Pophale) SiO2 
 PCOD9198762
Probable space group: C 2/M
;
_chemical_formula_sum "Si O2"
_cell_formula_units_Z 32
_cell_length_a 8.872329
_cell_length_b 13.349566
_cell_length_c 21.457017
_cell_angle_alpha 90.000000
_cell_angle_beta 32.083169
_cell_angle_gamma 90.000000
_cell_volume 1349.867303
_symmetry_space_group_name_H-M "C 2/M"
_symmetry_group_IT_number 12
_symmetry_cell_setting 'monoclinic'
loop_
_space_group_symop_operation_xyz
x,y,z
-x,y,-z
-x,-y,-z
x,-y,z
1/2+x,1/2+y,z
1/2-x,1/2+y,-z
1/2-x,1/2-y,-z
1/2+x,1/2-y,z
loop_
_atom_site_type_symbol
_atom_site_label
_atom_site_fract_x
_atom_site_fract_y
_atom_site_fract_z
Si Si1 0.108209 0.883734 0.076797
Si Si2 0.811630 0.391933 0.359058
Si Si3 0.543892 0.746239 0.358807
Si Si4 0.282063 0.189582 0.153178
O O1 0.150684 0.844120 0.133454
O O2 0.908432 0.803992 0.110623
O O3 0.025051 0.000000 0.103426
O O4 0.428793 0.873330 0.938138
O O5 0.500000 0.397374 0.500000
O O6 0.873080 0.500000 0.310400
O O7 0.773135 0.303204 0.323296
O O8 0.034910 0.358094 0.333345
O O9 0.250000 0.750000 0.500000
O O10 0.580374 0.677994 0.284285
#
# Coordination Sequence:
#
# PCOD9198762 Si02
#       4
#     8   8   8   8
#     4  10  22  40  60  84 116 150 191 245 286 327
#     4   9  19  35  53  76 109 147 184 224 273 329
#     4  10  20  36  58  84 116 150 187 234 283 340
#     4  10  20  38  60  84 114 149 191 234 285 343
#
# _framework density 23.706036000000001
#
# number of rings (size 3 to 8) (size 9 to 14) (size 15 to 20)
#    0.000    2.250    0.000    3.000    0.000    3.000 
#    0.000   12.500    0.000    9.000    0.000    0.000 
#    0.000    0.000    0.000    0.000    0.000    0.000 
#
# Total GULP energy -89121.262509 kJ/mol
# GULP energy per Si atom -5570.078907 kJ/mol
# Density = 2.365208 g / cm^3
# Si number density = 23.706036 Si / 1000 Ang^3
#
#
#
# Elastic Constant Matrix: (Units=GPa)
#
#
# Indices 1 2 3 4 5 6 
#
# 1 133.4424 62.7182 21.6491 0.0081 -18.9705 -0.0061
# 2 62.7182 171.4169 5.2115 -0.0007 -11.2664 -0.0032
# 3 21.6491 5.2115 128.8908 0.0114 10.4999 -0.0048
# 4 0.0081 -0.0007 0.0114 20.7364 -0.0110 8.8302
# 5 -18.9705 -11.2664 10.4999 -0.0110 36.3962 0.0044
# 6 -0.0061 -0.0032 -0.0048 8.8302 0.0044 23.4619
#
#
#
# Elastic Compliance Matrix: (Units=1/GPa)
#
#
# Indices 1 2 3 4 5 6 
#
# 1 0.010038 -0.003300 -0.001941 -0.000001 0.004771 0.000001
# 2 -0.003300 0.007060 0.000236 0.000002 0.000397 -0.000001
# 3 -0.001941 0.000236 0.008348 -0.000008 -0.003347 0.000005
# 4 -0.000001 0.000002 -0.000008 0.057428 0.000022 -0.021614
# 5 0.004771 0.000397 -0.003347 0.000022 0.031050 -0.000013
# 6 0.000001 -0.000001 0.000005 -0.021614 -0.000013 0.050757
#
#
# Mechanical properties :
#
#
# Convention : Reuss Voigt Hill
#
# Bulk Modulus (GPa) = 64.78355 68.10087 66.44221
# Shear Modulus (GPa) = 27.80301 39.06365 33.43333
#
# Velocity S-wave (km/s) = 3.42837 4.06376 3.75951
# Velocity P-wave (km/s) = 6.56192 7.12800 6.85081
#
# Compressibility (1/GPa) = 0.01543602
#
# Stress axis : x y z
#
# Youngs Moduli (GPa) = 99.62061 141.64078 119.79430
#
# Poissons Ratio (x) = 0.46744 0.23255
# Poissons Ratio (y) = 0.32877 -0.02833
# Poissons Ratio (z) = 0.19339 -0.03350
#
# Static dielectric constant tensor:
#      x y z
#    x 1.946450 0.000000 -0.048470 
#    y 0.000000 1.861140 0.000010 
#    z -0.048470 0.000010 2.087410 
# 
# From -- ./inp_files/299647.got.cif
#   From: 2010.05.17/outbox.cif.g08.bks.cpg/sg12_150_cif.got.tgz:299647.got - 2010.06.03 13:09:07.
