data_PCOD9198107
_publ_section_title
;
Structure prediction by ZEFSAII (Michael W. Deem and Ramdas Pophale) SiO2 
 PCOD9198107
Probable space group: C 2/M
;
_chemical_formula_sum "Si O2"
_cell_formula_units_Z 56
_cell_length_a 19.369971
_cell_length_b 7.436635
_cell_length_c 17.469241
_cell_angle_alpha 90.000000
_cell_angle_beta 79.607055
_cell_angle_gamma 90.000000
_cell_volume 2475.114005
_symmetry_space_group_name_H-M "C 2/M"
_symmetry_group_IT_number 12
_symmetry_cell_setting 'monoclinic'
loop_
_space_group_symop_operation_xyz
x,y,z
-x,y,-z
-x,-y,-z
x,-y,z
1/2+x,1/2+y,z
1/2-x,1/2+y,-z
1/2-x,1/2-y,-z
1/2+x,1/2-y,z
loop_
_atom_site_type_symbol
_atom_site_label
_atom_site_fract_x
_atom_site_fract_y
_atom_site_fract_z
Si Si1 0.534527 0.719384 0.263052
Si Si2 0.876542 0.783068 0.294075
Si Si3 0.669350 0.714364 0.528927
Si Si4 0.061971 0.218502 0.429827
Si Si5 0.810335 0.289605 0.151020
Si Si6 0.841468 0.219745 0.875701
Si Si7 0.078299 0.206908 0.992189
O O1 0.534091 0.500000 0.262150
O O2 0.455653 0.776584 0.257286
O O3 0.550011 0.780678 0.346374
O O4 0.597275 0.774833 0.195158
O O5 0.857374 0.717820 0.383336
O O6 0.821601 0.731224 0.239493
O O7 0.877170 0.000000 0.296264
O O8 0.656366 0.500000 0.533723
O O9 0.750000 0.750000 0.500000
O O10 0.629920 0.782493 0.461466
O O11 0.000000 0.266432 0.500000
O O12 0.062979 0.000000 0.424266
O O13 0.812502 0.500000 0.132685
O O14 0.735894 0.217875 0.134508
O O15 0.877685 0.208515 0.094646
O O16 0.837580 0.000000 0.875400
O O17 0.869378 0.280689 0.953056
O O18 0.066187 0.000000 0.018801
O O19 0.000000 0.286876 0.000000
#
# Coordination Sequence:
#
# PCOD9198107 Si02
#       7
#     8   8   8   8   8   8   8
#     4   9  16  30  54  79 105 136 182 234 268 307
#     4  10  20  36  56  79 108 145 188 229 267 316
#     4  10  21  34  53  81 111 144 183 228 278 327
#     4   9  15  28  51  80 105 134 181 232 272 307
#     4  11  23  36  54  83 117 146 173 214 273 331
#     4   9  19  33  52  82 111 139 176 220 271 323
#     4  10  20  38  63  85 106 139 184 225 265 314
#
# _framework density 22.625219999999999
#
# number of rings (size 3 to 8) (size 9 to 14) (size 15 to 20)
#    0.000    2.286    1.429    1.714    2.000    3.143 
#    0.000    0.714    0.000    3.000    0.000    0.000 
#    0.000    0.000    0.000    0.000    0.000    0.000 
#
# Total GULP energy -156385.569774 kJ/mol
# GULP energy per Si atom -5585.198920 kJ/mol
# Density = 2.257372 g / cm^3
# Si number density = 22.625220 Si / 1000 Ang^3
#
#
#
# Elastic Constant Matrix: (Units=GPa)
#
#
# Indices 1 2 3 4 5 6 
#
# 1 157.9440 3.7104 20.9846 0.0000 12.8339 0.0000
# 2 3.7104 69.3035 -3.8211 0.0000 1.0611 0.0000
# 3 20.9846 -3.8211 78.5573 0.0000 13.1078 0.0000
# 4 0.0000 0.0000 0.0000 -35.6797 0.0000 -4.9325
# 5 12.8339 1.0611 13.1078 0.0000 44.4511 0.0000
# 6 0.0000 0.0000 0.0000 -4.9325 0.0000 6.4231
#
#
#
# Elastic Compliance Matrix: (Units=1/GPa)
#
#
# Indices 1 2 3 4 5 6 
#
# 1 0.006667 -0.000421 -0.001558 0.000000 -0.001455 0.000000
# 2 -0.000421 0.014509 0.000900 0.000000 -0.000490 0.000000
# 3 -0.001558 0.000900 0.013797 0.000000 -0.003640 0.000000
# 4 0.000000 0.000000 0.000000 -0.025337 0.000000 -0.019457
# 5 -0.001455 -0.000490 -0.003640 0.000000 0.024002 0.000000
# 6 0.000000 0.000000 0.000000 -0.019457 0.000000 0.140747
#
#
# Mechanical properties :
#
#
# Convention : Reuss Voigt Hill
#
# Bulk Modulus (GPa) = 30.47460 38.61692 34.54576
# Shear Modulus (GPa) = 26.66947 22.03429 24.35188
#
# Velocity S-wave (km/s) = 3.43702 3.12409 3.28428
# Velocity P-wave (km/s) = 5.40826 5.48803 5.44829
#
# Compressibility (1/GPa) = 0.03281421
#
# Stress axis : x y z
#
# Youngs Moduli (GPa) = 150.00296 68.92310 72.47955
#
# Poissons Ratio (x) = 0.02899 0.11296
# Poissons Ratio (y) = 0.06309 -0.06522
# Poissons Ratio (z) = 0.23377 -0.06202
#
# Static dielectric constant tensor:
#      x y z
#    x 1.106620 0.000000 -0.202570 
#    y 0.000000 1.919120 0.000000 
#    z -0.202570 0.000000 1.715620 
# 
# From -- ./inp_files/275175.got.cif
#   From: 2010.05.17/outbox.cif.g08.bks.cpg/sg12_138_cif.got.tgz:275175.got - 2010.06.03 13:09:07.
