data_PCOD9198729
_publ_section_title
;
Structure prediction by ZEFSAII (Michael W. Deem and Ramdas Pophale) SiO2 
 PCOD9198729
Probable space group: C 2/M
;
_chemical_formula_sum "Si O2"
_cell_formula_units_Z 56
_cell_length_a 19.149035
_cell_length_b 8.838709
_cell_length_c 19.718958
_cell_angle_alpha 90.000000
_cell_angle_beta 114.208945
_cell_angle_gamma 90.000000
_cell_volume 3043.976160
_symmetry_space_group_name_H-M "C 2/M"
_symmetry_group_IT_number 12
_symmetry_cell_setting 'monoclinic'
loop_
_space_group_symop_operation_xyz
x,y,z
-x,y,-z
-x,-y,-z
x,-y,z
1/2+x,1/2+y,z
1/2-x,1/2+y,-z
1/2-x,1/2-y,-z
1/2+x,1/2-y,z
loop_
_atom_site_type_symbol
_atom_site_label
_atom_site_fract_x
_atom_site_fract_y
_atom_site_fract_z
Si Si1 0.198255 0.181150 0.920524
Si Si2 0.681629 0.821499 0.428216
Si Si3 0.593517 0.329794 0.707256
Si Si4 0.457162 0.823270 0.180660
Si Si5 0.483395 0.169562 0.572326
Si Si6 0.761986 0.323958 0.795256
Si Si7 0.875173 0.179482 0.737270
O O1 0.111967 0.247269 0.889151
O O2 0.237589 0.215988 0.862769
O O3 0.194668 0.000000 0.924042
O O4 0.250000 0.250000 0.000000
O O5 0.750000 0.750000 0.500000
O O6 0.604069 0.806265 0.441454
O O7 0.661737 0.748634 0.346681
O O8 0.696766 0.000000 0.423850
O O9 0.584809 0.500000 0.732695
O O10 0.572303 0.207586 0.755041
O O11 0.535327 0.298982 0.624747
O O12 0.681702 0.314267 0.722825
O O13 0.540733 0.747584 0.213957
O O14 0.463230 0.000000 0.167534
O O15 0.500000 0.168648 0.500000
O O16 0.504227 0.000000 0.606411
O O17 0.787121 0.500000 0.805013
O O18 0.822681 0.222787 0.780615
O O19 0.880910 0.000000 0.730938
#
# Coordination Sequence:
#
# PCOD9198729 Si02
#       7
#     8   8   8   8   8   8   8
#     4  10  21  40  66  96 128 159 196 241 292 353
#     4  11  24  41  59  83 118 159 199 252 309 360
#     4  10  20  36  58  84 112 148 196 245 295 352
#     4  11  21  37  62  88 118 158 198 241 293 350
#     4  10  22  38  56  80 111 149 197 246 298 356
#     4   9  21  39  59  88 122 156 196 242 293 352
#     4  12  24  39  61  88 120 159 204 253 300 357
#
# _framework density 18.396991
#
# number of rings (size 3 to 8) (size 9 to 14) (size 15 to 20)
#    0.000    1.571    1.429    4.714    2.000    4.286 
#    0.000    0.714    0.000    4.286    0.000    0.000 
#    0.000    0.000    0.000    0.000    0.000    0.000 
#
# Total GULP energy -156182.569951 kJ/mol
# GULP energy per Si atom -5577.948927 kJ/mol
# Density = 1.835512 g / cm^3
# Si number density = 18.396991 Si / 1000 Ang^3
#
#
#
# Elastic Constant Matrix: (Units=GPa)
#
#
# Indices 1 2 3 4 5 6 
#
# 1 100.5613 68.0537 58.7259 0.0000 13.7386 0.0000
# 2 68.0537 129.0964 70.8378 0.0000 17.3512 0.0000
# 3 58.7259 70.8378 121.2365 0.0000 29.5516 0.0000
# 4 0.0000 0.0000 0.0000 32.3603 0.0000 4.4185
# 5 13.7386 17.3512 29.5516 0.0000 23.7244 0.0000
# 6 0.0000 0.0000 0.0000 4.4185 0.0000 30.0107
#
#
#
# Elastic Compliance Matrix: (Units=1/GPa)
#
#
# Indices 1 2 3 4 5 6 
#
# 1 0.016917 -0.006509 -0.004543 0.000000 0.000623 0.000000
# 2 -0.006509 0.013906 -0.004900 0.000000 -0.000298 0.000000
# 3 -0.004543 -0.004900 0.016941 0.000000 -0.014887 0.000000
# 4 0.000000 0.000000 0.000000 0.031536 0.000000 -0.004643
# 5 0.000623 -0.000298 -0.014887 0.000000 0.060552 0.000000
# 6 0.000000 0.000000 0.000000 -0.004643 0.000000 0.034005
#
#
# Mechanical properties :
#
#
# Convention : Reuss Voigt Hill
#
# Bulk Modulus (GPa) = 63.05091 82.90323 72.97707
# Shear Modulus (GPa) = 23.69146 27.43751 25.56449
#
# Velocity S-wave (km/s) = 3.59247 3.86607 3.73178
# Velocity P-wave (km/s) = 7.18015 8.06784 7.63690
#
# Compressibility (1/GPa) = 0.01586020
#
# Stress axis : x y z
#
# Youngs Moduli (GPa) = 59.11268 71.91239 59.02899
#
# Poissons Ratio (x) = 0.46804 0.26819
# Poissons Ratio (y) = 0.38474 0.28923
# Poissons Ratio (z) = 0.26857 0.35236
#
# Static dielectric constant tensor:
#      x y z
#    x 1.630100 0.000000 0.009840 
#    y 0.000000 1.668430 0.000000 
#    z 0.009840 0.000000 1.644570 
# 
# From -- ./inp_files/314376.got.cif
#   From: 2010.05.17/outbox.cif.g08.bks.cpg/sg12_158_cif.got.tgz:314376.got - 2010.06.03 13:09:07.
