data_PCOD9198325
_publ_section_title
;
Structure prediction by ZEFSAII (Michael W. Deem and Ramdas Pophale) SiO2 
 PCOD9198325
Probable space group: C 2/M
;
_chemical_formula_sum "Si O2"
_cell_formula_units_Z 36
_cell_length_a 9.799977
_cell_length_b 26.680085
_cell_length_c 7.084664
_cell_angle_alpha 90.000000
_cell_angle_beta 56.350856
_cell_angle_gamma 90.000000
_cell_volume 1542.011947
_symmetry_space_group_name_H-M "C 2/M"
_symmetry_group_IT_number 12
_symmetry_cell_setting 'monoclinic'
loop_
_space_group_symop_operation_xyz
x,y,z
-x,y,-z
-x,-y,-z
x,-y,z
1/2+x,1/2+y,z
1/2-x,1/2+y,-z
1/2-x,1/2-y,-z
1/2+x,1/2-y,z
loop_
_atom_site_type_symbol
_atom_site_label
_atom_site_fract_x
_atom_site_fract_y
_atom_site_fract_z
Si Si1 0.500000 0.313212 0.000000
Si Si2 0.544560 0.882516 0.692049
Si Si3 0.433118 0.768602 0.342705
Si Si4 0.135926 0.943106 0.623120
Si Si5 0.194488 0.094333 0.980939
O O1 0.482963 0.274914 0.841157
O O2 0.650457 0.351844 0.915175
O O3 0.500000 0.883875 0.500000
O O4 0.561390 0.824809 0.739381
O O5 0.715903 0.911500 0.580380
O O6 0.379503 0.904880 0.911157
O O7 0.500000 0.770687 0.500000
O O8 0.250000 0.750000 0.500000
O O9 0.178472 0.942882 0.815622
O O10 0.132689 0.000000 0.557305
O O11 0.954114 0.918157 0.762080
#
# Coordination Sequence:
#
# PCOD9198325 Si02
#       5
#     4   8   8   8   8
#     4  10  20  36  57  80 117 158 192 236 288 342
#     4   9  18  30  46  72 107 141 183 236 279 335
#     4  11  22  37  57  84 119 160 201 241 290 349
#     4   9  16  27  45  71 105 142 180 230 289 341
#     4   9  17  30  47  73 108 142 184 235 279 339
#
# _framework density 23.346122000000001
#
# number of rings (size 3 to 8) (size 9 to 14) (size 15 to 20)
#    0.000    2.667    0.000    6.667    0.000    8.444 
#    0.000    0.000    0.000    0.000    0.000    0.778 
#    0.000  223.111    0.000   16.889    0.000    0.000 
#
# Total GULP energy -100521.500200 kJ/mol
# GULP energy per Si atom -5584.527789 kJ/mol
# Density = 2.329299 g / cm^3
# Si number density = 23.346122 Si / 1000 Ang^3
#
#
#
# Elastic Constant Matrix: (Units=GPa)
#
#
# Indices 1 2 3 4 5 6 
#
# 1 118.2150 50.9906 58.1929 0.0000 -45.7644 0.0000
# 2 50.9906 172.5733 59.1336 0.0000 -19.4756 0.0000
# 3 58.1929 59.1336 108.0063 0.0000 -30.8608 0.0000
# 4 0.0000 0.0000 0.0000 53.3692 0.0000 -2.7144
# 5 -45.7644 -19.4756 -30.8608 0.0000 51.0725 0.0000
# 6 0.0000 0.0000 0.0000 -2.7144 0.0000 6.0952
#
#
#
# Elastic Compliance Matrix: (Units=1/GPa)
#
#
# Indices 1 2 3 4 5 6 
#
# 1 0.015475 -0.001917 -0.004272 0.000000 0.010554 0.000000
# 2 -0.001917 0.007378 -0.003256 0.000000 -0.000872 0.000000
# 3 -0.004272 -0.003256 0.014377 0.000000 0.003617 0.000000
# 4 0.000000 0.000000 0.000000 0.019172 0.000000 0.008538
# 5 0.010554 -0.000872 0.003617 0.000000 0.030890 0.000000
# 6 0.000000 0.000000 0.000000 0.008538 0.000000 0.167864
#
#
# Mechanical properties :
#
#
# Convention : Reuss Voigt Hill
#
# Bulk Modulus (GPa) = 54.52836 81.71432 68.12134
# Shear Modulus (GPa) = 17.84689 37.47255 27.65972
#
# Velocity S-wave (km/s) = 2.76786 4.01070 3.44578
# Velocity P-wave (km/s) = 5.79845 7.51830 6.71367
#
# Compressibility (1/GPa) = 0.01833908
#
# Stress axis : x y z
#
# Youngs Moduli (GPa) = 64.61993 135.53103 69.55660
#
# Poissons Ratio (x) = 0.25987 0.29718
# Poissons Ratio (y) = 0.12390 0.22645
# Poissons Ratio (z) = 0.27609 0.44125
#
# Static dielectric constant tensor:
#      x y z
#    x 1.914200 0.000000 0.036730 
#    y 0.000000 1.718270 0.000000 
#    z 0.036730 0.000000 1.885280 
# 
# From -- ./inp_files/50355.got.cif
#   From: 2010.05.17/outbox.cif.g08.bks.cpg/sg12_26_cif.got.tgz:50355.got - 2010.06.03 13:09:07.
