data_PCOD9198716
_publ_section_title
;
Structure prediction by ZEFSAII (Michael W. Deem and Ramdas Pophale) SiO2 
 PCOD9198716
Probable space group: C 2/M
;
_chemical_formula_sum "Si O2"
_cell_formula_units_Z 64
_cell_length_a 27.755785
_cell_length_b 9.046858
_cell_length_c 15.230655
_cell_angle_alpha 90.000000
_cell_angle_beta 125.170387
_cell_angle_gamma 90.000000
_cell_volume 3126.275138
_symmetry_space_group_name_H-M "C 2/M"
_symmetry_group_IT_number 12
_symmetry_cell_setting 'monoclinic'
loop_
_space_group_symop_operation_xyz
x,y,z
-x,y,-z
-x,-y,-z
x,-y,z
1/2+x,1/2+y,z
1/2-x,1/2+y,-z
1/2-x,1/2-y,-z
1/2+x,1/2-y,z
loop_
_atom_site_type_symbol
_atom_site_label
_atom_site_fract_x
_atom_site_fract_y
_atom_site_fract_z
Si Si1 0.347650 0.178110 0.889770
Si Si2 0.680068 0.669236 0.515210
Si Si3 0.763866 0.178699 0.108274
Si Si4 0.969101 0.178566 0.058510
Si Si5 0.002624 0.825194 0.281470
Si Si6 0.584004 0.826116 0.511561
Si Si7 0.396494 0.325548 0.292069
Si Si8 0.821945 0.328354 0.664898
O O1 0.287109 0.218736 0.875670
O O2 0.345490 0.218381 0.784405
O O3 0.352768 0.000000 0.899469
O O4 0.404032 0.253677 0.991954
O O5 0.661824 0.500000 0.511170
O O6 0.649603 0.774736 0.553198
O O7 0.750633 0.675390 0.595515
O O8 0.661626 0.724813 0.399131
O O9 0.829335 0.223598 0.207365
O O10 0.764093 0.000000 0.100531
O O11 0.750000 0.250000 0.000000
O O12 0.004852 0.224758 0.182972
O O13 0.965066 0.000000 0.056253
O O14 0.000000 0.223036 0.000000
O O15 0.935841 0.806248 0.246711
O O16 0.043657 0.741507 0.392901
O O17 0.016309 0.000000 0.300028
O O18 0.573217 0.758188 0.595684
O O19 0.577857 0.000000 0.507406
O O20 0.395932 0.500000 0.312794
O O21 0.838554 0.500000 0.664660
#
# Coordination Sequence:
#
# PCOD9198716 Si02
#       8
#     8   8   8   8   8   8   8   8
#     4  10  21  37  59  87 121 155 191 238 300 360
#     4  10  20  36  58  83 117 158 197 239 292 355
#     4  10  21  38  62  92 125 161 199 245 300 359
#     4  10  23  42  63  89 119 154 205 256 296 354
#     4  10  22  41  63  86 117 158 204 253 306 363
#     4  12  25  38  58  88 122 157 201 254 303 357
#     4  10  21  40  64  88 120 163 206 247 301 367
#     4   9  19  36  57  84 117 152 194 244 295 351
#
# _framework density 20.471647999999998
#
# number of rings (size 3 to 8) (size 9 to 14) (size 15 to 20)
#    0.000    1.875    0.000    3.375    1.750    7.750 
#    0.000    1.250    0.000    0.000    0.000    0.000 
#    0.000    0.000    0.000    0.000    0.000    0.000 
#
# Total GULP energy -178875.746426 kJ/mol
# GULP energy per Si atom -5589.867076 kJ/mol
# Density = 2.042505 g / cm^3
# Si number density = 20.471648 Si / 1000 Ang^3
#
#
#
# Elastic Constant Matrix: (Units=GPa)
#
#
# Indices 1 2 3 4 5 6 
#
# 1 59.8903 18.1171 20.1658 0.0000 -5.6555 0.0000
# 2 18.1171 37.5993 37.8019 0.0000 -7.5377 0.0000
# 3 20.1658 37.8019 126.6162 0.0000 -16.4204 0.0000
# 4 0.0000 0.0000 0.0000 31.7457 0.0000 1.2458
# 5 -5.6555 -7.5377 -16.4204 0.0000 36.0281 0.0000
# 6 0.0000 0.0000 0.0000 1.2458 0.0000 22.1009
#
#
#
# Elastic Compliance Matrix: (Units=1/GPa)
#
#
# Indices 1 2 3 4 5 6 
#
# 1 0.019601 -0.008904 -0.000325 0.000000 0.001066 0.000000
# 2 -0.008904 0.042347 -0.010901 0.000000 0.002494 0.000000
# 3 -0.000325 -0.010901 0.011587 0.000000 0.002949 0.000000
# 4 0.000000 0.000000 0.000000 0.031570 0.000000 -0.001780
# 5 0.001066 0.002494 0.002949 0.000000 0.029789 0.000000
# 6 0.000000 0.000000 0.000000 -0.001780 0.000000 0.045347
#
#
# Mechanical properties :
#
#
# Convention : Reuss Voigt Hill
#
# Bulk Modulus (GPa) = 30.05425 41.80838 35.93132
# Shear Modulus (GPa) = 21.58961 27.84301 24.71631
#
# Velocity S-wave (km/s) = 3.25100 3.69192 3.47845
# Velocity P-wave (km/s) = 5.36701 6.21616 5.80713
#
# Compressibility (1/GPa) = 0.03327316
#
# Stress axis : x y z
#
# Youngs Moduli (GPa) = 51.01823 23.61467 86.30530
#
# Poissons Ratio (x) = 0.21026 0.02807
# Poissons Ratio (y) = 0.45427 0.94084
# Poissons Ratio (z) = 0.01659 0.25743
#
# Static dielectric constant tensor:
#      x y z
#    x 1.758940 0.000000 0.004670 
#    y 0.000000 1.683270 0.000000 
#    z 0.004670 0.000000 1.714360 
# 
# From -- ./inp_files/249905.got.cif
#   From: 2010.05.17/outbox.cif.g08.bks.cpg/sg12_125_cif.got.tgz:249905.got - 2010.06.03 13:09:07.
