data_PCOD9198363
_publ_section_title
;
Structure prediction by ZEFSAII (Michael W. Deem and Ramdas Pophale) SiO2 
 PCOD9198363
Probable space group: C 2/M
;
_chemical_formula_sum "Si O2"
_cell_formula_units_Z 48
_cell_length_a 19.501672
_cell_length_b 7.556659
_cell_length_c 12.842922
_cell_angle_alpha 90.000000
_cell_angle_beta 80.409485
_cell_angle_gamma 90.000000
_cell_volume 1866.177036
_symmetry_space_group_name_H-M "C 2/M"
_symmetry_group_IT_number 12
_symmetry_cell_setting 'monoclinic'
loop_
_space_group_symop_operation_xyz
x,y,z
-x,y,-z
-x,-y,-z
x,-y,z
1/2+x,1/2+y,z
1/2-x,1/2+y,-z
1/2-x,1/2-y,-z
1/2+x,1/2-y,z
loop_
_atom_site_type_symbol
_atom_site_label
_atom_site_fract_x
_atom_site_fract_y
_atom_site_fract_z
Si Si1 0.998021 0.205578 0.328765
Si Si2 0.139835 0.216340 0.218257
Si Si3 0.454377 0.205347 0.109118
Si Si4 0.635597 0.295622 0.538804
Si Si5 0.829458 0.789947 0.011562
Si Si6 0.749203 0.285520 0.343977
O O1 0.971325 0.209919 0.215919
O O2 0.939266 0.285145 0.418291
O O3 0.075829 0.279322 0.304652
O O4 0.004132 0.000000 0.357424
O O5 0.130525 0.274138 0.102743
O O6 0.214971 0.267323 0.243849
O O7 0.138444 0.000000 0.219449
O O8 0.472581 0.000000 0.116353
O O9 0.500000 0.278439 0.000000
O O10 0.372963 0.215536 0.097038
O O11 0.626114 0.500000 0.510142
O O12 0.690365 0.222681 0.441898
O O13 0.678309 0.289364 0.636363
O O14 0.835101 0.000000 0.018913
O O15 0.750000 0.750000 0.000000
O O16 0.754740 0.500000 0.346640
#
# Coordination Sequence:
#
# PCOD9198363 Si02
#       6
#     8   8   8   8   8   8
#     4  10  20  36  57  82 110 144 187 229 276 330
#     4   9  19  35  56  80 108 144 182 223 274 328
#     4  11  23  39  58  82 112 148 189 231 279 333
#     4   9  19  34  55  83 109 140 182 225 273 329
#     4  11  23  39  58  83 115 150 188 229 279 332
#     4   9  18  35  56  79 111 145 178 223 274 328
#
# _framework density 25.721032999999998
#
# number of rings (size 3 to 8) (size 9 to 14) (size 15 to 20)
#    0.000    2.167    1.667    1.000    2.333    2.000 
#    0.000    5.000    0.000    0.000    0.000    5.833 
#    0.000    0.000    0.000    0.000    0.000    0.000 
#
# Total GULP energy -134146.307397 kJ/mol
# GULP energy per Si atom -5589.429475 kJ/mol
# Density = 2.566249 g / cm^3
# Si number density = 25.721033 Si / 1000 Ang^3
#
#
#
# Elastic Constant Matrix: (Units=GPa)
#
#
# Indices 1 2 3 4 5 6 
#
# 1 125.1220 -4.9112 8.8754 0.0000 7.6972 0.0000
# 2 -4.9112 80.0001 -3.3145 0.0000 -0.8242 0.0000
# 3 8.8754 -3.3145 51.4071 0.0000 15.2557 0.0000
# 4 0.0000 0.0000 0.0000 3.5986 0.0000 2.8904
# 5 7.6972 -0.8242 15.2557 0.0000 53.2210 0.0000
# 6 0.0000 0.0000 0.0000 2.8904 0.0000 16.3031
#
#
#
# Elastic Compliance Matrix: (Units=1/GPa)
#
#
# Indices 1 2 3 4 5 6 
#
# 1 0.008142 0.000444 -0.001125 0.000000 -0.000848 0.000000
# 2 0.000444 0.012558 0.000759 0.000000 -0.000087 0.000000
# 3 -0.001125 0.000759 0.021470 0.000000 -0.005980 0.000000
# 4 0.000000 0.000000 0.000000 0.324025 0.000000 -0.057446
# 5 -0.000848 -0.000087 -0.005980 0.000000 0.020625 0.000000
# 6 0.000000 0.000000 0.000000 -0.057446 0.000000 0.071523
#
#
# Mechanical properties :
#
#
# Convention : Reuss Voigt Hill
#
# Bulk Modulus (GPa) = 23.62624 28.64763 26.13693
# Shear Modulus (GPa) = 10.58659 31.68318 21.13488
#
# Velocity S-wave (km/s) = 2.03098 3.51351 2.86963
# Velocity P-wave (km/s) = 3.83475 5.25563 4.60038
#
# Compressibility (1/GPa) = 0.04232582
#
# Stress axis : x y z
#
# Youngs Moduli (GPa) = 122.82542 79.63175 46.57573
#
# Poissons Ratio (x) = -0.03539 0.05241
# Poissons Ratio (y) = -0.05459 -0.03534
# Poissons Ratio (z) = 0.13822 -0.06043
#
# Static dielectric constant tensor:
#      x y z
#    x 2.047890 0.000000 -0.037140 
#    y 0.000000 1.970950 0.000000 
#    z -0.037140 0.000000 2.066120 
# 
# From -- ./inp_files/221711.got.cif
#   From: 2010.05.17/outbox.cif.g08.bks.cpg/sg12_111_cif.got.tgz:221711.got - 2010.06.03 13:09:07.
