data_PCOD9198863
_publ_section_title
;
Structure prediction by ZEFSAII (Michael W. Deem and Ramdas Pophale) SiO2 
 PCOD9198863
Probable space group: C 2/M
;
_chemical_formula_sum "Si O2"
_cell_formula_units_Z 64
_cell_length_a 14.816389
_cell_length_b 9.097082
_cell_length_c 28.501170
_cell_angle_alpha 90.000000
_cell_angle_beta 53.480226
_cell_angle_gamma 90.000000
_cell_volume 3087.272353
_symmetry_space_group_name_H-M "C 2/M"
_symmetry_group_IT_number 12
_symmetry_cell_setting 'monoclinic'
loop_
_space_group_symop_operation_xyz
x,y,z
-x,y,-z
-x,-y,-z
x,-y,z
1/2+x,1/2+y,z
1/2-x,1/2+y,-z
1/2-x,1/2-y,-z
1/2+x,1/2-y,z
loop_
_atom_site_type_symbol
_atom_site_label
_atom_site_fract_x
_atom_site_fract_y
_atom_site_fract_z
Si Si1 0.148345 0.826219 0.593516
Si Si2 0.204110 0.826515 0.746545
Si Si3 0.327296 0.326833 0.850105
Si Si4 0.735668 0.330447 0.363431
Si Si5 0.417993 0.329040 0.722394
Si Si6 0.098384 0.675183 0.865835
Si Si7 0.020861 0.826600 0.544732
Si Si8 0.648930 0.174645 0.058630
O O1 0.241595 0.736191 0.592353
O O2 0.111017 0.768345 0.553924
O O3 0.037259 0.813237 0.660691
O O4 0.175879 0.000000 0.582154
O O5 0.199015 0.758208 0.696489
O O6 0.326288 0.778559 0.728518
O O7 0.119611 0.757925 0.810401
O O8 0.191489 0.000000 0.748141
O O9 0.330267 0.500000 0.861932
O O10 0.412442 0.305405 0.780128
O O11 0.203199 0.293193 0.867458
O O12 0.350030 0.229311 0.888075
O O13 0.769188 0.500000 0.352506
O O14 0.602782 0.322573 0.393961
O O15 0.380635 0.500000 0.726459
O O16 0.101568 0.500000 0.855830
O O17 0.975028 0.712025 0.922946
O O18 0.000000 0.759310 0.500000
O O19 0.049574 0.000000 0.529115
O O20 0.662511 0.000000 0.052188
O O21 0.750000 0.250000 0.000000
#
# Coordination Sequence:
#
# PCOD9198863 Si02
#       8
#     8   8   8   8   8   8   8   8
#     4  10  20  36  58  87 119 154 197 240 291 352
#     4  11  21  34  58  89 120 152 195 243 293 349
#     4   9  19  37  60  84 115 152 194 235 287 348
#     4  11  22  37  57  85 119 155 196 242 297 353
#     4   9  18  36  59  84 119 159 191 232 298 358
#     4   9  21  41  61  84 117 159 195 233 292 354
#     4   9  19  38  62  83 113 160 203 241 291 352
#     4  11  24  41  61  86 117 153 198 240 287 344
#
# _framework density 20.730273
#
# number of rings (size 3 to 8) (size 9 to 14) (size 15 to 20)
#    0.000    2.125    1.250    2.625    1.750    4.500 
#    0.000    2.500    0.000    2.625    0.000    0.000 
#    0.000    0.000    0.000    0.000    0.000    0.000 
#
# Total GULP energy -178744.609411 kJ/mol
# GULP energy per Si atom -5585.769044 kJ/mol
# Density = 2.068309 g / cm^3
# Si number density = 20.730273 Si / 1000 Ang^3
#
#
#
# Elastic Constant Matrix: (Units=GPa)
#
#
# Indices 1 2 3 4 5 6 
#
# 1 70.4962 20.2482 -1.6976 0.0000 5.0501 0.0000
# 2 20.2482 39.9500 6.3188 0.0000 -0.6027 0.0000
# 3 -1.6976 6.3188 38.7123 0.0000 -5.7022 0.0000
# 4 0.0000 0.0000 0.0000 15.6651 0.0000 8.1264
# 5 5.0501 -0.6027 -5.7022 0.0000 24.2030 0.0000
# 6 0.0000 0.0000 0.0000 8.1264 0.0000 27.3462
#
#
#
# Elastic Compliance Matrix: (Units=1/GPa)
#
#
# Indices 1 2 3 4 5 6 
#
# 1 0.017041 -0.008959 0.001712 0.000000 -0.003375 0.000000
# 2 -0.008959 0.030408 -0.005148 0.000000 0.001414 0.000000
# 3 0.001712 -0.005148 0.027634 0.000000 0.006025 0.000000
# 4 0.000000 0.000000 0.000000 0.075471 0.000000 -0.022427
# 5 -0.003375 0.001414 0.006025 0.000000 0.043476 0.000000
# 6 0.000000 0.000000 0.000000 -0.022427 0.000000 0.043233
#
#
# Mechanical properties :
#
#
# Convention : Reuss Voigt Hill
#
# Bulk Modulus (GPa) = 19.88287 22.09969 20.99128
# Shear Modulus (GPa) = 17.93290 21.72879 19.83085
#
# Velocity S-wave (km/s) = 2.94438 3.24105 3.09627
# Velocity P-wave (km/s) = 4.60122 4.96887 4.78857
#
# Compressibility (1/GPa) = 0.05029454
#
# Stress axis : x y z
#
# Youngs Moduli (GPa) = 58.68053 32.88652 36.18673
#
# Poissons Ratio (x) = 0.29463 -0.06197
# Poissons Ratio (y) = 0.52572 0.18628
# Poissons Ratio (z) = -0.10048 0.16930
#
# Static dielectric constant tensor:
#      x y z
#    x 1.774740 0.000000 -0.006890 
#    y 0.000000 1.689320 0.000000 
#    z -0.006890 0.000000 1.763740 
# 
# From -- ./inp_files/375500.got.cif
#   From: 2010.05.17/outbox.cif.g08.bks.cpg/sg12_188_cif.got.tgz:375500.got - 2010.06.03 13:09:07.
