data_PCOD9198646
_publ_section_title
;
Structure prediction by ZEFSAII (Michael W. Deem and Ramdas Pophale) SiO2 
 PCOD9198646
Probable space group: C 2/M
;
_chemical_formula_sum "Si O2"
_cell_formula_units_Z 64
_cell_length_a 29.393082
_cell_length_b 9.936274
_cell_length_c 23.497083
_cell_angle_alpha 90.000000
_cell_angle_beta 29.279507
_cell_angle_gamma 90.000000
_cell_volume 3356.248509
_symmetry_space_group_name_H-M "C 2/M"
_symmetry_group_IT_number 12
_symmetry_cell_setting 'monoclinic'
loop_
_space_group_symop_operation_xyz
x,y,z
-x,y,-z
-x,-y,-z
x,-y,z
1/2+x,1/2+y,z
1/2-x,1/2+y,-z
1/2-x,1/2-y,-z
1/2+x,1/2-y,z
loop_
_atom_site_type_symbol
_atom_site_label
_atom_site_fract_x
_atom_site_fract_y
_atom_site_fract_z
Si Si1 0.757177 0.841960 0.225216
Si Si2 0.064873 0.657302 0.651413
Si Si3 0.235902 0.348921 0.963160
Si Si4 0.887784 0.660640 0.010197
Si Si5 0.562584 0.850663 0.376084
Si Si6 0.950356 0.848329 0.705993
Si Si7 0.599891 0.158311 0.746047
Si Si8 0.239704 0.658699 0.377088
O O1 0.667186 0.824083 0.283156
O O2 0.728595 0.814194 0.321797
O O3 0.783793 0.000000 0.192929
O O4 0.838508 0.746791 0.113043
O O5 0.036640 0.500000 0.678096
O O6 0.096545 0.680101 0.681589
O O7 0.148313 0.681418 0.515415
O O8 0.983892 0.760137 0.722715
O O9 0.209238 0.500000 0.011313
O O10 0.339058 0.356183 0.824540
O O11 0.250000 0.250000 0.000000
O O12 0.163622 0.306011 0.993482
O O13 0.874203 0.500000 0.034196
O O14 0.997242 0.686064 0.883202
O O15 0.500000 0.855828 0.500000
O O16 0.523323 0.738031 0.377618
O O17 0.559703 0.000000 0.351803
O O18 0.987750 0.000000 0.666998
O O19 0.677309 0.250706 0.689772
O O20 0.620025 0.000000 0.733493
O O21 0.261915 0.500000 0.358592
#
# Coordination Sequence:
#
# PCOD9198646 Si02
#       8
#     8   8   8   8   8   8   8   8
#     4  10  21  37  58  85 115 153 199 241 289 347
#     4  10  21  40  63  86 118 156 193 240 298 359
#     4  10  21  36  55  81 115 152 191 233 283 340
#     4  10  21  39  58  81 119 157 193 240 290 347
#     4  10  20  36  58  82 113 154 197 236 281 346
#     4  11  22  35  55  87 119 149 188 234 286 340
#     4  10  22  39  62  88 113 152 199 242 298 356
#     4  10  22  40  62  87 116 150 193 249 301 348
#
# _framework density 19.068909000000001
#
# number of rings (size 3 to 8) (size 9 to 14) (size 15 to 20)
#    0.000    1.875    1.250    2.250    0.000    7.250 
#    0.000    3.750    0.000    0.000    0.000    0.000 
#    0.000    0.000    0.000    0.000    0.000    0.000 
#
# Total GULP energy -178652.392100 kJ/mol
# GULP energy per Si atom -5582.887253 kJ/mol
# Density = 1.902551 g / cm^3
# Si number density = 19.068909 Si / 1000 Ang^3
#
#
#
# Elastic Constant Matrix: (Units=GPa)
#
#
# Indices 1 2 3 4 5 6 
#
# 1 46.8961 36.3086 5.5389 0.0005 -2.1958 -0.0001
# 2 36.3086 66.8597 29.7910 0.0024 -0.4883 -0.0008
# 3 5.5389 29.7910 68.3239 0.0010 5.3961 -0.0004
# 4 0.0005 0.0024 0.0010 26.1589 -0.0004 1.8419
# 5 -2.1958 -0.4883 5.3961 -0.0004 32.8524 0.0002
# 6 -0.0001 -0.0008 -0.0004 1.8419 0.0002 35.8044
#
#
#
# Elastic Compliance Matrix: (Units=1/GPa)
#
#
# Indices 1 2 3 4 5 6 
#
# 1 0.039841 -0.025012 0.007593 0.000001 0.001044 0.000000
# 2 -0.025012 0.034351 -0.013028 -0.000002 0.000979 0.000001
# 3 0.007593 -0.013028 0.019935 0.000000 -0.002960 0.000000
# 4 0.000001 -0.000002 0.000000 0.038367 0.000000 -0.001974
# 5 0.001044 0.000979 -0.002960 0.000000 0.031010 0.000000
# 6 0.000000 0.000001 0.000000 -0.001974 0.000000 0.028031
#
#
# Mechanical properties :
#
#
# Convention : Reuss Voigt Hill
#
# Bulk Modulus (GPa) = 30.08868 36.15075 33.11972
# Shear Modulus (GPa) = 18.97502 26.32590 22.65046
#
# Velocity S-wave (km/s) = 3.15791 3.71963 3.45022
# Velocity P-wave (km/s) = 5.39534 6.11937 5.76872
#
# Compressibility (1/GPa) = 0.03323509
#
# Stress axis : x y z
#
# Youngs Moduli (GPa) = 25.10007 29.11093 50.16343
#
# Poissons Ratio (x) = 0.72811 -0.38091
# Poissons Ratio (y) = 0.62779 0.65352
# Poissons Ratio (z) = -0.19060 0.37925
#
# Static dielectric constant tensor:
#      x y z
#    x 1.647750 0.000000 0.001270 
#    y 0.000000 1.662310 0.000000 
#    z 0.001270 0.000000 1.671980 
# 
# From -- ./inp_files/249756.got.cif
#   From: 2010.05.17/outbox.cif.g08.bks.cpg/sg12_125_cif.got.tgz:249756.got - 2010.06.03 13:09:07.
