data_PCOD9198314
_publ_section_title
;
Structure prediction by ZEFSAII (Michael W. Deem and Ramdas Pophale) SiO2 
 PCOD9198314
Probable space group: C 2/M
;
_chemical_formula_sum "Si O2"
_cell_formula_units_Z 40
_cell_length_a 15.003414
_cell_length_b 8.556485
_cell_length_c 20.421319
_cell_angle_alpha 90.000000
_cell_angle_beta 124.187449
_cell_angle_gamma 90.000000
_cell_volume 2168.611393
_symmetry_space_group_name_H-M "C 2/M"
_symmetry_group_IT_number 12
_symmetry_cell_setting 'monoclinic'
loop_
_space_group_symop_operation_xyz
x,y,z
-x,y,-z
-x,-y,-z
x,-y,z
1/2+x,1/2+y,z
1/2-x,1/2+y,-z
1/2-x,1/2-y,-z
1/2+x,1/2-y,z
loop_
_atom_site_type_symbol
_atom_site_label
_atom_site_fract_x
_atom_site_fract_y
_atom_site_fract_z
Si Si1 0.589437 0.314216 0.116793
Si Si2 0.159288 0.687644 0.413506
Si Si3 0.783399 0.314101 0.707573
Si Si4 0.951797 0.312268 0.408630
Si Si5 0.351524 0.812914 0.999833
O O1 0.581576 0.500000 0.105698
O O2 0.658499 0.269759 0.208552
O O3 0.645426 0.244866 0.074476
O O4 0.468318 0.245885 0.073655
O O5 0.169011 0.500000 0.417426
O O6 0.250000 0.750000 0.500000
O O7 0.173483 0.742180 0.345216
O O8 0.043411 0.727737 0.394405
O O9 0.801083 0.500000 0.720773
O O10 0.657193 0.276083 0.652459
O O11 0.932378 0.500000 0.399835
O O12 0.000000 0.273491 0.500000
O O13 0.349154 0.000000 0.000272
O O14 0.250000 0.750000 0.000000
#
# Coordination Sequence:
#
# PCOD9198314 Si02
#       5
#     8   8   8   8   8
#     4  11  23  41  63  91 125 163 205 252 304 359
#     4  10  21  36  56  80 110 149 195 245 299 355
#     4  11  23  38  57  85 120 156 199 253 305 362
#     4  10  20  36  57  80 110 151 198 248 302 362
#     4  11  22  41  68  96 127 161 198 244 300 367
#
# _framework density 18.444983000000001
#
# number of rings (size 3 to 8) (size 9 to 14) (size 15 to 20)
#    0.000    1.400    2.000    5.400    0.000    3.600 
#    0.000    6.000    0.000    0.000    0.000    0.000 
#    0.000    0.000    0.000    0.000    0.000    0.000 
#
# Total GULP energy -111744.136602 kJ/mol
# GULP energy per Si atom -5587.206830 kJ/mol
# Density = 1.840300 g / cm^3
# Si number density = 18.444983 Si / 1000 Ang^3
#
#
#
# Elastic Constant Matrix: (Units=GPa)
#
#
# Indices 1 2 3 4 5 6 
#
# 1 167.8840 59.0074 75.6131 0.0000 -6.8290 0.0000
# 2 59.0074 109.0550 46.2129 0.0000 -2.0279 0.0000
# 3 75.6131 46.2129 142.3091 0.0000 -11.7662 0.0000
# 4 0.0000 0.0000 0.0000 34.6959 0.0000 4.3790
# 5 -6.8290 -2.0279 -11.7662 0.0000 16.4066 0.0000
# 6 0.0000 0.0000 0.0000 4.3790 0.0000 30.9240
#
#
#
# Elastic Compliance Matrix: (Units=1/GPa)
#
#
# Indices 1 2 3 4 5 6 
#
# 1 0.008697 -0.003199 -0.003524 0.000000 0.000697 0.000000
# 2 -0.003199 0.011833 -0.002266 0.000000 -0.001494 0.000000
# 3 -0.003524 -0.002266 0.010089 0.000000 0.005489 0.000000
# 4 0.000000 0.000000 0.000000 0.029346 0.000000 -0.004156
# 5 0.000697 -0.001494 0.005489 0.000000 0.064993 0.000000
# 6 0.000000 0.000000 0.000000 -0.004156 0.000000 0.032926
#
#
# Mechanical properties :
#
#
# Convention : Reuss Voigt Hill
#
# Bulk Modulus (GPa) = 79.11719 86.76831 82.94275
# Shear Modulus (GPa) = 27.76595 32.29962 30.03278
#
# Velocity S-wave (km/s) = 3.88408 4.18919 4.03952
# Velocity P-wave (km/s) = 7.94364 8.39898 8.17449
#
# Compressibility (1/GPa) = 0.01263948
#
# Stress axis : x y z
#
# Youngs Moduli (GPa) = 114.98818 84.50723 99.11493
#
# Poissons Ratio (x) = 0.27035 0.34931
# Poissons Ratio (y) = 0.36786 0.22464
# Poissons Ratio (z) = 0.40525 0.19153
#
# Static dielectric constant tensor:
#      x y z
#    x 1.629240 0.000000 -0.018030 
#    y 0.000000 1.634880 0.000000 
#    z -0.018030 0.000000 1.603760 
# 
# From -- ./inp_files/266686.got.cif
#   From: 2010.05.17/outbox.cif.g08.bks.cpg/sg12_134_cif.got.tgz:266686.got - 2010.06.03 13:09:07.
