data_PCOD9198795
_publ_section_title
;
Structure prediction by ZEFSAII (Michael W. Deem and Ramdas Pophale) SiO2 
 PCOD9198795
Probable space group: C 2/M
;
_chemical_formula_sum "Si O2"
_cell_formula_units_Z 48
_cell_length_a 19.957927
_cell_length_b 8.733342
_cell_length_c 21.339702
_cell_angle_alpha 90.000000
_cell_angle_beta 40.727956
_cell_angle_gamma 90.000000
_cell_volume 2426.853851
_symmetry_space_group_name_H-M "C 2/M"
_symmetry_group_IT_number 12
_symmetry_cell_setting 'monoclinic'
loop_
_space_group_symop_operation_xyz
x,y,z
-x,y,-z
-x,-y,-z
x,-y,z
1/2+x,1/2+y,z
1/2-x,1/2+y,-z
1/2-x,1/2-y,-z
1/2+x,1/2-y,z
loop_
_atom_site_type_symbol
_atom_site_label
_atom_site_fract_x
_atom_site_fract_y
_atom_site_fract_z
Si Si1 0.763300 0.318779 0.601008
Si Si2 0.537981 0.817787 0.749875
Si Si3 0.353994 0.319104 0.661855
Si Si4 0.652491 0.181796 0.881900
Si Si5 0.527085 0.318107 0.077279
Si Si6 0.035289 0.683858 0.610158
O O1 0.741064 0.500000 0.615007
O O2 0.657427 0.227828 0.672463
O O3 0.820156 0.275548 0.625229
O O4 0.845830 0.280428 0.488679
O O5 0.475953 0.737076 0.849262
O O6 0.507479 0.773522 0.700922
O O7 0.527995 0.000000 0.763631
O O8 0.353892 0.500000 0.647035
O O9 0.266721 0.290644 0.776277
O O10 0.462166 0.267240 0.612898
O O11 0.572773 0.247924 0.887071
O O12 0.635914 0.000000 0.898121
O O13 0.622631 0.258444 0.968711
O O14 0.521158 0.500000 0.077938
O O15 0.023761 0.500000 0.611235
#
# Coordination Sequence:
#
# PCOD9198795 Si02
#       6
#     8   8   8   8   8   8
#     4  11  22  38  61  87 115 152 198 244 288 340
#     4  11  22  39  60  85 118 155 194 239 293 345
#     4  11  23  38  60  88 118 154 194 237 288 346
#     4  10  20  36  58  85 117 150 188 238 289 342
#     4  11  21  34  58  89 115 147 191 239 288 344
#     4  10  24  41  58  83 119 158 194 239 292 344
#
# _framework density 19.778694999999999
#
# number of rings (size 3 to 8) (size 9 to 14) (size 15 to 20)
#    0.000    1.333    1.667    5.500    0.000    6.667 
#    0.000    0.833    0.000    0.000    0.000    0.000 
#    0.000    0.000    0.000    0.000    0.000    0.000 
#
# Total GULP energy -134203.419580 kJ/mol
# GULP energy per Si atom -5591.809149 kJ/mol
# Density = 1.973368 g / cm^3
# Si number density = 19.778695 Si / 1000 Ang^3
#
#
#
# Elastic Constant Matrix: (Units=GPa)
#
#
# Indices 1 2 3 4 5 6 
#
# 1 31.3155 -7.0133 -15.8522 0.0000 7.9621 -0.0002
# 2 -7.0133 36.1724 9.1119 0.0000 0.9118 -0.0003
# 3 -15.8522 9.1119 63.1908 0.0000 12.9166 0.0001
# 4 0.0000 0.0000 0.0000 32.3403 0.0000 6.4576
# 5 7.9621 0.9118 12.9166 0.0000 27.5395 0.0002
# 6 -0.0002 -0.0003 0.0001 6.4576 0.0002 217.0550
#
#
#
# Elastic Compliance Matrix: (Units=1/GPa)
#
#
# Indices 1 2 3 4 5 6 
#
# 1 0.045939 0.005672 0.014887 0.000000 -0.020452 0.000000
# 2 0.005672 0.029418 -0.002527 0.000000 -0.001429 0.000000
# 3 0.014887 -0.002527 0.022991 0.000000 -0.015004 0.000000
# 4 0.000000 0.000000 0.000000 0.031106 0.000000 -0.000925
# 5 -0.020452 -0.001429 -0.015004 0.000000 0.049309 0.000000
# 6 0.000000 0.000000 0.000000 -0.000925 0.000000 0.004635
#
#
# Mechanical properties :
#
#
# Convention : Reuss Voigt Hill
#
# Bulk Modulus (GPa) = 7.43977 11.46350 9.45163
# Shear Modulus (GPa) = 26.02318 65.01578 45.51948
#
# Velocity S-wave (km/s) = 3.63122 5.73960 4.80254
# Velocity P-wave (km/s) = 4.62068 7.05212 5.96167
#
# Compressibility (1/GPa) = 0.13441279
#
# Stress axis : x y z
#
# Youngs Moduli (GPa) = 21.76786 33.99309 43.49556
#
# Poissons Ratio (x) = -0.19282 -0.64752
# Poissons Ratio (y) = -0.12348 0.10991
# Poissons Ratio (z) = -0.32406 0.08590
#
# Static dielectric constant tensor:
#      x y z
#    x 1.665910 0.000000 0.015600 
#    y 0.000000 1.658620 0.000000 
#    z 0.015600 0.000000 1.718840 
# 
# From -- ./inp_files/319581.got.cif
#   From: 2010.05.17/outbox.cif.g08.bks.cpg/sg12_160_cif.got.tgz:319581.got - 2010.06.03 13:09:07.
