data_PCOD9198271
_publ_section_title
;
Structure prediction by ZEFSAII (Michael W. Deem and Ramdas Pophale) SiO2 
 PCOD9198271
Probable space group: C 2/M
;
_chemical_formula_sum "Si O2"
_cell_formula_units_Z 40
_cell_length_a 15.039057
_cell_length_b 8.842239
_cell_length_c 17.414945
_cell_angle_alpha 90.000000
_cell_angle_beta 103.583904
_cell_angle_gamma 90.000000
_cell_volume 2251.040452
_symmetry_space_group_name_H-M "C 2/M"
_symmetry_group_IT_number 12
_symmetry_cell_setting 'monoclinic'
loop_
_space_group_symop_operation_xyz
x,y,z
-x,y,-z
-x,-y,-z
x,-y,z
1/2+x,1/2+y,z
1/2-x,1/2+y,-z
1/2-x,1/2-y,-z
1/2+x,1/2-y,z
loop_
_atom_site_type_symbol
_atom_site_label
_atom_site_fract_x
_atom_site_fract_y
_atom_site_fract_z
Si Si1 0.102151 0.817565 0.993982
Si Si2 0.202876 0.318799 0.415374
Si Si3 0.503067 0.180985 0.591211
Si Si4 0.785999 0.680989 0.121835
Si Si5 0.178366 0.180804 0.704908
O O1 0.183940 0.778446 0.070307
O O2 0.100461 0.000000 0.986038
O O3 0.138703 0.747547 0.921781
O O4 0.000000 0.769962 0.000000
O O5 0.212501 0.500000 0.422752
O O6 0.250000 0.250000 0.500000
O O7 0.096041 0.283379 0.395101
O O8 0.250511 0.268777 0.346611
O O9 0.500000 0.218597 0.500000
O O10 0.580793 0.269418 0.651749
O O11 0.519828 0.000000 0.600421
O O12 0.792968 0.500000 0.122788
O O13 0.801766 0.744207 0.209654
O O14 0.183167 0.000000 0.713665
#
# Coordination Sequence:
#
# PCOD9198271 Si02
#       5
#     8   8   8   8   8
#     4   9  19  38  63  88 116 147 183 226 277 335
#     4  10  21  36  55  79 107 144 187 233 283 333
#     4  10  20  36  57  79 107 144 187 235 285 336
#     4  10  21  37  58  85 116 150 186 227 279 333
#     4  11  23  37  55  81 115 149 189 237 280 331
#
# _framework density 17.769559999999998
#
# number of rings (size 3 to 8) (size 9 to 14) (size 15 to 20)
#    0.000    2.000    2.000    1.200    0.000    4.800 
#    0.000    4.000    0.000    0.000    0.000    0.000 
#    0.000    0.000    0.000    0.000    0.000    0.000 
#
# Total GULP energy -111639.515315 kJ/mol
# GULP energy per Si atom -5581.975766 kJ/mol
# Density = 1.772912 g / cm^3
# Si number density = 17.769560 Si / 1000 Ang^3
#
#
#
# Elastic Constant Matrix: (Units=GPa)
#
#
# Indices 1 2 3 4 5 6 
#
# 1 155.9846 43.3700 94.0421 0.0000 -22.5991 0.0000
# 2 43.3700 22.6691 44.7536 0.0000 -4.7557 0.0000
# 3 94.0421 44.7536 175.0899 0.0000 -12.8428 0.0000
# 4 0.0000 0.0000 0.0000 27.8701 0.0000 -0.8976
# 5 -22.5991 -4.7557 -12.8428 0.0000 19.8202 0.0000
# 6 0.0000 0.0000 0.0000 -0.8976 0.0000 25.5978
#
#
#
# Elastic Compliance Matrix: (Units=1/GPa)
#
#
# Indices 1 2 3 4 5 6 
#
# 1 0.015894 -0.025893 -0.001097 0.000000 0.011199 0.000000
# 2 -0.025893 0.132150 -0.020694 0.000000 -0.011224 0.000000
# 3 -0.001097 -0.020694 0.011690 0.000000 0.001358 0.000000
# 4 0.000000 0.000000 0.000000 0.035921 0.000000 0.001260
# 5 0.011199 -0.011224 0.001358 0.000000 0.061410 0.000000
# 6 0.000000 0.000000 0.000000 0.001260 0.000000 0.039110
#
#
# Mechanical properties :
#
#
# Convention : Reuss Voigt Hill
#
# Bulk Modulus (GPa) = 15.53618 79.78612 47.66115
# Shear Modulus (GPa) = 12.10660 26.09615 19.10137
#
# Velocity S-wave (km/s) = 2.61303 3.83637 3.28220
# Velocity P-wave (km/s) = 4.22682 8.03876 6.42213
#
# Compressibility (1/GPa) = 0.06436587
#
# Stress axis : x y z
#
# Youngs Moduli (GPa) = 62.91661 7.56716 85.54551
#
# Poissons Ratio (x) = 0.19594 0.09385
# Poissons Ratio (y) = 1.62909 1.77028
# Poissons Ratio (z) = 0.06903 0.15659
#
# Static dielectric constant tensor:
#      x y z
#    x 1.601550 0.000000 -0.012970 
#    y 0.000000 1.600240 0.000000 
#    z -0.012970 0.000000 1.574260 
# 
# From -- ./inp_files/211207.got.cif
#   From: 2010.05.17/outbox.cif.g08.bks.cpg/sg12_106_cif.got.tgz:211207.got - 2010.06.03 13:09:07.
