data_PCOD9198528
_publ_section_title
;
Structure prediction by ZEFSAII (Michael W. Deem and Ramdas Pophale) SiO2 
 PCOD9198528
Probable space group: C 2/M
;
_chemical_formula_sum "Si O2"
_cell_formula_units_Z 48
_cell_length_a 16.116727
_cell_length_b 7.301796
_cell_length_c 14.892270
_cell_angle_alpha 90.000000
_cell_angle_beta 77.643671
_cell_angle_gamma 90.000000
_cell_volume 1711.941636
_symmetry_space_group_name_H-M "C 2/M"
_symmetry_group_IT_number 12
_symmetry_cell_setting 'monoclinic'
loop_
_space_group_symop_operation_xyz
x,y,z
-x,y,-z
-x,-y,-z
x,-y,z
1/2+x,1/2+y,z
1/2-x,1/2+y,-z
1/2-x,1/2-y,-z
1/2+x,1/2-y,z
loop_
_atom_site_type_symbol
_atom_site_label
_atom_site_fract_x
_atom_site_fract_y
_atom_site_fract_z
Si Si1 0.082109 0.292813 0.436140
Si Si2 0.664656 0.777957 0.106608
Si Si3 0.903475 0.280376 0.058698
Si Si4 0.477106 0.220534 0.220345
Si Si5 0.274874 0.775678 0.724332
Si Si6 0.645672 0.710389 0.604769
O O1 0.057277 0.500000 0.415627
O O2 0.135968 0.218548 0.341655
O O3 0.144335 0.301317 0.508404
O O4 0.000000 0.201764 0.500000
O O5 0.571438 0.729000 0.167962
O O6 0.727809 0.715618 0.171199
O O7 0.668331 0.000000 0.102433
O O8 0.660122 0.710738 0.004422
O O9 0.893630 0.500000 0.064225
O O10 0.911301 0.210503 0.158569
O O11 0.000000 0.249286 0.000000
O O12 0.445786 0.281089 0.324562
O O13 0.475308 0.000000 0.219657
O O14 0.206065 0.711202 0.668314
O O15 0.273400 0.000000 0.725019
O O16 0.667894 0.500000 0.584698
#
# Coordination Sequence:
#
# PCOD9198528 Si02
#       6
#     8   8   8   8   8   8
#     4  10  20  36  58  77  90 114 159 207 241 274
#     4   8  13  26  50  75  95 119 160 209 243 271
#     4   7  11  21  43  74  97 115 152 207 250 269
#     4   9  16  29  51  75  96 123 164 207 238 270
#     4   9  18  31  47  70  99 128 156 190 239 291
#     4  11  22  33  46  69 103 135 156 183 234 295
#
# _framework density 28.038339000000001
#
# number of rings (size 3 to 8) (size 9 to 14) (size 15 to 20)
#    0.000    3.000    0.000    4.000    0.000    3.000 
#    0.000    1.667    0.000    6.500    0.000    0.000 
#    0.000    0.000    0.000    0.000    0.000    0.000 
#
# Total GULP energy -134279.479014 kJ/mol
# GULP energy per Si atom -5594.978292 kJ/mol
# Density = 2.797452 g / cm^3
# Si number density = 28.038339 Si / 1000 Ang^3
#
#
#
# Elastic Constant Matrix: (Units=GPa)
#
#
# Indices 1 2 3 4 5 6 
#
# 1 96.2313 2.5955 22.3272 0.0000 22.2527 0.0000
# 2 2.5955 125.3907 1.2225 0.0000 3.6995 0.0000
# 3 22.3272 1.2225 213.5491 0.0000 26.6238 0.0000
# 4 0.0000 0.0000 0.0000 -14.4988 0.0000 16.0952
# 5 22.2527 3.6995 26.6238 0.0000 66.7597 0.0000
# 6 0.0000 0.0000 0.0000 16.0952 0.0000 -2.1189
#
#
#
# Elastic Compliance Matrix: (Units=1/GPa)
#
#
# Indices 1 2 3 4 5 6 
#
# 1 0.011376 -0.000125 -0.000754 0.000000 -0.003484 0.000000
# 2 -0.000125 0.007990 0.000018 0.000000 -0.000408 0.000000
# 3 -0.000754 0.000018 0.004978 0.000000 -0.001735 0.000000
# 4 0.000000 0.000000 0.000000 0.009280 0.000000 0.070490
# 5 -0.003484 -0.000408 -0.001735 0.000000 0.016855 0.000000
# 6 0.000000 0.000000 0.000000 0.070490 0.000000 0.063499
#
#
# Mechanical properties :
#
#
# Convention : Reuss Voigt Hill
#
# Bulk Modulus (GPa) = 44.20801 54.16237 49.18519
# Shear Modulus (GPa) = 40.57148 37.29679 38.93413
#
# Velocity S-wave (km/s) = 3.80807 3.65116 3.73044
# Velocity P-wave (km/s) = 5.92760 6.09375 6.01125
#
# Compressibility (1/GPa) = 0.02262034
#
# Stress axis : x y z
#
# Youngs Moduli (GPa) = 87.90684 125.16380 200.89209
#
# Poissons Ratio (x) = 0.01569 0.15153
# Poissons Ratio (y) = 0.01102 -0.00367
# Poissons Ratio (z) = 0.06631 -0.00229
#
# Static dielectric constant tensor:
#      x y z
#    x 2.339270 0.000000 0.018040 
#    y 0.000000 2.047070 0.000000 
#    z 0.018040 0.000000 2.096170 
# 
# From -- ./inp_files/212663.got.cif
#   From: 2010.05.17/outbox.cif.g08.bks.cpg/sg12_107_cif.got.tgz:212663.got - 2010.06.03 13:09:07.
