data_PCOD9198470
_publ_section_title
;
Structure prediction by ZEFSAII (Michael W. Deem and Ramdas Pophale) SiO2 
 PCOD9198470
Probable space group: C 2/M
;
_chemical_formula_sum "Si O2"
_cell_formula_units_Z 58
_cell_length_a 19.681968
_cell_length_b 9.904518
_cell_length_c 19.899932
_cell_angle_alpha 90.000000
_cell_angle_beta 135.962918
_cell_angle_gamma 90.000000
_cell_volume 2696.594272
_symmetry_space_group_name_H-M "C 2/M"
_symmetry_group_IT_number 12
_symmetry_cell_setting 'monoclinic'
loop_
_space_group_symop_operation_xyz
x,y,z
-x,y,-z
-x,-y,-z
x,-y,z
1/2+x,1/2+y,z
1/2-x,1/2+y,-z
1/2-x,1/2-y,-z
1/2+x,1/2-y,z
loop_
_atom_site_type_symbol
_atom_site_label
_atom_site_fract_x
_atom_site_fract_y
_atom_site_fract_z
Si Si1 0.536679 0.148780 0.390553
Si Si2 0.646458 0.154164 0.330713
Si Si3 0.774663 0.157939 0.804845
Si Si4 0.000000 0.000000 0.500000
Si Si5 0.340558 0.652909 0.054059
Si Si6 0.844884 0.759210 0.409483
Si Si7 0.958948 0.161269 0.852565
Si Si8 0.369247 0.345253 0.228394
O O1 0.613373 0.166113 0.384176
O O2 0.590546 0.160038 0.499458
O O3 0.457603 0.266038 0.325916
O O4 0.490695 0.000000 0.350123
O O5 0.759295 0.184662 0.397037
O O6 0.586213 0.255561 0.241123
O O7 0.625574 0.000000 0.294822
O O8 0.709625 0.188397 0.691629
O O9 0.886812 0.187122 0.863780
O O10 0.727981 0.259099 0.825452
O O11 0.766640 0.000000 0.817183
O O12 0.914333 0.881800 0.438358
O O13 0.308383 0.500000 0.015504
O O14 0.425955 0.693614 0.063193
O O15 0.388418 0.651116 0.162498
O O16 0.250000 0.750000 0.000000
O O17 0.952980 0.000000 0.835544
O O18 0.361109 0.500000 0.246154
#
# Coordination Sequence:
#
# PCOD9198470 Si02
#       8
#     8   8   8   2   8   8   8   8
#     4  11  23  37  58  83 119 158 207 258 305 349
#     4  10  20  36  57  85 116 155 207 256 301 354
#     4  10  22  39  63  86 123 164 208 250 298 358
#     4  12  24  36  50  76 112 160 204 254 296 348
#     4  10  22  42  67  96 122 154 194 243 302 369
#     4  11  23  37  54  82 121 162 212 250 299 347
#     4   9  19  39  62  90 121 161 198 245 304 358
#     4  11  24  40  62  90 123 157 197 249 306 362
#
# _framework density 21.508613
#
# number of rings (size 3 to 8) (size 9 to 14) (size 15 to 20)
#    0.000    1.655    2.069    2.069    3.862    2.759 
#    0.000    2.759    0.000    4.138    0.000    0.000 
#    0.000    0.000    0.000    0.000    0.000    0.000 
#
# Total GULP energy -161807.467658 kJ/mol
# GULP energy per Si atom -5579.567850 kJ/mol
# Density = 2.145966 g / cm^3
# Si number density = 21.508613 Si / 1000 Ang^3
#
#
#
# Elastic Constant Matrix: (Units=GPa)
#
#
# Indices 1 2 3 4 5 6 
#
# 1 127.9177 59.4970 31.8525 0.0000 28.8112 0.0000
# 2 59.4970 112.4016 25.9630 0.0000 25.4651 0.0000
# 3 31.8525 25.9630 55.3744 0.0000 22.3769 0.0000
# 4 0.0000 0.0000 0.0000 25.3684 0.0000 5.7170
# 5 28.8112 25.4651 22.3769 0.0000 45.9540 0.0000
# 6 0.0000 0.0000 0.0000 5.7170 0.0000 28.7581
#
#
#
# Elastic Compliance Matrix: (Units=1/GPa)
#
#
# Indices 1 2 3 4 5 6 
#
# 1 0.011455 -0.004635 -0.003177 0.000000 -0.003066 0.000000
# 2 -0.004635 0.012496 -0.001953 0.000000 -0.003068 0.000000
# 3 -0.003177 -0.001953 0.024352 0.000000 -0.008784 0.000000
# 4 0.000000 0.000000 0.000000 0.041268 0.000000 -0.008204
# 5 -0.003066 -0.003068 -0.008784 0.000000 0.029660 0.000000
# 6 0.000000 0.000000 0.000000 -0.008204 0.000000 0.036404
#
#
# Mechanical properties :
#
#
# Convention : Reuss Voigt Hill
#
# Bulk Modulus (GPa) = 34.75510 58.92429 46.83969
# Shear Modulus (GPa) = 27.06272 31.90819 29.48546
#
# Velocity S-wave (km/s) = 3.55100 3.85581 3.70654
# Velocity P-wave (km/s) = 5.74513 6.87591 6.33580
#
# Compressibility (1/GPa) = 0.02877276
#
# Stress axis : x y z
#
# Youngs Moduli (GPa) = 87.29769 80.02419 41.06512
#
# Poissons Ratio (x) = 0.37091 0.13046
# Poissons Ratio (y) = 0.40462 0.08021
# Poissons Ratio (z) = 0.27733 0.15631
#
# Static dielectric constant tensor:
#      x y z
#    x 1.808350 0.000000 -0.010650 
#    y 0.000000 1.729280 0.000000 
#    z -0.010650 0.000000 1.790690 
# 
# From -- ./inp_files/346508.got.cif
#   From: 2010.05.17/outbox.cif.g08.bks.cpg/sg12_174_cif.got.tgz:346508.got - 2010.06.03 13:09:07.
