data_PCOD9198607
_publ_section_title
;
Structure prediction by ZEFSAII (Michael W. Deem and Ramdas Pophale) SiO2 
 PCOD9198607
Probable space group: C 2/M
;
_chemical_formula_sum "Si O2"
_cell_formula_units_Z 44
_cell_length_a 14.579158
_cell_length_b 18.280553
_cell_length_c 10.608042
_cell_angle_alpha 90.000000
_cell_angle_beta 55.898311
_cell_angle_gamma 90.000000
_cell_volume 2341.047987
_symmetry_space_group_name_H-M "C 2/M"
_symmetry_group_IT_number 12
_symmetry_cell_setting 'monoclinic'
loop_
_space_group_symop_operation_xyz
x,y,z
-x,y,-z
-x,-y,-z
x,-y,z
1/2+x,1/2+y,z
1/2-x,1/2+y,-z
1/2-x,1/2-y,-z
1/2+x,1/2-y,z
loop_
_atom_site_type_symbol
_atom_site_label
_atom_site_fract_x
_atom_site_fract_y
_atom_site_fract_z
Si Si1 0.083678 0.585896 0.731096
Si Si2 0.913376 0.649707 0.678496
Si Si3 0.244910 0.087869 0.623228
Si Si4 0.006873 0.914983 0.146827
Si Si5 0.500000 0.186496 0.000000
Si Si6 0.874761 0.225178 0.881952
O O1 0.093042 0.500000 0.750358
O O2 0.180103 0.606825 0.556618
O O3 0.965882 0.602413 0.751939
O O4 0.082646 0.634410 0.857367
O O5 0.797841 0.623982 0.707488
O O6 0.910594 0.732800 0.727842
O O7 0.000000 0.639585 0.500000
O O8 0.115891 0.106387 0.709459
O O9 0.253105 0.000000 0.632814
O O10 0.097295 0.860000 0.133147
O O11 0.028146 0.000000 0.160896
O O12 0.000000 0.909430 0.000000
O O13 0.557380 0.238142 0.056905
O O14 0.750000 0.250000 0.000000
#
# Coordination Sequence:
#
# PCOD9198607 Si02
#       6
#     8   8   8   8   4   8
#     4   9  17  32  54  82 118 152 187 230 277 336
#     4   9  18  32  51  83 112 148 187 228 281 326
#     4   9  17  32  57  86 114 147 190 235 277 326
#     4  10  20  36  58  82 108 143 187 233 282 333
#     4  10  21  36  53  82 112 150 190 230 283 336
#     4  11  22  38  56  79 114 144 186 236 281 335
#
# _framework density 18.795002
#
# number of rings (size 3 to 8) (size 9 to 14) (size 15 to 20)
#    0.000    2.364    0.909    1.909    0.000    2.182 
#    3.273    7.273    0.000    0.545    0.000    0.000 
#    0.000    0.000    0.000    0.000    0.000    0.000 
#
# Total GULP energy -122659.074380 kJ/mol
# GULP energy per Si atom -5575.412472 kJ/mol
# Density = 1.875222 g / cm^3
# Si number density = 18.795002 Si / 1000 Ang^3
#
#
#
# Elastic Constant Matrix: (Units=GPa)
#
#
# Indices 1 2 3 4 5 6 
#
# 1 34.5711 24.6078 8.3047 0.0000 -13.9708 0.0000
# 2 24.6078 79.6056 17.4051 0.0000 -10.7474 0.0000
# 3 8.3047 17.4051 44.8705 0.0000 -4.3883 0.0000
# 4 0.0000 0.0000 0.0000 20.3222 0.0000 -1.4304
# 5 -13.9708 -10.7474 -4.3883 0.0000 27.3688 0.0000
# 6 0.0000 0.0000 0.0000 -1.4304 0.0000 29.1916
#
#
#
# Elastic Compliance Matrix: (Units=1/GPa)
#
#
# Indices 1 2 3 4 5 6 
#
# 1 0.044479 -0.010810 -0.002269 0.000000 0.018096 0.000000
# 2 -0.010810 0.016950 -0.004534 0.000000 0.000411 0.000000
# 3 -0.002269 -0.004534 0.024563 0.000000 0.001000 0.000000
# 4 0.000000 0.000000 0.000000 0.049378 0.000000 0.002420
# 5 0.018096 0.000411 0.001000 0.000000 0.046097 0.000000
# 6 0.000000 0.000000 0.000000 0.002420 0.000000 0.034375
#
#
# Mechanical properties :
#
#
# Convention : Reuss Voigt Hill
#
# Bulk Modulus (GPa) = 19.69858 28.85363 24.27611
# Shear Modulus (GPa) = 18.65744 22.62516 20.64130
#
# Velocity S-wave (km/s) = 3.15410 3.47333 3.31756
# Velocity P-wave (km/s) = 4.87524 5.60985 5.25540
#
# Compressibility (1/GPa) = 0.05076508
#
# Stress axis : x y z
#
# Youngs Moduli (GPa) = 22.48276 58.99578 40.71193
#
# Poissons Ratio (x) = 0.63775 0.09239
# Poissons Ratio (y) = 0.24304 0.18459
# Poissons Ratio (z) = 0.05102 0.26749
#
# Static dielectric constant tensor:
#      x y z
#    x 1.765790 0.000000 -0.055990 
#    y 0.000000 1.682780 0.000000 
#    z -0.055990 0.000000 1.693090 
# 
# From -- ./inp_files/145007.got.cif
#   From: 2010.05.17/outbox.cif.g08.bks.cpg/sg12_73_cif.got.tgz:145007.got - 2010.06.03 13:09:07.
