data_PCOD9198613
_publ_section_title
;
Structure prediction by ZEFSAII (Michael W. Deem and Ramdas Pophale) SiO2 
 PCOD9198613
Probable space group: C 2/M
;
_chemical_formula_sum "Si O2"
_cell_formula_units_Z 64
_cell_length_a 20.287803
_cell_length_b 7.624519
_cell_length_c 30.561116
_cell_angle_alpha 90.000000
_cell_angle_beta 34.168842
_cell_angle_gamma 90.000000
_cell_volume 2655.031632
_symmetry_space_group_name_H-M "C 2/M"
_symmetry_group_IT_number 12
_symmetry_cell_setting 'monoclinic'
loop_
_space_group_symop_operation_xyz
x,y,z
-x,y,-z
-x,-y,-z
x,-y,z
1/2+x,1/2+y,z
1/2-x,1/2+y,-z
1/2-x,1/2-y,-z
1/2+x,1/2-y,z
loop_
_atom_site_type_symbol
_atom_site_label
_atom_site_fract_x
_atom_site_fract_y
_atom_site_fract_z
Si Si1 0.691472 0.198582 0.324028
Si Si2 0.317072 0.790079 0.918362
Si Si3 0.956388 0.706933 0.162843
Si Si4 0.943200 0.705176 0.074784
Si Si5 0.792414 0.712470 0.836374
Si Si6 0.713847 0.294756 0.406131
Si Si7 0.940555 0.713893 0.329438
Si Si8 0.948052 0.286813 0.423159
O O1 0.820281 0.277330 0.248798
O O2 0.662839 0.203352 0.391363
O O3 0.581190 0.276085 0.358921
O O4 0.703671 0.000000 0.301498
O O5 0.450251 0.724682 0.853347
O O6 0.264764 0.725416 0.901218
O O7 0.318849 0.000000 0.912066
O O8 0.250000 0.750000 0.000000
O O9 0.980843 0.500000 0.146662
O O10 0.977041 0.783416 0.102992
O O11 0.976235 0.500000 0.057621
O O12 0.803578 0.717588 0.144407
O O13 0.000000 0.785659 0.000000
O O14 0.786958 0.500000 0.836670
O O15 0.926045 0.765341 0.753393
O O16 0.722984 0.500000 0.389765
O O17 0.842492 0.226327 0.349118
O O18 0.633812 0.276159 0.492798
O O19 0.937861 0.500000 0.329446
O O20 0.908624 0.767282 0.396434
O O21 0.948873 0.500000 0.424169
#
# Coordination Sequence:
#
# PCOD9198613 Si02
#       8
#     8   8   8   8   8   8   8   8
#     4  11  23  38  58  83 112 147 185 228 277 327
#     4  10  21  37  58  83 112 148 188 231 278 327
#     4  10  21  38  59  82 111 147 187 230 275 326
#     4  10  21  37  57  82 113 147 181 223 276 328
#     4  10  20  36  58  82 109 144 186 228 272 326
#     4  11  22  37  59  84 112 146 183 225 274 329
#     4   9  19  37  59  81 108 144 183 226 276 325
#     4  10  21  38  58  81 111 145 183 227 274 326
#
# _framework density 24.105173000000001
#
# number of rings (size 3 to 8) (size 9 to 14) (size 15 to 20)
#    0.000    1.875    0.000    3.750    0.000    8.250 
#    0.000    3.750    0.000    0.000    0.000    0.000 
#    0.000    0.000    0.000    0.000    0.000    0.000 
#
# Total GULP energy -178964.570858 kJ/mol
# GULP energy per Si atom -5592.642839 kJ/mol
# Density = 2.405031 g / cm^3
# Si number density = 24.105173 Si / 1000 Ang^3
#
#
#
# Elastic Constant Matrix: (Units=GPa)
#
#
# Indices 1 2 3 4 5 6 
#
# 1 79.6182 -0.8266 -19.5644 0.0033 -1.5829 0.0501
# 2 -0.8266 52.2569 -8.6699 -0.0132 -0.0019 -0.0495
# 3 -19.5644 -8.6699 55.9007 0.0137 0.0956 0.0043
# 4 0.0033 -0.0132 0.0137 22.9160 0.0058 -1.3784
# 5 -1.5829 -0.0019 0.0956 0.0058 43.5855 0.0003
# 6 0.0501 -0.0495 0.0043 -1.3784 0.0003 12.8212
#
#
#
# Elastic Compliance Matrix: (Units=1/GPa)
#
#
# Indices 1 2 3 4 5 6 
#
# 1 0.013808 0.001047 0.004994 -0.000008 0.000491 -0.000052
# 2 0.001047 0.019721 0.003425 0.000014 0.000031 0.000072
# 3 0.004994 0.003425 0.020168 -0.000012 0.000137 -0.000014
# 4 -0.000008 0.000014 -0.000012 0.043922 -0.000006 0.004722
# 5 0.000491 0.000031 0.000137 -0.000006 0.022961 -0.000003
# 6 -0.000052 0.000072 -0.000014 0.004722 -0.000003 0.078504
#
#
# Mechanical properties :
#
#
# Convention : Reuss Voigt Hill
#
# Bulk Modulus (GPa) = 13.76872 14.40602 14.08737
# Shear Modulus (GPa) = 24.46651 30.32031 27.39341
#
# Velocity S-wave (km/s) = 3.18935 3.55044 3.37473
# Velocity P-wave (km/s) = 4.39169 4.77460 4.58714
#
# Compressibility (1/GPa) = 0.07262838
#
# Stress axis : x y z
#
# Youngs Moduli (GPa) = 72.42297 50.70715 49.58435
#
# Poissons Ratio (x) = -0.05309 -0.24763
# Poissons Ratio (y) = -0.07582 -0.16982
# Poissons Ratio (z) = -0.36168 -0.17367
#
# Static dielectric constant tensor:
#      x y z
#    x 1.916380 0.000040 0.012510 
#    y 0.000040 1.955120 0.000020 
#    z 0.012510 0.000020 1.937180 
# 
# From -- ./inp_files/378136.got.cif
#   From: 2010.05.17/outbox.cif.g08.bks.cpg/sg12_190_cif.got.tgz:378136.got - 2010.06.03 13:09:07.
