data_PCOD9198633
_publ_section_title
;
Structure prediction by ZEFSAII (Michael W. Deem and Ramdas Pophale) SiO2 
 PCOD9198633
Probable space group: C 2/M
;
_chemical_formula_sum "Si O2"
_cell_formula_units_Z 64
_cell_length_a 30.936486
_cell_length_b 9.203061
_cell_length_c 18.407166
_cell_angle_alpha 90.000000
_cell_angle_beta 140.948997
_cell_angle_gamma 90.000000
_cell_volume 3301.710473
_symmetry_space_group_name_H-M "C 2/M"
_symmetry_group_IT_number 12
_symmetry_cell_setting 'monoclinic'
loop_
_space_group_symop_operation_xyz
x,y,z
-x,y,-z
-x,-y,-z
x,-y,z
1/2+x,1/2+y,z
1/2-x,1/2+y,-z
1/2-x,1/2-y,-z
1/2+x,1/2-y,z
loop_
_atom_site_type_symbol
_atom_site_label
_atom_site_fract_x
_atom_site_fract_y
_atom_site_fract_z
Si Si1 0.255033 0.330550 0.929494
Si Si2 0.775815 0.328258 0.420742
Si Si3 0.984843 0.669304 0.311767
Si Si4 0.348768 0.827152 0.671062
Si Si5 0.114058 0.326372 0.954299
Si Si6 0.614388 0.671512 0.527018
Si Si7 0.105516 0.666201 0.662671
Si Si8 0.999252 0.676754 0.915577
O O1 0.270462 0.500000 0.961940
O O2 0.181837 0.321300 0.794587
O O3 0.250000 0.250000 0.000000
O O4 0.314917 0.256829 0.961148
O O5 0.770531 0.500000 0.400790
O O6 0.702238 0.258395 0.342218
O O7 0.820780 0.305324 0.552997
O O8 0.816513 0.249466 0.409835
O O9 0.006300 0.500000 0.333131
O O10 0.930702 0.697167 0.177169
O O11 0.946402 0.688427 0.338436
O O12 0.051228 0.769531 0.396483
O O13 0.427531 0.781603 0.784280
O O14 0.343990 0.000000 0.680187
O O15 0.126570 0.500000 0.976195
O O16 0.065899 0.277001 0.957633
O O17 0.621028 0.500000 0.530533
O O18 0.597875 0.723667 0.586913
O O19 0.095588 0.500000 0.622735
O O20 0.000813 0.500000 0.916732
O O21 0.000000 0.724408 0.000000
#
# Coordination Sequence:
#
# PCOD9198633 Si02
#       8
#     8   8   8   8   8   8   8   8
#     4  11  22  39  62  88 117 151 196 244 290 344
#     4  10  20  36  58  82 111 151 189 232 290 353
#     4  10  20  38  60  80 111 156 197 235 288 357
#     4   9  18  35  59  84 111 146 192 239 281 336
#     4  10  20  37  61  89 119 158 201 237 286 349
#     4  12  25  37  54  85 118 147 190 246 295 346
#     4  10  22  40  59  80 112 156 195 232 290 357
#     4   9  18  33  56  86 119 151 187 234 287 340
#
# _framework density 19.383890999999998
#
# number of rings (size 3 to 8) (size 9 to 14) (size 15 to 20)
#    0.000    1.875    1.250    3.000    0.000    7.000 
#    0.000    1.875    0.000    0.750    0.000    0.000 
#    0.000    0.000    0.000    0.000    0.000    0.000 
#
# Total GULP energy -178833.267291 kJ/mol
# GULP energy per Si atom -5588.539603 kJ/mol
# Density = 1.933977 g / cm^3
# Si number density = 19.383891 Si / 1000 Ang^3
#
#
#
# Elastic Constant Matrix: (Units=GPa)
#
#
# Indices 1 2 3 4 5 6 
#
# 1 105.5235 41.1586 15.3011 0.0000 18.3890 0.0000
# 2 41.1586 62.0410 18.5146 0.0000 7.0055 0.0000
# 3 15.3011 18.5146 37.0801 0.0000 15.6015 0.0000
# 4 0.0000 0.0000 0.0000 22.9240 0.0000 8.6320
# 5 18.3890 7.0055 15.6015 0.0000 29.4619 0.0000
# 6 0.0000 0.0000 0.0000 8.6320 0.0000 29.1880
#
#
#
# Elastic Compliance Matrix: (Units=1/GPa)
#
#
# Indices 1 2 3 4 5 6 
#
# 1 0.014053 -0.009035 0.001929 0.000000 -0.007644 0.000000
# 2 -0.009035 0.024760 -0.010975 0.000000 0.005564 0.000000
# 3 0.001929 -0.010975 0.039966 0.000000 -0.019758 0.000000
# 4 0.000000 0.000000 0.000000 0.049089 0.000000 -0.014517
# 5 -0.007644 0.005564 -0.019758 0.000000 0.047853 0.000000
# 6 0.000000 0.000000 0.000000 -0.014517 0.000000 0.038554
#
#
# Mechanical properties :
#
#
# Convention : Reuss Voigt Hill
#
# Bulk Modulus (GPa) = 23.46602 39.39925 31.43264
# Shear Modulus (GPa) = 18.89328 24.95947 21.92638
#
# Velocity S-wave (km/s) = 3.12539 3.59226 3.36693
# Velocity P-wave (km/s) = 5.01561 6.12990 5.60054
#
# Compressibility (1/GPa) = 0.04261481
#
# Stress axis : x y z
#
# Youngs Moduli (GPa) = 71.15787 40.38825 25.02120
#
# Poissons Ratio (x) = 0.36493 -0.04826
# Poissons Ratio (y) = 0.64295 0.27462
# Poissons Ratio (z) = -0.13725 0.44328
#
# Static dielectric constant tensor:
#      x y z
#    x 1.675450 0.000000 -0.008410 
#    y 0.000000 1.644320 0.000000 
#    z -0.008410 0.000000 1.671920 
# 
# From -- ./inp_files/295823.got.cif
#   From: 2010.05.17/outbox.cif.g08.bks.cpg/sg12_148_cif.got.tgz:295823.got - 2010.06.03 13:09:07.
