data_PCOD9198818
_publ_section_title
;
Structure prediction by ZEFSAII (Michael W. Deem and Ramdas Pophale) SiO2 
 PCOD9198818
Probable space group: C 2/M
;
_chemical_formula_sum "Si O2"
_cell_formula_units_Z 50
_cell_length_a 32.310941
_cell_length_b 7.583205
_cell_length_c 12.699066
_cell_angle_alpha 90.000000
_cell_angle_beta 59.726917
_cell_angle_gamma 90.000000
_cell_volume 2687.219542
_symmetry_space_group_name_H-M "C 2/M"
_symmetry_group_IT_number 12
_symmetry_cell_setting 'monoclinic'
loop_
_space_group_symop_operation_xyz
x,y,z
-x,y,-z
-x,-y,-z
x,-y,z
1/2+x,1/2+y,z
1/2-x,1/2+y,-z
1/2-x,1/2-y,-z
1/2+x,1/2-y,z
loop_
_atom_site_type_symbol
_atom_site_label
_atom_site_fract_x
_atom_site_fract_y
_atom_site_fract_z
Si Si1 0.882609 0.297899 0.943392
Si Si2 0.823937 0.285663 0.224328
Si Si3 0.500000 0.500000 0.500000
Si Si4 0.439485 0.500000 0.369163
Si Si5 0.133633 0.296087 0.605950
Si Si6 0.285620 0.285547 0.665253
Si Si7 0.301801 0.710287 0.883522
Si Si8 0.955429 0.000000 0.784869
O O1 0.898185 0.500000 0.939295
O O2 0.843295 0.292848 0.900821
O O3 0.925850 0.170259 0.858499
O O4 0.855136 0.233037 0.083482
O O5 0.822379 0.500000 0.224582
O O6 0.847794 0.234203 0.303640
O O7 0.768944 0.226701 0.285041
O O8 0.455514 0.500000 0.470578
O O9 0.462681 0.500000 0.649293
O O10 0.408091 0.670168 0.381901
O O11 0.490123 0.500000 0.242867
O O12 0.118310 0.500000 0.633171
O O13 0.178067 0.282967 0.468629
O O14 0.286546 0.500000 0.660149
O O15 0.301088 0.232100 0.762980
O O16 0.308977 0.500000 0.876690
O O17 0.250000 0.750000 0.000000
#
# Coordination Sequence:
#
# PCOD9198818 Si02
#       8
#     8   8   2   4   8   8   8   4
#     4  11  22  40  63  91 129 170 205 258 320 373
#     4   9  20  39  59  89 131 170 209 253 308 374
#     4   8  24  48  70  86 132 150 204 272 324 364
#     4  10  24  47  66  90 123 160 209 272 321 363
#     4  11  23  40  64  91 123 167 215 260 310 372
#     4  10  20  36  58  85 130 174 206 258 314 364
#     4  11  21  34  55  87 128 166 210 255 305 373
#     4  10  24  45  68  94 119 162 213 260 323 384
#
# _framework density 18.606593
#
# number of rings (size 3 to 8) (size 9 to 14) (size 15 to 20)
#    0.480    1.280    3.200    0.960    2.240    2.560 
#    2.880    2.400    0.000    2.880    0.000    0.000 
#    0.000    0.000    0.000    0.000    0.000    0.000 
#
# Total GULP energy -139337.595630 kJ/mol
# GULP energy per Si atom -5573.503825 kJ/mol
# Density = 1.856424 g / cm^3
# Si number density = 18.606593 Si / 1000 Ang^3
#
#
#
# Elastic Constant Matrix: (Units=GPa)
#
#
# Indices 1 2 3 4 5 6 
#
# 1 127.1729 45.3310 100.6158 0.0000 6.0283 0.0000
# 2 45.3310 87.0207 44.2048 0.0000 -7.5652 0.0000
# 3 100.6158 44.2048 126.0920 0.0000 -1.9062 0.0000
# 4 0.0000 0.0000 0.0000 8.3651 0.0000 2.7839
# 5 6.0283 -7.5652 -1.9062 0.0000 44.3505 0.0000
# 6 0.0000 0.0000 0.0000 2.7839 0.0000 9.3047
#
#
#
# Elastic Compliance Matrix: (Units=1/GPa)
#
#
# Indices 1 2 3 4 5 6 
#
# 1 0.022826 -0.003639 -0.017006 0.000000 -0.004454 0.000000
# 2 -0.003639 0.014775 -0.002231 0.000000 0.002919 0.000000
# 3 -0.017006 -0.002231 0.022327 0.000000 0.002890 0.000000
# 4 0.000000 0.000000 0.000000 0.132764 0.000000 -0.039722
# 5 -0.004454 0.002919 0.002890 0.000000 0.023775 0.000000
# 6 0.000000 0.000000 0.000000 -0.039722 0.000000 0.119357
#
#
# Mechanical properties :
#
#
# Convention : Reuss Voigt Hill
#
# Bulk Modulus (GPa) = 70.55048 80.06543 75.30795
# Shear Modulus (GPa) = 12.94326 22.41300 17.67813
#
# Velocity S-wave (km/s) = 2.64034 3.47446 3.08571
# Velocity P-wave (km/s) = 6.87709 7.69545 7.29775
#
# Compressibility (1/GPa) = 0.01417425
#
# Stress axis : x y z
#
# Youngs Moduli (GPa) = 43.80919 67.68356 44.78957
#
# Poissons Ratio (x) = 0.24632 0.76168
# Poissons Ratio (y) = 0.15944 0.09995
# Poissons Ratio (z) = 0.74501 0.15104
#
# Static dielectric constant tensor:
#      x y z
#    x 1.619220 0.000000 0.008060 
#    y 0.000000 1.698360 0.000000 
#    z 0.008060 0.000000 1.622840 
# 
# From -- ./inp_files/186358.got.cif
#   From: 2010.05.17/outbox.cif.g08.bks.cpg/sg12_94_cif.got.tgz:186358.got - 2010.06.03 13:09:07.
