data_PCOD9198296
_publ_section_title
;
Structure prediction by ZEFSAII (Michael W. Deem and Ramdas Pophale) SiO2 
 PCOD9198296
Probable space group: C 2/M
;
_chemical_formula_sum "Si O2"
_cell_formula_units_Z 56
_cell_length_a 19.416325
_cell_length_b 8.601375
_cell_length_c 26.514068
_cell_angle_alpha 90.000000
_cell_angle_beta 40.001839
_cell_angle_gamma 90.000000
_cell_volume 2846.396452
_symmetry_space_group_name_H-M "C 2/M"
_symmetry_group_IT_number 12
_symmetry_cell_setting 'monoclinic'
loop_
_space_group_symop_operation_xyz
x,y,z
-x,y,-z
-x,-y,-z
x,-y,z
1/2+x,1/2+y,z
1/2-x,1/2+y,-z
1/2-x,1/2-y,-z
1/2+x,1/2-y,z
loop_
_atom_site_type_symbol
_atom_site_label
_atom_site_fract_x
_atom_site_fract_y
_atom_site_fract_z
Si Si1 0.910113 0.315053 0.687366
Si Si2 0.582254 0.314332 0.729293
Si Si3 0.286976 0.186127 0.249762
Si Si4 0.154421 0.183847 0.168888
Si Si5 0.177695 0.817677 0.996184
Si Si6 0.967172 0.313473 0.073812
Si Si7 0.356342 0.814288 0.414767
O O1 0.899979 0.500000 0.700549
O O2 0.830342 0.260803 0.688398
O O3 0.871337 0.226349 0.759335
O O4 0.036521 0.279350 0.612604
O O5 0.593018 0.500000 0.727095
O O6 0.647299 0.235279 0.737729
O O7 0.454661 0.279234 0.800710
O O8 0.624973 0.258282 0.650984
O O9 0.357743 0.239964 0.161572
O O10 0.277845 0.000000 0.253139
O O11 0.253849 0.279546 0.092160
O O12 0.177386 0.000000 0.151292
O O13 0.161304 0.000000 0.012064
O O14 0.250000 0.750000 0.000000
O O15 0.064573 0.733001 0.055347
O O16 0.960052 0.500000 0.074092
O O17 0.000000 0.252530 0.000000
O O18 0.250000 0.750000 0.500000
O O19 0.349216 0.000000 0.413490
#
# Coordination Sequence:
#
# PCOD9198296 Si02
#       7
#     8   8   8   8   8   8   8
#     4  10  21  37  59  86 115 148 185 225 272 331
#     4  10  21  37  59  85 115 152 191 234 284 338
#     4  11  22  36  57  84 116 153 193 239 287 337
#     4  10  20  36  57  80 108 144 188 235 283 337
#     4  12  24  36  53  77 107 144 188 239 290 338
#     4  10  22  39  57  79 111 151 194 241 292 342
#     4  10  21  39  64  92 120 149 183 225 275 334
#
# _framework density 19.673997
#
# number of rings (size 3 to 8) (size 9 to 14) (size 15 to 20)
#    0.000    1.571    0.000    5.143    0.000    8.286 
#    0.000    0.714    0.000    4.286    0.000    0.000 
#    0.000    0.000    0.000    0.000    0.000    0.000 
#
# Total GULP energy -156508.591736 kJ/mol
# GULP energy per Si atom -5589.592562 kJ/mol
# Density = 1.962922 g / cm^3
# Si number density = 19.673997 Si / 1000 Ang^3
#
#
#
# Elastic Constant Matrix: (Units=GPa)
#
#
# Indices 1 2 3 4 5 6 
#
# 1 102.6400 11.3829 19.8172 0.0000 -22.0641 -0.0001
# 2 11.3829 17.4946 15.8964 0.0000 -4.3891 -0.0002
# 3 19.8172 15.8964 85.0908 0.0000 -20.5195 0.0000
# 4 0.0000 0.0000 0.0000 28.2969 0.0000 -0.6764
# 5 -22.0641 -4.3891 -20.5195 0.0000 25.8255 0.0000
# 6 -0.0001 -0.0002 0.0000 -0.6764 0.0000 32.9883
#
#
#
# Elastic Compliance Matrix: (Units=1/GPa)
#
#
# Indices 1 2 3 4 5 6 
#
# 1 0.012481 -0.006211 0.000706 0.000000 0.010168 0.000000
# 2 -0.006211 0.072008 -0.012784 0.000000 -0.003226 0.000000
# 3 0.000706 -0.012784 0.016820 0.000000 0.011795 0.000000
# 4 0.000000 0.000000 0.000000 0.035357 0.000000 0.000725
# 5 0.010168 -0.003226 0.011795 0.000000 0.056232 0.000000
# 6 0.000000 0.000000 0.000000 0.000725 0.000000 0.030329
#
#
# Mechanical properties :
#
#
# Convention : Reuss Voigt Hill
#
# Bulk Modulus (GPa) = 15.44837 33.26869 24.35853
# Shear Modulus (GPa) = 17.76938 27.96406 22.86672
#
# Velocity S-wave (km/s) = 3.00857 3.77420 3.41292
# Velocity P-wave (km/s) = 4.46519 5.99495 5.28571
#
# Compressibility (1/GPa) = 0.06473174
#
# Stress axis : x y z
#
# Youngs Moduli (GPa) = 80.12028 13.88730 59.45193
#
# Poissons Ratio (x) = 0.08625 -0.04195
# Poissons Ratio (y) = 0.49762 0.76001
# Poissons Ratio (z) = -0.05653 0.17753
#
# Static dielectric constant tensor:
#      x y z
#    x 1.695760 0.000000 -0.007550 
#    y 0.000000 1.661660 0.000000 
#    z -0.007550 0.000000 1.683390 
# 
# From -- ./inp_files/342360.got.cif
#   From: 2010.05.17/outbox.cif.g08.bks.cpg/sg12_172_cif.got.tgz:342360.got - 2010.06.03 13:09:07.
