data_PCOD9198339
_publ_section_title
;
Structure prediction by ZEFSAII (Michael W. Deem and Ramdas Pophale) SiO2 
 PCOD9198339
Probable space group: C 2/M
;
_chemical_formula_sum "Si O2"
_cell_formula_units_Z 56
_cell_length_a 24.627926
_cell_length_b 7.782869
_cell_length_c 16.108206
_cell_angle_alpha 90.000000
_cell_angle_beta 56.008233
_cell_angle_gamma 90.000000
_cell_volume 2559.947361
_symmetry_space_group_name_H-M "C 2/M"
_symmetry_group_IT_number 12
_symmetry_cell_setting 'monoclinic'
loop_
_space_group_symop_operation_xyz
x,y,z
-x,y,-z
-x,-y,-z
x,-y,z
1/2+x,1/2+y,z
1/2-x,1/2+y,-z
1/2-x,1/2-y,-z
1/2+x,1/2-y,z
loop_
_atom_site_type_symbol
_atom_site_label
_atom_site_fract_x
_atom_site_fract_y
_atom_site_fract_z
Si Si1 0.294875 0.795068 0.882824
Si Si2 0.066337 0.796044 0.672577
Si Si3 0.931751 0.789198 0.518582
Si Si4 0.665480 0.207371 0.729683
Si Si5 0.574142 0.209934 0.958157
Si Si6 0.294071 0.296994 0.699347
Si Si7 0.922820 0.295109 0.859092
O O1 0.272587 0.724425 0.813152
O O2 0.368278 0.729151 0.841756
O O3 0.295731 0.000000 0.873610
O O4 0.250000 0.750000 0.000000
O O5 0.072914 0.732370 0.572948
O O6 0.127687 0.752242 0.678198
O O7 0.997760 0.734913 0.770300
O O8 0.061771 0.000000 0.672389
O O9 0.867055 0.728173 0.622237
O O10 0.000000 0.731449 0.500000
O O11 0.932827 0.000000 0.519481
O O12 0.621720 0.268955 0.844790
O O13 0.738813 0.272225 0.684064
O O14 0.666908 0.000000 0.732356
O O15 0.576102 0.000000 0.957207
O O16 0.500000 0.259384 0.000000
O O17 0.590538 0.271404 0.036572
O O18 0.298230 0.500000 0.679583
O O19 0.913618 0.500000 0.870286
#
# Coordination Sequence:
#
# PCOD9198339 Si02
#       7
#     8   8   8   8   8   8   8
#     4  11  23  38  59  87 120 154 190 237 289 341
#     4  11  22  35  56  86 115 146 189 242 294 343
#     4   9  19  37  59  82 111 148 190 238 294 349
#     4  10  20  36  57  81 111 151 193 234 287 353
#     4   9  15  28  52  75 102 142 183 221 265 326
#     4  10  21  39  62  83 110 154 201 237 281 346
#     4  10  20  36  57  82 112 150 195 237 281 339
#
# _framework density 21.875449
#
# number of rings (size 3 to 8) (size 9 to 14) (size 15 to 20)
#    0.000    2.000    1.429    2.571    0.000    5.714 
#    0.000    2.857    0.000    3.857    0.000    0.000 
#    0.000    0.000    0.000    0.000    0.000    0.000 
#
# Total GULP energy -156433.749939 kJ/mol
# GULP energy per Si atom -5586.919641 kJ/mol
# Density = 2.182566 g / cm^3
# Si number density = 21.875449 Si / 1000 Ang^3
#
#
#
# Elastic Constant Matrix: (Units=GPa)
#
#
# Indices 1 2 3 4 5 6 
#
# 1 162.5772 -4.8810 45.9516 0.0000 7.4744 0.0000
# 2 -4.8810 22.3129 -13.0675 0.0001 -3.1552 -0.0001
# 3 45.9516 -13.0675 97.7492 -0.0001 9.3484 0.0000
# 4 0.0000 0.0001 -0.0001 -14.6777 0.0000 0.6556
# 5 7.4744 -3.1552 9.3484 0.0000 35.4500 0.0000
# 6 0.0000 -0.0001 0.0000 0.6556 0.0000 13.0647
#
#
#
# Elastic Compliance Matrix: (Units=1/GPa)
#
#
# Indices 1 2 3 4 5 6 
#
# 1 0.007112 -0.000498 -0.003347 0.000000 -0.000661 0.000000
# 2 -0.000498 0.048908 0.006510 0.000000 0.002741 0.000000
# 3 -0.003347 0.006510 0.012876 0.000000 -0.002110 0.000000
# 4 0.000000 0.000000 0.000000 -0.067978 0.000000 0.003411
# 5 -0.000661 0.002741 -0.002110 0.000000 0.029149 0.000000
# 6 0.000000 0.000000 0.000000 0.003411 0.000000 0.076371
#
#
# Mechanical properties :
#
#
# Convention : Reuss Voigt Hill
#
# Bulk Modulus (GPa) = 13.47207 37.62727 25.54967
# Shear Modulus (GPa) = 39.73018 23.74317 31.73667
#
# Velocity S-wave (km/s) = 4.26631 3.29808 3.81306
# Velocity P-wave (km/s) = 5.51729 5.63393 5.57591
#
# Compressibility (1/GPa) = 0.07422766
#
# Stress axis : x y z
#
# Youngs Moduli (GPa) = 140.60079 20.44638 77.66572
#
# Poissons Ratio (x) = 0.01018 0.25993
# Poissons Ratio (y) = 0.06998 -0.50561
# Poissons Ratio (z) = 0.47056 -0.13311
#
# Static dielectric constant tensor:
#      x y z
#    x 1.862280 0.000000 -0.000480 
#    y 0.000000 1.794700 0.000000 
#    z -0.000480 0.000000 1.783730 
# 
# From -- ./inp_files/238295.got.cif
#   From: 2010.05.17/outbox.cif.g08.bks.cpg/sg12_120_cif.got.tgz:238295.got - 2010.06.03 13:09:07.
