data_PCOD9198746
_publ_section_title
;
Structure prediction by ZEFSAII (Michael W. Deem and Ramdas Pophale) SiO2 
 PCOD9198746
Probable space group: C 2/M
;
_chemical_formula_sum "Si O2"
_cell_formula_units_Z 48
_cell_length_a 15.183157
_cell_length_b 8.245534
_cell_length_c 29.477342
_cell_angle_alpha 90.000000
_cell_angle_beta 139.654039
_cell_angle_gamma 90.000000
_cell_volume 2389.146595
_symmetry_space_group_name_H-M "C 2/M"
_symmetry_group_IT_number 12
_symmetry_cell_setting 'monoclinic'
loop_
_space_group_symop_operation_xyz
x,y,z
-x,y,-z
-x,-y,-z
x,-y,z
1/2+x,1/2+y,z
1/2-x,1/2+y,-z
1/2-x,1/2-y,-z
1/2+x,1/2-y,z
loop_
_atom_site_type_symbol
_atom_site_label
_atom_site_fract_x
_atom_site_fract_y
_atom_site_fract_z
Si Si1 0.900962 0.302010 0.189880
Si Si2 0.144709 0.808630 0.679994
Si Si3 0.410177 0.695733 0.922420
Si Si4 0.916338 0.691641 0.652807
Si Si5 0.068459 0.695737 0.168168
Si Si6 0.640908 0.191506 0.577443
O O1 0.900146 0.500000 0.190181
O O2 0.746003 0.246572 0.134798
O O3 0.995479 0.250397 0.268998
O O4 0.967309 0.250304 0.168387
O O5 0.279036 0.747332 0.759020
O O6 0.165138 0.777850 0.634921
O O7 0.009747 0.725475 0.646109
O O8 0.132625 0.000000 0.683505
O O9 0.407978 0.500000 0.922930
O O10 0.466911 0.747366 0.895934
O O11 0.500000 0.753263 0.000000
O O12 0.894287 0.500000 0.648959
O O13 0.770393 0.775639 0.596568
O O14 0.070129 0.500000 0.169593
O O15 0.500000 0.248460 0.500000
O O16 0.629330 0.000000 0.581621
#
# Coordination Sequence:
#
# PCOD9198746 Si02
#       6
#     8   8   8   8   8   8
#     4   9  18  35  57  83 115 151 192 239 293 348
#     4  11  22  38  62  92 120 155 203 248 298 360
#     4  10  21  37  57  84 119 156 194 240 295 354
#     4  11  21  38  64  90 119 158 199 248 302 351
#     4  10  20  36  58  84 114 151 195 243 293 349
#     4  11  25  43  62  89 124 158 196 247 302 357
#
# _framework density 20.090855000000001
#
# number of rings (size 3 to 8) (size 9 to 14) (size 15 to 20)
#    0.000    1.667    3.333    1.500    0.000    3.667 
#    0.000    0.833    0.000    0.000    0.000    0.000 
#    0.000    0.000    0.000    0.000    0.000    0.000 
#
# Total GULP energy -134111.580708 kJ/mol
# GULP energy per Si atom -5587.982530 kJ/mol
# Density = 2.004513 g / cm^3
# Si number density = 20.090855 Si / 1000 Ang^3
#
#
#
# Elastic Constant Matrix: (Units=GPa)
#
#
# Indices 1 2 3 4 5 6 
#
# 1 70.2878 -4.5205 -26.6147 0.0000 8.2881 0.0000
# 2 -4.5205 11.1150 7.4068 0.0000 2.7193 0.0000
# 3 -26.6147 7.4068 29.7720 0.0000 8.2906 0.0000
# 4 0.0000 0.0000 0.0000 17.3245 0.0000 -6.9024
# 5 8.2881 2.7193 8.2906 0.0000 28.0103 0.0000
# 6 0.0000 0.0000 0.0000 -6.9024 0.0000 29.5638
#
#
#
# Elastic Compliance Matrix: (Units=1/GPa)
#
#
# Indices 1 2 3 4 5 6 
#
# 1 0.027327 -0.005018 0.030290 0.000000 -0.016564 0.000000
# 2 -0.005018 0.108964 -0.031673 0.000000 0.000281 0.000000
# 3 0.030290 -0.031673 0.076490 0.000000 -0.028528 0.000000
# 4 0.000000 0.000000 0.000000 0.063642 0.000000 0.014859
# 5 -0.016564 0.000281 -0.028528 0.000000 0.049019 0.000000
# 6 0.000000 0.000000 0.000000 0.014859 0.000000 0.037294
#
#
# Mechanical properties :
#
#
# Convention : Reuss Voigt Hill
#
# Bulk Modulus (GPa) = 5.00050 7.07976 6.04013
# Shear Modulus (GPa) = 11.30717 23.97329 17.64023
#
# Velocity S-wave (km/s) = 2.37492 3.45808 2.96636
# Velocity P-wave (km/s) = 3.16459 4.41316 3.83996
#
# Compressibility (1/GPa) = 0.19997998
#
# Stress axis : x y z
#
# Youngs Moduli (GPa) = 36.59367 9.17732 13.07359
#
# Poissons Ratio (x) = 0.04605 -0.39600
# Poissons Ratio (y) = 0.18363 0.41408
# Poissons Ratio (z) = -1.10843 0.29067
#
# Static dielectric constant tensor:
#      x y z
#    x 1.681810 0.000000 0.010620 
#    y 0.000000 1.696710 0.000000 
#    z 0.010620 0.000000 1.695440 
# 
# From -- ./inp_files/267731.got.cif
#   From: 2010.05.17/outbox.cif.g08.bks.cpg/sg12_134_cif.got.tgz:267731.got - 2010.06.03 13:09:07.
