data_PCOD9198384
_publ_section_title
;
Structure prediction by ZEFSAII (Michael W. Deem and Ramdas Pophale) SiO2 
 PCOD9198384
Probable space group: C 2/M
;
_chemical_formula_sum "Si O2"
_cell_formula_units_Z 48
_cell_length_a 19.704834
_cell_length_b 7.572091
_cell_length_c 15.139879
_cell_angle_alpha 90.000000
_cell_angle_beta 97.395061
_cell_angle_gamma 90.000000
_cell_volume 2240.183294
_symmetry_space_group_name_H-M "C 2/M"
_symmetry_group_IT_number 12
_symmetry_cell_setting 'monoclinic'
loop_
_space_group_symop_operation_xyz
x,y,z
-x,y,-z
-x,-y,-z
x,-y,z
1/2+x,1/2+y,z
1/2-x,1/2+y,-z
1/2-x,1/2-y,-z
1/2+x,1/2-y,z
loop_
_atom_site_type_symbol
_atom_site_label
_atom_site_fract_x
_atom_site_fract_y
_atom_site_fract_z
Si Si1 0.962027 0.216015 0.584619
Si Si2 0.226659 0.792013 0.749710
Si Si3 0.805205 0.210052 0.584935
Si Si4 0.062569 0.713938 0.949397
Si Si5 0.426913 0.708377 0.255597
Si Si6 0.696825 0.211142 0.067319
O O1 0.882747 0.276193 0.579321
O O2 0.000000 0.267844 0.500000
O O3 0.010315 0.276555 0.674081
O O4 0.959598 0.000000 0.584083
O O5 0.270364 0.776519 0.668681
O O6 0.148982 0.718997 0.733261
O O7 0.271628 0.716040 0.837228
O O8 0.217453 0.000000 0.767762
O O9 0.750000 0.250000 0.500000
O O10 0.810823 0.000000 0.593407
O O11 0.064660 0.500000 0.946187
O O12 0.061643 0.771142 0.847288
O O13 0.127228 0.781663 0.015058
O O14 0.000000 0.767243 0.000000
O O15 0.425019 0.500000 0.275645
O O16 0.687446 0.000000 0.077322
O O17 0.750000 0.250000 0.000000
#
# Coordination Sequence:
#
# PCOD9198384 Si02
#       6
#     8   8   8   8   8   8
#     4   9  19  37  60  83 110 144 182 227 276 330
#     4  10  21  37  59  85 114 149 189 235 282 331
#     4  11  23  39  61  88 114 145 184 230 283 337
#     4  10  22  37  54  80 117 156 188 230 287 336
#     4  10  20  37  60  84 109 147 194 234 278 329
#     4  10  20  36  57  82 113 153 195 233 278 329
#
# _framework density 21.426818999999998
#
# number of rings (size 3 to 8) (size 9 to 14) (size 15 to 20)
#    0.000    2.000    1.667    1.500    2.333    4.333 
#    0.000    0.833    0.000    3.500    0.000    0.000 
#    0.000    0.000    0.000    0.000    0.000    0.000 
#
# Total GULP energy -133952.091853 kJ/mol
# GULP energy per Si atom -5581.337161 kJ/mol
# Density = 2.137805 g / cm^3
# Si number density = 21.426819 Si / 1000 Ang^3
#
#
#
# Elastic Constant Matrix: (Units=GPa)
#
#
# Indices 1 2 3 4 5 6 
#
# 1 240.7567 -9.7415 116.7204 0.0000 17.0199 0.0000
# 2 -9.7415 40.4941 -20.7978 0.0000 10.5382 0.0000
# 3 116.7204 -20.7978 177.7948 0.0000 20.0603 0.0000
# 4 0.0000 0.0000 0.0000 31.4315 0.0000 -0.5330
# 5 17.0199 10.5382 20.0603 0.0000 41.6259 0.0000
# 6 0.0000 0.0000 0.0000 -0.5330 0.0000 16.4628
#
#
#
# Elastic Compliance Matrix: (Units=1/GPa)
#
#
# Indices 1 2 3 4 5 6 
#
# 1 0.006114 -0.000479 -0.004020 0.000000 -0.000441 0.000000
# 2 -0.000479 0.029585 0.004863 0.000000 -0.009637 0.000000
# 3 -0.004020 0.004863 0.009291 0.000000 -0.004065 0.000000
# 4 0.000000 0.000000 0.000000 0.031833 0.000000 0.001031
# 5 -0.000441 -0.009637 -0.004065 0.000000 0.028603 0.000000
# 6 0.000000 0.000000 0.000000 0.001031 0.000000 0.060776
#
#
# Mechanical properties :
#
#
# Convention : Reuss Voigt Hill
#
# Bulk Modulus (GPa) = 21.87349 70.15642 46.01495
# Shear Modulus (GPa) = 27.66783 42.76167 35.21475
#
# Velocity S-wave (km/s) = 3.59732 4.47218 4.05840
# Velocity P-wave (km/s) = 5.24261 7.71237 6.59415
#
# Compressibility (1/GPa) = 0.04571744
#
# Stress axis : x y z
#
# Youngs Moduli (GPa) = 163.54661 33.80065 107.62860
#
# Poissons Ratio (x) = 0.01619 0.43270
# Poissons Ratio (y) = 0.07835 -0.52336
# Poissons Ratio (z) = 0.65751 -0.16436
#
# Static dielectric constant tensor:
#      x y z
#    x 1.774750 0.000000 0.006530 
#    y 0.000000 1.822510 0.000000 
#    z 0.006530 0.000000 1.747840 
# 
# From -- ./inp_files/221692.got.cif
#   From: 2010.05.17/outbox.cif.g08.bks.cpg/sg12_111_cif.got.tgz:221692.got - 2010.06.03 13:09:07.
