data_PCOD9198452
_publ_section_title
;
Structure prediction by ZEFSAII (Michael W. Deem and Ramdas Pophale) SiO2 
 PCOD9198452
Probable space group: C 2/M
;
_chemical_formula_sum "Si O2"
_cell_formula_units_Z 64
_cell_length_a 31.386510
_cell_length_b 7.775237
_cell_length_c 15.087163
_cell_angle_alpha 90.000000
_cell_angle_beta 51.632378
_cell_angle_gamma 90.000000
_cell_volume 2886.721402
_symmetry_space_group_name_H-M "C 2/M"
_symmetry_group_IT_number 12
_symmetry_cell_setting 'monoclinic'
loop_
_space_group_symop_operation_xyz
x,y,z
-x,y,-z
-x,-y,-z
x,-y,z
1/2+x,1/2+y,z
1/2-x,1/2+y,-z
1/2-x,1/2-y,-z
1/2+x,1/2-y,z
loop_
_atom_site_type_symbol
_atom_site_label
_atom_site_fract_x
_atom_site_fract_y
_atom_site_fract_z
Si Si1 0.054998 0.291841 0.875678
Si Si2 0.958634 0.291456 0.477888
Si Si3 0.120226 0.207445 0.068199
Si Si4 0.166682 0.794230 0.352513
Si Si5 0.235501 0.193241 0.419804
Si Si6 0.005359 0.293956 0.760613
Si Si7 0.165867 0.799926 0.825700
Si Si8 0.803920 0.206870 0.876190
O O1 0.061285 0.500000 0.869490
O O2 0.107865 0.213666 0.852043
O O3 0.043898 0.231924 0.789928
O O4 0.000000 0.250871 0.000000
O O5 0.959846 0.500000 0.475943
O O6 0.897165 0.236102 0.573536
O O7 0.000000 0.231585 0.500000
O O8 0.978192 0.227673 0.356750
O O9 0.057640 0.257119 0.138548
O O10 0.145769 0.268528 0.127865
O O11 0.122693 0.000000 0.063182
O O12 0.155674 0.268236 0.938327
O O13 0.190548 0.720017 0.413739
O O14 0.194478 0.726034 0.226413
O O15 0.176653 0.000000 0.341348
O O16 0.250000 0.250000 0.500000
O O17 0.289422 0.203160 0.289690
O O18 0.216363 0.000000 0.458024
O O19 0.010971 0.500000 0.752223
O O20 0.182273 0.000000 0.808831
O O21 0.808029 0.000000 0.865921
O O22 0.750000 0.250000 0.000000
#
# Coordination Sequence:
#
# PCOD9198452 Si02
#       8
#     8   8   8   8   8   8   8   8
#     4  10  20  36  57  84 117 156 198 243 296 352
#     4  10  22  39  60  89 123 159 200 246 296 353
#     4  10  21  36  57  87 120 152 188 237 294 351
#     4  10  23  42  63  89 120 156 202 250 298 356
#     4  11  25  44  64  88 118 157 205 254 304 360
#     4  10  21  36  56  83 114 151 197 239 289 352
#     4  11  23  38  59  88 121 156 198 246 298 356
#     4  10  21  38  60  87 117 149 190 237 291 352
#
# _framework density 22.170480999999999
#
# number of rings (size 3 to 8) (size 9 to 14) (size 15 to 20)
#    0.000    1.750    1.250    2.250    1.750    4.000 
#    0.000    0.000    0.000    0.000    0.000    0.000 
#    0.000    0.000    0.000    0.000    0.000    0.000 
#
# Total GULP energy -178841.591240 kJ/mol
# GULP energy per Si atom -5588.799726 kJ/mol
# Density = 2.212002 g / cm^3
# Si number density = 22.170481 Si / 1000 Ang^3
#
#
#
# Elastic Constant Matrix: (Units=GPa)
#
#
# Indices 1 2 3 4 5 6 
#
# 1 148.7204 7.6518 43.2290 0.0000 29.6189 0.0000
# 2 7.6518 26.4348 -1.8147 0.0000 15.4781 -0.0001
# 3 43.2290 -1.8147 110.7532 0.0000 30.0889 0.0000
# 4 0.0000 0.0000 0.0000 9.1898 0.0000 -8.5199
# 5 29.6189 15.4781 30.0889 0.0000 48.5686 0.0000
# 6 0.0000 -0.0001 0.0000 -8.5199 0.0000 17.3403
#
#
#
# Elastic Compliance Matrix: (Units=1/GPa)
#
#
# Indices 1 2 3 4 5 6 
#
# 1 0.008074 -0.000520 -0.002245 0.000000 -0.003367 0.000000
# 2 -0.000520 0.049809 0.006307 0.000000 -0.019464 0.000000
# 3 -0.002245 0.006307 0.012243 0.000000 -0.008226 0.000000
# 4 0.000000 0.000000 0.000000 0.199855 0.000000 0.098196
# 5 -0.003367 -0.019464 -0.008226 0.000000 0.033942 0.000000
# 6 0.000000 0.000000 0.000000 0.098196 0.000000 0.105917
#
#
# Mechanical properties :
#
#
# Convention : Reuss Voigt Hill
#
# Bulk Modulus (GPa) = 12.95169 42.67116 27.81142
# Shear Modulus (GPa) = 11.66884 30.80923 21.23904
#
# Velocity S-wave (km/s) = 2.29666 3.73185 3.09849
# Velocity P-wave (km/s) = 3.58991 6.15285 5.03711
#
# Compressibility (1/GPa) = 0.07721002
#
# Stress axis : x y z
#
# Youngs Moduli (GPa) = 123.85447 20.07688 81.67639
#
# Poissons Ratio (x) = 0.01043 0.18337
# Poissons Ratio (y) = 0.06435 -0.51510
# Poissons Ratio (z) = 0.27807 -0.12662
#
# Static dielectric constant tensor:
#      x y z
#    x 1.826090 0.000000 0.048780 
#    y 0.000000 1.824960 0.000000 
#    z 0.048780 0.000000 1.794160 
# 
# From -- ./inp_files/249862.got.cif
#   From: 2010.05.17/outbox.cif.g08.bks.cpg/sg12_125_cif.got.tgz:249862.got - 2010.06.03 13:09:07.
