data_PCOD9198803
_publ_section_title
;
Structure prediction by ZEFSAII (Michael W. Deem and Ramdas Pophale) SiO2 
 PCOD9198803
Probable space group: C 2/M
;
_chemical_formula_sum "Si O2"
_cell_formula_units_Z 56
_cell_length_a 10.974468
_cell_length_b 21.933420
_cell_length_c 23.737613
_cell_angle_alpha 90.000000
_cell_angle_beta 149.398159
_cell_angle_gamma 90.000000
_cell_volume 2908.731202
_symmetry_space_group_name_H-M "C 2/M"
_symmetry_group_IT_number 12
_symmetry_cell_setting 'monoclinic'
loop_
_space_group_symop_operation_xyz
x,y,z
-x,y,-z
-x,-y,-z
x,-y,z
1/2+x,1/2+y,z
1/2-x,1/2+y,-z
1/2-x,1/2-y,-z
1/2+x,1/2-y,z
loop_
_atom_site_type_symbol
_atom_site_label
_atom_site_fract_x
_atom_site_fract_y
_atom_site_fract_z
Si Si1 0.257557 0.773699 0.622679
Si Si2 0.693020 0.927567 0.626656
Si Si3 0.631741 0.270886 0.894526
Si Si4 0.401215 0.155474 0.781421
Si Si5 0.114759 0.160091 0.781936
Si Si6 0.252923 0.428343 0.869315
Si Si7 0.346692 0.847426 0.279031
O O1 0.222113 0.817573 0.663290
O O2 0.419385 0.714019 0.696266
O O3 0.408073 0.814128 0.638890
O O4 0.000000 0.753895 0.500000
O O5 0.500000 0.917274 0.500000
O O6 0.958667 0.901572 0.719039
O O7 0.624840 0.887961 0.654169
O O8 0.699016 0.000000 0.640266
O O9 0.612649 0.205322 0.857018
O O10 0.727671 0.320502 0.887544
O O11 0.365129 0.297503 0.799770
O O12 0.750000 0.250000 0.000000
O O13 0.523314 0.092107 0.814757
O O14 0.296837 0.158815 0.802376
O O15 0.248547 0.500000 0.856252
O O16 0.231387 0.390797 0.803268
O O17 0.500000 0.414357 0.000000
#
# Coordination Sequence:
#
# PCOD9198803 Si02
#       7
#     8   8   8   8   8   8   8
#     4  10  21  35  57  85 117 154 188 240 302 354
#     4  10  22  38  58  83 116 163 205 242 290 348
#     4  10  20  36  58  85 119 151 185 240 300 355
#     4  10  21  36  54  85 117 145 191 237 286 353
#     4  10  21  37  55  88 119 152 195 239 298 355
#     4  10  21  38  61  84 114 157 198 242 294 351
#     4  10  20  38  60  87 116 152 204 247 293 357
#
# _framework density 19.252381
#
# number of rings (size 3 to 8) (size 9 to 14) (size 15 to 20)
#    0.000    2.000    1.429    1.714    2.000    1.714 
#    0.000    0.000    0.000    2.143    0.000    8.000 
#    0.000    0.000    0.000    0.000    0.000    0.000 
#
# Total GULP energy -156051.941106 kJ/mol
# GULP energy per Si atom -5573.283611 kJ/mol
# Density = 1.920856 g / cm^3
# Si number density = 19.252381 Si / 1000 Ang^3
#
#
#
# Elastic Constant Matrix: (Units=GPa)
#
#
# Indices 1 2 3 4 5 6 
#
# 1 109.6672 25.6781 24.8604 0.0004 -13.3131 0.0005
# 2 25.6781 93.3605 32.5151 0.0006 -4.3414 0.0007
# 3 24.8604 32.5151 79.4903 0.0021 -7.6129 0.0010
# 4 0.0004 0.0006 0.0021 26.6501 0.0004 -4.1748
# 5 -13.3131 -4.3414 -7.6129 0.0004 20.9596 0.0005
# 6 0.0005 0.0007 0.0010 -4.1748 0.0005 24.5618
#
#
#
# Elastic Compliance Matrix: (Units=1/GPa)
#
#
# Indices 1 2 3 4 5 6 
#
# 1 0.010726 -0.001991 -0.001997 0.000000 0.005675 0.000000
# 2 -0.001991 0.012872 -0.004671 0.000000 -0.000295 0.000000
# 3 -0.001997 -0.004671 0.015438 -0.000001 0.003372 -0.000001
# 4 0.000000 0.000000 -0.000001 0.038550 -0.000001 0.006552
# 5 0.005675 -0.000295 0.003372 -0.000001 0.052479 -0.000002
# 6 0.000000 0.000000 -0.000001 0.006552 -0.000002 0.041827
#
#
# Mechanical properties :
#
#
# Convention : Reuss Voigt Hill
#
# Bulk Modulus (GPa) = 46.04167 49.84725 47.94446
# Shear Modulus (GPa) = 25.45191 27.73192 26.59191
#
# Velocity S-wave (km/s) = 3.63990 3.79943 3.72052
# Velocity P-wave (km/s) = 6.45227 6.72274 6.58890
#
# Compressibility (1/GPa) = 0.02171946
#
# Stress axis : x y z
#
# Youngs Moduli (GPa) = 93.22918 77.68967 64.77489
#
# Poissons Ratio (x) = 0.15467 0.12934
# Poissons Ratio (y) = 0.18561 0.30255
# Poissons Ratio (z) = 0.18615 0.36287
#
# Static dielectric constant tensor:
#      x y z
#    x 1.707060 0.000000 -0.017400 
#    y 0.000000 1.650340 0.000000 
#    z -0.017400 0.000000 1.715990 
# 
# From -- ./inp_files/133296.got.cif
#   From: 2010.05.17/outbox.cif.g08.bks.cpg/sg12_67_cif.got.tgz:133296.got - 2010.06.03 13:09:07.
