data_PCOD9198187
_publ_section_title
;
Structure prediction by ZEFSAII (Michael W. Deem and Ramdas Pophale) SiO2 
 PCOD9198187
Probable space group: C 2/M
;
_chemical_formula_sum "Si O2"
_cell_formula_units_Z 52
_cell_length_a 9.535572
_cell_length_b 23.255654
_cell_length_c 12.342491
_cell_angle_alpha 90.000000
_cell_angle_beta 69.989771
_cell_angle_gamma 90.000000
_cell_volume 2571.791251
_symmetry_space_group_name_H-M "C 2/M"
_symmetry_group_IT_number 12
_symmetry_cell_setting 'monoclinic'
loop_
_space_group_symop_operation_xyz
x,y,z
-x,y,-z
-x,-y,-z
x,-y,z
1/2+x,1/2+y,z
1/2-x,1/2+y,-z
1/2-x,1/2-y,-z
1/2+x,1/2-y,z
loop_
_atom_site_type_symbol
_atom_site_label
_atom_site_fract_x
_atom_site_fract_y
_atom_site_fract_z
Si Si1 0.000000 0.784267 0.000000
Si Si2 0.757205 0.000000 0.920066
Si Si3 0.496225 0.000000 0.821736
Si Si4 0.673865 0.826594 0.428918
Si Si5 0.884471 0.381264 0.777668
Si Si6 0.832375 0.804633 0.588309
Si Si7 0.358901 0.817518 0.167056
Si Si8 0.695255 0.620342 0.037804
O O1 0.108833 0.742334 0.902856
O O2 0.083794 0.826113 0.061906
O O3 0.656871 0.000000 0.838095
O O4 0.853066 0.057788 0.909365
O O5 0.631175 0.000000 0.049526
O O6 0.468808 0.942256 0.760528
O O7 0.500000 0.822999 0.500000
O O8 0.683912 0.864257 0.319268
O O9 0.749905 0.843764 0.521213
O O10 0.729096 0.761242 0.394431
O O11 0.754135 0.384102 0.900252
O O12 0.002911 0.333850 0.791384
O O13 0.789990 0.822582 0.720471
O O14 0.000000 0.803197 0.500000
O O15 0.334151 0.863037 0.077737
#
# Coordination Sequence:
#
# PCOD9198187 Si02
#       8
#     4   4   4   8   8   8   8   8
#     4  12  26  35  54  97 132 164 186 248 330 376
#     4   9  18  37  60  84 118 163 208 242 294 370
#     4   9  18  34  61  88 111 152 207 253 307 345
#     4  10  20  36  56  83 117 157 204 251 293 357
#     4  11  20  37  61  88 118 153 200 262 300 361
#     4  10  23  38  58  85 121 168 205 241 296 373
#     4  12  22  36  60  88 126 156 198 251 313 370
#     4  11  23  38  58  89 125 161 201 249 309 374
#
# _framework density 20.219372
#
# number of rings (size 3 to 8) (size 9 to 14) (size 15 to 20)
#    0.000    1.385    4.615    1.385    2.154    1.538 
#    0.000    0.385    0.000    0.000    0.000    2.692 
#    0.000    0.000    0.000    0.000    0.000    0.000 
#
# Total GULP energy -144995.848933 kJ/mol
# GULP energy per Si atom -5576.763420 kJ/mol
# Density = 2.017335 g / cm^3
# Si number density = 20.219372 Si / 1000 Ang^3
#
#
#
# Elastic Constant Matrix: (Units=GPa)
#
#
# Indices 1 2 3 4 5 6 
#
# 1 48.2695 23.3476 28.3139 0.0000 11.2963 0.0000
# 2 23.3476 117.5332 35.0771 0.0000 16.6982 0.0000
# 3 28.3139 35.0771 113.5805 0.0000 24.6207 0.0000
# 4 0.0000 0.0000 0.0000 16.5737 0.0000 11.4046
# 5 11.2963 16.6982 24.6207 0.0000 27.1002 0.0000
# 6 0.0000 0.0000 0.0000 11.4046 0.0000 24.2757
#
#
#
# Elastic Compliance Matrix: (Units=1/GPa)
#
#
# Indices 1 2 3 4 5 6 
#
# 1 0.025986 -0.003143 -0.004457 0.000000 -0.004846 0.000000
# 2 -0.003143 0.010098 -0.001582 0.000000 -0.003475 0.000000
# 3 -0.004457 -0.001582 0.012191 0.000000 -0.008243 0.000000
# 4 0.000000 0.000000 0.000000 0.089160 0.000000 -0.041887
# 5 -0.004846 -0.003475 -0.008243 0.000000 0.048550 0.000000
# 6 0.000000 0.000000 0.000000 -0.041887 0.000000 0.060872
#
#
# Mechanical properties :
#
#
# Convention : Reuss Voigt Hill
#
# Bulk Modulus (GPa) = 33.43245 50.31782 41.87513
# Shear Modulus (GPa) = 18.16926 26.43289 22.30107
#
# Velocity S-wave (km/s) = 3.00093 3.61959 3.32468
# Velocity P-wave (km/s) = 5.34586 6.51218 5.95763
#
# Compressibility (1/GPa) = 0.02991106
#
# Stress axis : x y z
#
# Youngs Moduli (GPa) = 38.48264 99.02511 82.03026
#
# Poissons Ratio (x) = 0.31128 0.36557
# Poissons Ratio (y) = 0.12097 0.12976
# Poissons Ratio (z) = 0.17150 0.15664
#
# Static dielectric constant tensor:
#      x y z
#    x 1.769380 0.000000 0.000160 
#    y 0.000000 1.743140 0.000000 
#    z 0.000160 0.000000 1.754850 
# 
# From -- ./inp_files/133113.got.cif
#   From: 2010.05.17/outbox.cif.g08.bks.cpg/sg12_67_cif.got.tgz:133113.got - 2010.06.03 13:09:07.
