data_PCOD9198882
_publ_section_title
;
Structure prediction by ZEFSAII (Michael W. Deem and Ramdas Pophale) SiO2 
 PCOD9198882
Probable space group: C 2/M
;
_chemical_formula_sum "Si O2"
_cell_formula_units_Z 64
_cell_length_a 26.330824
_cell_length_b 18.749090
_cell_length_c 17.319004
_cell_angle_alpha 90.000000
_cell_angle_beta 160.510839
_cell_angle_gamma 90.000000
_cell_volume 2852.533383
_symmetry_space_group_name_H-M "C 2/M"
_symmetry_group_IT_number 12
_symmetry_cell_setting 'monoclinic'
loop_
_space_group_symop_operation_xyz
x,y,z
-x,y,-z
-x,-y,-z
x,-y,z
1/2+x,1/2+y,z
1/2-x,1/2+y,-z
1/2-x,1/2-y,-z
1/2+x,1/2-y,z
loop_
_atom_site_type_symbol
_atom_site_label
_atom_site_fract_x
_atom_site_fract_y
_atom_site_fract_z
Si Si1 0.251745 0.421094 0.872777
Si Si2 0.369245 0.818994 0.423089
Si Si3 0.762981 0.084229 0.636387
Si Si4 0.263837 0.084375 0.696727
Si Si5 0.469232 0.333132 0.545496
Si Si6 0.405967 0.585454 0.691178
Si Si7 0.564657 0.916272 0.914440
Si Si8 0.299821 0.859759 0.045252
O O1 0.213719 0.500000 0.787172
O O2 0.157553 0.359606 0.695554
O O3 0.223308 0.420562 0.923238
O O4 0.427221 0.404568 0.104557
O O5 0.262190 0.862468 0.328942
O O6 0.357311 0.734302 0.396967
O O7 0.540070 0.827657 0.699252
O O8 0.889619 0.108315 0.756355
O O9 0.783019 0.000000 0.688118
O O10 0.607239 0.088854 0.362542
O O11 0.112755 0.100688 0.530986
O O12 0.218554 0.115089 0.547964
O O13 0.399482 0.110099 0.947363
O O14 0.287309 0.000000 0.718549
O O15 0.500000 0.345118 0.500000
O O16 0.639377 0.319322 0.821785
O O17 0.382024 0.500000 0.661126
O O18 0.601537 0.000000 0.968163
O O19 0.670627 0.882030 0.000614
#
# Coordination Sequence:
#
# PCOD9198882 Si02
#       8
#     8   8   8   8   8   8   8   8
#     4  11  22  38  61  91 123 159 204 254 301 355
#     4  11  25  39  56  85 119 163 204 243 299 357
#     4   9  19  39  62  87 117 155 204 253 300 357
#     4  10  20  36  58  88 119 153 197 247 304 361
#     4  12  23  39  60  88 123 159 197 241 303 369
#     4   9  19  36  62  90 117 153 201 254 306 353
#     4   9  18  32  56  89 119 149 189 242 301 358
#     4  11  21  37  58  86 117 158 198 244 296 358
#
# _framework density 22.436197
#
# number of rings (size 3 to 8) (size 9 to 14) (size 15 to 20)
#    0.000    1.750    2.500    2.250    0.000    3.750 
#    0.000    5.000    0.000    1.500    0.000    0.000 
#    0.000    0.000    0.000    0.000    0.000    0.000 
#
# Total GULP energy -178455.302698 kJ/mol
# GULP energy per Si atom -5576.728209 kJ/mol
# Density = 2.238513 g / cm^3
# Si number density = 22.436197 Si / 1000 Ang^3
#
#
#
# Elastic Constant Matrix: (Units=GPa)
#
#
# Indices 1 2 3 4 5 6 
#
# 1 78.1408 -15.2938 -14.0795 0.0000 -4.2865 0.0000
# 2 -15.2938 11.9987 6.5211 0.0000 -2.1829 0.0000
# 3 -14.0795 6.5211 46.3712 0.0000 -6.0312 0.0000
# 4 0.0000 0.0000 0.0000 14.6183 0.0000 2.1369
# 5 -4.2865 -2.1829 -6.0312 0.0000 33.0697 0.0000
# 6 0.0000 0.0000 0.0000 2.1369 0.0000 41.1045
#
#
#
# Elastic Compliance Matrix: (Units=1/GPa)
#
#
# Indices 1 2 3 4 5 6 
#
# 1 0.017853 0.021965 0.002890 0.000000 0.004291 0.000000
# 2 0.021965 0.117717 -0.008711 0.000000 0.009029 0.000000
# 3 0.002890 -0.008711 0.024216 0.000000 0.004216 0.000000
# 4 0.000000 0.000000 0.000000 0.068931 0.000000 -0.003583
# 5 0.004291 0.009029 0.004216 0.000000 0.032160 0.000000
# 6 0.000000 0.000000 0.000000 -0.003583 0.000000 0.024515
#
#
# Mechanical properties :
#
#
# Convention : Reuss Voigt Hill
#
# Bulk Modulus (GPa) = 5.20633 10.08959 7.64796
# Shear Modulus (GPa) = 15.76655 28.38269 22.07462
#
# Velocity S-wave (km/s) = 2.65378 3.56060 3.14010
# Velocity P-wave (km/s) = 3.42280 4.62716 4.06978
#
# Compressibility (1/GPa) = 0.19207392
#
# Stress axis : x y z
#
# Youngs Moduli (GPa) = 56.01446 8.49496 41.29537
#
# Poissons Ratio (x) = -0.18660 -0.11933
# Poissons Ratio (y) = -1.23038 0.35971
# Poissons Ratio (z) = -0.16186 0.07400
#
# Static dielectric constant tensor:
#      x y z
#    x 1.864880 0.000000 -0.012470 
#    y 0.000000 1.813250 0.000000 
#    z -0.012470 0.000000 1.889670 
# 
# From -- ./inp_files/294176.got.cif
#   From: 2010.05.17/outbox.cif.g08.bks.cpg/sg12_148_cif.got.tgz:294176.got - 2010.06.03 13:09:07.
