data_PCOD9198341
_publ_section_title
;
Structure prediction by ZEFSAII (Michael W. Deem and Ramdas Pophale) SiO2 
 PCOD9198341
Probable space group: C 2/M
;
_chemical_formula_sum "Si O2"
_cell_formula_units_Z 42
_cell_length_a 15.844566
_cell_length_b 9.775242
_cell_length_c 12.128352
_cell_angle_alpha 90.000000
_cell_angle_beta 108.701702
_cell_angle_gamma 90.000000
_cell_volume 1779.310303
_symmetry_space_group_name_H-M "C 2/M"
_symmetry_group_IT_number 12
_symmetry_cell_setting 'monoclinic'
loop_
_space_group_symop_operation_xyz
x,y,z
-x,y,-z
-x,-y,-z
x,-y,z
1/2+x,1/2+y,z
1/2-x,1/2+y,-z
1/2-x,1/2-y,-z
1/2+x,1/2-y,z
loop_
_atom_site_type_symbol
_atom_site_label
_atom_site_fract_x
_atom_site_fract_y
_atom_site_fract_z
Si Si1 0.257813 0.342828 0.337826
Si Si2 0.397385 0.261788 0.865051
Si Si3 0.012547 0.155995 0.709996
Si Si4 0.168501 0.153695 0.936650
Si Si5 0.500000 0.000000 0.000000
Si Si6 0.386886 0.842430 0.522796
O O1 0.282837 0.500000 0.326765
O O2 0.202403 0.275893 0.215932
O O3 0.340159 0.251465 0.411530
O O4 0.186124 0.345611 0.408433
O O5 0.444184 0.340513 0.785142
O O6 0.448785 0.120096 0.907214
O O7 0.392321 0.338734 0.978981
O O8 0.972847 0.266408 0.609190
O O9 0.106655 0.191102 0.807007
O O10 0.013944 0.000000 0.667243
O O11 0.201459 0.000000 0.934865
O O12 0.250000 0.250000 0.000000
O O13 0.401634 0.000000 0.496279
#
# Coordination Sequence:
#
# PCOD9198341 Si02
#       6
#     8   8   8   8   2   8
#     4   9  17  29  47  77 110 144 177 218 272 321
#     4  11  21  34  59  83 115 146 186 229 276 328
#     4  10  20  36  57  81 112 145 183 228 277 329
#     4  11  25  39  56  81 113 149 187 231 281 334
#     4  12  20  32  58  92 112 146 186 236 270 340
#     4   9  18  29  49  78 109 142 180 223 271 324
#
# _framework density 23.604652000000002
#
# number of rings (size 3 to 8) (size 9 to 14) (size 15 to 20)
#    0.000    1.905    2.857    1.143    2.667    7.619 
#    0.000    0.000    0.000    1.143    0.000    6.667 
#    0.000    0.000    0.000    0.000    0.000    0.000 
#
# Total GULP energy -117301.513068 kJ/mol
# GULP energy per Si atom -5585.786337 kJ/mol
# Density = 2.355093 g / cm^3
# Si number density = 23.604652 Si / 1000 Ang^3
#
#
#
# Elastic Constant Matrix: (Units=GPa)
#
#
# Indices 1 2 3 4 5 6 
#
# 1 90.9185 37.7748 27.9740 0.0000 17.7376 0.0000
# 2 37.7748 166.8470 86.8045 0.0000 46.7986 0.0000
# 3 27.9740 86.8045 165.3107 0.0000 38.1933 0.0000
# 4 0.0000 0.0000 0.0000 36.0606 0.0000 12.7757
# 5 17.7376 46.7986 38.1933 0.0000 59.2134 0.0000
# 6 0.0000 0.0000 0.0000 12.7757 0.0000 14.8309
#
#
#
# Elastic Compliance Matrix: (Units=1/GPa)
#
#
# Indices 1 2 3 4 5 6 
#
# 1 0.012356 -0.001974 -0.000658 0.000000 -0.001717 0.000000
# 2 -0.001974 0.009655 -0.003654 0.000000 -0.004682 0.000000
# 3 -0.000658 -0.003654 0.008656 0.000000 -0.002499 0.000000
# 4 0.000000 0.000000 0.000000 0.039912 0.000000 -0.034381
# 5 -0.001717 -0.004682 -0.002499 0.000000 0.022715 0.000000
# 6 0.000000 0.000000 0.000000 -0.034381 0.000000 0.097044
#
#
# Mechanical properties :
#
#
# Convention : Reuss Voigt Hill
#
# Bulk Modulus (GPa) = 55.25828 80.90920 68.08374
# Shear Modulus (GPa) = 23.93022 40.05584 31.99303
#
# Velocity S-wave (km/s) = 3.18746 4.12387 3.68553
# Velocity P-wave (km/s) = 6.08336 7.55158 6.85688
#
# Compressibility (1/GPa) = 0.01809684
#
# Stress axis : x y z
#
# Youngs Moduli (GPa) = 80.93049 103.57648 115.52048
#
# Poissons Ratio (x) = 0.20442 0.07600
# Poissons Ratio (y) = 0.15972 0.42210
# Poissons Ratio (z) = 0.05324 0.37845
#
# Static dielectric constant tensor:
#      x y z
#    x 1.978760 0.000000 -0.033500 
#    y 0.000000 1.802840 0.000000 
#    z -0.033500 0.000000 1.856610 
# 
# From -- ./inp_files/221844.got.cif
#   From: 2010.05.17/outbox.cif.g08.bks.cpg/sg12_111_cif.got.tgz:221844.got - 2010.06.03 13:09:07.
