data_PCOD9198568
_publ_section_title
;
Structure prediction by ZEFSAII (Michael W. Deem and Ramdas Pophale) SiO2 
 PCOD9198568
Probable space group: C 2/M
;
_chemical_formula_sum "Si O2"
_cell_formula_units_Z 48
_cell_length_a 14.904026
_cell_length_b 7.671181
_cell_length_c 16.579145
_cell_angle_alpha 90.000000
_cell_angle_beta 78.771280
_cell_angle_gamma 90.000000
_cell_volume 1859.233569
_symmetry_space_group_name_H-M "C 2/M"
_symmetry_group_IT_number 12
_symmetry_cell_setting 'monoclinic'
loop_
_space_group_symop_operation_xyz
x,y,z
-x,y,-z
-x,-y,-z
x,-y,z
1/2+x,1/2+y,z
1/2-x,1/2+y,-z
1/2-x,1/2-y,-z
1/2+x,1/2-y,z
loop_
_atom_site_type_symbol
_atom_site_label
_atom_site_fract_x
_atom_site_fract_y
_atom_site_fract_z
Si Si1 0.717326 0.289331 0.136623
Si Si2 0.562779 0.801197 0.558236
Si Si3 0.052385 0.213667 0.070443
Si Si4 0.398986 0.700789 0.685290
Si Si5 0.612547 0.297009 0.801804
Si Si6 0.273959 0.704582 0.367973
O O1 0.724896 0.500000 0.134851
O O2 0.655621 0.231471 0.071956
O O3 0.657336 0.238729 0.226442
O O4 0.817630 0.215154 0.134769
O O5 0.500000 0.715719 0.500000
O O6 0.491888 0.795892 0.645583
O O7 0.659724 0.725226 0.567638
O O8 0.581601 0.000000 0.530479
O O9 0.985205 0.271397 0.154544
O O10 0.052722 0.000000 0.069333
O O11 0.000000 0.272987 0.000000
O O12 0.423445 0.500000 0.694788
O O13 0.325612 0.713486 0.624924
O O14 0.599446 0.500000 0.784476
O O15 0.665932 0.218296 0.716909
O O16 0.258396 0.500000 0.357900
#
# Coordination Sequence:
#
# PCOD9198568 Si02
#       6
#     8   8   8   8   8   8
#     4   9  18  33  53  77 102 132 173 216 257 303
#     4  11  24  39  55  79 110 141 174 214 262 317
#     4   9  17  30  49  73 104 141 174 206 252 309
#     4  10  20  36  58  81 106 138 178 222 265 312
#     4   9  18  33  53  77 102 132 173 216 257 303
#     4  10  20  36  58  81 106 138 178 222 265 312
#
# _framework density 25.817088999999999
#
# number of rings (size 3 to 8) (size 9 to 14) (size 15 to 20)
#    0.000    2.333    0.000    2.500    0.000    6.667 
#    0.000    0.833    0.000    1.000    0.000    0.000 
#    0.000    0.000    0.000    0.000    0.000    0.000 
#
# Total GULP energy -134202.105325 kJ/mol
# GULP energy per Si atom -5591.754389 kJ/mol
# Density = 2.575833 g / cm^3
# Si number density = 25.817089 Si / 1000 Ang^3
#
#
#
# Elastic Constant Matrix: (Units=GPa)
#
#
# Indices 1 2 3 4 5 6 
#
# 1 182.1921 0.7344 24.4837 0.0000 29.8517 0.0000
# 2 0.7344 58.1217 -6.9221 0.0000 2.1675 0.0000
# 3 24.4837 -6.9221 56.2899 0.0000 22.2141 0.0000
# 4 0.0000 0.0000 0.0000 9.7846 0.0000 4.1154
# 5 29.8517 2.1675 22.2141 0.0000 52.7587 0.0000
# 6 0.0000 0.0000 0.0000 4.1154 0.0000 15.8083
#
#
#
# Elastic Compliance Matrix: (Units=1/GPa)
#
#
# Indices 1 2 3 4 5 6 
#
# 1 0.006164 -0.000163 -0.001592 0.000000 -0.002811 0.000000
# 2 -0.000163 0.017633 0.002985 0.000000 -0.001889 0.000000
# 3 -0.001592 0.002985 0.022208 0.000000 -0.008572 0.000000
# 4 0.000000 0.000000 0.000000 0.114768 0.000000 -0.029878
# 5 -0.002811 -0.001889 -0.008572 0.000000 0.024232 0.000000
# 6 0.000000 0.000000 0.000000 -0.029878 0.000000 0.071036
#
#
# Mechanical properties :
#
#
# Convention : Reuss Voigt Hill
#
# Bulk Modulus (GPa) = 20.63342 37.02176 28.82759
# Shear Modulus (GPa) = 18.53670 34.22417 26.38044
#
# Velocity S-wave (km/s) = 2.68246 3.64488 3.20006
# Velocity P-wave (km/s) = 4.19567 5.66434 4.98439
#
# Compressibility (1/GPa) = 0.04846507
#
# Stress axis : x y z
#
# Youngs Moduli (GPa) = 162.23757 56.71109 45.02965
#
# Poissons Ratio (x) = 0.00922 0.07168
# Poissons Ratio (y) = 0.02639 -0.13440
# Poissons Ratio (z) = 0.25825 -0.16926
#
# Static dielectric constant tensor:
#      x y z
#    x 1.977840 0.000000 0.032440 
#    y 0.000000 1.934150 0.000000 
#    z 0.032440 0.000000 2.163110 
# 
# From -- ./inp_files/267696.got.cif
#   From: 2010.05.17/outbox.cif.g08.bks.cpg/sg12_134_cif.got.tgz:267696.got - 2010.06.03 13:09:07.
