data_PCOD9198148
_publ_section_title
;
Structure prediction by ZEFSAII (Michael W. Deem and Ramdas Pophale) SiO2 
 PCOD9198148
Probable space group: C 2/M
;
_chemical_formula_sum "Si O2"
_cell_formula_units_Z 52
_cell_length_a 26.454165
_cell_length_b 18.970059
_cell_length_c 11.365494
_cell_angle_alpha 90.000000
_cell_angle_beta 30.148099
_cell_angle_gamma 90.000000
_cell_volume 2864.571224
_symmetry_space_group_name_H-M "C 2/M"
_symmetry_group_IT_number 12
_symmetry_cell_setting 'monoclinic'
loop_
_space_group_symop_operation_xyz
x,y,z
-x,y,-z
-x,-y,-z
x,-y,z
1/2+x,1/2+y,z
1/2-x,1/2+y,-z
1/2-x,1/2-y,-z
1/2+x,1/2-y,z
loop_
_atom_site_type_symbol
_atom_site_label
_atom_site_fract_x
_atom_site_fract_y
_atom_site_fract_z
Si Si1 0.717651 0.658480 0.417534
Si Si2 0.691231 0.149736 0.363762
Si Si3 0.538676 0.000000 0.126819
Si Si4 0.695455 0.000000 0.423706
Si Si5 0.482603 0.134114 0.665969
Si Si6 0.747295 0.000000 0.581912
Si Si7 0.712571 0.770799 0.944951
Si Si8 0.382381 0.784566 0.251907
O O1 0.711170 0.574829 0.452612
O O2 0.716835 0.679295 0.280930
O O3 0.641437 0.705954 0.650212
O O4 0.823686 0.690406 0.253815
O O5 0.716250 0.068510 0.305781
O O6 0.588583 0.164591 0.499018
O O7 0.780917 0.197945 0.139342
O O8 0.663557 0.166030 0.554001
O O9 0.424886 0.000000 0.307760
O O10 0.547502 0.070210 0.188064
O O11 0.628924 0.000000 0.853688
O O12 0.754700 0.000000 0.426257
O O13 0.500000 0.105567 0.500000
O O14 0.395125 0.191883 0.835012
O O15 0.750000 0.750000 0.000000
O O16 0.500000 0.794935 0.000000
#
# Coordination Sequence:
#
# PCOD9198148 Si02
#       8
#     8   8   4   4   8   4   8   8
#     4  10  22  35  56  85 109 149 189 228 278 339
#     4  10  21  35  55  84 112 144 187 223 282 340
#     4  10  22  32  52  81 117 146 178 219 293 337
#     4  10  21  33  53  85 115 145 174 225 284 351
#     4  11  20  35  54  82 111 147 187 232 270 337
#     4  12  19  35  54  80 119 147 182 227 280 338
#     4  11  21  37  54  76 113 150 186 228 277 324
#     4  10  20  36  56  80 115 144 184 235 279 330
#
# _framework density 18.152804
#
# number of rings (size 3 to 8) (size 9 to 14) (size 15 to 20)
#    0.000    1.538    4.615    1.385    2.154    0.000 
#    0.000    1.154    0.000    0.000    0.000    1.615 
#    0.000    0.154    0.000    0.000    0.000    0.000 
#
# Total GULP energy -144978.471497 kJ/mol
# GULP energy per Si atom -5576.095058 kJ/mol
# Density = 1.811149 g / cm^3
# Si number density = 18.152804 Si / 1000 Ang^3
#
#
#
# Elastic Constant Matrix: (Units=GPa)
#
#
# Indices 1 2 3 4 5 6 
#
# 1 89.3457 24.8455 12.2418 0.0000 12.2087 0.0000
# 2 24.8455 145.5404 24.9954 0.0000 -0.0233 0.0000
# 3 12.2418 24.9954 40.2595 0.0000 9.5830 0.0000
# 4 0.0000 0.0000 0.0000 17.2217 0.0000 -6.8347
# 5 12.2087 -0.0233 9.5830 0.0000 16.9635 0.0000
# 6 0.0000 0.0000 0.0000 -6.8347 0.0000 20.4357
#
#
#
# Elastic Compliance Matrix: (Units=1/GPa)
#
#
# Indices 1 2 3 4 5 6 
#
# 1 0.013111 -0.002161 -0.000460 0.000000 -0.009179 0.000000
# 2 -0.002161 0.008194 -0.005549 0.000000 0.004701 0.000000
# 3 -0.000460 -0.005549 0.032751 0.000000 -0.018178 0.000000
# 4 0.000000 0.000000 0.000000 0.066953 0.000000 0.022392
# 5 -0.009179 0.004701 -0.018178 0.000000 0.075832 0.000000
# 6 0.000000 0.000000 0.000000 0.022392 0.000000 0.056423
#
#
# Mechanical properties :
#
#
# Convention : Reuss Voigt Hill
#
# Bulk Modulus (GPa) = 26.51453 44.36789 35.44121
# Shear Modulus (GPa) = 17.71955 25.12838 21.42396
#
# Velocity S-wave (km/s) = 3.12770 3.72461 3.43913
# Velocity P-wave (km/s) = 5.26131 6.55678 5.94444
#
# Compressibility (1/GPa) = 0.03771517
#
# Stress axis : x y z
#
# Youngs Moduli (GPa) = 76.27418 122.04747 30.53346
#
# Poissons Ratio (x) = 0.26369 0.01406
# Poissons Ratio (y) = 0.16479 0.16943
# Poissons Ratio (z) = 0.03511 0.67725
#
# Static dielectric constant tensor:
#      x y z
#    x 1.671480 0.000000 0.026790 
#    y 0.000000 1.660300 0.000000 
#    z 0.026790 0.000000 1.617520 
# 
# From -- ./inp_files/144901.got.cif
#   From: 2010.05.17/outbox.cif.g08.bks.cpg/sg12_73_cif.got.tgz:144901.got - 2010.06.03 13:09:07.
