data_PCOD9198671
_publ_section_title
;
Structure prediction by ZEFSAII (Michael W. Deem and Ramdas Pophale) SiO2 
 PCOD9198671
Probable space group: C 2/M
;
_chemical_formula_sum "Si O2"
_cell_formula_units_Z 64
_cell_length_a 20.810858
_cell_length_b 7.657068
_cell_length_c 21.757196
_cell_angle_alpha 90.000000
_cell_angle_beta 123.106466
_cell_angle_gamma 90.000000
_cell_volume 2904.167617
_symmetry_space_group_name_H-M "C 2/M"
_symmetry_group_IT_number 12
_symmetry_cell_setting 'monoclinic'
loop_
_space_group_symop_operation_xyz
x,y,z
-x,y,-z
-x,-y,-z
x,-y,z
1/2+x,1/2+y,z
1/2-x,1/2+y,-z
1/2-x,1/2-y,-z
1/2+x,1/2-y,z
loop_
_atom_site_type_symbol
_atom_site_label
_atom_site_fract_x
_atom_site_fract_y
_atom_site_fract_z
Si Si1 0.681660 0.288972 0.589669
Si Si2 0.233420 0.789795 0.062418
Si Si3 0.609436 0.713751 0.428416
Si Si4 0.646215 0.294165 0.310107
Si Si5 0.441125 0.297242 0.378191
Si Si6 0.619912 0.211925 0.784032
Si Si7 0.064493 0.201632 0.990519
Si Si8 0.495217 0.798301 0.170815
O O1 0.679561 0.500000 0.589972
O O2 0.668704 0.232819 0.512431
O O3 0.764667 0.234580 0.657082
O O4 0.611080 0.223127 0.594527
O O5 0.302195 0.729587 0.142022
O O6 0.232002 0.000000 0.066418
O O7 0.250000 0.750000 0.000000
O O8 0.149527 0.720189 0.036032
O O9 0.608754 0.500000 0.425995
O O10 0.629466 0.774738 0.370444
O O11 0.525194 0.775121 0.406304
O O12 0.630868 0.500000 0.302003
O O13 0.585233 0.214894 0.231244
O O14 0.454705 0.500000 0.401357
O O15 0.393174 0.284740 0.290337
O O16 0.549856 0.265040 0.792134
O O17 0.619725 0.000000 0.779349
O O18 0.033427 0.203694 0.904869
O O19 0.073358 0.000000 0.015471
O O20 0.000000 0.284550 0.000000
O O21 0.473179 0.000000 0.150678
#
# Coordination Sequence:
#
# PCOD9198671 Si02
#       8
#     8   8   8   8   8   8   8   8
#     4  10  21  37  57  84 118 151 189 240 292 341
#     4  10  20  36  58  83 112 146 186 229 275 330
#     4   9  18  35  59  84 111 150 196 238 284 341
#     4  11  22  37  59  85 115 152 194 237 286 346
#     4  10  20  36  59  85 113 150 195 237 283 340
#     4  10  21  36  56  84 116 150 189 238 289 333
#     4  10  22  39  60  88 120 153 188 230 285 343
#     4  11  22  38  60  85 116 151 191 238 287 339
#
# _framework density 22.037293999999999
#
# number of rings (size 3 to 8) (size 9 to 14) (size 15 to 20)
#    0.000    1.875    2.500    1.500    0.000    4.250 
#    0.000    2.500    0.000    1.500    0.000    0.000 
#    0.000    0.000    0.000    0.000    0.000    0.000 
#
# Total GULP energy -178832.096560 kJ/mol
# GULP energy per Si atom -5588.503018 kJ/mol
# Density = 2.198714 g / cm^3
# Si number density = 22.037294 Si / 1000 Ang^3
#
#
#
# Elastic Constant Matrix: (Units=GPa)
#
#
# Indices 1 2 3 4 5 6 
#
# 1 68.2557 -1.5566 -16.2366 0.0000 13.6002 0.0000
# 2 -1.5566 45.7572 -11.7319 0.0000 0.1310 0.0000
# 3 -16.2366 -11.7319 66.8017 0.0000 18.2126 0.0000
# 4 0.0000 0.0000 0.0000 -0.2256 0.0000 -4.3139
# 5 13.6002 0.1310 18.2126 0.0000 37.9014 0.0000
# 6 0.0000 0.0000 0.0000 -4.3139 0.0000 12.5752
#
#
#
# Elastic Compliance Matrix: (Units=1/GPa)
#
#
# Indices 1 2 3 4 5 6 
#
# 1 0.018675 0.002683 0.007871 0.000000 -0.010493 0.000000
# 2 0.002683 0.023448 0.005817 0.000000 -0.003839 0.000000
# 3 0.007871 0.005817 0.021496 0.000000 -0.013174 0.000000
# 4 0.000000 0.000000 0.000000 -0.586352 0.000000 -0.201147
# 5 -0.010493 -0.003839 -0.013174 0.000000 0.036493 0.000000
# 6 0.000000 0.000000 0.000000 -0.201147 0.000000 0.010519
#
#
# Mechanical properties :
#
#
# Convention : Reuss Voigt Hill
#
# Bulk Modulus (GPa) = 10.37749 13.52939 11.95344
# Shear Modulus (GPa) = -10.49664 24.07284 6.78810
#
# Velocity S-wave (km/s) = -2.18483 3.30868 1.75698
# Velocity P-wave (km/s) = 1.28271 4.55513 3.09062
#
# Compressibility (1/GPa) = 0.09636237
#
# Stress axis : x y z
#
# Youngs Moduli (GPa) = 53.54726 42.64724 46.52006
#
# Poissons Ratio (x) = -0.11444 -0.36616
# Poissons Ratio (y) = -0.14369 -0.27060
# Poissons Ratio (z) = -0.42148 -0.24808
#
# Static dielectric constant tensor:
#      x y z
#    x 1.814520 0.000000 0.018120 
#    y 0.000000 1.832710 0.000000 
#    z 0.018120 0.000000 1.764460 
# 
# From -- ./inp_files/346145.got.cif
#   From: 2010.05.17/outbox.cif.g08.bks.cpg/sg12_174_cif.got.tgz:346145.got - 2010.06.03 13:09:07.
