data_PCOD9198234
_publ_section_title
;
Structure prediction by ZEFSAII (Michael W. Deem and Ramdas Pophale) SiO2 
 PCOD9198234
Probable space group: C 2/M
;
_chemical_formula_sum "Si O2"
_cell_formula_units_Z 40
_cell_length_a 18.327848
_cell_length_b 29.531967
_cell_length_c 4.882779
_cell_angle_alpha 90.000000
_cell_angle_beta 122.945478
_cell_angle_gamma 90.000000
_cell_volume 2217.841064
_symmetry_space_group_name_H-M "C 2/M"
_symmetry_group_IT_number 12
_symmetry_cell_setting 'monoclinic'
loop_
_space_group_symop_operation_xyz
x,y,z
-x,y,-z
-x,-y,-z
x,-y,z
1/2+x,1/2+y,z
1/2-x,1/2+y,-z
1/2-x,1/2-y,-z
1/2+x,1/2-y,z
loop_
_atom_site_type_symbol
_atom_site_label
_atom_site_fract_x
_atom_site_fract_y
_atom_site_fract_z
Si Si1 0.558407 0.786997 0.382350
Si Si2 0.657670 0.697962 0.735908
Si Si3 0.765852 0.675448 0.485868
Si Si4 0.406845 0.552936 0.162983
Si Si5 0.345288 0.605122 0.517532
O O1 0.500000 0.809160 0.500000
O O2 0.596886 0.740816 0.587784
O O3 0.640294 0.815702 0.443516
O O4 0.500000 0.776483 0.000000
O O5 0.740841 0.705132 0.702237
O O6 0.615283 0.651992 0.525697
O O7 0.694613 0.687236 0.109037
O O8 0.745015 0.624591 0.545155
O O9 0.500000 0.558843 0.500000
O O10 0.396023 0.500000 0.077214
O O11 0.339568 0.571014 0.253118
O O12 0.396789 0.582003 0.868625
#
# Coordination Sequence:
#
# PCOD9198234 Si02
#       5
#     8   8   8   8   8
#     4  12  24  34  53  81 108 138 181 227 266 300
#     4  10  20  37  55  71 106 149 179 220 249 314
#     4  10  20  39  54  71 106 145 184 214 260 308
#     4  11  22  36  53  80 111 137 169 220 268 304
#     4  10  20  36  57  71 103 148 181 209 251 321
#
# _framework density 18.035556
#
# number of rings (size 3 to 8) (size 9 to 14) (size 15 to 20)
#    1.200    0.200    2.000    4.800    0.000    4.000 
#    0.000    0.000    0.000    0.000    0.000    0.000 
#    0.000   16.000    0.000    0.000    0.000    0.000 
#
# Total GULP energy -111553.861652 kJ/mol
# GULP energy per Si atom -5577.693083 kJ/mol
# Density = 1.799451 g / cm^3
# Si number density = 18.035556 Si / 1000 Ang^3
#
#
#
# Elastic Constant Matrix: (Units=GPa)
#
#
# Indices 1 2 3 4 5 6 
#
# 1 81.2488 11.5137 11.4143 0.0000 0.0614 0.0000
# 2 11.5137 68.6568 13.7225 0.0000 11.2567 0.0000
# 3 11.4143 13.7225 64.8181 0.0000 -11.0967 0.0000
# 4 0.0000 0.0000 0.0000 17.2614 0.0000 -8.6390
# 5 0.0614 11.2567 -11.0967 0.0000 30.0444 0.0000
# 6 0.0000 0.0000 0.0000 -8.6390 0.0000 4.4013
#
#
#
# Elastic Compliance Matrix: (Units=1/GPa)
#
#
# Indices 1 2 3 4 5 6 
#
# 1 0.012824 -0.001760 -0.001897 0.000000 -0.000067 0.000000
# 2 -0.001760 0.017141 -0.004716 0.000000 -0.008160 0.000000
# 3 -0.001897 -0.004716 0.018215 0.000000 0.008498 0.000000
# 4 0.000000 0.000000 0.000000 3.287188 0.000000 6.452286
# 5 -0.000067 -0.008160 0.008498 0.000000 0.039481 0.000000
# 6 0.000000 0.000000 0.000000 6.452286 0.000000 12.892135
#
#
# Mechanical properties :
#
#
# Convention : Reuss Voigt Hill
#
# Bulk Modulus (GPa) = 31.81344 32.00277 31.90811
# Shear Modulus (GPa) = 0.30686 22.21295 11.25990
#
# Velocity S-wave (km/s) = 0.41293 3.51325 2.50134
# Velocity P-wave (km/s) = 4.23142 5.85150 5.10612
#
# Compressibility (1/GPa) = 0.03143325
#
# Stress axis : x y z
#
# Youngs Moduli (GPa) = 77.97944 58.33990 54.89925
#
# Poissons Ratio (x) = 0.10270 0.10415
# Poissons Ratio (y) = 0.13727 0.25890
# Poissons Ratio (z) = 0.14794 0.27513
#
# Static dielectric constant tensor:
#      x y z
#    x 1.689510 0.000000 -0.002840 
#    y 0.000000 1.639780 0.000000 
#    z -0.002840 0.000000 1.614200 
# 
# From -- ./inp_files/18037.got.cif
#   From: 2010.05.17/outbox.cif.g08.bks.cpg/sg12_10_cif.got.tgz:18037.got - 2010.06.03 13:09:07.
