data_PCOD9198253
_publ_section_title
;
Structure prediction by ZEFSAII (Michael W. Deem and Ramdas Pophale) SiO2 
 PCOD9198253
Probable space group: C 2/M
;
_chemical_formula_sum "Si O2"
_cell_formula_units_Z 40
_cell_length_a 10.015131
_cell_length_b 26.506578
_cell_length_c 16.980336
_cell_angle_alpha 90.000000
_cell_angle_beta 25.918451
_cell_angle_gamma 90.000000
_cell_volume 1970.284270
_symmetry_space_group_name_H-M "C 2/M"
_symmetry_group_IT_number 12
_symmetry_cell_setting 'monoclinic'
loop_
_space_group_symop_operation_xyz
x,y,z
-x,y,-z
-x,-y,-z
x,-y,z
1/2+x,1/2+y,z
1/2-x,1/2+y,-z
1/2-x,1/2-y,-z
1/2+x,1/2-y,z
loop_
_atom_site_type_symbol
_atom_site_label
_atom_site_fract_x
_atom_site_fract_y
_atom_site_fract_z
Si Si1 0.065845 0.000000 0.557639
Si Si2 0.503023 0.687694 0.087414
Si Si3 0.048686 0.110469 0.567931
Si Si4 0.876135 0.700423 0.153256
Si Si5 0.305765 0.500000 0.182771
Si Si6 0.834756 0.599836 0.669990
O O1 0.435380 0.000000 0.368999
O O2 0.000000 0.000000 0.500000
O O3 0.946066 0.945854 0.651941
O O4 0.307974 0.739545 0.190450
O O5 0.371425 0.649002 0.220209
O O6 0.500000 0.666884 0.000000
O O7 0.851697 0.696449 0.927542
O O8 0.877223 0.158880 0.693514
O O9 0.000000 0.111548 0.500000
O O10 0.402728 0.111458 0.404826
O O11 0.000000 0.690537 0.000000
O O12 0.360057 0.551336 0.201386
O O13 0.500000 0.500000 0.000000
O O14 0.000000 0.590243 0.500000
#
# Coordination Sequence:
#
# PCOD9198253 Si02
#       6
#     4   8   8   8   4   8
#     4   8  18  35  53  79 107 136 178 224 262 315
#     4  10  21  37  56  79 110 146 184 223 270 328
#     4  10  20  36  57  78 108 146 182 223 274 328
#     4  10  21  37  55  79 111 144 181 228 274 320
#     4  10  21  37  58  81 109 146 183 220 272 331
#     4  11  22  36  56  84 113 140 180 231 274 318
#
# _framework density 20.301638000000001
#
# number of rings (size 3 to 8) (size 9 to 14) (size 15 to 20)
#    0.000    2.000    0.000    3.300    0.000    4.800 
#    0.000    0.500    0.000    0.000    0.000    0.000 
#    0.000    0.000    0.000    0.000    0.000    0.000 
#
# Total GULP energy -111508.683133 kJ/mol
# GULP energy per Si atom -5575.434157 kJ/mol
# Density = 2.025543 g / cm^3
# Si number density = 20.301638 Si / 1000 Ang^3
#
#
#
# Elastic Constant Matrix: (Units=GPa)
#
#
# Indices 1 2 3 4 5 6 
#
# 1 54.0231 -28.0337 -7.2951 0.0038 8.8087 -0.0028
# 2 -28.0337 138.1110 61.5415 0.0030 12.9466 -0.0019
# 3 -7.2951 61.5415 55.3378 -0.0067 27.2973 0.0042
# 4 0.0038 0.0030 -0.0067 34.7422 0.0023 7.2874
# 5 8.8087 12.9466 27.2973 0.0023 33.0203 -0.0013
# 6 -0.0028 -0.0019 0.0042 7.2874 -0.0013 20.5392
#
#
#
# Elastic Compliance Matrix: (Units=1/GPa)
#
#
# Indices 1 2 3 4 5 6 
#
# 1 0.022865 0.003746 0.004360 -0.000002 -0.011172 0.000002
# 2 0.003746 0.019075 -0.027924 -0.000011 0.014607 0.000013
# 3 0.004360 -0.027924 0.075773 0.000026 -0.052854 -0.000030
# 4 -0.000002 -0.000011 0.000026 0.031098 -0.000019 -0.011034
# 5 -0.011172 0.014607 -0.052854 -0.000019 0.071232 0.000022
# 6 0.000002 0.000013 -0.000030 -0.011034 0.000022 0.052602
#
#
# Mechanical properties :
#
#
# Convention : Reuss Voigt Hill
#
# Bulk Modulus (GPa) = 12.80835 33.32194 23.06515
# Shear Modulus (GPa) = 14.77949 32.41095 23.59522
#
# Velocity S-wave (km/s) = 2.70107 3.99992 3.41285
# Velocity P-wave (km/s) = 4.00629 6.14667 5.18806
#
# Compressibility (1/GPa) = 0.07807408
#
# Stress axis : x y z
#
# Youngs Moduli (GPa) = 43.73548 52.42572 13.19735
#
# Poissons Ratio (x) = -0.19637 -0.05754
# Poissons Ratio (y) = -0.16382 0.36853
# Poissons Ratio (z) = -0.19067 1.46396
#
# Static dielectric constant tensor:
#      x y z
#    x 1.723340 0.000000 -0.010620 
#    y 0.000000 1.792890 0.000000 
#    z -0.010620 0.000000 1.698620 
# 
# From -- ./inp_files/51018.got.cif
#   From: 2010.05.17/outbox.cif.g08.bks.cpg/sg12_26_cif.got.tgz:51018.got - 2010.06.03 13:09:07.
