data_PCOD9198730
_publ_section_title
;
Structure prediction by ZEFSAII (Michael W. Deem and Ramdas Pophale) SiO2 
 PCOD9198730
Probable space group: C 2/M
;
_chemical_formula_sum "Si O2"
_cell_formula_units_Z 56
_cell_length_a 15.993371
_cell_length_b 12.111953
_cell_length_c 13.089369
_cell_angle_alpha 90.000000
_cell_angle_beta 62.370530
_cell_angle_gamma 90.000000
_cell_volume 2246.412705
_symmetry_space_group_name_H-M "C 2/M"
_symmetry_group_IT_number 12
_symmetry_cell_setting 'monoclinic'
loop_
_space_group_symop_operation_xyz
x,y,z
-x,y,-z
-x,-y,-z
x,-y,z
1/2+x,1/2+y,z
1/2-x,1/2+y,-z
1/2-x,1/2-y,-z
1/2+x,1/2-y,z
loop_
_atom_site_type_symbol
_atom_site_label
_atom_site_fract_x
_atom_site_fract_y
_atom_site_fract_z
Si Si1 0.077329 0.623747 0.368508
Si Si2 0.645372 0.123037 0.897047
Si Si3 0.508184 0.381774 0.255274
Si Si4 0.246856 0.117875 0.482163
Si Si5 0.838681 0.841461 0.670404
Si Si6 0.060872 0.656568 0.735498
Si Si7 0.104154 0.873517 0.991754
O O1 0.106502 0.500000 0.371172
O O2 0.161594 0.708686 0.330847
O O3 0.000000 0.652305 0.500000
O O4 0.029693 0.630174 0.283058
O O5 0.747310 0.119997 0.783737
O O6 0.566421 0.125836 0.850926
O O7 0.636287 0.000000 0.954425
O O8 0.642821 0.248354 0.946088
O O9 0.464047 0.500000 0.270236
O O10 0.564384 0.369540 0.328209
O O11 0.433114 0.288454 0.275877
O O12 0.587661 0.371769 0.122678
O O13 0.250000 0.250000 0.500000
O O14 0.167201 0.115066 0.439829
O O15 0.349507 0.108537 0.371224
O O16 0.238029 0.000000 0.546315
O O17 0.144867 0.000000 0.945163
O O18 0.000000 0.875086 0.000000
#
# Coordination Sequence:
#
# PCOD9198730 Si02
#       7
#     8   8   8   8   8   8   8
#     4  10  20  36  58  85 118 154 196 245 296 349
#     4  11  22  38  60  86 118 155 196 243 292 350
#     4  10  20  38  61  84 117 155 193 241 294 349
#     4  11  23  40  61  86 118 154 195 242 292 347
#     4  10  22  38  59  87 120 157 195 240 297 351
#     4  10  20  36  58  84 112 152 195 240 291 347
#     4  10  21  39  60  88 120 153 195 244 294 349
#
# _framework density 24.928633000000001
#
# number of rings (size 3 to 8) (size 9 to 14) (size 15 to 20)
#    0.000    1.714    1.429    4.286    0.000    3.714 
#    0.000    3.571    0.000    6.857    0.000    0.000 
#    0.000    0.000    0.000    0.000    0.000    0.000 
#
# Total GULP energy -156023.301396 kJ/mol
# GULP energy per Si atom -5572.260764 kJ/mol
# Density = 2.487189 g / cm^3
# Si number density = 24.928633 Si / 1000 Ang^3
#
#
#
# Elastic Constant Matrix: (Units=GPa)
#
#
# Indices 1 2 3 4 5 6 
#
# 1 53.5127 22.9637 7.9576 0.0000 14.4834 0.0000
# 2 22.9637 304.7883 44.2609 0.0000 -13.1733 0.0000
# 3 7.9576 44.2609 33.0001 0.0000 5.7962 0.0000
# 4 0.0000 0.0000 0.0000 21.3823 0.0000 -13.1989
# 5 14.4834 -13.1733 5.7962 0.0000 29.9042 0.0000
# 6 0.0000 0.0000 0.0000 -13.1989 0.0000 -30.0737
#
#
#
# Elastic Compliance Matrix: (Units=1/GPa)
#
#
# Indices 1 2 3 4 5 6 
#
# 1 0.022933 -0.002169 -0.000519 0.000000 -0.011962 0.000000
# 2 -0.002169 0.004549 -0.006330 0.000000 0.004281 0.000000
# 3 -0.000519 -0.006330 0.040750 0.000000 -0.010435 0.000000
# 4 0.000000 0.000000 0.000000 0.036798 0.000000 -0.016150
# 5 -0.011962 0.004281 -0.010435 0.000000 0.043142 0.000000
# 6 0.000000 0.000000 0.000000 -0.016150 0.000000 -0.026163
#
#
# Mechanical properties :
#
#
# Convention : Reuss Voigt Hill
#
# Bulk Modulus (GPa) = 19.92217 60.18506 40.05362
# Shear Modulus (GPa) = 31.89234 25.31716 28.60475
#
# Velocity S-wave (km/s) = 3.58067 3.19028 3.39110
# Velocity P-wave (km/s) = 5.01039 6.14540 5.60669
#
# Compressibility (1/GPa) = 0.05019532
#
# Stress axis : x y z
#
# Youngs Moduli (GPa) = 43.60546 219.84594 24.53960
#
# Poissons Ratio (x) = 0.47694 0.01274
# Poissons Ratio (y) = 0.09460 0.15533
# Poissons Ratio (z) = 0.02264 1.39154
#
# Static dielectric constant tensor:
#      x y z
#    x 1.933270 0.000000 0.024590 
#    y 0.000000 2.186720 0.000000 
#    z 0.024590 0.000000 2.036980 
# 
# From -- ./inp_files/223146.got.cif
#   From: 2010.05.17/outbox.cif.g08.bks.cpg/sg12_112_cif.got.tgz:223146.got - 2010.06.03 13:09:07.
