data_PCOD9198656
_publ_section_title
;
Structure prediction by ZEFSAII (Michael W. Deem and Ramdas Pophale) SiO2 
 PCOD9198656
Probable space group: C 2/M
;
_chemical_formula_sum "Si O2"
_cell_formula_units_Z 56
_cell_length_a 22.151399
_cell_length_b 8.090289
_cell_length_c 17.283275
_cell_angle_alpha 90.000000
_cell_angle_beta 120.813096
_cell_angle_gamma 90.000000
_cell_volume 2660.142697
_symmetry_space_group_name_H-M "C 2/M"
_symmetry_group_IT_number 12
_symmetry_cell_setting 'monoclinic'
loop_
_space_group_symop_operation_xyz
x,y,z
-x,y,-z
-x,-y,-z
x,-y,z
1/2+x,1/2+y,z
1/2-x,1/2+y,-z
1/2-x,1/2-y,-z
1/2+x,1/2-y,z
loop_
_atom_site_type_symbol
_atom_site_label
_atom_site_fract_x
_atom_site_fract_y
_atom_site_fract_z
Si Si1 0.131651 0.194375 0.074165
Si Si2 0.693807 0.699781 0.671990
Si Si3 0.854062 0.305912 0.750886
Si Si4 0.063551 0.798152 0.485742
Si Si5 0.466372 0.307306 0.707169
Si Si6 0.790071 0.301790 0.147663
Si Si7 0.094386 0.693503 0.892268
O O1 0.113121 0.281543 0.142149
O O2 0.209541 0.257485 0.099603
O O3 0.136578 0.000000 0.094104
O O4 0.083803 0.222216 0.968142
O O5 0.693853 0.500000 0.673568
O O6 0.773272 0.753081 0.704600
O O7 0.636555 0.756453 0.572338
O O8 0.676473 0.758400 0.747318
O O9 0.854336 0.500000 0.732103
O O10 0.897940 0.211515 0.715527
O O11 0.049628 0.742885 0.389238
O O12 0.000000 0.749130 0.500000
O O13 0.065360 0.000000 0.485258
O O14 0.486325 0.500000 0.714268
O O15 0.529083 0.216380 0.792395
O O16 0.788312 0.500000 0.139120
O O17 0.837420 0.236724 0.108648
O O18 0.104900 0.500000 0.914132
#
# Coordination Sequence:
#
# PCOD9198656 Si02
#       7
#     8   8   8   8   8   8   8
#     4  10  20  36  58  83 110 143 185 226 268 324
#     4   9  18  34  58  83 109 146 186 224 269 322
#     4  10  21  38  57  80 111 144 182 228 277 323
#     4   9  18  34  57  85 113 141 178 223 269 320
#     4  11  23  38  57  80 108 145 188 229 269 321
#     4   9  19  34  54  83 116 145 177 223 274 326
#     4  11  22  36  54  80 114 148 182 224 278 327
#
# _framework density 21.051501999999999
#
# number of rings (size 3 to 8) (size 9 to 14) (size 15 to 20)
#    0.000    2.143    0.000    3.000    0.000    4.571 
#    0.000    4.286    0.000    3.857    0.000    0.000 
#    0.000    0.000    0.000    0.000    0.000    0.000 
#
# Total GULP energy -156439.803051 kJ/mol
# GULP energy per Si atom -5587.135823 kJ/mol
# Density = 2.100359 g / cm^3
# Si number density = 21.051502 Si / 1000 Ang^3
#
#
#
# Elastic Constant Matrix: (Units=GPa)
#
#
# Indices 1 2 3 4 5 6 
#
# 1 54.1521 -6.4551 28.6157 0.0000 -22.3626 0.0000
# 2 -6.4551 23.1683 -7.0788 0.0000 0.0732 0.0000
# 3 28.6157 -7.0788 145.4956 0.0000 -15.1122 0.0000
# 4 0.0000 0.0000 0.0000 20.6898 0.0000 -3.9676
# 5 -22.3626 0.0732 -15.1122 0.0000 26.3378 0.0000
# 6 0.0000 0.0000 0.0000 -3.9676 0.0000 13.0156
#
#
#
# Elastic Compliance Matrix: (Units=1/GPa)
#
#
# Indices 1 2 3 4 5 6 
#
# 1 0.031272 0.007653 -0.003214 0.000000 0.024686 0.000000
# 2 0.007653 0.045720 0.001469 0.000000 0.007213 0.000000
# 3 -0.003214 0.001469 0.007755 0.000000 0.001717 0.000000
# 4 0.000000 0.000000 0.000000 0.051334 0.000000 0.015648
# 5 0.024686 0.007213 0.001717 0.000000 0.059894 0.000000
# 6 0.000000 0.000000 0.000000 0.015648 0.000000 0.081601
#
#
# Mechanical properties :
#
#
# Convention : Reuss Voigt Hill
#
# Bulk Modulus (GPa) = 10.35609 28.10886 19.23247
# Shear Modulus (GPa) = 16.78144 25.85757 21.31950
#
# Velocity S-wave (km/s) = 2.82647 3.50851 3.18580
# Velocity P-wave (km/s) = 3.94740 5.45842 4.76321
#
# Compressibility (1/GPa) = 0.09656157
#
# Stress axis : x y z
#
# Youngs Moduli (GPa) = 31.97791 21.87204 128.95015
#
# Poissons Ratio (x) = -0.16738 0.41445
# Poissons Ratio (y) = -0.24472 -0.18937
# Poissons Ratio (z) = 0.10278 -0.03212
#
# Static dielectric constant tensor:
#      x y z
#    x 1.760150 0.000000 0.022170 
#    y 0.000000 1.725120 0.000000 
#    z 0.022170 0.000000 1.747960 
# 
# From -- ./inp_files/238991.got.cif
#   From: 2010.05.17/outbox.cif.g08.bks.cpg/sg12_120_cif.got.tgz:238991.got - 2010.06.03 13:09:07.
