data_PCOD9198989
_publ_section_title
;
Structure prediction by ZEFSAII (Michael W. Deem and Ramdas Pophale) SiO2 
 PCOD9198989
Probable space group: C 2/M
;
_chemical_formula_sum "Si O2"
_cell_formula_units_Z 40
_cell_length_a 8.375833
_cell_length_b 23.067236
_cell_length_c 11.991175
_cell_angle_alpha 90.000000
_cell_angle_beta 62.537855
_cell_angle_gamma 90.000000
_cell_volume 2055.717735
_symmetry_space_group_name_H-M "C 2/M"
_symmetry_group_IT_number 12
_symmetry_cell_setting 'monoclinic'
loop_
_space_group_symop_operation_xyz
x,y,z
-x,y,-z
-x,-y,-z
x,-y,z
1/2+x,1/2+y,z
1/2-x,1/2+y,-z
1/2-x,1/2-y,-z
1/2+x,1/2-y,z
loop_
_atom_site_type_symbol
_atom_site_label
_atom_site_fract_x
_atom_site_fract_y
_atom_site_fract_z
Si Si1 0.087942 0.855589 0.792704
Si Si2 0.430774 0.932250 0.648715
Si Si3 0.925040 0.667476 0.255938
Si Si4 0.537248 0.278406 0.357041
Si Si5 0.744932 0.681570 0.977616
O O1 0.225220 0.908753 0.730419
O O2 0.161898 0.824804 0.880130
O O3 0.091132 0.818434 0.678307
O O4 0.877107 0.856621 0.899070
O O5 0.500000 0.924705 0.500000
O O6 0.559629 0.893173 0.684929
O O7 0.438365 0.000000 0.674203
O O8 0.733646 0.693264 0.285346
O O9 0.009894 0.715191 0.313512
O O10 0.050876 0.662816 0.107581
O O11 0.500000 0.277339 0.500000
O O12 0.750000 0.750000 0.000000
#
# Coordination Sequence:
#
# PCOD9198989 Si02
#       5
#     8   8   8   8   8
#     4  10  22  37  59  92 119 158 208 244 307 358
#     4  10  21  41  64  85 119 165 210 252 298 359
#     4  11  22  36  57  89 121 161 198 248 305 361
#     4  12  23  36  58  90 130 157 193 254 312 373
#     4  10  20  36  59  83 122 157 198 247 295 364
#
# _framework density 19.457923999999998
#
# number of rings (size 3 to 8) (size 9 to 14) (size 15 to 20)
#    0.000    1.400    2.000    4.800    2.800    0.800 
#    0.000    9.000    0.000    3.600    0.000   14.000 
#    0.000    0.000    0.000    0.000    0.000    0.000 
#
# Total GULP energy -111504.929625 kJ/mol
# GULP energy per Si atom -5575.246481 kJ/mol
# Density = 1.941364 g / cm^3
# Si number density = 19.457924 Si / 1000 Ang^3
#
#
#
# Elastic Constant Matrix: (Units=GPa)
#
#
# Indices 1 2 3 4 5 6 
#
# 1 82.7051 44.6405 47.1894 0.0000 -3.3354 0.0000
# 2 44.6405 127.5182 34.4861 0.0000 6.1095 0.0000
# 3 47.1894 34.4861 91.7157 0.0000 10.7580 0.0000
# 4 0.0000 0.0000 0.0000 21.8034 0.0000 -7.8157
# 5 -3.3354 6.1095 10.7580 0.0000 40.4716 0.0000
# 6 0.0000 0.0000 0.0000 -7.8157 0.0000 16.9914
#
#
#
# Elastic Compliance Matrix: (Units=1/GPa)
#
#
# Indices 1 2 3 4 5 6 
#
# 1 0.020050 -0.004794 -0.009075 0.000000 0.004788 0.000000
# 2 -0.004794 0.009884 -0.001062 0.000000 -0.001605 0.000000
# 3 -0.009075 -0.001062 0.016557 0.000000 -0.004989 0.000000
# 4 0.000000 0.000000 0.000000 0.054920 0.000000 0.025262
# 5 0.004788 -0.001605 -0.004989 0.000000 0.026672 0.000000
# 6 0.000000 0.000000 0.000000 0.025262 0.000000 0.070473
#
#
# Mechanical properties :
#
#
# Convention : Reuss Voigt Hill
#
# Bulk Modulus (GPa) = 60.13435 61.61901 60.87668
# Shear Modulus (GPa) = 21.37111 27.56147 24.46629
#
# Velocity S-wave (km/s) = 3.31769 3.76768 3.54982
# Velocity P-wave (km/s) = 6.75633 7.11785 6.93944
#
# Compressibility (1/GPa) = 0.01662943
#
# Stress axis : x y z
#
# Youngs Moduli (GPa) = 49.87569 101.17053 60.39768
#
# Poissons Ratio (x) = 0.48501 0.54811
# Poissons Ratio (y) = 0.23911 0.06413
# Poissons Ratio (z) = 0.45262 0.10742
#
# Static dielectric constant tensor:
#      x y z
#    x 2.871690 0.000000 -0.015530 
#    y 0.000000 1.635030 0.000000 
#    z -0.015530 0.000000 1.775670 
# 
# From -- ./inp_files/120389.got.cif
#   From: 2010.05.17/outbox.cif.g08.bks.cpg/sg12_61_cif.got.tgz:120389.got - 2010.06.03 13:09:07.
