data_PCOD9198506
_publ_section_title
;
Structure prediction by ZEFSAII (Michael W. Deem and Ramdas Pophale) SiO2 
 PCOD9198506
Probable space group: C 2/M
;
_chemical_formula_sum "Si O2"
_cell_formula_units_Z 56
_cell_length_a 11.027037
_cell_length_b 18.496936
_cell_length_c 15.919178
_cell_angle_alpha 90.000000
_cell_angle_beta 118.657918
_cell_angle_gamma 90.000000
_cell_volume 2849.218233
_symmetry_space_group_name_H-M "C 2/M"
_symmetry_group_IT_number 12
_symmetry_cell_setting 'monoclinic'
loop_
_space_group_symop_operation_xyz
x,y,z
-x,y,-z
-x,-y,-z
x,-y,z
1/2+x,1/2+y,z
1/2-x,1/2+y,-z
1/2-x,1/2-y,-z
1/2+x,1/2-y,z
loop_
_atom_site_type_symbol
_atom_site_label
_atom_site_fract_x
_atom_site_fract_y
_atom_site_fract_z
Si Si1 0.975308 0.833181 0.750678
Si Si2 0.905450 0.671124 0.747844
Si Si3 0.897590 0.800461 0.390941
Si Si4 0.102957 0.087397 0.954285
Si Si5 0.942776 0.418623 0.608368
Si Si6 0.929352 0.581682 0.067822
Si Si7 0.811231 0.365458 0.407051
O O1 0.928767 0.755371 0.769783
O O2 0.838905 0.876821 0.679868
O O3 0.040524 0.811622 0.681731
O O4 0.056357 0.874364 0.851511
O O5 0.747788 0.659070 0.667702
O O6 0.983681 0.635005 0.696318
O O7 0.965493 0.630657 0.846549
O O8 0.859731 0.716975 0.402706
O O9 0.000000 0.824805 0.500000
O O10 0.095056 0.000000 0.942358
O O11 0.267535 0.105373 0.019748
O O12 0.000000 0.106032 0.000000
O O13 0.904452 0.500000 0.620948
O O14 0.827232 0.380871 0.511210
O O15 0.081191 0.418991 0.599539
O O16 0.930764 0.500000 0.102752
O O17 0.000000 0.579526 0.000000
#
# Coordination Sequence:
#
# PCOD9198506 Si02
#       7
#     8   8   8   8   8   8   8
#     4  11  23  38  63  90 126 160 204 263 314 373
#     4  11  23  36  61  93 119 163 213 250 315 371
#     4  11  20  38  61  88 131 165 203 256 309 375
#     4  10  24  43  64  91 123 164 212 266 327 378
#     4  11  21  37  58  88 124 162 211 254 295 366
#     4  10  22  42  63  85 121 164 209 261 317 384
#     4  10  20  36  57  88 122 161 205 247 308 362
#
# _framework density 19.654513999999999
#
# number of rings (size 3 to 8) (size 9 to 14) (size 15 to 20)
#    0.000    1.429    2.857    3.000    2.000    4.571 
#    0.000    0.714    0.000    3.000    0.000    0.000 
#    0.000    0.000    0.000    0.000    0.000    0.000 
#
# Total GULP energy -155928.821379 kJ/mol
# GULP energy per Si atom -5568.886478 kJ/mol
# Density = 1.960978 g / cm^3
# Si number density = 19.654514 Si / 1000 Ang^3
#
#
#
# Elastic Constant Matrix: (Units=GPa)
#
#
# Indices 1 2 3 4 5 6 
#
# 1 68.8962 11.8313 22.1108 0.0000 11.7396 0.0000
# 2 11.8313 57.8048 50.6814 0.0000 10.4826 0.0000
# 3 22.1108 50.6814 106.8298 0.0000 4.5966 0.0000
# 4 0.0000 0.0000 0.0000 93.1461 0.0000 32.0789
# 5 11.7396 10.4826 4.5966 0.0000 20.1413 0.0000
# 6 0.0000 0.0000 0.0000 32.0789 0.0000 21.4505
#
#
#
# Elastic Compliance Matrix: (Units=1/GPa)
#
#
# Indices 1 2 3 4 5 6 
#
# 1 0.017195 0.001787 -0.003974 0.000000 -0.010045 0.000000
# 2 0.001787 0.033183 -0.015476 0.000000 -0.014780 0.000000
# 3 -0.003974 -0.015476 0.017249 0.000000 0.006435 0.000000
# 4 0.000000 0.000000 0.000000 0.022137 0.000000 -0.033106
# 5 -0.010045 -0.014780 0.006435 0.000000 0.061728 0.000000
# 6 0.000000 0.000000 0.000000 -0.033106 0.000000 0.096128
#
#
# Mechanical properties :
#
#
# Convention : Reuss Voigt Hill
#
# Bulk Modulus (GPa) = 30.96085 44.75308 37.85697
# Shear Modulus (GPa) = 17.02332 36.87473 26.94902
#
# Velocity S-wave (km/s) = 2.94620 4.33615 3.70690
# Velocity P-wave (km/s) = 5.23070 6.92018 6.13388
#
# Compressibility (1/GPa) = 0.03229885
#
# Stress axis : x y z
#
# Youngs Moduli (GPa) = 58.15691 30.13556 57.97564
#
# Poissons Ratio (x) = -0.05385 0.23041
# Poissons Ratio (y) = -0.10391 0.89726
# Poissons Ratio (z) = 0.23113 0.46639
#
# Static dielectric constant tensor:
#      x y z
#    x 1.793370 0.000000 -0.065310 
#    y 0.000000 1.686280 0.000000 
#    z -0.065310 0.000000 1.768780 
# 
# From -- ./inp_files/206760.got.cif
#   From: 2010.05.17/outbox.cif.g08.bks.cpg/sg12_104_cif.got.tgz:206760.got - 2010.06.03 13:09:07.
