data_PCOD9198350
_publ_section_title
;
Structure prediction by ZEFSAII (Michael W. Deem and Ramdas Pophale) SiO2 
 PCOD9198350
Probable space group: C 2/M
;
_chemical_formula_sum "Si O2"
_cell_formula_units_Z 42
_cell_length_a 14.661586
_cell_length_b 7.668380
_cell_length_c 14.036841
_cell_angle_alpha 90.000000
_cell_angle_beta 83.200012
_cell_angle_gamma 90.000000
_cell_volume 1567.069047
_symmetry_space_group_name_H-M "C 2/M"
_symmetry_group_IT_number 12
_symmetry_cell_setting 'monoclinic'
loop_
_space_group_symop_operation_xyz
x,y,z
-x,y,-z
-x,-y,-z
x,-y,z
1/2+x,1/2+y,z
1/2-x,1/2+y,-z
1/2-x,1/2-y,-z
1/2+x,1/2-y,z
loop_
_atom_site_type_symbol
_atom_site_label
_atom_site_fract_x
_atom_site_fract_y
_atom_site_fract_z
Si Si1 0.482764 0.208871 0.207483
Si Si2 0.623672 0.193403 0.419551
Si Si3 0.000000 0.000000 0.500000
Si Si4 0.324354 0.801257 0.847268
Si Si5 0.171138 0.796990 0.620877
Si Si6 0.638556 0.706359 0.945287
O O1 0.586215 0.273527 0.215811
O O2 0.404566 0.263524 0.290727
O O3 0.450284 0.273747 0.108220
O O4 0.486637 0.000000 0.204077
O O5 0.550118 0.345629 0.429127
O O6 0.723523 0.227933 0.359299
O O7 0.652792 0.188558 0.528316
O O8 0.589263 0.000000 0.397003
O O9 0.223262 0.722929 0.869810
O O10 0.311312 0.000000 0.816079
O O11 0.356141 0.800256 0.954652
O O12 0.159283 0.000000 0.591167
O O13 0.653152 0.500000 0.961619
#
# Coordination Sequence:
#
# PCOD9198350 Si02
#       6
#     8   8   2   8   8   8
#     4  11  22  36  58  85 116 158 200 243 306 367
#     4  10  22  41  66  92 127 162 203 251 308 365
#     4  12  22  40  68 102 120 158 210 256 300 378
#     4   9  20  38  56  79 114 153 196 245 302 364
#     4  10  21  41  63  87 120 164 203 249 303 373
#     4  10  20  36  57  81 113 151 197 250 303 359
#
# _framework density 26.801625999999999
#
# number of rings (size 3 to 8) (size 9 to 14) (size 15 to 20)
#    0.000    1.905    0.952    2.571    2.667    4.571 
#    3.429    0.000    0.000    0.000    0.000    0.000 
#    0.000    0.000    0.000    0.000    0.000    0.000 
#
# Total GULP energy -117388.654683 kJ/mol
# GULP energy per Si atom -5589.935937 kJ/mol
# Density = 2.674062 g / cm^3
# Si number density = 26.801626 Si / 1000 Ang^3
#
#
#
# Elastic Constant Matrix: (Units=GPa)
#
#
# Indices 1 2 3 4 5 6 
#
# 1 114.1929 22.8979 30.5618 0.0000 -25.0352 0.0000
# 2 22.8979 146.7497 16.7946 0.0000 -16.2429 0.0000
# 3 30.5618 16.7946 113.0582 0.0000 -31.7783 0.0000
# 4 0.0000 0.0000 0.0000 30.3858 0.0000 -5.0547
# 5 -25.0352 -16.2429 -31.7783 0.0000 64.5785 0.0000
# 6 0.0000 0.0000 0.0000 -5.0547 0.0000 28.9258
#
#
#
# Elastic Compliance Matrix: (Units=1/GPa)
#
#
# Indices 1 2 3 4 5 6 
#
# 1 0.010051 -0.001059 -0.001786 0.000000 0.002751 0.000000
# 2 -0.001059 0.007160 -0.000449 0.000000 0.001170 0.000000
# 3 -0.001786 -0.000449 0.010640 0.000000 0.004430 0.000000
# 4 0.000000 0.000000 0.000000 0.033895 0.000000 0.005923
# 5 0.002751 0.001170 0.004430 0.000000 0.019026 0.000000
# 6 0.000000 0.000000 0.000000 0.005923 0.000000 0.035606
#
#
# Mechanical properties :
#
#
# Convention : Reuss Voigt Hill
#
# Bulk Modulus (GPa) = 47.03116 57.16770 52.09943
# Shear Modulus (GPa) = 38.44545 45.02777 41.73661
#
# Velocity S-wave (km/s) = 3.79152 4.10327 3.95047
# Velocity P-wave (km/s) = 6.06246 6.62007 6.34739
#
# Compressibility (1/GPa) = 0.02126250
#
# Stress axis : x y z
#
# Youngs Moduli (GPa) = 99.49549 139.65688 93.98673
#
# Poissons Ratio (x) = 0.14794 0.16789
# Poissons Ratio (y) = 0.10540 0.04216
# Poissons Ratio (z) = 0.17773 0.06264
#
# Static dielectric constant tensor:
#      x y z
#    x 2.356480 0.000000 0.054410 
#    y 0.000000 2.016880 0.000000 
#    z 0.054410 0.000000 2.147730 
# 
# From -- ./inp_files/221468.got.cif
#   From: 2010.05.17/outbox.cif.g08.bks.cpg/sg12_111_cif.got.tgz:221468.got - 2010.06.03 13:09:07.
