data_PCOD9198151
_publ_section_title
;
Structure prediction by ZEFSAII (Michael W. Deem and Ramdas Pophale) SiO2 
 PCOD9198151
Probable space group: C 2/M
;
_chemical_formula_sum "Si O2"
_cell_formula_units_Z 64
_cell_length_a 14.474127
_cell_length_b 8.095432
_cell_length_c 24.916768
_cell_angle_alpha 90.000000
_cell_angle_beta 90.743090
_cell_angle_gamma 90.000000
_cell_volume 2919.359578
_symmetry_space_group_name_H-M "C 2/M"
_symmetry_group_IT_number 12
_symmetry_cell_setting 'monoclinic'
loop_
_space_group_symop_operation_xyz
x,y,z
-x,y,-z
-x,-y,-z
x,-y,z
1/2+x,1/2+y,z
1/2-x,1/2+y,-z
1/2-x,1/2-y,-z
1/2+x,1/2-y,z
loop_
_atom_site_type_symbol
_atom_site_label
_atom_site_fract_x
_atom_site_fract_y
_atom_site_fract_z
Si Si1 0.949574 0.806849 0.377030
Si Si2 0.412729 0.692260 0.759091
Si Si3 0.448941 0.303168 0.876444
Si Si4 0.387127 0.191158 0.267082
Si Si5 0.151427 0.306907 0.348057
Si Si6 0.714188 0.699813 0.057615
Si Si7 0.714721 0.699629 0.557721
Si Si8 0.347740 0.803825 0.151924
O O1 0.885624 0.785473 0.323353
O O2 0.888453 0.746602 0.426436
O O3 0.045783 0.716688 0.367236
O O4 0.971011 0.000000 0.383375
O O5 0.440801 0.500000 0.754823
O O6 0.389322 0.720358 0.821037
O O7 0.503497 0.800132 0.747618
O O8 0.341672 0.725493 0.710703
O O9 0.464861 0.500000 0.881455
O O10 0.388664 0.245357 0.926246
O O11 0.547501 0.221792 0.867564
O O12 0.340083 0.262283 0.212868
O O13 0.361248 0.000000 0.275161
O O14 0.169868 0.500000 0.341364
O O15 0.216522 0.238448 0.395214
O O16 0.714252 0.500000 0.059747
O O17 0.781677 0.762651 0.105166
O O18 0.750000 0.750000 0.000000
O O19 0.714617 0.500000 0.560056
O O20 0.750000 0.750000 0.500000
O O21 0.330753 0.000000 0.156976
#
# Coordination Sequence:
#
# PCOD9198151 Si02
#       8
#     8   8   8   8   8   8   8   8
#     4  10  20  36  56  81 110 140 172 214 263 312
#     4   9  16  29  52  81 108 137 170 209 258 315
#     4   9  19  35  55  78 107 138 172 214 262 311
#     4   9  16  29  52  81 108 137 170 209 258 315
#     4  10  20  36  56  81 110 140 172 214 263 312
#     4  10  22  39  54  74 104 139 179 222 261 308
#     4  10  24  41  56  76 106 141 181 222 261 306
#     4   9  19  35  55  78 107 138 172 214 262 311
#
# _framework density 21.922616999999999
#
# number of rings (size 3 to 8) (size 9 to 14) (size 15 to 20)
#    0.000    2.500    0.000    3.000    0.000    6.000 
#    0.000    6.250    0.000    0.000    0.000    0.000 
#    0.000    0.000    0.000    0.000    0.000    0.000 
#
# Total GULP energy -178614.071859 kJ/mol
# GULP energy per Si atom -5581.689746 kJ/mol
# Density = 2.187272 g / cm^3
# Si number density = 21.922617 Si / 1000 Ang^3
#
#
#
# Elastic Constant Matrix: (Units=GPa)
#
#
# Indices 1 2 3 4 5 6 
#
# 1 53.3448 -2.7535 24.8499 0.0000 -9.7434 0.0000
# 2 -2.7535 28.9366 -2.9540 0.0000 -2.0063 0.0000
# 3 24.8499 -2.9540 67.5186 0.0000 -22.2518 0.0000
# 4 0.0000 0.0000 0.0000 31.8686 0.0000 0.2133
# 5 -9.7434 -2.0063 -22.2518 0.0000 39.4283 0.0000
# 6 0.0000 0.0000 0.0000 0.2133 0.0000 16.9678
#
#
#
# Elastic Compliance Matrix: (Units=1/GPa)
#
#
# Indices 1 2 3 4 5 6 
#
# 1 0.022723 0.001442 -0.007893 0.000000 0.001234 0.000000
# 2 0.001442 0.035141 0.002105 0.000000 0.003333 0.000000
# 3 -0.007893 0.002105 0.021130 0.000000 0.010082 0.000000
# 4 0.000000 0.000000 0.000000 0.031382 0.000000 -0.000394
# 5 0.001234 0.003333 0.010082 0.000000 0.031527 0.000000
# 6 0.000000 0.000000 0.000000 -0.000394 0.000000 0.058940
#
#
# Mechanical properties :
#
#
# Convention : Reuss Voigt Hill
#
# Bulk Modulus (GPa) = 14.22430 20.89832 17.56131
# Shear Modulus (GPa) = 21.46205 26.36345 23.91275
#
# Velocity S-wave (km/s) = 3.13228 3.47157 3.30628
# Velocity P-wave (km/s) = 4.42539 5.06187 4.75429
#
# Compressibility (1/GPa) = 0.07030224
#
# Stress axis : x y z
#
# Youngs Moduli (GPa) = 44.00884 28.45643 47.32498
#
# Poissons Ratio (x) = -0.04103 0.37355
# Poissons Ratio (y) = -0.06346 -0.09962
# Poissons Ratio (z) = 0.34737 -0.05990
#
# Static dielectric constant tensor:
#      x y z
#    x 1.848150 0.000000 0.011950 
#    y 0.000000 1.771840 0.000000 
#    z 0.011950 0.000000 1.815200 
# 
# From -- ./inp_files/338665.got.cif
#   From: 2010.05.17/outbox.cif.g08.bks.cpg/sg12_170_cif.got.tgz:338665.got - 2010.06.03 13:09:07.
