data_PCOD9198807
_publ_section_title
;
Structure prediction by ZEFSAII (Michael W. Deem and Ramdas Pophale) SiO2 
 PCOD9198807
Probable space group: C 2/M
;
_chemical_formula_sum "Si O2"
_cell_formula_units_Z 64
_cell_length_a 20.816425
_cell_length_b 8.689860
_cell_length_c 24.918616
_cell_angle_alpha 90.000000
_cell_angle_beta 128.439522
_cell_angle_gamma 90.000000
_cell_volume 3530.623916
_symmetry_space_group_name_H-M "C 2/M"
_symmetry_group_IT_number 12
_symmetry_cell_setting 'monoclinic'
loop_
_space_group_symop_operation_xyz
x,y,z
-x,y,-z
-x,-y,-z
x,-y,z
1/2+x,1/2+y,z
1/2-x,1/2+y,-z
1/2-x,1/2-y,-z
1/2+x,1/2-y,z
loop_
_atom_site_type_symbol
_atom_site_label
_atom_site_fract_x
_atom_site_fract_y
_atom_site_fract_z
Si Si1 0.646035 0.683292 0.794465
Si Si2 0.685218 0.816087 0.423958
Si Si3 0.242009 0.814843 0.055445
Si Si4 0.251260 0.816189 0.348331
Si Si5 0.214748 0.814369 0.209410
Si Si6 0.497309 0.184769 0.343606
Si Si7 0.407225 0.313246 0.946058
Si Si8 0.570746 0.317254 0.580642
O O1 0.643799 0.500000 0.796564
O O2 0.685545 0.753017 0.868748
O O3 0.707657 0.735864 0.778839
O O4 0.557456 0.749278 0.733139
O O5 0.750000 0.750000 0.500000
O O6 0.708668 0.760811 0.376862
O O7 0.592234 0.768159 0.389052
O O8 0.688947 0.000000 0.428418
O O9 0.156661 0.766721 0.040420
O O10 0.244315 0.000000 0.055947
O O11 0.250000 0.750000 0.000000
O O12 0.211312 0.774540 0.270112
O O13 0.345417 0.762528 0.393895
O O14 0.248000 0.000000 0.352541
O O15 0.135857 0.772058 0.132715
O O16 0.226037 0.000000 0.211112
O O17 0.459249 0.248696 0.378744
O O18 0.492098 0.000000 0.340735
O O19 0.410322 0.500000 0.949347
O O20 0.500000 0.255608 0.000000
O O21 0.500000 0.292434 0.500000
O O22 0.584554 0.500000 0.593398
#
# Coordination Sequence:
#
# PCOD9198807 Si02
#       8
#     8   8   8   8   8   8   8   8
#     4  11  21  35  60  88 115 152 196 243 292 345
#     4  11  25  43  62  83 116 155 194 240 298 357
#     4  10  20  36  58  85 120 154 192 238 288 347
#     4  11  22  37  59  85 117 154 193 235 289 350
#     4   9  18  34  57  85 116 152 189 235 287 339
#     4  11  23  40  60  84 116 154 193 240 296 349
#     4   8  15  31  56  83 113 148 188 230 272 324
#     4  11  23  37  58  88 116 145 190 244 286 338
#
# _framework density 18.127108
#
# number of rings (size 3 to 8) (size 9 to 14) (size 15 to 20)
#    0.000    1.750    1.250    4.500    0.000    5.500 
#    2.250    0.000    0.000    9.375    0.000    0.000 
#    0.000    0.000    0.000    0.000    0.000    0.000 
#
# Total GULP energy -178745.600358 kJ/mol
# GULP energy per Si atom -5585.800011 kJ/mol
# Density = 1.808585 g / cm^3
# Si number density = 18.127108 Si / 1000 Ang^3
#
#
#
# Elastic Constant Matrix: (Units=GPa)
#
#
# Indices 1 2 3 4 5 6 
#
# 1 37.6514 5.5373 33.0204 0.0000 7.7108 0.0000
# 2 5.5373 37.5924 33.9154 0.0000 1.6699 0.0000
# 3 33.0204 33.9154 120.7869 0.0000 7.8388 0.0000
# 4 0.0000 0.0000 0.0000 28.9448 0.0000 -6.7755
# 5 7.7108 1.6699 7.8388 0.0000 37.4558 0.0000
# 6 0.0000 0.0000 0.0000 -6.7755 0.0000 26.6431
#
#
#
# Elastic Compliance Matrix: (Units=1/GPa)
#
#
# Indices 1 2 3 4 5 6 
#
# 1 0.036617 0.004769 -0.010996 0.000000 -0.005450 0.000000
# 2 0.004769 0.036257 -0.011471 0.000000 -0.000197 0.000000
# 3 -0.010996 -0.011471 0.014523 0.000000 -0.000264 0.000000
# 4 0.000000 0.000000 0.000000 0.036735 0.000000 0.009342
# 5 -0.005450 -0.000197 -0.000264 0.000000 0.027884 0.000000
# 6 0.000000 0.000000 0.000000 0.009342 0.000000 0.039909
#
#
# Mechanical properties :
#
#
# Convention : Reuss Voigt Hill
#
# Bulk Modulus (GPa) = 19.23054 37.88632 28.55843
# Shear Modulus (GPa) = 20.43686 26.84591 23.64138
#
# Velocity S-wave (km/s) = 3.36135 3.85253 3.61529
# Velocity P-wave (km/s) = 5.06919 6.38240 5.76332
#
# Compressibility (1/GPa) = 0.05200063
#
# Stress axis : x y z
#
# Youngs Moduli (GPa) = 27.30936 27.58112 68.85560
#
# Poissons Ratio (x) = -0.13152 0.75711
# Poissons Ratio (y) = -0.13023 0.78986
# Poissons Ratio (z) = 0.30028 0.31639
#
# Static dielectric constant tensor:
#      x y z
#    x 1.595960 0.000000 0.009570 
#    y 0.000000 1.608940 0.000000 
#    z 0.009570 0.000000 1.624290 
# 
# From -- ./inp_files/346140.got.cif
#   From: 2010.05.17/outbox.cif.g08.bks.cpg/sg12_174_cif.got.tgz:346140.got - 2010.06.03 13:09:07.
