data_PCOD9198261
_publ_section_title
;
Structure prediction by ZEFSAII (Michael W. Deem and Ramdas Pophale) SiO2 
 PCOD9198261
Probable space group: C 2/M
;
_chemical_formula_sum "Si O2"
_cell_formula_units_Z 56
_cell_length_a 20.583451
_cell_length_b 7.406055
_cell_length_c 27.338945
_cell_angle_alpha 90.000000
_cell_angle_beta 149.560781
_cell_angle_gamma 90.000000
_cell_volume 2111.410442
_symmetry_space_group_name_H-M "C 2/M"
_symmetry_group_IT_number 12
_symmetry_cell_setting 'monoclinic'
loop_
_space_group_symop_operation_xyz
x,y,z
-x,y,-z
-x,-y,-z
x,-y,z
1/2+x,1/2+y,z
1/2-x,1/2+y,-z
1/2-x,1/2-y,-z
1/2+x,1/2-y,z
loop_
_atom_site_type_symbol
_atom_site_label
_atom_site_fract_x
_atom_site_fract_y
_atom_site_fract_z
Si Si1 0.736874 0.793125 0.841944
Si Si2 0.791089 0.782703 0.334610
Si Si3 0.474768 0.211744 0.231088
Si Si4 0.607159 0.713796 0.925724
Si Si5 0.426606 0.289199 0.886821
Si Si6 0.018330 0.781806 0.622523
Si Si7 0.750319 0.278948 0.580600
O O1 0.659392 0.708506 0.836856
O O2 0.856560 0.712368 0.889648
O O3 0.619496 0.794725 0.726576
O O4 0.771325 0.000000 0.877322
O O5 0.679116 0.720886 0.225169
O O6 0.776560 0.722075 0.380717
O O7 0.923420 0.736589 0.393040
O O8 0.784213 0.000000 0.331264
O O9 0.479841 0.223190 0.175953
O O10 0.606494 0.285844 0.338628
O O11 0.469702 0.000000 0.239665
O O12 0.594417 0.500000 0.920965
O O13 0.554015 0.785564 0.943107
O O14 0.750000 0.750000 0.000000
O O15 0.445721 0.500000 0.910276
O O16 0.871433 0.720917 0.530147
O O17 0.022584 0.000000 0.630257
O O18 0.752149 0.500000 0.580953
#
# Coordination Sequence:
#
# PCOD9198261 Si02
#       7
#     8   8   8   8   8   8   8
#     4   9  19  35  53  75 108 146 179 211 255 309
#     4   9  15  26  47  72 101 138 180 221 258 300
#     4  10  20  36  57  79 106 141 177 216 261 308
#     4  11  23  39  61  85 107 130 164 212 264 318
#     4   9  18  34  54  77 105 137 171 209 257 313
#     4   9  17  28  45  72 105 144 185 222 255 295
#     4   9  16  27  46  73 105 139 181 223 259 298
#
# _framework density 26.522556000000002
#
# number of rings (size 3 to 8) (size 9 to 14) (size 15 to 20)
#    0.000    2.571    1.429    0.857    0.000    3.429 
#    0.000    2.143    0.000    7.714    0.000    0.000 
#    0.000    0.000    0.000    0.000    0.000    0.000 
#
# Total GULP energy -156522.439163 kJ/mol
# GULP energy per Si atom -5590.087113 kJ/mol
# Density = 2.646219 g / cm^3
# Si number density = 26.522556 Si / 1000 Ang^3
#
#
#
# Elastic Constant Matrix: (Units=GPa)
#
#
# Indices 1 2 3 4 5 6 
#
# 1 190.5048 10.1359 45.8263 -0.0001 26.5452 -0.0001
# 2 10.1359 92.7882 -2.5853 -0.0005 10.0401 -0.0004
# 3 45.8263 -2.5853 136.0821 0.0001 32.6197 0.0001
# 4 -0.0001 -0.0005 0.0001 4.6687 0.0000 -0.5225
# 5 26.5452 10.0401 32.6197 0.0000 56.1459 -0.0001
# 6 -0.0001 -0.0004 0.0001 -0.5225 -0.0001 -1.3639
#
#
#
# Elastic Compliance Matrix: (Units=1/GPa)
#
#
# Indices 1 2 3 4 5 6 
#
# 1 0.005902 -0.000495 -0.001568 0.000000 -0.001791 0.000000
# 2 -0.000495 0.011105 0.000927 0.000001 -0.002290 -0.000004
# 3 -0.001568 0.000927 0.009011 0.000000 -0.004660 0.000001
# 4 0.000000 0.000001 0.000000 0.205387 0.000000 -0.078685
# 5 -0.001791 -0.002290 -0.004660 0.000000 0.021774 0.000000
# 6 0.000000 -0.000004 0.000001 -0.078685 0.000000 -0.703059
#
#
# Mechanical properties :
#
#
# Convention : Reuss Voigt Hill
#
# Bulk Modulus (GPa) = 42.11107 58.45874 50.28491
# Shear Modulus (GPa) = -11.37158 36.29002 12.45922
#
# Velocity S-wave (km/s) = -2.07288 3.70303 2.16974
# Velocity P-wave (km/s) = 3.19105 6.35391 5.02767
#
# Compressibility (1/GPa) = 0.02374673
#
# Stress axis : x y z
#
# Youngs Moduli (GPa) = 169.42771 90.05041 110.97574
#
# Poissons Ratio (x) = 0.04454 0.17397
# Poissons Ratio (y) = 0.08380 -0.10282
# Poissons Ratio (z) = 0.26560 -0.08343
#
# Static dielectric constant tensor:
#      x y z
#    x 2.129020 0.000000 0.047560 
#    y 0.000000 2.065620 0.000000 
#    z 0.047560 0.000000 2.072890 
# 
# From -- ./inp_files/320267.got.cif
#   From: 2010.05.17/outbox.cif.g08.bks.cpg/sg12_161_cif.got.tgz:320267.got - 2010.06.03 13:09:07.
