data_PCOD9198503
_publ_section_title
;
Structure prediction by ZEFSAII (Michael W. Deem and Ramdas Pophale) SiO2 
 PCOD9198503
Probable space group: C 2/M
;
_chemical_formula_sum "Si O2"
_cell_formula_units_Z 52
_cell_length_a 10.949249
_cell_length_b 23.088434
_cell_length_c 19.191014
_cell_angle_alpha 90.000000
_cell_angle_beta 147.237907
_cell_angle_gamma 90.000000
_cell_volume 2625.402997
_symmetry_space_group_name_H-M "C 2/M"
_symmetry_group_IT_number 12
_symmetry_cell_setting 'monoclinic'
loop_
_space_group_symop_operation_xyz
x,y,z
-x,y,-z
-x,-y,-z
x,-y,z
1/2+x,1/2+y,z
1/2-x,1/2+y,-z
1/2-x,1/2-y,-z
1/2+x,1/2-y,z
loop_
_atom_site_type_symbol
_atom_site_label
_atom_site_fract_x
_atom_site_fract_y
_atom_site_fract_z
Si Si1 0.268129 0.000000 0.722954
Si Si2 0.000000 0.805842 0.500000
Si Si3 0.983317 0.391691 0.908112
Si Si4 0.057322 0.822342 0.732357
Si Si5 0.290781 0.875265 0.524339
Si Si6 0.877784 0.810071 0.074001
Si Si7 0.859946 0.721239 0.314009
Si Si8 0.271705 0.000000 0.559072
O O1 0.376883 0.055626 0.813645
O O2 0.311499 0.000000 0.661084
O O3 0.994442 0.000000 0.591009
O O4 0.157009 0.847240 0.526907
O O5 0.142650 0.763428 0.619651
O O6 0.803509 0.339387 0.822052
O O7 0.000000 0.406471 0.000000
O O8 0.210709 0.364863 0.982653
O O9 0.067684 0.817311 0.818609
O O10 0.997711 0.760995 0.670705
O O11 0.888181 0.870592 0.623895
O O12 0.497465 0.835270 0.602331
O O13 0.364520 0.939957 0.575007
O O14 0.129366 0.799357 0.165895
O O15 0.750000 0.750000 0.000000
#
# Coordination Sequence:
#
# PCOD9198503 Si02
#       8
#     4   4   8   8   8   8   8   4
#     4  11  21  40  61  88 110 152 212 258 301 338
#     4  10  20  37  62  91 118 148 194 256 306 362
#     4  10  21  37  59  86 118 154 199 249 297 357
#     4  10  20  36  57  88 116 151 200 250 302 355
#     4  11  22  38  59  91 122 155 200 250 312 354
#     4  11  22  36  57  85 121 158 198 239 296 367
#     4  11  21  35  58  87 124 156 187 241 309 370
#     4  11  24  36  63  89 118 157 200 265 300 351
#
# _framework density 19.806483
#
# number of rings (size 3 to 8) (size 9 to 14) (size 15 to 20)
#    0.000    1.385    3.077    4.846    2.154    1.231 
#    0.000    0.769    0.000    4.154    0.000    0.000 
#    0.000    0.000    0.000    0.000    0.000    0.000 
#
# Total GULP energy -144956.440168 kJ/mol
# GULP energy per Si atom -5575.247699 kJ/mol
# Density = 1.976140 g / cm^3
# Si number density = 19.806483 Si / 1000 Ang^3
#
#
#
# Elastic Constant Matrix: (Units=GPa)
#
#
# Indices 1 2 3 4 5 6 
#
# 1 15.6109 20.6757 -2.3113 -0.0009 -8.2936 -0.0001
# 2 20.6757 113.2537 19.7873 -0.0027 -18.0063 0.0001
# 3 -2.3113 19.7873 67.0974 -0.0050 -11.2222 -0.0042
# 4 -0.0009 -0.0027 -0.0050 30.5285 0.0026 5.0042
# 5 -8.2936 -18.0063 -11.2222 0.0026 26.0449 0.0014
# 6 -0.0001 0.0001 -0.0042 5.0042 0.0014 7.5437
#
#
#
# Elastic Compliance Matrix: (Units=1/GPa)
#
#
# Indices 1 2 3 4 5 6 
#
# 1 0.102160 -0.016679 0.012878 0.000001 0.026549 0.000003
# 2 -0.016679 0.012877 -0.004064 0.000000 0.001840 -0.000003
# 3 0.012878 -0.004064 0.018064 0.000001 0.009074 0.000008
# 4 0.000001 0.000000 0.000001 0.036753 -0.000001 -0.024380
# 5 0.026549 0.001840 0.009074 -0.000001 0.052031 -0.000004
# 6 0.000003 -0.000003 0.000008 -0.024380 -0.000004 0.148733
#
#
# Mechanical properties :
#
#
# Convention : Reuss Voigt Hill
#
# Bulk Modulus (GPa) = 8.52006 30.25172 19.38589
# Shear Modulus (GPa) = 11.75163 23.34411 17.54787
#
# Velocity S-wave (km/s) = 2.43846 3.43681 2.97975
# Velocity P-wave (km/s) = 3.49845 5.57277 4.65268
#
# Compressibility (1/GPa) = 0.11737004
#
# Stress axis : x y z
#
# Youngs Moduli (GPa) = 9.78857 77.65502 55.35987
#
# Poissons Ratio (x) = 1.29525 -0.71294
# Poissons Ratio (y) = 0.16327 0.22500
# Poissons Ratio (z) = -0.12606 0.31562
#
# Static dielectric constant tensor:
#      x y z
#    x 2.023460 0.000000 0.048670 
#    y 0.000000 1.696390 0.000000 
#    z 0.048670 0.000000 1.742940 
# 
# From -- ./inp_files/133834.got.cif
#   From: 2010.05.17/outbox.cif.g08.bks.cpg/sg12_67_cif.got.tgz:133834.got - 2010.06.03 13:09:07.
