data_PCOD9198436
_publ_section_title
;
Structure prediction by ZEFSAII (Michael W. Deem and Ramdas Pophale) SiO2 
 PCOD9198436
Probable space group: C 2/M
;
_chemical_formula_sum "Si O2"
_cell_formula_units_Z 64
_cell_length_a 14.768179
_cell_length_b 8.161241
_cell_length_c 25.612894
_cell_angle_alpha 90.000000
_cell_angle_beta 91.740603
_cell_angle_gamma 90.000000
_cell_volume 3085.612368
_symmetry_space_group_name_H-M "C 2/M"
_symmetry_group_IT_number 12
_symmetry_cell_setting 'monoclinic'
loop_
_space_group_symop_operation_xyz
x,y,z
-x,y,-z
-x,-y,-z
x,-y,z
1/2+x,1/2+y,z
1/2-x,1/2+y,-z
1/2-x,1/2-y,-z
1/2+x,1/2-y,z
loop_
_atom_site_type_symbol
_atom_site_label
_atom_site_fract_x
_atom_site_fract_y
_atom_site_fract_z
Si Si1 0.463535 0.310119 0.764401
Si Si2 0.663158 0.194016 0.790058
Si Si3 0.896496 0.301938 0.499143
Si Si4 0.774721 0.303825 0.094466
Si Si5 0.294568 0.701230 0.700444
Si Si6 0.551884 0.693696 0.948561
Si Si7 0.407437 0.188629 0.870631
Si Si8 0.744268 0.302193 0.417018
O O1 0.483422 0.500000 0.755273
O O2 0.558552 0.221825 0.774311
O O3 0.396049 0.247861 0.718479
O O4 0.408553 0.292827 0.817773
O O5 0.689563 0.258299 0.847908
O O6 0.726066 0.258533 0.744435
O O7 0.679252 0.000000 0.793378
O O8 0.898462 0.500000 0.497850
O O9 0.834552 0.245486 0.449189
O O10 0.841348 0.249748 0.549534
O O11 0.000000 0.242721 0.500000
O O12 0.779226 0.500000 0.092038
O O13 0.842003 0.231707 0.052565
O O14 0.670909 0.248744 0.091995
O O15 0.294051 0.500000 0.700910
O O16 0.265420 0.755681 0.642509
O O17 0.537567 0.500000 0.940938
O O18 0.503184 0.787721 0.900563
O O19 0.500000 0.743710 0.000000
O O20 0.393739 0.000000 0.856775
O O21 0.746834 0.500000 0.416074
#
# Coordination Sequence:
#
# PCOD9198436 Si02
#       8
#     8   8   8   8   8   8   8   8
#     4  11  21  36  57  82 113 150 192 238 284 339
#     4  10  20  36  57  84 113 149 189 230 284 345
#     4   9  18  33  54  80 109 144 187 235 289 338
#     4  11  22  39  64  90 118 153 192 238 289 346
#     4   9  19  36  55  78 114 152 187 228 284 343
#     4  11  25  44  65  90 119 152 193 243 295 346
#     4  12  24  39  62  89 118 154 195 236 287 348
#     4   9  18  34  55  78 108 149 189 231 282 339
#
# _framework density 20.741427000000002
#
# number of rings (size 3 to 8) (size 9 to 14) (size 15 to 20)
#    0.000    1.750    2.500    2.250    0.000    3.250 
#    0.000    3.125    0.000    0.000    0.000    0.000 
#    0.000    0.000    0.000    0.000    0.000    0.000 
#
# Total GULP energy -178768.874578 kJ/mol
# GULP energy per Si atom -5586.527331 kJ/mol
# Density = 2.069422 g / cm^3
# Si number density = 20.741427 Si / 1000 Ang^3
#
#
#
# Elastic Constant Matrix: (Units=GPa)
#
#
# Indices 1 2 3 4 5 6 
#
# 1 91.5167 -5.9802 -0.7856 0.0000 -4.2893 0.0000
# 2 -5.9802 18.5360 3.0564 0.0000 2.1495 0.0000
# 3 -0.7856 3.0564 47.6111 0.0000 0.8973 0.0000
# 4 0.0000 0.0000 0.0000 15.7746 0.0000 -4.8483
# 5 -4.2893 2.1495 0.8973 0.0000 16.7860 0.0000
# 6 0.0000 0.0000 0.0000 -4.8483 0.0000 28.7643
#
#
#
# Elastic Compliance Matrix: (Units=1/GPa)
#
#
# Indices 1 2 3 4 5 6 
#
# 1 0.011261 0.003361 -0.000076 0.000000 0.002451 0.000000
# 2 0.003361 0.056317 -0.003444 0.000000 -0.006169 0.000000
# 3 -0.000076 -0.003444 0.021237 0.000000 -0.000714 0.000000
# 4 0.000000 0.000000 0.000000 0.066857 0.000000 0.011269
# 5 0.002451 -0.006169 -0.000714 0.000000 0.061028 0.000000
# 6 0.000000 0.000000 0.000000 0.011269 0.000000 0.036665
#
#
# Mechanical properties :
#
#
# Convention : Reuss Voigt Hill
#
# Bulk Modulus (GPa) = 11.29976 16.69391 13.99684
# Shear Modulus (GPa) = 17.65663 23.02318 20.33990
#
# Velocity S-wave (km/s) = 2.92082 3.33529 3.13492
# Velocity P-wave (km/s) = 4.10301 4.78522 4.45719
#
# Compressibility (1/GPa) = 0.08849746
#
# Stress axis : x y z
#
# Youngs Moduli (GPa) = 88.80335 17.75672 47.08816
#
# Poissons Ratio (x) = -0.05969 0.00359
# Poissons Ratio (y) = -0.29850 0.16215
# Poissons Ratio (z) = 0.00676 0.06115
#
# Static dielectric constant tensor:
#      x y z
#    x 1.732820 0.000000 0.007000 
#    y 0.000000 1.716960 0.000000 
#    z 0.007000 0.000000 1.739830 
# 
# From -- ./inp_files/338725.got.cif
#   From: 2010.05.17/outbox.cif.g08.bks.cpg/sg12_170_cif.got.tgz:338725.got - 2010.06.03 13:09:07.
