data_PCOD9198970
_publ_section_title
;
Structure prediction by ZEFSAII (Michael W. Deem and Ramdas Pophale) SiO2 
 PCOD9198970
Probable space group: C 2/M
;
_chemical_formula_sum "Si O2"
_cell_formula_units_Z 56
_cell_length_a 13.905502
_cell_length_b 12.653093
_cell_length_c 16.881154
_cell_angle_alpha 90.000000
_cell_angle_beta 108.401628
_cell_angle_gamma 90.000000
_cell_volume 2818.323656
_symmetry_space_group_name_H-M "C 2/M"
_symmetry_group_IT_number 12
_symmetry_cell_setting 'monoclinic'
loop_
_space_group_symop_operation_xyz
x,y,z
-x,y,-z
-x,-y,-z
x,-y,z
1/2+x,1/2+y,z
1/2-x,1/2+y,-z
1/2-x,1/2-y,-z
1/2+x,1/2-y,z
loop_
_atom_site_type_symbol
_atom_site_label
_atom_site_fract_x
_atom_site_fract_y
_atom_site_fract_z
Si Si1 0.608588 0.119169 0.245824
Si Si2 0.443395 0.727030 0.910149
Si Si3 0.112135 0.198998 0.544465
Si Si4 0.349260 0.616146 0.287220
Si Si5 0.631830 0.670629 0.888088
Si Si6 0.161770 0.623324 0.434285
Si Si7 0.755511 0.379299 0.066718
O O1 0.570423 0.197178 0.168339
O O2 0.728290 0.111820 0.259891
O O3 0.606937 0.155876 0.337253
O O4 0.565734 0.000000 0.229155
O O5 0.527517 0.642992 0.904382
O O6 0.339433 0.672944 0.910711
O O7 0.500000 0.780581 0.000000
O O8 0.117931 0.203728 0.641162
O O9 0.123182 0.306097 0.496767
O O10 0.215922 0.137954 0.546072
O O11 0.000000 0.153019 0.500000
O O12 0.388288 0.500000 0.322560
O O13 0.374861 0.636267 0.203398
O O14 0.654177 0.796641 0.896956
O O15 0.722155 0.624161 0.965373
O O16 0.142193 0.500000 0.441182
O O17 0.774278 0.500000 0.094837
#
# Coordination Sequence:
#
# PCOD9198970 Si02
#       7
#     8   8   8   8   8   8   8
#     4   9  18  35  58  79 111 150 187 230 277 334
#     4  10  21  35  56  84 115 149 190 234 277 327
#     4  10  21  36  61  86 113 143 185 244 278 335
#     4  10  20  36  59  83 110 147 187 228 285 342
#     4  10  21  36  58  83 112 152 191 228 278 338
#     4   9  20  39  60  82 112 154 188 226 288 343
#     4  10  21  39  58  81 117 152 187 235 282 327
#
# _framework density 19.869968
#
# number of rings (size 3 to 8) (size 9 to 14) (size 15 to 20)
#    0.000    2.286    1.429    1.714    2.000    5.429 
#    0.000    0.714    0.000    0.000    0.000    0.000 
#    0.000    0.000    0.000    0.000    0.000    0.000 
#
# Total GULP energy -155966.368928 kJ/mol
# GULP energy per Si atom -5570.227462 kJ/mol
# Density = 1.982474 g / cm^3
# Si number density = 19.869968 Si / 1000 Ang^3
#
#
#
# Elastic Constant Matrix: (Units=GPa)
#
#
# Indices 1 2 3 4 5 6 
#
# 1 67.4725 7.0514 24.8644 0.0000 -8.4541 0.0000
# 2 7.0514 88.1490 44.3647 0.0000 -3.9947 0.0000
# 3 24.8644 44.3647 128.4579 0.0000 -19.1995 0.0000
# 4 0.0000 0.0000 0.0000 16.9480 0.0000 -3.2322
# 5 -8.4541 -3.9947 -19.1995 0.0000 29.3441 0.0000
# 6 0.0000 0.0000 0.0000 -3.2322 0.0000 -1.2297
#
#
#
# Elastic Compliance Matrix: (Units=1/GPa)
#
#
# Indices 1 2 3 4 5 6 
#
# 1 0.016182 0.000237 -0.002785 0.000000 0.002872 0.000000
# 2 0.000237 0.013784 -0.005005 0.000000 -0.001330 0.000000
# 3 -0.002785 -0.005005 0.010896 0.000000 0.005646 0.000000
# 4 0.000000 0.000000 0.000000 0.039302 0.000000 -0.103305
# 5 0.002872 -0.001330 0.005646 0.000000 0.038419 0.000000
# 6 0.000000 0.000000 0.000000 -0.103305 0.000000 -0.541670
#
#
# Mechanical properties :
#
#
# Convention : Reuss Voigt Hill
#
# Bulk Modulus (GPa) = 38.82463 48.51558 43.67010
# Shear Modulus (GPa) = -12.51893 22.86575 5.17341
#
# Velocity S-wave (km/s) = -2.51279 3.39598 1.61533
# Velocity P-wave (km/s) = 3.34110 6.31240 5.05022
#
# Compressibility (1/GPa) = 0.02575685
#
# Stress axis : x y z
#
# Youngs Moduli (GPa) = 61.79620 72.54626 91.77562
#
# Poissons Ratio (x) = -0.01722 0.25559
# Poissons Ratio (y) = -0.01466 0.45937
# Poissons Ratio (z) = 0.17210 0.36312
#
# Static dielectric constant tensor:
#      x y z
#    x 1.713280 0.000000 -0.000740 
#    y 0.000000 1.725010 0.000000 
#    z -0.000740 0.000000 1.735240 
# 
# From -- ./inp_files/268873.got.cif
#   From: 2010.05.17/outbox.cif.g08.bks.cpg/sg12_135_cif.got.tgz:268873.got - 2010.06.03 13:09:07.
