data_PCOD9198585
_publ_section_title
;
Structure prediction by ZEFSAII (Michael W. Deem and Ramdas Pophale) SiO2 
 PCOD9198585
Probable space group: C 2/M
;
_chemical_formula_sum "Si O2"
_cell_formula_units_Z 56
_cell_length_a 18.532739
_cell_length_b 30.957879
_cell_length_c 9.386636
_cell_angle_alpha 90.000000
_cell_angle_beta 145.092889
_cell_angle_gamma 90.000000
_cell_volume 3081.802542
_symmetry_space_group_name_H-M "C 2/M"
_symmetry_group_IT_number 12
_symmetry_cell_setting 'monoclinic'
loop_
_space_group_symop_operation_xyz
x,y,z
-x,y,-z
-x,-y,-z
x,-y,z
1/2+x,1/2+y,z
1/2-x,1/2+y,-z
1/2-x,1/2-y,-z
1/2+x,1/2-y,z
loop_
_atom_site_type_symbol
_atom_site_label
_atom_site_fract_x
_atom_site_fract_y
_atom_site_fract_z
Si Si1 0.572166 0.835027 0.473453
Si Si2 0.392285 0.820117 0.928729
Si Si3 0.183086 0.124021 0.128154
Si Si4 0.810039 0.751499 0.440614
Si Si5 0.490682 0.548289 0.813878
Si Si6 0.001754 0.817604 0.673007
Si Si7 0.189019 0.120887 0.474844
O O1 0.500000 0.824143 0.500000
O O2 0.666134 0.875556 0.643082
O O3 0.664131 0.795899 0.575201
O O4 0.465136 0.838886 0.181107
O O5 0.288583 0.783483 0.798784
O O6 0.323832 0.858970 0.731485
O O7 0.500000 0.800962 0.000000
O O8 0.159454 0.130338 0.260260
O O9 0.104484 0.081118 0.957617
O O10 0.128800 0.162996 0.943993
O O11 0.750000 0.750000 0.500000
O O12 0.947485 0.773937 0.653943
O O13 0.499629 0.500000 0.768313
O O14 0.356270 0.572037 0.570309
O O15 0.500000 0.545059 0.000000
O O16 0.000000 0.813912 0.500000
O O17 0.901152 0.852205 0.567391
#
# Coordination Sequence:
#
# PCOD9198585 Si02
#       7
#     8   8   8   8   8   8   8
#     4  12  26  37  54  80 108 148 191 235 277 326
#     4  11  21  39  55  77 106 151 193 227 273 329
#     4  10  20  36  58  81 109 149 182 221 281 339
#     4  11  23  38  54  75 104 148 190 238 271 318
#     4   8  15  31  60  93 112 132 177 232 275 323
#     4  10  21  35  54  80 106 141 186 235 278 313
#     4   9  18  35  58  81 111 148 179 221 276 339
#
# _framework density 18.171182999999999
#
# number of rings (size 3 to 8) (size 9 to 14) (size 15 to 20)
#    0.000    1.857    2.857    2.571    6.000    0.571 
#    2.571    0.000    0.000    8.571    0.000    0.000 
#    0.000    0.000    0.000    0.000    0.000    0.000 
#
# Total GULP energy -155915.520577 kJ/mol
# GULP energy per Si atom -5568.411449 kJ/mol
# Density = 1.812982 g / cm^3
# Si number density = 18.171183 Si / 1000 Ang^3
#
#
#
# Elastic Constant Matrix: (Units=GPa)
#
#
# Indices 1 2 3 4 5 6 
#
# 1 78.3983 10.4803 14.5291 0.0000 -14.9595 0.0000
# 2 10.4803 89.7919 34.1156 0.0000 4.8000 0.0000
# 3 14.5291 34.1156 106.9750 0.0000 0.8460 0.0000
# 4 0.0000 0.0000 0.0000 16.3707 0.0000 3.7250
# 5 -14.9595 4.8000 0.8460 0.0000 24.2698 0.0000
# 6 0.0000 0.0000 0.0000 3.7250 0.0000 2.7324
#
#
#
# Elastic Compliance Matrix: (Units=1/GPa)
#
#
# Indices 1 2 3 4 5 6 
#
# 1 0.015129 -0.001679 -0.001596 0.000000 0.009713 0.000000
# 2 -0.001679 0.012996 -0.003889 0.000000 -0.003469 0.000000
# 3 -0.001596 -0.003889 0.010810 0.000000 -0.000592 0.000000
# 4 0.000000 0.000000 0.000000 0.088554 0.000000 -0.120724
# 5 0.009713 -0.003469 -0.000592 0.000000 0.047897 0.000000
# 6 0.000000 0.000000 0.000000 -0.120724 0.000000 0.530565
#
#
# Mechanical properties :
#
#
# Convention : Reuss Voigt Hill
#
# Bulk Modulus (GPa) = 40.63939 43.71280 42.17609
# Shear Modulus (GPa) = 6.86359 23.07725 14.97042
#
# Velocity S-wave (km/s) = 1.94561 3.56756 2.87340
# Velocity P-wave (km/s) = 5.24027 6.40924 5.85401
#
# Compressibility (1/GPa) = 0.02460667
#
# Stress axis : x y z
#
# Youngs Moduli (GPa) = 66.09842 76.94750 92.50913
#
# Poissons Ratio (x) = 0.12916 0.14767
# Poissons Ratio (y) = 0.11095 0.35978
# Poissons Ratio (z) = 0.10551 0.29926
#
# Static dielectric constant tensor:
#      x y z
#    x 1.646370 0.000000 0.027130 
#    y 0.000000 1.689120 0.000000 
#    z 0.027130 0.000000 1.709570 
# 
# From -- ./inp_files/80481.got.cif
#   From: 2010.05.17/outbox.cif.g08.bks.cpg/sg12_41_cif.got.tgz:80481.got - 2010.06.03 13:09:07.
