data_PCOD9198824
_publ_section_title
;
Structure prediction by ZEFSAII (Michael W. Deem and Ramdas Pophale) SiO2 
 PCOD9198824
Probable space group: C 2/M
;
_chemical_formula_sum "Si O2"
_cell_formula_units_Z 64
_cell_length_a 15.524612
_cell_length_b 14.975424
_cell_length_c 17.461848
_cell_angle_alpha 90.000000
_cell_angle_beta 128.131705
_cell_angle_gamma 90.000000
_cell_volume 3193.305120
_symmetry_space_group_name_H-M "C 2/M"
_symmetry_group_IT_number 12
_symmetry_cell_setting 'monoclinic'
loop_
_space_group_symop_operation_xyz
x,y,z
-x,y,-z
-x,-y,-z
x,-y,z
1/2+x,1/2+y,z
1/2-x,1/2+y,-z
1/2-x,1/2-y,-z
1/2+x,1/2-y,z
loop_
_atom_site_type_symbol
_atom_site_label
_atom_site_fract_x
_atom_site_fract_y
_atom_site_fract_z
Si Si1 0.830243 0.101479 0.626030
Si Si2 0.856391 0.599174 0.278268
Si Si3 0.071962 0.600671 0.859125
Si Si4 0.998885 0.895079 0.409944
Si Si5 0.129523 0.604439 0.055503
Si Si6 0.896046 0.397702 0.566083
Si Si7 0.628030 0.212585 0.295494
Si Si8 0.213041 0.794578 0.743237
O O1 0.699041 0.113760 0.547979
O O2 0.876932 0.181079 0.701841
O O3 0.886645 0.112259 0.572943
O O4 0.853731 0.000000 0.663284
O O5 0.813989 0.500000 0.274772
O O6 0.876564 0.601165 0.197188
O O7 0.789277 0.687516 0.257408
O O8 0.976116 0.609472 0.383858
O O9 0.026074 0.500000 0.845052
O O10 0.975478 0.671773 0.804533
O O11 0.147020 0.616954 0.973928
O O12 0.908248 0.834868 0.318182
O O13 0.000000 0.869440 0.500000
O O14 0.966955 0.000000 0.388821
O O15 0.149741 0.500000 0.085339
O O16 0.208631 0.665609 0.148757
O O17 0.000000 0.621302 0.000000
O O18 0.883117 0.500000 0.588403
O O19 0.874247 0.327955 0.621149
O O20 0.734743 0.179731 0.309458
#
# Coordination Sequence:
#
# PCOD9198824 Si02
#       8
#     8   8   8   8   8   8   8   8
#     4  10  21  37  54  75 108 150 189 223 262 321
#     4   9  20  37  55  77 107 144 188 231 266 311
#     4   9  18  36  60  81 103 137 180 226 271 319
#     4  10  21  36  54  82 118 144 171 221 285 341
#     4  10  20  36  58  86 115 136 173 228 277 329
#     4   9  18  35  58  77  99 140 191 232 267 312
#     4  11  20  31  53  79 106 141 180 222 268 321
#     4  12  23  33  55  85 113 145 178 223 278 326
#
# _framework density 20.041930000000001
#
# number of rings (size 3 to 8) (size 9 to 14) (size 15 to 20)
#    0.000    2.000    1.250    4.125    0.000    4.500 
#    0.000    0.000    0.000    3.750    0.000    0.000 
#    0.000    0.000    0.000    0.000    0.000    0.000 
#
# Total GULP energy -178607.183815 kJ/mol
# GULP energy per Si atom -5581.474494 kJ/mol
# Density = 1.999631 g / cm^3
# Si number density = 20.041930 Si / 1000 Ang^3
#
#
#
# Elastic Constant Matrix: (Units=GPa)
#
#
# Indices 1 2 3 4 5 6 
#
# 1 47.3085 13.3008 13.2527 0.0000 -0.3279 0.0000
# 2 13.3008 123.5613 65.9719 0.0000 11.4630 0.0000
# 3 13.2527 65.9719 75.1157 0.0000 8.9182 0.0000
# 4 0.0000 0.0000 0.0000 14.3572 0.0000 7.6410
# 5 -0.3279 11.4630 8.9182 0.0000 15.7448 0.0000
# 6 0.0000 0.0000 0.0000 7.6410 0.0000 23.4178
#
#
#
# Elastic Compliance Matrix: (Units=1/GPa)
#
#
# Indices 1 2 3 4 5 6 
#
# 1 0.022394 -0.000737 -0.003669 0.000000 0.003082 0.000000
# 2 -0.000737 0.015475 -0.012995 0.000000 -0.003921 0.000000
# 3 -0.003669 -0.012995 0.026009 0.000000 -0.005347 0.000000
# 4 0.000000 0.000000 0.000000 0.084289 0.000000 -0.027503
# 5 0.003082 -0.003921 -0.005347 0.000000 0.069460 0.000000
# 6 0.000000 0.000000 0.000000 -0.027503 0.000000 0.051676
#
#
# Mechanical properties :
#
#
# Convention : Reuss Voigt Hill
#
# Bulk Modulus (GPa) = 34.39567 47.89291 41.14429
# Shear Modulus (GPa) = 15.93377 20.93463 18.43420
#
# Velocity S-wave (km/s) = 2.82267 3.23544 3.03608
# Velocity P-wave (km/s) = 5.27470 6.15676 5.73272
#
# Compressibility (1/GPa) = 0.02907343
#
# Stress axis : x y z
#
# Youngs Moduli (GPa) = 44.65392 64.62109 38.44893
#
# Poissons Ratio (x) = 0.04766 0.14108
# Poissons Ratio (y) = 0.03293 0.49966
# Poissons Ratio (z) = 0.16385 0.83978
#
# Static dielectric constant tensor:
#      x y z
#    x 1.749410 0.000000 -0.012480 
#    y 0.000000 1.707760 0.000000 
#    z -0.012480 0.000000 1.689080 
# 
# From -- ./inp_files/270712.got.cif
#   From: 2010.05.17/outbox.cif.g08.bks.cpg/sg12_136_cif.got.tgz:270712.got - 2010.06.03 13:09:07.
