data_PCOD9198020
_publ_section_title
;
Structure prediction by ZEFSAII (Michael W. Deem and Ramdas Pophale) SiO2 
 PCOD9198020
Probable space group: C 2/M
;
_chemical_formula_sum "Si O2"
_cell_formula_units_Z 60
_cell_length_a 19.898901
_cell_length_b 7.223179
_cell_length_c 24.549814
_cell_angle_alpha 90.000000
_cell_angle_beta 134.309009
_cell_angle_gamma 90.000000
_cell_volume 2525.024717
_symmetry_space_group_name_H-M "C 2/M"
_symmetry_group_IT_number 12
_symmetry_cell_setting 'monoclinic'
loop_
_space_group_symop_operation_xyz
x,y,z
-x,y,-z
-x,-y,-z
x,-y,z
1/2+x,1/2+y,z
1/2-x,1/2+y,-z
1/2-x,1/2-y,-z
1/2+x,1/2-y,z
loop_
_atom_site_type_symbol
_atom_site_label
_atom_site_fract_x
_atom_site_fract_y
_atom_site_fract_z
Si Si1 0.634296 0.000000 0.634104
Si Si2 0.739851 0.281803 0.558875
Si Si3 0.501719 0.223419 0.185154
Si Si4 0.466946 0.286211 0.557351
Si Si5 0.196840 0.723226 0.237609
Si Si6 0.158968 0.280499 0.984219
Si Si7 0.608720 0.224419 0.071865
Si Si8 0.054462 0.275366 0.326830
O O1 0.550823 0.160194 0.585414
O O2 0.715086 0.161790 0.691446
O O3 0.736620 0.500000 0.568518
O O4 0.750000 0.250000 0.500000
O O5 0.637680 0.209993 0.518026
O O6 0.841577 0.212988 0.633899
O O7 0.605641 0.260688 0.222758
O O8 0.428215 0.294192 0.099636
O O9 0.487266 0.282556 0.239525
O O10 0.492981 0.000000 0.181179
O O11 0.474617 0.500000 0.545187
O O12 0.466933 0.285788 0.624092
O O13 0.215139 0.500000 0.249107
O O14 0.161991 0.778972 0.157072
O O15 0.143867 0.500000 0.980850
O O16 0.250000 0.250000 0.000000
O O17 0.163127 0.214231 0.048416
O O18 0.605430 0.000000 0.073848
O O19 0.500000 0.281346 0.000000
O O20 0.056079 0.500000 0.330828
#
# Coordination Sequence:
#
# PCOD9198020 Si02
#       8
#     4   8   8   8   8   8   8   8
#     4  12  24  38  57  87 124 150 198 250 295 345
#     4   8  15  27  51  81 113 151 194 231 287 357
#     4   9  18  35  61  83 116 154 194 244 298 350
#     4  10  20  36  56  85 121 158 189 239 302 354
#     4  10  21  40  62  85 110 158 206 245 291 349
#     4  10  20  36  55  85 117 151 189 241 299 351
#     4   9  16  34  63  81 106 151 202 240 285 349
#     4   9  16  32  57  89 120 152 190 243 298 357
#
# _framework density 23.762142999999998
#
# number of rings (size 3 to 8) (size 9 to 14) (size 15 to 20)
#    0.000    2.533    2.000    0.400    0.933    1.067 
#    6.000    1.667    0.000    1.600    0.000    4.667 
#    0.000    0.000    0.000    0.000    0.000    0.000 
#
# Total GULP energy -167088.118077 kJ/mol
# GULP energy per Si atom -5569.603936 kJ/mol
# Density = 2.370806 g / cm^3
# Si number density = 23.762143 Si / 1000 Ang^3
#
#
#
# Elastic Constant Matrix: (Units=GPa)
#
#
# Indices 1 2 3 4 5 6 
#
# 1 102.9897 4.8360 38.1399 0.0000 -6.0217 0.0000
# 2 4.8360 143.4173 5.9056 -0.0002 16.5753 -0.0002
# 3 38.1399 5.9056 78.2734 0.0000 -4.1998 0.0000
# 4 0.0000 -0.0002 0.0000 -27.2557 0.0000 5.0534
# 5 -6.0217 16.5753 -4.1998 0.0000 51.9876 0.0000
# 6 0.0000 -0.0002 0.0000 5.0534 0.0000 3.6269
#
#
#
# Elastic Compliance Matrix: (Units=1/GPa)
#
#
# Indices 1 2 3 4 5 6 
#
# 1 0.011901 -0.000282 -0.005724 0.000000 0.001006 0.000000
# 2 -0.000282 0.007282 -0.000541 0.000000 -0.002398 0.000000
# 3 -0.005724 -0.000541 0.015647 0.000000 0.000773 0.000000
# 4 0.000000 0.000000 0.000000 -0.029157 0.000000 0.040625
# 5 0.001006 -0.002398 0.000773 0.000000 0.020179 0.000000
# 6 0.000000 0.000000 0.000000 0.040625 0.000000 0.219114
#
#
# Mechanical properties :
#
#
# Convention : Reuss Voigt Hill
#
# Bulk Modulus (GPa) = 46.00423 46.93816 46.47120
# Shear Modulus (GPa) = 18.84627 24.05835 21.45231
#
# Velocity S-wave (km/s) = 2.81930 3.18538 3.00791
# Velocity P-wave (km/s) = 5.47725 5.77279 5.62696
#
# Compressibility (1/GPa) = 0.02173713
#
# Stress axis : x y z
#
# Youngs Moduli (GPa) = 84.02307 137.33313 63.90962
#
# Poissons Ratio (x) = 0.03871 0.36581
# Poissons Ratio (y) = 0.02368 0.03456
# Poissons Ratio (z) = 0.48094 0.07425
#
# Static dielectric constant tensor:
#      x y z
#    x 1.879010 0.000000 -0.063140 
#    y 0.000000 1.896330 0.000000 
#    z -0.063140 0.000000 1.966690 
# 
# From -- ./inp_files/365499.got.cif
#   From: 2010.05.17/outbox.cif.g08.bks.cpg/sg12_183_cif.got.tgz:365499.got - 2010.06.03 13:09:07.
