data_PCOD9198025
_publ_section_title
;
Structure prediction by ZEFSAII (Michael W. Deem and Ramdas Pophale) SiO2 
 PCOD9198025
Probable space group: C 2/M
;
_chemical_formula_sum "Si O2"
_cell_formula_units_Z 52
_cell_length_a 8.423215
_cell_length_b 29.597570
_cell_length_c 11.569811
_cell_angle_alpha 90.000000
_cell_angle_beta 85.323569
_cell_angle_gamma 90.000000
_cell_volume 2874.829101
_symmetry_space_group_name_H-M "C 2/M"
_symmetry_group_IT_number 12
_symmetry_cell_setting 'monoclinic'
loop_
_space_group_symop_operation_xyz
x,y,z
-x,y,-z
-x,-y,-z
x,-y,z
1/2+x,1/2+y,z
1/2-x,1/2+y,-z
1/2-x,1/2-y,-z
1/2+x,1/2-y,z
loop_
_atom_site_type_symbol
_atom_site_label
_atom_site_fract_x
_atom_site_fract_y
_atom_site_fract_z
Si Si1 0.748890 0.947142 0.922005
Si Si2 0.238285 0.122420 0.674920
Si Si3 0.036063 0.862417 0.127088
Si Si4 0.500000 0.361487 0.500000
Si Si5 0.952282 0.290206 0.632773
Si Si6 0.301728 0.696501 0.700001
Si Si7 0.086075 0.552905 0.180764
O O1 0.886761 0.912295 0.883783
O O2 0.595911 0.938792 0.848646
O O3 0.793818 0.000000 0.908975
O O4 0.689665 0.939536 0.057477
O O5 0.122669 0.111070 0.573873
O O6 0.338983 0.166408 0.634713
O O7 0.351970 0.083773 0.719129
O O8 0.121834 0.135834 0.786697
O O9 0.156066 0.829170 0.185193
O O10 0.000000 0.847419 0.000000
O O11 0.604432 0.330460 0.407216
O O12 0.865621 0.247606 0.694764
O O13 0.000000 0.276717 0.500000
O O14 0.114871 0.302748 0.687104
O O15 0.100253 0.500000 0.208741
#
# Coordination Sequence:
#
# PCOD9198025 Si02
#       7
#     8   8   8   4   8   8   8
#     4   9  18  35  59  86 116 154 198 237 278 338
#     4  11  22  36  59  87 117 152 197 236 294 336
#     4  11  22  37  56  88 126 155 184 235 292 353
#     4  10  20  36  55  86 114 150 191 242 278 338
#     4  12  22  40  64  87 110 151 202 248 281 334
#     4  11  22  38  60  87 115 147 197 241 287 335
#     4   9  18  35  60  87 116 152 196 239 283 344
#
# _framework density 18.088032999999999
#
# number of rings (size 3 to 8) (size 9 to 14) (size 15 to 20)
#    0.000    1.538    3.846    4.154    0.000    0.923 
#    0.000    3.462    0.000    1.385    0.000    0.000 
#    0.000    0.000    0.000    0.000    0.000    0.000 
#
# Total GULP energy -145187.947636 kJ/mol
# GULP energy per Si atom -5584.151832 kJ/mol
# Density = 1.804686 g / cm^3
# Si number density = 18.088033 Si / 1000 Ang^3
#
#
#
# Elastic Constant Matrix: (Units=GPa)
#
#
# Indices 1 2 3 4 5 6 
#
# 1 79.5056 27.3339 33.0962 0.0000 20.1958 0.0000
# 2 27.3339 66.5590 28.3814 0.0000 21.9845 0.0000
# 3 33.0962 28.3814 83.5096 0.0000 31.8982 0.0000
# 4 0.0000 0.0000 0.0000 19.3431 0.0000 35.7788
# 5 20.1958 21.9845 31.8982 0.0000 39.4258 0.0000
# 6 0.0000 0.0000 0.0000 35.7788 0.0000 -309.5456
#
#
#
# Elastic Compliance Matrix: (Units=1/GPa)
#
#
# Indices 1 2 3 4 5 6 
#
# 1 0.016375 -0.004065 -0.004009 0.000000 -0.002878 0.000000
# 2 -0.004065 0.020109 -0.002512 0.000000 -0.007099 0.000000
# 3 -0.004009 -0.002512 0.018956 0.000000 -0.011882 0.000000
# 4 0.000000 0.000000 0.000000 0.042592 0.000000 0.004923
# 5 -0.002878 -0.007099 -0.011882 0.000000 0.040410 0.000000
# 6 0.000000 0.000000 0.000000 0.004923 0.000000 -0.002662
#
#
# Mechanical properties :
#
#
# Convention : Reuss Voigt Hill
#
# Bulk Modulus (GPa) = 29.18061 45.24411 37.21236
# Shear Modulus (GPa) = 29.69557 -40.77114 -5.53778
#
# Velocity S-wave (km/s) = 4.05622 -4.75282 -1.75163
# Velocity P-wave (km/s) = 6.17291 2.24756 4.06529
#
# Compressibility (1/GPa) = 0.03426933
#
# Stress axis : x y z
#
# Youngs Moduli (GPa) = 61.06847 49.72805 52.75414
#
# Poissons Ratio (x) = 0.20213 0.21149
# Poissons Ratio (y) = 0.24823 0.13251
# Poissons Ratio (z) = 0.24482 0.12491
#
# Static dielectric constant tensor:
#      x y z
#    x 1.647360 0.000000 0.025710 
#    y 0.000000 1.592420 0.000000 
#    z 0.025710 0.000000 1.615490 
# 
# From -- ./inp_files/123644.got.cif
#   From: 2010.05.17/outbox.cif.g08.bks.cpg/sg12_62_cif.got.tgz:123644.got - 2010.06.03 13:09:07.
