data_PCOD9198114
_publ_section_title
;
Structure prediction by ZEFSAII (Michael W. Deem and Ramdas Pophale) SiO2 
 PCOD9198114
Probable space group: C 2/M
;
_chemical_formula_sum "Si O2"
_cell_formula_units_Z 52
_cell_length_a 14.873446
_cell_length_b 10.884523
_cell_length_c 22.787319
_cell_angle_alpha 90.000000
_cell_angle_beta 132.540630
_cell_angle_gamma 90.000000
_cell_volume 2718.083006
_symmetry_space_group_name_H-M "C 2/M"
_symmetry_group_IT_number 12
_symmetry_cell_setting 'monoclinic'
loop_
_space_group_symop_operation_xyz
x,y,z
-x,y,-z
-x,-y,-z
x,-y,z
1/2+x,1/2+y,z
1/2-x,1/2+y,-z
1/2-x,1/2-y,-z
1/2+x,1/2-y,z
loop_
_atom_site_type_symbol
_atom_site_label
_atom_site_fract_x
_atom_site_fract_y
_atom_site_fract_z
Si Si1 0.593506 0.635816 0.459806
Si Si2 0.772785 0.143257 0.122338
Si Si3 0.287112 0.134582 0.439315
Si Si4 0.000000 0.725864 0.000000
Si Si5 0.661108 0.644871 0.720645
Si Si6 0.315898 0.636869 0.733736
Si Si7 0.427951 0.640392 0.088676
O O1 0.595449 0.500000 0.489034
O O2 0.624146 0.749227 0.515498
O O3 0.698161 0.635289 0.456120
O O4 0.466892 0.652017 0.369591
O O5 0.627964 0.157124 0.067466
O O6 0.842067 0.181775 0.212078
O O7 0.823713 0.199930 0.084317
O O8 0.800405 0.000000 0.128317
O O9 0.204685 0.143933 0.344938
O O10 0.349107 0.000000 0.465311
O O11 0.968785 0.798714 0.045905
O O12 0.700527 0.500000 0.735206
O O13 0.749219 0.745181 0.730941
O O14 0.267684 0.500000 0.730674
O O15 0.454280 0.639830 0.816748
O O16 0.394368 0.500000 0.058441
#
# Coordination Sequence:
#
# PCOD9198114 Si02
#       7
#     8   8   8   4   8   8   8
#     4   9  18  33  54  78 106 143 187 232 278 332
#     4  10  21  37  58  83 114 153 192 232 284 347
#     4   9  18  33  54  78 106 143 187 232 278 332
#     4  12  20  36  60  88 114 140 188 244 294 334
#     4  10  20  36  56  79 110 149 190 232 280 338
#     4  10  20  36  56  79 110 149 190 232 280 338
#     4  10  21  37  58  83 114 153 192 232 284 347
#
# _framework density 19.131131
#
# number of rings (size 3 to 8) (size 9 to 14) (size 15 to 20)
#    0.000    2.154    1.538    1.846    0.000    5.538 
#    0.000    3.077    0.000    4.615    0.000    0.000 
#    0.000    0.000    0.000    0.000    0.000    0.000 
#
# Total GULP energy -144818.269312 kJ/mol
# GULP energy per Si atom -5569.933435 kJ/mol
# Density = 1.908759 g / cm^3
# Si number density = 19.131131 Si / 1000 Ang^3
#
#
#
# Elastic Constant Matrix: (Units=GPa)
#
#
# Indices 1 2 3 4 5 6 
#
# 1 67.2766 19.1894 0.2406 0.0000 -6.4515 0.0000
# 2 19.1894 71.2098 24.2377 0.0000 -4.6237 0.0000
# 3 0.2406 24.2377 75.7321 0.0000 -9.2269 0.0000
# 4 0.0000 0.0000 0.0000 -44.7585 0.0000 16.6293
# 5 -6.4515 -4.6237 -9.2269 0.0000 32.1296 0.0000
# 6 0.0000 0.0000 0.0000 16.6293 0.0000 8.6892
#
#
#
# Elastic Compliance Matrix: (Units=1/GPa)
#
#
# Indices 1 2 3 4 5 6 
#
# 1 0.016560 -0.004905 0.001903 0.000000 0.003166 0.000000
# 2 -0.004905 0.017235 -0.005511 0.000000 -0.000087 0.000000
# 3 0.001903 -0.005511 0.015453 0.000000 0.004027 0.000000
# 4 0.000000 0.000000 0.000000 -0.013058 0.000000 0.024990
# 5 0.003166 -0.000087 0.004027 0.000000 0.032903 0.000000
# 6 0.000000 0.000000 0.000000 0.024990 0.000000 0.067261
#
#
# Mechanical properties :
#
#
# Convention : Reuss Voigt Hill
#
# Bulk Modulus (GPa) = 31.03490 33.50597 32.27044
# Shear Modulus (GPa) = 30.46551 10.58211 20.52381
#
# Velocity S-wave (km/s) = 3.99489 2.35443 3.27891
# Velocity P-wave (km/s) = 6.12669 4.99430 5.58924
#
# Compressibility (1/GPa) = 0.03222179
#
# Stress axis : x y z
#
# Youngs Moduli (GPa) = 60.38743 58.02224 64.71340
#
# Poissons Ratio (x) = 0.28457 -0.12314
# Poissons Ratio (y) = 0.29617 0.35663
# Poissons Ratio (z) = -0.11490 0.31976
#
# Static dielectric constant tensor:
#      x y z
#    x 1.688490 0.000000 -0.019770 
#    y 0.000000 1.682540 0.000000 
#    z -0.019770 0.000000 1.663860 
# 
# From -- ./inp_files/310022.got.cif
#   From: 2010.05.17/outbox.cif.g08.bks.cpg/sg12_156_cif.got.tgz:310022.got - 2010.06.03 13:09:07.
