data_PCOD9198147
_publ_section_title
;
Structure prediction by ZEFSAII (Michael W. Deem and Ramdas Pophale) SiO2 
 PCOD9198147
Probable space group: C 2/M
;
_chemical_formula_sum "Si O2"
_cell_formula_units_Z 56
_cell_length_a 24.404716
_cell_length_b 8.504821
_cell_length_c 16.178805
_cell_angle_alpha 90.000000
_cell_angle_beta 56.022255
_cell_angle_gamma 90.000000
_cell_volume 2784.667363
_symmetry_space_group_name_H-M "C 2/M"
_symmetry_group_IT_number 12
_symmetry_cell_setting 'monoclinic'
loop_
_space_group_symop_operation_xyz
x,y,z
-x,y,-z
-x,-y,-z
x,-y,z
1/2+x,1/2+y,z
1/2-x,1/2+y,-z
1/2-x,1/2-y,-z
1/2+x,1/2-y,z
loop_
_atom_site_type_symbol
_atom_site_label
_atom_site_fract_x
_atom_site_fract_y
_atom_site_fract_z
Si Si1 0.705281 0.186998 0.611836
Si Si2 0.567580 0.808137 0.986253
Si Si3 0.206227 0.310669 0.795491
Si Si4 0.576519 0.688270 0.641282
Si Si5 0.832704 0.314069 0.770737
Si Si6 0.577598 0.312264 0.450863
Si Si7 0.435459 0.809366 0.819775
O O1 0.750000 0.250000 0.500000
O O2 0.723457 0.246007 0.688258
O O3 0.629946 0.233413 0.655849
O O4 0.711997 0.000000 0.606479
O O5 0.633571 0.755465 0.883609
O O6 0.567223 0.000000 0.984354
O O7 0.500000 0.754588 0.000000
O O8 0.569975 0.762082 0.080178
O O9 0.204502 0.500000 0.794011
O O10 0.262109 0.261850 0.812812
O O11 0.581087 0.500000 0.643518
O O12 0.592437 0.732165 0.532864
O O13 0.502846 0.742084 0.725033
O O14 0.824037 0.500000 0.785079
O O15 0.878524 0.275069 0.653175
O O16 0.873323 0.257839 0.816659
O O17 0.500000 0.283877 0.500000
O O18 0.589281 0.500000 0.432143
O O19 0.438961 0.000000 0.813116
#
# Coordination Sequence:
#
# PCOD9198147 Si02
#       7
#     8   8   8   8   8   8   8
#     4  11  23  39  59  85 116 151 192 238 287 341
#     4   9  18  37  64  87 108 144 195 241 283 340
#     4  10  22  40  62  84 112 155 198 234 280 345
#     4  11  22  36  58  86 115 151 193 238 287 340
#     4  11  23  36  55  86 122 153 187 238 295 342
#     4  10  20  36  56  80 114 155 196 232 272 337
#     4  10  21  37  58  86 116 147 190 240 288 338
#
# _framework density 20.110120999999999
#
# number of rings (size 3 to 8) (size 9 to 14) (size 15 to 20)
#    0.000    1.714    1.429    3.000    0.000    9.429 
#    0.000    0.714    0.000    1.714    0.000    0.000 
#    0.000    0.000    0.000    0.000    0.000    0.000 
#
# Total GULP energy -156500.605808 kJ/mol
# GULP energy per Si atom -5589.307350 kJ/mol
# Density = 2.006435 g / cm^3
# Si number density = 20.110121 Si / 1000 Ang^3
#
#
#
# Elastic Constant Matrix: (Units=GPa)
#
#
# Indices 1 2 3 4 5 6 
#
# 1 154.7610 14.1687 67.2967 0.0000 3.8014 0.0000
# 2 14.1687 11.3576 18.7073 -0.0001 1.3489 0.0000
# 3 67.2967 18.7073 119.5758 0.0000 8.6110 0.0000
# 4 0.0000 -0.0001 0.0000 11.8381 0.0000 -4.6607
# 5 3.8014 1.3489 8.6110 0.0000 32.2303 0.0000
# 6 0.0000 0.0000 0.0000 -4.6607 0.0000 32.0884
#
#
#
# Elastic Compliance Matrix: (Units=1/GPa)
#
#
# Indices 1 2 3 4 5 6 
#
# 1 0.008675 -0.003745 -0.004317 0.000000 0.000287 0.000000
# 2 -0.003745 0.120228 -0.016692 0.000001 -0.000130 0.000000
# 3 -0.004317 -0.016692 0.013578 0.000000 -0.002420 0.000000
# 4 0.000000 0.000001 0.000000 0.089597 0.000000 0.013014
# 5 0.000287 -0.000130 -0.002420 0.000000 0.031645 0.000000
# 6 0.000000 0.000000 0.000000 0.013014 0.000000 0.033054
#
#
# Mechanical properties :
#
#
# Convention : Reuss Voigt Hill
#
# Bulk Modulus (GPa) = 10.75591 54.00443 32.38017
# Shear Modulus (GPa) = 13.25292 27.59949 20.42621
#
# Velocity S-wave (km/s) = 2.56992 3.70863 3.19049
# Velocity P-wave (km/s) = 3.76379 6.72691 5.45057
#
# Compressibility (1/GPa) = 0.09297216
#
# Stress axis : x y z
#
# Youngs Moduli (GPa) = 115.28036 8.31752 73.64859
#
# Poissons Ratio (x) = 0.03115 0.31792
# Poissons Ratio (y) = 0.43178 1.22935
# Poissons Ratio (z) = 0.49763 0.13884
#
# Static dielectric constant tensor:
#      x y z
#    x 1.710940 0.000000 0.014330 
#    y 0.000000 1.692650 0.000000 
#    z 0.014330 0.000000 1.695050 
# 
# From -- ./inp_files/238421.got.cif
#   From: 2010.05.17/outbox.cif.g08.bks.cpg/sg12_120_cif.got.tgz:238421.got - 2010.06.03 13:09:07.
