data_PCOD9198169
_publ_section_title
;
Structure prediction by ZEFSAII (Michael W. Deem and Ramdas Pophale) SiO2 
 PCOD9198169
Probable space group: C 2/M
;
_chemical_formula_sum "Si O2"
_cell_formula_units_Z 64
_cell_length_a 26.520427
_cell_length_b 15.369139
_cell_length_c 12.456470
_cell_angle_alpha 90.000000
_cell_angle_beta 136.112296
_cell_angle_gamma 90.000000
_cell_volume 3519.760778
_symmetry_space_group_name_H-M "C 2/M"
_symmetry_group_IT_number 12
_symmetry_cell_setting 'monoclinic'
loop_
_space_group_symop_operation_xyz
x,y,z
-x,y,-z
-x,-y,-z
x,-y,z
1/2+x,1/2+y,z
1/2-x,1/2+y,-z
1/2-x,1/2-y,-z
1/2+x,1/2-y,z
loop_
_atom_site_type_symbol
_atom_site_label
_atom_site_fract_x
_atom_site_fract_y
_atom_site_fract_z
Si Si1 0.286079 0.398139 0.115077
Si Si2 0.834806 0.395375 0.894771
Si Si3 0.064028 0.257858 0.856094
Si Si4 0.780218 0.403692 0.414909
Si Si5 0.081366 0.773511 0.640435
Si Si6 0.676792 0.604716 0.065698
Si Si7 0.732035 0.335235 0.544935
Si Si8 0.603266 0.765490 0.436722
O O1 0.299960 0.500000 0.151408
O O2 0.217834 0.376103 0.084146
O O3 0.356627 0.345333 0.257965
O O4 0.278361 0.382584 0.976047
O O5 0.846546 0.500000 0.906156
O O6 0.791891 0.360796 0.724675
O O7 0.905072 0.336734 0.025696
O O8 0.080310 0.274016 0.753863
O O9 0.977146 0.251126 0.731825
O O10 0.107029 0.168361 0.950890
O O11 0.799837 0.500000 0.409788
O O12 0.727385 0.366337 0.241946
O O13 0.735054 0.405566 0.455724
O O14 0.853277 0.348489 0.540564
O O15 0.096931 0.721563 0.555385
O O16 0.000000 0.811157 0.500000
O O17 0.660123 0.500000 0.049330
O O18 0.750000 0.250000 0.500000
O O19 0.656505 0.314770 0.488520
#
# Coordination Sequence:
#
# PCOD9198169 Si02
#       8
#     8   8   8   8   8   8   8   8
#     4   9  18  31  52  82 111 146 187 231 286 341
#     4  11  22  36  56  85 119 151 191 236 283 340
#     4  10  21  35  56  83 119 153 181 229 291 349
#     4  10  21  37  59  80 107 145 192 239 275 330
#     4   9  18  32  52  81 114 148 185 226 285 345
#     4   9  19  36  57  82 111 146 193 238 283 337
#     4  10  20  38  60  79 105 143 195 238 277 327
#     4  10  20  36  56  82 111 149 189 230 287 342
#
# _framework density 18.183055
#
# number of rings (size 3 to 8) (size 9 to 14) (size 15 to 20)
#    0.000    2.250    1.250    1.875    1.750    1.750 
#    0.000    8.750    0.000    7.500    0.000    0.000 
#    0.000    0.000    0.000    0.000    0.000    0.000 
#
# Total GULP energy -178209.563936 kJ/mol
# GULP energy per Si atom -5569.048873 kJ/mol
# Density = 1.814167 g / cm^3
# Si number density = 18.183055 Si / 1000 Ang^3
#
#
#
# Elastic Constant Matrix: (Units=GPa)
#
#
# Indices 1 2 3 4 5 6 
#
# 1 64.2901 25.4105 42.1480 0.0000 3.1823 0.0000
# 2 25.4105 49.0936 34.2804 0.0000 -0.1946 0.0000
# 3 42.1480 34.2804 113.7508 0.0000 -5.0329 0.0000
# 4 0.0000 0.0000 0.0000 500.8467 0.0000 132.0774
# 5 3.1823 -0.1946 -5.0329 0.0000 21.1940 0.0000
# 6 0.0000 0.0000 0.0000 132.0774 0.0000 55.4392
#
#
#
# Elastic Compliance Matrix: (Units=1/GPa)
#
#
# Indices 1 2 3 4 5 6 
#
# 1 0.022994 -0.007366 -0.006525 0.000000 -0.005070 0.000000
# 2 -0.007366 0.028213 -0.005773 0.000000 -0.000006 0.000000
# 3 -0.006525 -0.005773 0.013127 0.000000 0.004044 0.000000
# 4 0.000000 0.000000 0.000000 0.005371 0.000000 -0.012796
# 5 -0.005070 -0.000006 0.004044 0.000000 0.048905 0.000000
# 6 0.000000 0.000000 0.000000 -0.012796 0.000000 0.048522
#
#
# Mechanical properties :
#
#
# Convention : Reuss Voigt Hill
#
# Bulk Modulus (GPa) = 39.98848 47.86803 43.92826
# Shear Modulus (GPa) = 23.27797 123.84903 73.56350
#
# Velocity S-wave (km/s) = 3.58187 8.26197 6.36750
# Velocity P-wave (km/s) = 6.25670 10.83496 8.84711
#
# Compressibility (1/GPa) = 0.02500720
#
# Stress axis : x y z
#
# Youngs Moduli (GPa) = 43.48929 35.44452 76.17601
#
# Poissons Ratio (x) = 0.26108 0.49701
# Poissons Ratio (y) = 0.32034 0.43980
# Poissons Ratio (z) = 0.28375 0.20464
#
# Static dielectric constant tensor:
#      x y z
#    x 1.647090 0.000000 -0.028280 
#    y 0.000000 1.695050 0.000000 
#    z -0.028280 0.000000 1.635900 
# 
# From -- ./inp_files/183808.got.cif
#   From: 2010.05.17/outbox.cif.g08.bks.cpg/sg12_92_cif.got.tgz:183808.got - 2010.06.03 13:09:07.
