data_PCOD9198862
_publ_section_title
;
Structure prediction by ZEFSAII (Michael W. Deem and Ramdas Pophale) SiO2 
 PCOD9198862
Probable space group: C 2/M
;
_chemical_formula_sum "Si O2"
_cell_formula_units_Z 56
_cell_length_a 22.347752
_cell_length_b 8.571300
_cell_length_c 28.948121
_cell_angle_alpha 90.000000
_cell_angle_beta 149.306541
_cell_angle_gamma 90.000000
_cell_volume 2830.412031
_symmetry_space_group_name_H-M "C 2/M"
_symmetry_group_IT_number 12
_symmetry_cell_setting 'monoclinic'
loop_
_space_group_symop_operation_xyz
x,y,z
-x,y,-z
-x,-y,-z
x,-y,z
1/2+x,1/2+y,z
1/2-x,1/2+y,-z
1/2-x,1/2-y,-z
1/2+x,1/2-y,z
loop_
_atom_site_type_symbol
_atom_site_label
_atom_site_fract_x
_atom_site_fract_y
_atom_site_fract_z
Si Si1 0.601605 0.684330 0.707916
Si Si2 0.771035 0.813657 0.745580
Si Si3 0.022424 0.313586 0.922448
Si Si4 0.255893 0.186356 0.111211
Si Si5 0.306891 0.312490 0.663204
Si Si6 0.941388 0.687444 0.159454
Si Si7 0.158626 0.312365 0.476870
O O1 0.604825 0.500000 0.717872
O O2 0.670036 0.729156 0.706744
O O3 0.670268 0.768823 0.794895
O O4 0.468677 0.742252 0.616530
O O5 0.773363 0.766508 0.693133
O O6 0.898194 0.766209 0.849913
O O7 0.755775 0.000000 0.738421
O O8 0.007354 0.500000 0.912858
O O9 0.058774 0.262754 0.894248
O O10 0.128526 0.263817 0.025476
O O11 0.332444 0.242284 0.117785
O O12 0.242443 0.000000 0.099650
O O13 0.317627 0.500000 0.669716
O O14 0.434995 0.243581 0.737687
O O15 0.211283 0.267456 0.561847
O O16 0.939927 0.500000 0.159168
O O17 0.152081 0.500000 0.470197
O O18 0.250000 0.250000 0.500000
#
# Coordination Sequence:
#
# PCOD9198862 Si02
#       7
#     8   8   8   8   8   8   8
#     4  12  26  42  59  84 116 153 194 242 291 341
#     4  10  21  41  63  85 113 150 194 240 286 341
#     4  10  20  36  58  87 119 152 189 237 289 343
#     4  11  22  37  57  84 116 156 198 239 287 343
#     4   9  20  37  61  87 115 151 191 235 287 340
#     4   9  19  34  56  86 120 152 189 235 286 341
#     4  11  23  41  63  91 122 154 190 233 284 342
#
# _framework density 19.785104
#
# number of rings (size 3 to 8) (size 9 to 14) (size 15 to 20)
#    0.000    1.714    0.000    4.286    0.000    6.857 
#    0.000    5.714    0.000    0.000    0.000    0.000 
#    0.000    0.000    0.000    0.000    0.000    0.000 
#
# Total GULP energy -156542.806357 kJ/mol
# GULP energy per Si atom -5590.814513 kJ/mol
# Density = 1.974007 g / cm^3
# Si number density = 19.785104 Si / 1000 Ang^3
#
#
#
# Elastic Constant Matrix: (Units=GPa)
#
#
# Indices 1 2 3 4 5 6 
#
# 1 51.6591 -2.6969 30.3902 0.0000 26.3236 0.0000
# 2 -2.6969 22.8864 -0.9106 0.0000 6.1242 0.0001
# 3 30.3902 -0.9106 115.9856 -0.0001 -0.0018 0.0001
# 4 0.0000 0.0000 -0.0001 34.0900 0.0000 4.4555
# 5 26.3236 6.1242 -0.0018 0.0000 21.8846 0.0000
# 6 0.0000 0.0001 0.0001 4.4555 0.0000 25.5024
#
#
#
# Elastic Compliance Matrix: (Units=1/GPa)
#
#
# Indices 1 2 3 4 5 6 
#
# 1 0.133839 0.062126 -0.034583 0.000000 -0.178374 0.000000
# 2 0.062126 0.076085 -0.015682 0.000000 -0.096020 0.000000
# 3 -0.034583 -0.015682 0.017561 0.000000 0.045988 0.000000
# 4 0.000000 0.000000 0.000000 0.030020 0.000000 -0.005245
# 5 -0.178374 -0.096020 0.045988 0.000000 0.287123 0.000000
# 6 0.000000 0.000000 0.000000 -0.005245 0.000000 0.040128
#
#
# Mechanical properties :
#
#
# Convention : Reuss Voigt Hill
#
# Bulk Modulus (GPa) = 3.98080 27.12186 15.55133
# Shear Modulus (GPa) = 7.75471 27.21195 17.48333
#
# Velocity S-wave (km/s) = 1.98191 3.71263 2.97587
# Velocity P-wave (km/s) = 2.69327 5.66711 4.43677
#
# Compressibility (1/GPa) = 0.25120577
#
# Stress axis : x y z
#
# Youngs Moduli (GPa) = 7.47169 13.14321 56.94524
#
# Poissons Ratio (x) = -0.81654 1.96934
# Poissons Ratio (y) = -0.46419 0.89303
# Poissons Ratio (z) = 0.25839 0.20612
#
# Static dielectric constant tensor:
#      x y z
#    x 1.705260 0.000000 -0.022830 
#    y 0.000000 1.664060 0.000000 
#    z -0.022830 0.000000 1.667080 
# 
# From -- ./inp_files/380764.got.cif
#   From: 2010.05.17/outbox.cif.g08.bks.cpg/sg12_191_cif.got.tgz:380764.got - 2010.06.03 13:09:07.
