data_PCOD9198003
_publ_section_title
;
Structure prediction by ZEFSAII (Michael W. Deem and Ramdas Pophale) SiO2 
 PCOD9198003
Probable space group: C 2/M
;
_chemical_formula_sum "Si O2"
_cell_formula_units_Z 64
_cell_length_a 28.982184
_cell_length_b 14.008083
_cell_length_c 20.322910
_cell_angle_alpha 90.000000
_cell_angle_beta 23.058618
_cell_angle_gamma 90.000000
_cell_volume 3231.610269
_symmetry_space_group_name_H-M "C 2/M"
_symmetry_group_IT_number 12
_symmetry_cell_setting 'monoclinic'
loop_
_space_group_symop_operation_xyz
x,y,z
-x,y,-z
-x,-y,-z
x,-y,z
1/2+x,1/2+y,z
1/2-x,1/2+y,-z
1/2-x,1/2-y,-z
1/2+x,1/2-y,z
loop_
_atom_site_type_symbol
_atom_site_label
_atom_site_fract_x
_atom_site_fract_y
_atom_site_fract_z
Si Si1 0.503769 0.114647 0.710026
Si Si2 0.139622 0.114120 0.140986
Si Si3 0.403284 0.606735 0.380218
Si Si4 0.529416 0.391387 0.856405
Si Si5 0.276496 0.692723 0.208481
Si Si6 0.968396 0.609136 0.472562
Si Si7 0.256077 0.222729 0.603188
Si Si8 0.284616 0.776028 0.054660
O O1 0.483801 0.145455 0.659775
O O2 0.636640 0.148608 0.549892
O O3 0.493743 0.000000 0.727934
O O4 0.407832 0.168482 0.879774
O O5 0.186322 0.159030 0.147711
O O6 0.000762 0.128708 0.308025
O O7 0.162986 0.000000 0.106428
O O8 0.205638 0.175581 0.997740
O O9 0.358700 0.500000 0.448783
O O10 0.472566 0.609129 0.220329
O O11 0.298429 0.681267 0.513171
O O12 0.552285 0.500000 0.848150
O O13 0.634747 0.323257 0.740133
O O14 0.403829 0.355273 0.045206
O O15 0.172717 0.614590 0.344344
O O16 0.253585 0.746712 0.306706
O O17 0.268126 0.754014 0.152921
O O18 0.010345 0.500000 0.420453
O O19 0.000000 0.658317 0.500000
#
# Coordination Sequence:
#
# PCOD9198003 Si02
#       8
#     8   8   8   8   8   8   8   8
#     4  10  20  36  55  82 118 154 194 243 291 349
#     4  10  21  37  60  87 117 155 202 247 291 345
#     4  10  21  40  64  88 116 156 207 251 290 350
#     4  11  22  38  63  91 119 154 199 249 302 358
#     4  11  23  36  56  85 124 157 195 242 293 356
#     4   9  20  33  51  80 113 149 187 234 295 354
#     4  11  22  39  59  86 120 158 197 245 303 352
#     4  11  22  36  59  88 118 160 199 244 294 352
#
# _framework density 19.804368
#
# number of rings (size 3 to 8) (size 9 to 14) (size 15 to 20)
#    0.000    1.625    2.500    1.875    3.500    2.500 
#    0.000    1.250    0.000    3.750    0.000    0.000 
#    0.000    0.000    0.000    0.000    0.000    0.000 
#
# Total GULP energy -178658.078570 kJ/mol
# GULP energy per Si atom -5583.064955 kJ/mol
# Density = 1.975929 g / cm^3
# Si number density = 19.804368 Si / 1000 Ang^3
#
#
#
# Elastic Constant Matrix: (Units=GPa)
#
#
# Indices 1 2 3 4 5 6 
#
# 1 53.2127 13.9990 12.8943 0.0000 -0.4623 0.0000
# 2 13.9990 102.2790 27.1153 0.0000 -1.2058 0.0000
# 3 12.8943 27.1153 78.3308 0.0000 -5.8220 0.0000
# 4 0.0000 0.0000 0.0000 16.7546 0.0000 -4.4060
# 5 -0.4623 -1.2058 -5.8220 0.0000 38.4237 0.0000
# 6 0.0000 0.0000 0.0000 -4.4060 0.0000 21.5500
#
#
#
# Elastic Compliance Matrix: (Units=1/GPa)
#
#
# Indices 1 2 3 4 5 6 
#
# 1 0.019957 -0.002047 -0.002593 0.000000 -0.000217 0.000000
# 2 -0.002047 0.010977 -0.003478 0.000000 -0.000207 0.000000
# 3 -0.002593 -0.003478 0.014551 0.000000 0.002064 0.000000
# 4 0.000000 0.000000 0.000000 0.063076 0.000000 0.012896
# 5 -0.000217 -0.000207 0.002064 0.000000 0.026329 0.000000
# 6 0.000000 0.000000 0.000000 0.012896 0.000000 0.049040
#
#
# Mechanical properties :
#
#
# Convention : Reuss Voigt Hill
#
# Bulk Modulus (GPa) = 34.18892 37.98216 36.08554
# Shear Modulus (GPa) = 23.81897 27.33327 25.57612
#
# Velocity S-wave (km/s) = 3.47178 3.71909 3.59756
# Velocity P-wave (km/s) = 5.77683 6.13697 5.95962
#
# Compressibility (1/GPa) = 0.02924924
#
# Stress axis : x y z
#
# Youngs Moduli (GPa) = 50.10682 91.09942 68.72524
#
# Poissons Ratio (x) = 0.18646 0.17819
# Poissons Ratio (y) = 0.10256 0.23905
# Poissons Ratio (z) = 0.12992 0.31687
#
# Static dielectric constant tensor:
#      x y z
#    x 1.745350 0.000000 -0.013520 
#    y 0.000000 1.693680 0.000000 
#    z -0.013520 0.000000 1.683030 
# 
# From -- ./inp_files/330371.got.cif
#   From: 2010.05.17/outbox.cif.g08.bks.cpg/sg12_166_cif.got.tgz:330371.got - 2010.06.03 13:09:07.
