data_PCOD9198391
_publ_section_title
;
Structure prediction by ZEFSAII (Michael W. Deem and Ramdas Pophale) SiO2 
 PCOD9198391
Probable space group: C 2/M
;
_chemical_formula_sum "Si O2"
_cell_formula_units_Z 56
_cell_length_a 36.218641
_cell_length_b 12.999060
_cell_length_c 9.579423
_cell_angle_alpha 90.000000
_cell_angle_beta 136.884981
_cell_angle_gamma 90.000000
_cell_volume 3082.476849
_symmetry_space_group_name_H-M "C 2/M"
_symmetry_group_IT_number 12
_symmetry_cell_setting 'monoclinic'
loop_
_space_group_symop_operation_xyz
x,y,z
-x,y,-z
-x,-y,-z
x,-y,z
1/2+x,1/2+y,z
1/2-x,1/2+y,-z
1/2-x,1/2-y,-z
1/2+x,1/2-y,z
loop_
_atom_site_type_symbol
_atom_site_label
_atom_site_fract_x
_atom_site_fract_y
_atom_site_fract_z
Si Si1 0.255098 0.883323 0.158645
Si Si2 0.637373 0.118743 0.369523
Si Si3 0.524316 0.296411 0.719023
Si Si4 0.110484 0.383135 0.973973
Si Si5 0.546861 0.500000 0.928161
Si Si6 0.176824 0.697646 0.907845
Si Si7 0.088618 0.774458 0.446015
Si Si8 0.579772 0.500000 0.330701
O O1 0.302382 0.867450 0.403181
O O2 0.284163 0.864753 0.089140
O O3 0.235211 0.000000 0.113405
O O4 0.209048 0.798611 0.045042
O O5 0.600126 0.200917 0.346325
O O6 0.621711 0.000000 0.360016
O O7 0.633516 0.131596 0.193345
O O8 0.500000 0.320384 0.500000
O O9 0.563626 0.199593 0.820484
O O10 0.554936 0.396396 0.862800
O O11 0.473632 0.272520 0.679698
O O12 0.089983 0.500000 0.906946
O O13 0.155494 0.364819 0.980605
O O14 0.483125 0.500000 0.794362
O O15 0.579482 0.500000 0.162206
O O16 0.125920 0.732882 0.673712
O O17 0.103491 0.892888 0.452225
#
# Coordination Sequence:
#
# PCOD9198391 Si02
#       8
#     8   8   8   8   4   8   8   4
#     4   9  19  37  60  82 109 145 188 232 284 343
#     4   9  20  38  59  83 113 150 190 236 283 334
#     4  11  21  37  54  85 116 155 192 233 280 335
#     4  11  23  38  57  84 117 150 190 236 284 337
#     4   9  19  34  54  74 113 152 191 224 281 322
#     4  10  20  36  57  86 111 149 182 235 287 334
#     4  10  20  36  57  82 116 151 192 230 276 337
#     4   9  18  32  54  80 106 153 188 233 266 327
#
# _framework density 18.167207999999999
#
# number of rings (size 3 to 8) (size 9 to 14) (size 15 to 20)
#    0.000    2.143    1.429    1.500    1.000    3.714 
#    1.286    1.429    0.000    0.000    0.000    0.000 
#    0.000    0.000    0.000    0.000    0.000    0.000 
#
# Total GULP energy -156267.092920 kJ/mol
# GULP energy per Si atom -5580.967604 kJ/mol
# Density = 1.812586 g / cm^3
# Si number density = 18.167208 Si / 1000 Ang^3
#
#
#
# Elastic Constant Matrix: (Units=GPa)
#
#
# Indices 1 2 3 4 5 6 
#
# 1 47.8026 29.8392 17.0579 0.0000 -13.8710 0.0000
# 2 29.8392 87.4832 14.8242 0.0000 -13.1415 0.0000
# 3 17.0579 14.8242 29.4582 0.0000 -23.4530 0.0000
# 4 0.0000 0.0000 0.0000 21.7527 0.0000 -0.1654
# 5 -13.8710 -13.1415 -23.4530 0.0000 25.9068 0.0000
# 6 0.0000 0.0000 0.0000 -0.1654 0.0000 24.9904
#
#
#
# Elastic Compliance Matrix: (Units=1/GPa)
#
#
# Indices 1 2 3 4 5 6 
#
# 1 0.030980 -0.008233 -0.014019 0.000000 -0.000281 0.000000
# 2 -0.008233 0.014723 -0.000735 0.000000 0.002395 0.000000
# 3 -0.014019 -0.000735 0.129489 0.000000 0.109345 0.000000
# 4 0.000000 0.000000 0.000000 0.045974 0.000000 0.000304
# 5 -0.000281 0.002395 0.109345 0.000000 0.138652 0.000000
# 6 0.000000 0.000000 0.000000 0.000304 0.000000 0.040017
#
#
# Mechanical properties :
#
#
# Convention : Reuss Voigt Hill
#
# Bulk Modulus (GPa) = 7.73893 32.02074 19.87984
# Shear Modulus (GPa) = 10.22740 21.39816 15.81278
#
# Velocity S-wave (km/s) = 2.37525 3.43570 2.95346
# Velocity P-wave (km/s) = 3.43388 5.77949 4.75363
#
# Compressibility (1/GPa) = 0.12921675
#
# Stress axis : x y z
#
# Youngs Moduli (GPa) = 32.27885 67.91933 7.72269
#
# Poissons Ratio (x) = 0.55921 0.10827
# Poissons Ratio (y) = 0.26576 0.00567
# Poissons Ratio (z) = 0.45253 0.04991
#
# Static dielectric constant tensor:
#      x y z
#    x 1.610660 0.000000 -0.010780 
#    y 0.000000 1.618110 0.000000 
#    z -0.010780 0.000000 1.608380 
# 
# From -- ./inp_files/110587.got.cif
#   From: 2010.05.17/outbox.cif.g08.bks.cpg/sg12_56_cif.got.tgz:110587.got - 2010.06.03 13:09:07.
