data_PCOD9198551
_publ_section_title
;
Structure prediction by ZEFSAII (Michael W. Deem and Ramdas Pophale) SiO2 
 PCOD9198551
Probable space group: C 2/M
;
_chemical_formula_sum "Si O2"
_cell_formula_units_Z 56
_cell_length_a 25.798081
_cell_length_b 8.883571
_cell_length_c 13.947854
_cell_angle_alpha 90.000000
_cell_angle_beta 74.615793
_cell_angle_gamma 90.000000
_cell_volume 3082.019205
_symmetry_space_group_name_H-M "C 2/M"
_symmetry_group_IT_number 12
_symmetry_cell_setting 'monoclinic'
loop_
_space_group_symop_operation_xyz
x,y,z
-x,y,-z
-x,-y,-z
x,-y,z
1/2+x,1/2+y,z
1/2-x,1/2+y,-z
1/2-x,1/2-y,-z
1/2+x,1/2-y,z
loop_
_atom_site_type_symbol
_atom_site_label
_atom_site_fract_x
_atom_site_fract_y
_atom_site_fract_z
Si Si1 0.872796 0.819201 0.727062
Si Si2 0.690803 0.179592 0.414533
Si Si3 0.584797 0.680566 0.003439
Si Si4 0.693427 0.679131 0.052938
Si Si5 0.528980 0.178949 0.215009
Si Si6 0.078117 0.819193 0.785783
Si Si7 0.312678 0.680578 0.374347
O O1 0.848706 0.759467 0.640212
O O2 0.831865 0.772511 0.832835
O O3 0.930282 0.750876 0.728061
O O4 0.876521 0.000000 0.725615
O O5 0.681381 0.236161 0.527242
O O6 0.753584 0.217037 0.361956
O O7 0.684361 0.000000 0.411825
O O8 0.575974 0.500000 0.019360
O O9 0.572628 0.722066 0.900455
O O10 0.647153 0.711299 0.997537
O O11 0.550543 0.764517 0.100742
O O12 0.699997 0.500000 0.053512
O O13 0.750000 0.750000 0.000000
O O14 0.468411 0.239349 0.251507
O O15 0.530969 0.000000 0.219612
O O16 0.137541 0.782232 0.718520
O O17 0.071333 0.000000 0.782615
O O18 0.313311 0.500000 0.390873
#
# Coordination Sequence:
#
# PCOD9198551 Si02
#       7
#     8   8   8   8   8   8   8
#     4  10  21  38  58  78 106 148 187 220 271 335
#     4  10  20  36  60  86 113 142 178 228 278 323
#     4   9  19  35  54  76 108 150 189 221 265 326
#     4   9  19  32  49  76 109 142 179 222 265 317
#     4  11  22  36  54  81 113 144 183 233 278 321
#     4  10  20  36  58  80 108 149 190 225 266 325
#     4   9  20  37  58  84 113 146 182 221 271 332
#
# _framework density 18.169906000000001
#
# number of rings (size 3 to 8) (size 9 to 14) (size 15 to 20)
#    0.000    2.286    0.000    3.429    2.000    6.286 
#    0.000    0.714    0.000    4.286    0.000    0.000 
#    0.000    0.000    0.000    0.000    0.000    0.000 
#
# Total GULP energy -156300.645853 kJ/mol
# GULP energy per Si atom -5582.165923 kJ/mol
# Density = 1.812855 g / cm^3
# Si number density = 18.169906 Si / 1000 Ang^3
#
#
#
# Elastic Constant Matrix: (Units=GPa)
#
#
# Indices 1 2 3 4 5 6 
#
# 1 81.7727 35.2440 37.1293 0.0000 13.0325 0.0000
# 2 35.2440 44.6909 28.1276 0.0000 9.0190 0.0000
# 3 37.1293 28.1276 50.8339 0.0000 23.0688 0.0000
# 4 0.0000 0.0000 0.0000 24.6223 0.0000 -1.5651
# 5 13.0325 9.0190 23.0688 0.0000 26.8073 0.0000
# 6 0.0000 0.0000 0.0000 -1.5651 0.0000 28.7770
#
#
#
# Elastic Compliance Matrix: (Units=1/GPa)
#
#
# Indices 1 2 3 4 5 6 
#
# 1 0.021276 -0.010405 -0.010956 0.000000 0.002585 0.000000
# 2 -0.010405 0.040463 -0.017896 0.000000 0.006845 0.000000
# 3 -0.010956 -0.017896 0.053204 0.000000 -0.034437 0.000000
# 4 0.000000 0.000000 0.000000 0.040755 0.000000 0.002217
# 5 0.002585 0.006845 -0.034437 0.000000 0.063378 0.000000
# 6 0.000000 0.000000 0.000000 0.002217 0.000000 0.034871
#
#
# Mechanical properties :
#
#
# Convention : Reuss Voigt Hill
#
# Bulk Modulus (GPa) = 27.44989 42.03325 34.74157
# Shear Modulus (GPa) = 14.50940 21.16108 17.83524
#
# Velocity S-wave (km/s) = 2.82891 3.41636 3.13642
# Velocity P-wave (km/s) = 5.08040 6.22460 5.68138
#
# Compressibility (1/GPa) = 0.03643001
#
# Stress axis : x y z
#
# Youngs Moduli (GPa) = 47.00085 24.71376 18.79544
#
# Poissons Ratio (x) = 0.25714 0.20593
# Poissons Ratio (y) = 0.48904 0.33636
# Poissons Ratio (z) = 0.51495 0.44227
#
# Static dielectric constant tensor:
#      x y z
#    x 1.627580 0.000000 -0.001660 
#    y 0.000000 1.608640 0.000000 
#    z -0.001660 0.000000 1.605820 
# 
# From -- ./inp_files/230845.got.cif
#   From: 2010.05.17/outbox.cif.g08.bks.cpg/sg12_116_cif.got.tgz:230845.got - 2010.06.03 13:09:07.
