data_PCOD9198380
_publ_section_title
;
Structure prediction by ZEFSAII (Michael W. Deem and Ramdas Pophale) SiO2 
 PCOD9198380
Probable space group: C 2/M
;
_chemical_formula_sum "Si O2"
_cell_formula_units_Z 52
_cell_length_a 20.303067
_cell_length_b 13.098653
_cell_length_c 11.690359
_cell_angle_alpha 90.000000
_cell_angle_beta 119.763171
_cell_angle_gamma 90.000000
_cell_volume 2698.846886
_symmetry_space_group_name_H-M "C 2/M"
_symmetry_group_IT_number 12
_symmetry_cell_setting 'monoclinic'
loop_
_space_group_symop_operation_xyz
x,y,z
-x,y,-z
-x,-y,-z
x,-y,z
1/2+x,1/2+y,z
1/2-x,1/2+y,-z
1/2-x,1/2-y,-z
1/2+x,1/2-y,z
loop_
_atom_site_type_symbol
_atom_site_label
_atom_site_fract_x
_atom_site_fract_y
_atom_site_fract_z
Si Si1 0.892761 0.264828 0.208643
Si Si2 0.910186 0.383958 0.446255
Si Si3 0.790719 0.116089 0.234501
Si Si4 0.829919 0.783561 0.512984
Si Si5 0.975807 0.880101 0.737273
Si Si6 0.613118 0.118248 0.035372
Si Si7 0.500000 0.281921 0.000000
O O1 0.877672 0.339762 0.300841
O O2 0.826072 0.182254 0.162250
O O3 0.969030 0.195876 0.287090
O O4 0.896220 0.333447 0.098994
O O5 0.888827 0.500000 0.447329
O O6 0.878593 0.316270 0.521412
O O7 0.000000 0.378411 0.500000
O O8 0.814308 0.159459 0.378844
O O9 0.700509 0.118283 0.145596
O O10 0.817711 0.000000 0.248457
O O11 0.750000 0.750000 0.500000
O O12 0.887893 0.851423 0.637944
O O13 0.987956 0.000000 0.723962
O O14 0.999770 0.851848 0.887656
O O15 0.568841 0.201211 0.072793
O O16 0.586300 0.000000 0.016913
#
# Coordination Sequence:
#
# PCOD9198380 Si02
#       7
#     8   8   8   8   8   8   4
#     4  10  20  36  58  85 111 148 189 240 283 338
#     4  10  20  37  58  85 115 149 192 237 285 340
#     4  10  21  36  56  82 115 148 188 233 283 339
#     4  11  23  39  58  85 118 153 191 238 289 347
#     4  11  22  38  59  82 112 149 192 235 289 344
#     4  10  20  36  57  82 113 150 188 232 283 337
#     4  10  22  38  56  82 112 148 188 238 282 342
#
# _framework density 19.267486999999999
#
# number of rings (size 3 to 8) (size 9 to 14) (size 15 to 20)
#    0.000    1.692    1.538    3.231    0.000    1.231 
#    0.000    3.077    0.000   10.154    0.000    0.000 
#    0.000    0.000    0.000    0.000    0.000    0.000 
#
# Total GULP energy -144965.529939 kJ/mol
# GULP energy per Si atom -5575.597305 kJ/mol
# Density = 1.922363 g / cm^3
# Si number density = 19.267487 Si / 1000 Ang^3
#
#
#
# Elastic Constant Matrix: (Units=GPa)
#
#
# Indices 1 2 3 4 5 6 
#
# 1 60.3525 21.2474 -5.0704 0.0000 13.8842 0.0000
# 2 21.2474 131.8392 23.4372 0.0000 8.6691 0.0000
# 3 -5.0704 23.4372 31.4275 0.0000 11.1192 0.0000
# 4 0.0000 0.0000 0.0000 16.2939 0.0000 -0.3724
# 5 13.8842 8.6691 11.1192 0.0000 25.6680 0.0000
# 6 0.0000 0.0000 0.0000 -0.3724 0.0000 20.6711
#
#
#
# Elastic Compliance Matrix: (Units=1/GPa)
#
#
# Indices 1 2 3 4 5 6 
#
# 1 0.023329 -0.005051 0.013453 0.000000 -0.016741 0.000000
# 2 -0.005051 0.009838 -0.009380 0.000000 0.003473 0.000000
# 3 0.013453 -0.009380 0.050121 0.000000 -0.025821 0.000000
# 4 0.000000 0.000000 0.000000 0.061398 0.000000 0.001106
# 5 -0.016741 0.003473 -0.025821 0.000000 0.058027 0.000000
# 6 0.000000 0.000000 0.000000 0.001106 0.000000 0.048397
#
#
# Mechanical properties :
#
#
# Convention : Reuss Voigt Hill
#
# Bulk Modulus (GPa) = 12.29511 33.64971 22.97241
# Shear Modulus (GPa) = 17.84593 24.79359 21.31976
#
# Velocity S-wave (km/s) = 3.04669 3.59110 3.33004
# Velocity P-wave (km/s) = 4.33261 5.89043 5.17053
#
# Compressibility (1/GPa) = 0.08133313
#
# Stress axis : x y z
#
# Youngs Moduli (GPa) = 42.86503 101.64500 19.95178
#
# Poissons Ratio (x) = 0.51336 -0.26842
# Poissons Ratio (y) = 0.21649 0.18715
# Poissons Ratio (z) = -0.57668 0.95347
#
# Static dielectric constant tensor:
#      x y z
#    x 1.699890 0.000000 0.013220 
#    y 0.000000 1.656460 0.000000 
#    z 0.013220 0.000000 1.665660 
# 
# From -- ./inp_files/165523.got.cif
#   From: 2010.05.17/outbox.cif.g08.bks.cpg/sg12_83_cif.got.tgz:165523.got - 2010.06.03 13:09:07.
