data_PCOD9198718
_publ_section_title
;
Structure prediction by ZEFSAII (Michael W. Deem and Ramdas Pophale) SiO2 
 PCOD9198718
Probable space group: C 2/M
;
_chemical_formula_sum "Si O2"
_cell_formula_units_Z 64
_cell_length_a 26.038255
_cell_length_b 18.553414
_cell_length_c 19.488835
_cell_angle_alpha 90.000000
_cell_angle_beta 162.434415
_cell_angle_gamma 90.000000
_cell_volume 2841.429837
_symmetry_space_group_name_H-M "C 2/M"
_symmetry_group_IT_number 12
_symmetry_cell_setting 'monoclinic'
loop_
_space_group_symop_operation_xyz
x,y,z
-x,y,-z
-x,-y,-z
x,-y,z
1/2+x,1/2+y,z
1/2-x,1/2+y,-z
1/2-x,1/2-y,-z
1/2+x,1/2-y,z
loop_
_atom_site_type_symbol
_atom_site_label
_atom_site_fract_x
_atom_site_fract_y
_atom_site_fract_z
Si Si1 0.737955 0.320063 0.655412
Si Si2 0.228981 0.085147 0.143825
Si Si3 0.409563 0.663445 0.744677
Si Si4 0.354099 0.684390 0.165130
Si Si5 0.188411 0.129256 0.745613
Si Si6 0.441000 0.834790 0.783262
Si Si7 0.906054 0.414715 0.230905
Si Si8 0.755567 0.847885 0.686131
O O1 0.545634 0.318234 0.381690
O O2 0.724584 0.355059 0.712329
O O3 0.869945 0.351506 0.769091
O O4 0.780036 0.237085 0.722410
O O5 0.365692 0.101868 0.259447
O O6 0.247419 0.119296 0.242088
O O7 0.227134 0.000000 0.149690
O O8 0.050602 0.115111 0.888768
O O9 0.470973 0.747255 0.821547
O O10 0.224476 0.657643 0.475283
O O11 0.387492 0.632780 0.794117
O O12 0.357871 0.687338 0.253330
O O13 0.250000 0.750000 0.000000
O O14 0.254441 0.612158 0.017143
O O15 0.000000 0.089347 0.500000
O O16 0.391945 0.119195 0.024617
O O17 0.934804 0.500000 0.260527
O O18 0.070656 0.369125 0.421240
#
# Coordination Sequence:
#
# PCOD9198718 Si02
#       8
#     8   8   8   8   8   8   8   8
#     4  10  21  35  58  90 117 156 194 253 304 356
#     4  11  24  38  54  80 120 166 200 236 287 355
#     4  10  22  35  56  82 112 156 202 244 286 344
#     4  11  22  36  59  86 119 153 201 257 302 347
#     4  10  22  35  55  87 118 149 190 243 306 365
#     4  10  20  36  58  83 118 149 195 248 305 348
#     4  11  24  39  57  82 117 161 206 246 300 358
#     4  11  21  35  55  83 118 160 202 240 290 345
#
# _framework density 22.523869999999999
#
# number of rings (size 3 to 8) (size 9 to 14) (size 15 to 20)
#    0.000    1.500    1.250    3.750    7.000    5.500 
#    0.000    0.000    0.000    3.375    0.000    0.000 
#    0.000   15.000    0.000    0.000    0.000    0.000 
#
# Total GULP energy -178386.762699 kJ/mol
# GULP energy per Si atom -5574.586334 kJ/mol
# Density = 2.247260 g / cm^3
# Si number density = 22.523870 Si / 1000 Ang^3
#
#
#
# Elastic Constant Matrix: (Units=GPa)
#
#
# Indices 1 2 3 4 5 6 
#
# 1 117.1208 22.0869 13.1232 -0.0014 7.0606 0.0001
# 2 22.0869 13.2858 3.5087 0.0009 3.6952 -0.0003
# 3 13.1232 3.5087 122.4962 0.0000 17.2104 -0.0008
# 4 -0.0014 0.0009 0.0000 69.0129 0.0020 -2.2735
# 5 7.0606 3.6952 17.2104 0.0020 47.4099 -0.0011
# 6 0.0001 -0.0003 -0.0008 -2.2735 -0.0011 14.2280
#
#
#
# Elastic Compliance Matrix: (Units=1/GPa)
#
#
# Indices 1 2 3 4 5 6 
#
# 1 0.012505 -0.020595 -0.000752 0.000001 0.000016 -0.000001
# 2 -0.020595 0.111095 -0.000200 -0.000002 -0.005519 0.000002
# 3 -0.000752 -0.000200 0.008674 0.000000 -0.003021 0.000000
# 4 0.000001 -0.000002 0.000000 0.014567 -0.000001 0.002328
# 5 0.000016 -0.005519 -0.003021 -0.000001 0.022617 0.000001
# 6 -0.000001 0.000002 0.000000 0.002328 0.000001 0.070656
#
#
# Mechanical properties :
#
#
# Convention : Reuss Voigt Hill
#
# Bulk Modulus (GPa) = 11.21341 36.70449 23.95895
# Shear Modulus (GPa) = 15.97771 40.40909 28.19340
#
# Velocity S-wave (km/s) = 2.66629 4.24023 3.54179
# Velocity P-wave (km/s) = 3.80369 6.34853 5.23316
#
# Compressibility (1/GPa) = 0.08917896
#
# Stress axis : x y z
#
# Youngs Moduli (GPa) = 79.96523 9.00134 115.28302
#
# Poissons Ratio (x) = 0.18539 0.08670
# Poissons Ratio (y) = 1.64691 0.02309
# Poissons Ratio (z) = 0.06014 0.00180
#
# Static dielectric constant tensor:
#      x y z
#    x 1.894490 0.000000 -0.024130 
#    y 0.000000 1.775400 0.000000 
#    z -0.024130 0.000000 1.987090 
# 
# From -- ./inp_files/290933.got.cif
#   From: 2010.05.17/outbox.cif.g08.bks.cpg/sg12_146_cif.got.tgz:290933.got - 2010.06.03 13:09:07.
