data_PCOD9198555
_publ_section_title
;
Structure prediction by ZEFSAII (Michael W. Deem and Ramdas Pophale) SiO2 
 PCOD9198555
Probable space group: C 2/M
;
_chemical_formula_sum "Si O2"
_cell_formula_units_Z 56
_cell_length_a 16.298196
_cell_length_b 8.337912
_cell_length_c 19.905589
_cell_angle_alpha 90.000000
_cell_angle_beta 89.381369
_cell_angle_gamma 90.000000
_cell_volume 2704.871021
_symmetry_space_group_name_H-M "C 2/M"
_symmetry_group_IT_number 12
_symmetry_cell_setting 'monoclinic'
loop_
_space_group_symop_operation_xyz
x,y,z
-x,y,-z
-x,-y,-z
x,-y,z
1/2+x,1/2+y,z
1/2-x,1/2+y,-z
1/2-x,1/2-y,-z
1/2+x,1/2-y,z
loop_
_atom_site_type_symbol
_atom_site_label
_atom_site_fract_x
_atom_site_fract_y
_atom_site_fract_z
Si Si1 0.156691 0.196660 0.338555
Si Si2 0.998250 0.192512 0.423630
Si Si3 0.157613 0.313049 0.918868
Si Si4 0.839606 0.310574 0.933892
Si Si5 0.088282 0.190418 0.200252
Si Si6 0.164133 0.313964 0.646499
Si Si7 0.101758 0.184460 0.779440
O O1 0.146044 0.245745 0.260776
O O2 0.244034 0.249684 0.367256
O O3 0.077199 0.251113 0.380898
O O4 0.156703 0.000000 0.338142
O O5 0.912073 0.231609 0.389366
O O6 0.000000 0.253126 0.500000
O O7 0.005628 0.000000 0.425336
O O8 0.139252 0.500000 0.907641
O O9 0.255464 0.285569 0.922819
O O10 0.125338 0.215486 0.856061
O O11 0.125257 0.265442 0.993164
O O12 0.819845 0.500000 0.937841
O O13 0.896455 0.277711 0.869892
O O14 0.995364 0.212080 0.225681
O O15 0.101040 0.000000 0.189273
O O16 0.162226 0.500000 0.627916
O O17 0.148923 0.294587 0.726419
O O18 0.118938 0.000000 0.761301
#
# Coordination Sequence:
#
# PCOD9198555 Si02
#       7
#     8   8   8   8   8   8   8
#     4   9  19  38  60  86 120 159 198 239 299 358
#     4  10  21  41  66  89 121 163 202 242 293 360
#     4  10  21  37  55  78 113 153 193 247 308 355
#     4  10  21  36  55  80 111 149 199 249 296 362
#     4  10  20  36  58  80 113 155 196 246 302 361
#     4  11  22  37  62  91 123 160 198 248 303 357
#     4  11  22  37  59  85 114 152 202 250 294 360
#
# _framework density 20.703389000000001
#
# number of rings (size 3 to 8) (size 9 to 14) (size 15 to 20)
#    0.000    1.857    1.429    2.571    0.000    5.429 
#    0.000    5.000    0.000    0.000    0.000    0.000 
#    0.000    0.000    0.000    0.000    0.000    0.000 
#
# Total GULP energy -156383.481035 kJ/mol
# GULP energy per Si atom -5585.124323 kJ/mol
# Density = 2.065627 g / cm^3
# Si number density = 20.703389 Si / 1000 Ang^3
#
#
#
# Elastic Constant Matrix: (Units=GPa)
#
#
# Indices 1 2 3 4 5 6 
#
# 1 79.3396 7.9559 34.9175 0.0000 17.8306 0.0000
# 2 7.9559 4.2502 -1.2397 0.0000 -1.7926 0.0000
# 3 34.9175 -1.2397 100.6651 0.0000 10.7956 0.0000
# 4 0.0000 0.0000 0.0000 20.3872 0.0000 3.1671
# 5 17.8306 -1.7926 10.7956 0.0000 15.5023 0.0000
# 6 0.0000 0.0000 0.0000 3.1671 0.0000 23.9771
#
#
#
# Elastic Compliance Matrix: (Units=1/GPa)
#
#
# Indices 1 2 3 4 5 6 
#
# 1 0.034985 -0.086668 -0.008443 0.000000 -0.044382 0.000000
# 2 -0.086668 0.462049 0.020893 0.000000 0.138565 0.000000
# 3 -0.008443 0.020893 0.012773 0.000000 0.003232 0.000000
# 4 0.000000 0.000000 0.000000 0.050078 0.000000 -0.006615
# 5 -0.044382 0.138565 0.003232 0.000000 0.129326 0.000000
# 6 0.000000 0.000000 0.000000 -0.006615 0.000000 0.042580
#
#
# Mechanical properties :
#
#
# Convention : Reuss Voigt Hill
#
# Bulk Modulus (GPa) = 2.76725 29.72470 16.24597
# Shear Modulus (GPa) = 4.99658 21.48140 13.23899
#
# Velocity S-wave (km/s) = 1.55520 3.22464 2.53150
# Velocity P-wave (km/s) = 2.13644 5.31535 4.05076
#
# Compressibility (1/GPa) = 0.36137015
#
# Stress axis : x y z
#
# Youngs Moduli (GPa) = 28.58389 2.16427 78.28900
#
# Poissons Ratio (x) = 0.18757 0.66098
# Poissons Ratio (y) = 2.47732 -1.63566
# Poissons Ratio (z) = 0.24133 -0.04522
#
# Static dielectric constant tensor:
#      x y z
#    x 1.738900 0.000000 -0.004220 
#    y 0.000000 1.724740 0.000000 
#    z -0.004220 0.000000 1.737320 
# 
# From -- ./inp_files/309049.got.cif
#   From: 2010.05.17/outbox.cif.g08.bks.cpg/sg12_155_cif.got.tgz:309049.got - 2010.06.03 13:09:07.
