data_PCOD9198051
_publ_section_title
;
Structure prediction by ZEFSAII (Michael W. Deem and Ramdas Pophale) SiO2 
 PCOD9198051
Probable space group: C 2/M
;
_chemical_formula_sum "Si O2"
_cell_formula_units_Z 64
_cell_length_a 16.941058
_cell_length_b 9.193852
_cell_length_c 29.866952
_cell_angle_alpha 90.000000
_cell_angle_beta 46.802918
_cell_angle_gamma 90.000000
_cell_volume 3391.240177
_symmetry_space_group_name_H-M "C 2/M"
_symmetry_group_IT_number 12
_symmetry_cell_setting 'monoclinic'
loop_
_space_group_symop_operation_xyz
x,y,z
-x,y,-z
-x,-y,-z
x,-y,z
1/2+x,1/2+y,z
1/2-x,1/2+y,-z
1/2-x,1/2-y,-z
1/2+x,1/2-y,z
loop_
_atom_site_type_symbol
_atom_site_label
_atom_site_fract_x
_atom_site_fract_y
_atom_site_fract_z
Si Si1 0.026575 0.660741 0.548353
Si Si2 0.335169 0.332564 0.740626
Si Si3 0.736359 0.674440 0.937328
Si Si4 0.575043 0.174550 0.069820
Si Si5 0.455204 0.838603 0.352034
Si Si6 0.346272 0.325604 0.132415
Si Si7 0.751125 0.163514 0.407995
Si Si8 0.171156 0.162733 0.364166
O O1 0.979618 0.500000 0.554086
O O2 0.034682 0.655360 0.598438
O O3 0.139999 0.675321 0.479190
O O4 0.949124 0.797974 0.571660
O O5 0.326181 0.500000 0.758733
O O6 0.454049 0.267391 0.702880
O O7 0.245456 0.234464 0.798774
O O8 0.322187 0.329596 0.691755
O O9 0.720178 0.500000 0.950224
O O10 0.859107 0.704443 0.908649
O O11 0.699438 0.706108 0.900404
O O12 0.656842 0.765307 0.000223
O O13 0.459707 0.250497 0.103477
O O14 0.561527 0.000000 0.072163
O O15 0.336732 0.778136 0.391458
O O16 0.470343 0.000000 0.327604
O O17 0.358923 0.500000 0.130451
O O18 0.735981 0.208380 0.362412
O O19 0.791223 0.000000 0.397844
O O20 0.202498 0.000000 0.366054
#
# Coordination Sequence:
#
# PCOD9198051 Si02
#       8
#     8   8   8   8   8   8   8   8
#     4   9  19  34  53  77 106 138 173 220 276 337
#     4  10  22  41  59  77 105 143 188 235 279 331
#     4   9  20  38  59  88 126 161 193 236 290 344
#     4  10  20  36  60  91 125 159 195 240 288 339
#     4  10  20  36  56  77 105 141 179 223 278 334
#     4  11  22  38  61  87 117 159 202 241 291 348
#     4  11  21  33  52  80 109 137 175 223 277 336
#     4  10  21  36  54  76 104 140 179 226 280 334
#
# _framework density 18.872152
#
# number of rings (size 3 to 8) (size 9 to 14) (size 15 to 20)
#    0.000    2.000    0.000    3.375    0.000    7.500 
#    2.250    0.000    0.000    0.000    0.000    0.000 
#    0.000    0.000    0.000    0.000    0.000    0.000 
#
# Total GULP energy -178239.454262 kJ/mol
# GULP energy per Si atom -5569.982946 kJ/mol
# Density = 1.882920 g / cm^3
# Si number density = 18.872152 Si / 1000 Ang^3
#
#
#
# Elastic Constant Matrix: (Units=GPa)
#
#
# Indices 1 2 3 4 5 6 
#
# 1 80.2983 42.3545 36.3487 0.0003 0.7453 0.0005
# 2 42.3545 70.6538 33.3051 0.0001 0.3259 0.0006
# 3 36.3487 33.3051 72.5644 0.0001 -5.2078 0.0001
# 4 0.0003 0.0001 0.0001 14.4404 -0.0002 0.9824
# 5 0.7453 0.3259 -5.2078 -0.0002 -2.4008 -0.0001
# 6 0.0005 0.0006 0.0001 0.9824 -0.0001 29.4548
#
#
#
# Elastic Compliance Matrix: (Units=1/GPa)
#
#
# Indices 1 2 3 4 5 6 
#
# 1 0.019344 -0.009652 -0.004259 0.000000 0.013934 0.000000
# 2 -0.009652 0.022050 -0.004574 0.000000 0.009918 0.000000
# 3 -0.004259 -0.004574 0.015466 0.000000 -0.035493 0.000000
# 4 0.000000 0.000000 0.000000 0.069408 -0.000004 -0.002315
# 5 0.013934 0.009918 -0.035493 -0.000004 -0.333871 -0.000001
# 6 0.000000 0.000000 0.000000 -0.002315 -0.000001 0.034028
#
#
# Mechanical properties :
#
#
# Convention : Reuss Voigt Hill
#
# Bulk Modulus (GPa) = 50.27794 49.72590 50.00192
# Shear Modulus (GPa) = -38.46879 15.73275 -11.36802
#
# Velocity S-wave (km/s) = -4.51975 2.89043 -2.45699
# Velocity P-wave (km/s) = 0.73372 6.12744 4.30158
#
# Compressibility (1/GPa) = 0.01988944
#
# Stress axis : x y z
#
# Youngs Moduli (GPa) = 51.69673 45.35174 64.65661
#
# Poissons Ratio (x) = 0.43775 0.27540
# Poissons Ratio (y) = 0.49899 0.29571
# Poissons Ratio (z) = 0.22020 0.20742
#
# Static dielectric constant tensor:
#      x y z
#    x 1.744480 0.000000 -0.003310 
#    y 0.000000 1.641040 0.000000 
#    z -0.003310 0.000000 1.605590 
# 
# From -- ./inp_files/378154.got.cif
#   From: 2010.05.17/outbox.cif.g08.bks.cpg/sg12_190_cif.got.tgz:378154.got - 2010.06.03 13:09:07.
