data_PCOD9198697
_publ_section_title
;
Structure prediction by ZEFSAII (Michael W. Deem and Ramdas Pophale) SiO2 
 PCOD9198697
Probable space group: C 2/M
;
_chemical_formula_sum "Si O2"
_cell_formula_units_Z 44
_cell_length_a 27.481208
_cell_length_b 17.648105
_cell_length_c 6.999829
_cell_angle_alpha 90.000000
_cell_angle_beta 135.066523
_cell_angle_gamma 90.000000
_cell_volume 2397.736804
_symmetry_space_group_name_H-M "C 2/M"
_symmetry_group_IT_number 12
_symmetry_cell_setting 'monoclinic'
loop_
_space_group_symop_operation_xyz
x,y,z
-x,y,-z
-x,-y,-z
x,-y,z
1/2+x,1/2+y,z
1/2-x,1/2+y,-z
1/2-x,1/2-y,-z
1/2+x,1/2-y,z
loop_
_atom_site_type_symbol
_atom_site_label
_atom_site_fract_x
_atom_site_fract_y
_atom_site_fract_z
Si Si1 0.824776 0.869305 0.781079
Si Si2 0.516363 0.585446 0.767811
Si Si3 0.735031 0.166377 0.876293
Si Si4 0.363108 0.205983 0.741239
Si Si5 0.000000 0.213274 0.000000
Si Si6 0.199449 0.585802 0.168602
O O1 0.797770 0.866991 0.923941
O O2 0.826411 0.782225 0.715071
O O3 0.768851 0.909188 0.490619
O O4 0.901428 0.902368 0.976298
O O5 0.500000 0.592548 0.500000
O O6 0.496982 0.500000 0.773530
O O7 0.478979 0.653220 0.776679
O O8 0.674053 0.176085 0.552501
O O9 0.750000 0.250000 0.000000
O O10 0.716481 0.114422 0.003838
O O11 0.439183 0.234064 0.904849
O O12 0.353703 0.142755 0.876738
O O13 0.174495 0.500000 0.097555
#
# Coordination Sequence:
#
# PCOD9198697 Si02
#       6
#     8   8   8   8   4   8
#     4  10  20  36  58  83 114 151 183 224 274 338
#     4  10  22  36  53  82 119 150 184 227 271 327
#     4  11  19  34  61  83 109 144 189 227 278 330
#     4  10  21  38  58  83 110 148 189 230 270 334
#     4  10  23  38  61  78 104 156 196 224 271 330
#     4  11  22  36  57  86 116 142 181 239 289 327
#
# _framework density 18.350636999999999
#
# number of rings (size 3 to 8) (size 9 to 14) (size 15 to 20)
#    0.000    1.636    3.636    1.909    2.545    3.636 
#    0.000    4.091    0.000    1.091    0.000    0.000 
#    0.000    0.000    0.000    0.000    0.000    0.000 
#
# Total GULP energy -122806.493978 kJ/mol
# GULP energy per Si atom -5582.113363 kJ/mol
# Density = 1.830887 g / cm^3
# Si number density = 18.350637 Si / 1000 Ang^3
#
#
#
# Elastic Constant Matrix: (Units=GPa)
#
#
# Indices 1 2 3 4 5 6 
#
# 1 96.0015 36.8852 25.7338 0.0000 -17.1524 0.0000
# 2 36.8852 107.4430 14.1781 0.0000 -10.2454 0.0000
# 3 25.7338 14.1781 54.4609 0.0000 -25.5980 0.0000
# 4 0.0000 0.0000 0.0000 7.5001 0.0000 -10.6007
# 5 -17.1524 -10.2454 -25.5980 0.0000 34.6042 0.0000
# 6 0.0000 0.0000 0.0000 -10.6007 0.0000 13.3270
#
#
#
# Elastic Compliance Matrix: (Units=1/GPa)
#
#
# Indices 1 2 3 4 5 6 
#
# 1 0.013451 -0.003831 -0.004228 0.000000 0.002406 0.000000
# 2 -0.003831 0.010782 -0.000596 0.000000 0.000853 0.000000
# 3 -0.004228 -0.000596 0.029813 0.000000 0.019781 0.000000
# 4 0.000000 0.000000 0.000000 -1.072908 0.000000 -0.853427
# 5 0.002406 0.000853 0.019781 0.000000 0.044976 0.000000
# 6 0.000000 0.000000 0.000000 -0.853427 0.000000 -0.603809
#
#
# Mechanical properties :
#
#
# Convention : Reuss Voigt Hill
#
# Bulk Modulus (GPa) = 27.22093 45.72217 36.47155
# Shear Modulus (GPa) = -3.22968 23.16016 9.96524
#
# Velocity S-wave (km/s) = -1.32808 3.55644 2.33286
# Velocity P-wave (km/s) = 3.53755 6.46795 5.21290
#
# Compressibility (1/GPa) = 0.03673644
#
# Stress axis : x y z
#
# Youngs Moduli (GPa) = 74.34147 92.74483 33.54296
#
# Poissons Ratio (x) = 0.35526 0.14182
# Poissons Ratio (y) = 0.28477 0.02000
# Poissons Ratio (z) = 0.31432 0.05530
#
# Static dielectric constant tensor:
#      x y z
#    x 1.650840 0.000000 -0.007030 
#    y 0.000000 1.622270 0.000000 
#    z -0.007030 0.000000 1.623020 
# 
# From -- ./inp_files/20530.got.cif
#   From: 2010.05.17/outbox.cif.g08.bks.cpg/sg12_11_cif.got.tgz:20530.got - 2010.06.03 13:09:07.
