data_PCOD9198465
_publ_section_title
;
Structure prediction by ZEFSAII (Michael W. Deem and Ramdas Pophale) SiO2 
 PCOD9198465
Probable space group: C 2/M
;
_chemical_formula_sum "Si O2"
_cell_formula_units_Z 48
_cell_length_a 9.823407
_cell_length_b 29.706153
_cell_length_c 14.446011
_cell_angle_alpha 90.000000
_cell_angle_beta 146.423669
_cell_angle_gamma 90.000000
_cell_volume 2331.411122
_symmetry_space_group_name_H-M "C 2/M"
_symmetry_group_IT_number 12
_symmetry_cell_setting 'monoclinic'
loop_
_space_group_symop_operation_xyz
x,y,z
-x,y,-z
-x,-y,-z
x,-y,z
1/2+x,1/2+y,z
1/2-x,1/2+y,-z
1/2-x,1/2-y,-z
1/2+x,1/2-y,z
loop_
_atom_site_type_symbol
_atom_site_label
_atom_site_fract_x
_atom_site_fract_y
_atom_site_fract_z
Si Si1 0.216400 0.889353 0.805174
Si Si2 0.098329 0.291066 0.293018
Si Si3 0.576732 0.290990 0.698119
Si Si4 0.596984 0.552803 0.903589
Si Si5 0.458987 0.052697 0.370056
Si Si6 0.045317 0.606614 0.248379
O O1 0.105803 0.840010 0.759428
O O2 0.085651 0.926869 0.793229
O O3 0.241852 0.896301 0.709119
O O4 0.500000 0.888264 0.000000
O O5 0.331002 0.292510 0.495502
O O6 0.202796 0.283527 0.249476
O O7 0.938772 0.249590 0.238573
O O8 0.985177 0.340874 0.228956
O O9 0.656938 0.500000 0.933500
O O10 0.336344 0.557561 0.806922
O O11 0.812436 0.579755 0.076148
O O12 0.500000 0.064557 0.500000
O O13 0.599687 0.083580 0.377025
O O14 0.522053 0.000000 0.392793
#
# Coordination Sequence:
#
# PCOD9198465 Si02
#       6
#     8   8   8   8   8   8
#     4   9  20  36  57  84 112 148 186 231 280 331
#     4   9  19  34  56  81 108 150 185 224 285 331
#     4   9  18  36  54  78 115 145 185 231 274 336
#     4  10  21  38  59  83 113 152 190 230 284 337
#     4  10  22  38  55  81 115 148 189 238 283 332
#     4  10  20  36  57  85 112 146 190 228 280 338
#
# _framework density 20.588387999999998
#
# number of rings (size 3 to 8) (size 9 to 14) (size 15 to 20)
#    0.000    2.500    0.000    1.000    2.333    6.333 
#    3.000    9.167    0.000    3.000    0.000    0.000 
#    0.000    0.000    0.000    0.000    0.000    0.000 
#
# Total GULP energy -134022.232334 kJ/mol
# GULP energy per Si atom -5584.259681 kJ/mol
# Density = 2.054153 g / cm^3
# Si number density = 20.588388 Si / 1000 Ang^3
#
#
#
# Elastic Constant Matrix: (Units=GPa)
#
#
# Indices 1 2 3 4 5 6 
#
# 1 96.5634 93.8035 14.9351 0.0000 -15.3412 0.0000
# 2 93.8035 158.2442 26.7633 0.0000 -13.0707 0.0000
# 3 14.9351 26.7633 28.2418 0.0000 -3.6236 0.0000
# 4 0.0000 0.0000 0.0000 6.9291 0.0000 -36.4483
# 5 -15.3412 -13.0707 -3.6236 0.0000 11.0671 0.0000
# 6 0.0000 0.0000 0.0000 -36.4483 0.0000 7.0717
#
#
#
# Elastic Compliance Matrix: (Units=1/GPa)
#
#
# Indices 1 2 3 4 5 6 
#
# 1 0.028559 -0.015519 0.002434 0.000000 0.022057 0.000000
# 2 -0.015519 0.016489 -0.008018 0.000000 -0.004663 0.000000
# 3 0.002434 -0.008018 0.042733 0.000000 0.007896 0.000000
# 4 0.000000 0.000000 0.000000 -0.005527 0.000000 -0.028487
# 5 0.022057 -0.004663 0.007896 0.000000 0.118012 0.000000
# 6 0.000000 0.000000 0.000000 -0.028487 0.000000 -0.005416
#
#
# Mechanical properties :
#
#
# Convention : Reuss Voigt Hill
#
# Bulk Modulus (GPa) = 21.94165 61.56146 41.75155
# Shear Modulus (GPa) = 19.82173 14.85007 17.33590
#
# Velocity S-wave (km/s) = 3.10621 2.68859 2.90491
# Velocity P-wave (km/s) = 4.85233 6.29317 5.61912
#
# Compressibility (1/GPa) = 0.04557542
#
# Stress axis : x y z
#
# Youngs Moduli (GPa) = 35.01512 60.64486 23.40134
#
# Poissons Ratio (x) = 0.94114 -0.05695
# Poissons Ratio (y) = 0.54340 0.18762
# Poissons Ratio (z) = -0.08521 0.48623
#
# Static dielectric constant tensor:
#      x y z
#    x 1.745870 0.000000 -0.036190 
#    y 0.000000 1.685940 0.000000 
#    z -0.036190 0.000000 1.803560 
# 
# From -- ./inp_files/201051.got.cif
#   From: 2010.05.17/outbox.cif.g08.bks.cpg/sg12_101_cif.got.tgz:201051.got - 2010.06.03 13:09:07.
