data_PCOD9198415
_publ_section_title
;
Structure prediction by ZEFSAII (Michael W. Deem and Ramdas Pophale) SiO2 
 PCOD9198415
Probable space group: C 2/M
;
_chemical_formula_sum "Si O2"
_cell_formula_units_Z 56
_cell_length_a 26.747694
_cell_length_b 13.050963
_cell_length_c 10.609513
_cell_angle_alpha 90.000000
_cell_angle_beta 54.884733
_cell_angle_gamma 90.000000
_cell_volume 3029.533679
_symmetry_space_group_name_H-M "C 2/M"
_symmetry_group_IT_number 12
_symmetry_cell_setting 'monoclinic'
loop_
_space_group_symop_operation_xyz
x,y,z
-x,y,-z
-x,-y,-z
x,-y,z
1/2+x,1/2+y,z
1/2-x,1/2+y,-z
1/2-x,1/2-y,-z
1/2+x,1/2-y,z
loop_
_atom_site_type_symbol
_atom_site_label
_atom_site_fract_x
_atom_site_fract_y
_atom_site_fract_z
Si Si1 0.019554 0.614183 0.826670
Si Si2 0.615243 0.733894 0.593314
Si Si3 0.998574 0.885719 0.651568
Si Si4 0.291888 0.120827 0.002182
Si Si5 0.777823 0.713038 0.750067
Si Si6 0.092443 0.754923 0.082657
Si Si7 0.838061 0.876007 0.230483
O O1 0.022513 0.500000 0.769052
O O2 0.083376 0.671559 0.712801
O O3 0.964661 0.679592 0.849577
O O4 0.000000 0.608352 0.000000
O O5 0.557636 0.673720 0.618035
O O6 0.839292 0.726680 0.580855
O O7 0.650294 0.663503 0.644422
O O8 0.933705 0.837503 0.782988
O O9 0.000000 0.887005 0.500000
O O10 0.001786 0.000000 0.699330
O O11 0.280811 0.141249 0.869837
O O12 0.351857 0.186184 0.951092
O O13 0.297138 0.000000 0.019328
O O14 0.241060 0.176710 0.162519
O O15 0.725765 0.666734 0.733677
O O16 0.111738 0.818341 0.930327
O O17 0.841217 0.000000 0.217689
#
# Coordination Sequence:
#
# PCOD9198415 Si02
#       7
#     8   8   8   8   8   8   8
#     4  10  20  36  57  83 114 150 187 228 284 340
#     4  11  22  39  58  85 118 152 191 242 284 345
#     4  10  21  36  57  84 115 151 190 237 291 342
#     4  10  21  39  63  85 112 153 194 238 291 345
#     4  10  23  40  58  85 119 150 194 245 287 339
#     4  10  20  37  58  86 115 148 189 242 281 347
#     4  11  22  37  58  83 114 154 194 237 289 343
#
# _framework density 18.484693
#
# number of rings (size 3 to 8) (size 9 to 14) (size 15 to 20)
#    0.000    1.714    1.429    3.000    0.000    2.286 
#    0.000    5.714    0.000    4.714    0.000    0.000 
#    0.000    0.000    0.000    0.000    0.000    0.000 
#
# Total GULP energy -156135.979266 kJ/mol
# GULP energy per Si atom -5576.284974 kJ/mol
# Density = 1.844262 g / cm^3
# Si number density = 18.484693 Si / 1000 Ang^3
#
#
#
# Elastic Constant Matrix: (Units=GPa)
#
#
# Indices 1 2 3 4 5 6 
#
# 1 56.5580 28.8448 25.9828 0.0000 -3.8978 0.0000
# 2 28.8448 125.9710 39.5022 0.0000 -17.2021 0.0000
# 3 25.9828 39.5022 91.6417 0.0000 -18.6619 0.0000
# 4 0.0000 0.0000 0.0000 14.1415 0.0000 0.3916
# 5 -3.8978 -17.2021 -18.6619 0.0000 34.2442 0.0000
# 6 0.0000 0.0000 0.0000 0.3916 0.0000 25.7639
#
#
#
# Elastic Compliance Matrix: (Units=1/GPa)
#
#
# Indices 1 2 3 4 5 6 
#
# 1 0.021713 -0.003694 -0.004993 0.000000 -0.002105 0.000000
# 2 -0.003694 0.010046 -0.002633 0.000000 0.003191 0.000000
# 3 -0.004993 -0.002633 0.014710 0.000000 0.006125 0.000000
# 4 0.000000 0.000000 0.000000 0.070744 0.000000 -0.001075
# 5 -0.002105 0.003191 0.006125 0.000000 0.033903 0.000000
# 6 0.000000 0.000000 0.000000 -0.001075 0.000000 0.038830
#
#
# Mechanical properties :
#
#
# Convention : Reuss Voigt Hill
#
# Bulk Modulus (GPa) = 41.96421 51.42557 46.69489
# Shear Modulus (GPa) = 22.67279 26.81932 24.74606
#
# Velocity S-wave (km/s) = 3.50604 3.81319 3.66284
# Velocity P-wave (km/s) = 6.25629 6.87519 6.57303
#
# Compressibility (1/GPa) = 0.02382983
#
# Stress axis : x y z
#
# Youngs Moduli (GPa) = 46.05456 99.54671 67.98092
#
# Poissons Ratio (x) = 0.36770 0.33941
# Poissons Ratio (y) = 0.17011 0.17900
# Poissons Ratio (z) = 0.22994 0.26211
#
# Static dielectric constant tensor:
#      x y z
#    x 1.631170 0.000000 0.008690 
#    y 0.000000 1.642280 0.000000 
#    z 0.008690 0.000000 1.640620 
# 
# From -- ./inp_files/181544.got.cif
#   From: 2010.05.17/outbox.cif.g08.bks.cpg/sg12_91_cif.got.tgz:181544.got - 2010.06.03 13:09:07.
