data_PCOD9198347
_publ_section_title
;
Structure prediction by ZEFSAII (Michael W. Deem and Ramdas Pophale) SiO2 
 PCOD9198347
Probable space group: C 2/M
;
_chemical_formula_sum "Si O2"
_cell_formula_units_Z 64
_cell_length_a 19.053114
_cell_length_b 8.720748
_cell_length_c 31.792380
_cell_angle_alpha 90.000000
_cell_angle_beta 41.563827
_cell_angle_gamma 90.000000
_cell_volume 3504.721711
_symmetry_space_group_name_H-M "C 2/M"
_symmetry_group_IT_number 12
_symmetry_cell_setting 'monoclinic'
loop_
_space_group_symop_operation_xyz
x,y,z
-x,y,-z
-x,-y,-z
x,-y,z
1/2+x,1/2+y,z
1/2-x,1/2+y,-z
1/2-x,1/2-y,-z
1/2+x,1/2-y,z
loop_
_atom_site_type_symbol
_atom_site_label
_atom_site_fract_x
_atom_site_fract_y
_atom_site_fract_z
Si Si1 0.258134 0.181488 0.928532
Si Si2 0.178254 0.685954 0.321217
Si Si3 0.481103 0.185171 0.681298
Si Si4 0.646136 0.316149 0.821655
Si Si5 0.275993 0.183924 0.442540
Si Si6 0.376532 0.185569 0.560524
Si Si7 0.307567 0.681845 0.816582
Si Si8 0.585782 0.818117 0.063287
O O1 0.289875 0.269502 0.872353
O O2 0.344290 0.211586 0.926398
O O3 0.255057 0.000000 0.921702
O O4 0.146621 0.236801 0.997666
O O5 0.177097 0.500000 0.322784
O O6 0.082807 0.730605 0.332521
O O7 0.287413 0.732232 0.249637
O O8 0.162151 0.738520 0.376015
O O9 0.603589 0.227545 0.623398
O O10 0.418989 0.260385 0.747824
O O11 0.472989 0.000000 0.688531
O O12 0.637641 0.500000 0.825313
O O13 0.718689 0.263613 0.827973
O O14 0.531484 0.243071 0.876947
O O15 0.250000 0.250000 0.500000
O O16 0.194430 0.245923 0.444591
O O17 0.270907 0.000000 0.446418
O O18 0.500000 0.225416 0.500000
O O19 0.368858 0.000000 0.562051
O O20 0.299240 0.500000 0.815519
O O21 0.584669 0.000000 0.056341
#
# Coordination Sequence:
#
# PCOD9198347 Si02
#       8
#     8   8   8   8   8   8   8   8
#     4  10  21  38  58  80 111 149 184 224 280 337
#     4   8  16  33  56  78 103 141 185 224 267 327
#     4   9  19  38  59  79 108 147 187 227 278 333
#     4  10  20  36  57  81 113 150 186 225 277 336
#     4  11  23  38  58  84 114 148 187 231 277 328
#     4  10  20  36  58  83 113 149 187 228 277 330
#     4  11  22  36  57  85 114 145 186 232 274 322
#     4  10  21  37  57  82 110 141 185 236 280 328
#
# _framework density 18.261078000000001
#
# number of rings (size 3 to 8) (size 9 to 14) (size 15 to 20)
#    0.000    2.125    0.000    4.125    0.000    6.250 
#    0.000    8.125    0.000    0.000    0.000    0.000 
#    0.000    0.000    0.000    0.000    0.000    0.000 
#
# Total GULP energy -178690.410867 kJ/mol
# GULP energy per Si atom -5584.075340 kJ/mol
# Density = 1.821951 g / cm^3
# Si number density = 18.261078 Si / 1000 Ang^3
#
#
#
# Elastic Constant Matrix: (Units=GPa)
#
#
# Indices 1 2 3 4 5 6 
#
# 1 77.9234 18.4633 72.2553 -0.0002 -7.5969 0.0003
# 2 18.4633 8.7185 24.6867 -0.0004 -2.6433 -0.0013
# 3 72.2553 24.6867 139.9083 -0.0002 -10.0812 0.0003
# 4 -0.0002 -0.0004 -0.0002 22.4705 0.0001 0.5315
# 5 -7.5969 -2.6433 -10.0812 0.0001 38.5367 0.0002
# 6 0.0003 -0.0013 0.0003 0.5315 0.0002 29.1547
#
#
#
# Elastic Compliance Matrix: (Units=1/GPa)
#
#
# Indices 1 2 3 4 5 6 
#
# 1 0.030229 -0.039392 -0.008588 0.000000 0.001011 -0.000002
# 2 -0.039392 0.281603 -0.029060 0.000004 0.003948 0.000013
# 3 -0.008588 -0.029060 0.016761 0.000000 0.000698 -0.000001
# 4 0.000000 0.000004 0.000000 0.044522 0.000000 -0.000812
# 5 0.001011 0.003948 0.000698 0.000000 0.026602 0.000000
# 6 -0.000002 0.000013 -0.000001 -0.000812 0.000000 0.034315
#
#
# Mechanical properties :
#
#
# Convention : Reuss Voigt Hill
#
# Bulk Modulus (GPa) = 5.73028 50.81789 28.27408
# Shear Modulus (GPa) = 7.73656 25.44203 16.58930
#
# Velocity S-wave (km/s) = 2.06054 3.73666 3.01732
# Velocity P-wave (km/s) = 2.96747 6.81951 5.25888
#
# Compressibility (1/GPa) = 0.17451148
#
# Stress axis : x y z
#
# Youngs Moduli (GPa) = 33.08130 3.55110 59.66336
#
# Poissons Ratio (x) = 0.13989 0.51238
# Poissons Ratio (y) = 1.30315 1.73382
# Poissons Ratio (z) = 0.28410 0.10320
#
# Static dielectric constant tensor:
#      x y z
#    x 1.599730 0.000000 0.001590 
#    y 0.000000 1.613040 0.000000 
#    z 0.001590 0.000000 1.616820 
# 
# From -- ./inp_files/378129.got.cif
#   From: 2010.05.17/outbox.cif.g08.bks.cpg/sg12_190_cif.got.tgz:378129.got - 2010.06.03 13:09:07.
