data_PCOD9198133
_publ_section_title
;
Structure prediction by ZEFSAII (Michael W. Deem and Ramdas Pophale) SiO2 
 PCOD9198133
Probable space group: C 2/M
;
_chemical_formula_sum "Si O2"
_cell_formula_units_Z 56
_cell_length_a 24.345614
_cell_length_b 7.434272
_cell_length_c 15.972548
_cell_angle_alpha 90.000000
_cell_angle_beta 54.201979
_cell_angle_gamma 90.000000
_cell_volume 2344.764484
_symmetry_space_group_name_H-M "C 2/M"
_symmetry_group_IT_number 12
_symmetry_cell_setting 'monoclinic'
loop_
_space_group_symop_operation_xyz
x,y,z
-x,y,-z
-x,-y,-z
x,-y,z
1/2+x,1/2+y,z
1/2-x,1/2+y,-z
1/2-x,1/2-y,-z
1/2+x,1/2-y,z
loop_
_atom_site_type_symbol
_atom_site_label
_atom_site_fract_x
_atom_site_fract_y
_atom_site_fract_z
Si Si1 0.171161 0.778854 0.504022
Si Si2 0.800282 0.714730 0.877711
Si Si3 0.456311 0.284526 0.959001
Si Si4 0.676638 0.703034 0.677786
Si Si5 0.688530 0.720534 0.852911
Si Si6 0.457194 0.293453 0.464766
Si Si7 0.046308 0.287171 0.227975
O O1 0.243725 0.702840 0.415976
O O2 0.147569 0.719017 0.617886
O O3 0.116101 0.715846 0.487383
O O4 0.175457 0.000000 0.501932
O O5 0.806256 0.500000 0.863728
O O6 0.758255 0.781175 0.833911
O O7 0.876214 0.782486 0.828059
O O8 0.750000 0.750000 0.000000
O O9 0.456387 0.500000 0.965792
O O10 0.478890 0.242109 0.844631
O O11 0.500000 0.218021 0.000000
O O12 0.377942 0.225313 0.035954
O O13 0.649376 0.500000 0.710078
O O14 0.674003 0.785475 0.771701
O O15 0.691116 0.500000 0.848135
O O16 0.500000 0.206731 0.500000
O O17 0.444106 0.500000 0.501509
O O18 0.498656 0.293189 0.341640
O O19 0.046976 0.500000 0.241615
#
# Coordination Sequence:
#
# PCOD9198133 Si02
#       7
#     8   8   8   8   8   8   8
#     4   9  19  36  56  80 109 140 184 233 280 337
#     4  10  20  36  56  80 111 145 185 227 275 333
#     4  10  21  37  62  88 114 155 200 233 276 343
#     4   9  18  33  57  82 108 141 179 230 282 332
#     4   9  18  33  55  83 109 141 186 230 274 330
#     4  10  23  41  60  82 112 152 196 240 284 339
#     4  11  24  39  58  86 118 152 189 239 296 343
#
# _framework density 23.882997
#
# number of rings (size 3 to 8) (size 9 to 14) (size 15 to 20)
#    0.000    2.286    1.429    0.429    4.000    1.714 
#    0.000    1.429    0.000    0.000    0.000    0.000 
#    0.000    0.000    0.000    0.000    0.000    0.000 
#
# Total GULP energy -156366.679868 kJ/mol
# GULP energy per Si atom -5584.524281 kJ/mol
# Density = 2.382864 g / cm^3
# Si number density = 23.882997 Si / 1000 Ang^3
#
#
#
# Elastic Constant Matrix: (Units=GPa)
#
#
# Indices 1 2 3 4 5 6 
#
# 1 117.2314 1.5419 -10.9474 0.0001 19.8206 0.0002
# 2 1.5419 83.7100 -18.8060 0.0001 3.5105 0.0003
# 3 -10.9474 -18.8060 51.5208 -0.0003 21.5017 0.0001
# 4 0.0001 0.0001 -0.0003 44.7707 0.0000 -26.0428
# 5 19.8206 3.5105 21.5017 0.0000 39.2376 0.0001
# 6 0.0002 0.0003 0.0001 -26.0428 0.0001 14.5220
#
#
#
# Elastic Compliance Matrix: (Units=1/GPa)
#
#
# Indices 1 2 3 4 5 6 
#
# 1 0.010707 0.001712 0.006770 0.000002 -0.009272 0.000003
# 2 0.001712 0.014051 0.008270 0.000004 -0.006654 0.000006
# 3 0.006770 0.008270 0.033194 -0.000001 -0.022349 -0.000002
# 4 0.000002 0.000004 -0.000001 -0.517376 0.000001 -0.927831
# 5 -0.009272 -0.006654 -0.022349 0.000001 0.043012 0.000003
# 6 0.000003 0.000006 -0.000002 -0.927831 0.000003 -1.595053
#
#
# Mechanical properties :
#
#
# Convention : Reuss Voigt Hill
#
# Bulk Modulus (GPa) = 10.93416 21.78214 16.35815
# Shear Modulus (GPa) = -2.48203 38.41764 17.96781
#
# Velocity S-wave (km/s) = -1.02054 4.01506 2.74583
# Velocity P-wave (km/s) = 1.78871 5.53484 4.11302
#
# Compressibility (1/GPa) = 0.09145654
#
# Stress axis : x y z
#
# Youngs Moduli (GPa) = 93.39364 71.16750 30.12591
#
# Poissons Ratio (x) = -0.12187 -0.20394
# Poissons Ratio (y) = -0.15993 -0.24914
# Poissons Ratio (z) = -0.63224 -0.58854
#
# Static dielectric constant tensor:
#      x y z
#    x 1.939530 0.000000 0.040920 
#    y 0.000000 1.906570 0.000000 
#    z 0.040920 0.000000 1.890390 
# 
# From -- ./inp_files/238391.got.cif
#   From: 2010.05.17/outbox.cif.g08.bks.cpg/sg12_120_cif.got.tgz:238391.got - 2010.06.03 13:09:07.
