data_PCOD9198887
_publ_section_title
;
Structure prediction by ZEFSAII (Michael W. Deem and Ramdas Pophale) SiO2 
 PCOD9198887
Probable space group: C 2/M
;
_chemical_formula_sum "Si O2"
_cell_formula_units_Z 58
_cell_length_a 19.972464
_cell_length_b 7.526970
_cell_length_c 17.448879
_cell_angle_alpha 90.000000
_cell_angle_beta 64.479583
_cell_angle_gamma 90.000000
_cell_volume 2367.193513
_symmetry_space_group_name_H-M "C 2/M"
_symmetry_group_IT_number 12
_symmetry_cell_setting 'monoclinic'
loop_
_space_group_symop_operation_xyz
x,y,z
-x,y,-z
-x,-y,-z
x,-y,z
1/2+x,1/2+y,z
1/2-x,1/2+y,-z
1/2-x,1/2-y,-z
1/2+x,1/2-y,z
loop_
_atom_site_type_symbol
_atom_site_label
_atom_site_fract_x
_atom_site_fract_y
_atom_site_fract_z
Si Si1 0.425160 0.294914 0.004883
Si Si2 0.155609 0.295855 0.806169
Si Si3 0.300124 0.715872 0.644259
Si Si4 0.057084 0.787939 0.716836
Si Si5 0.500000 0.500000 0.500000
Si Si6 0.396734 0.283504 0.735653
Si Si7 0.673406 0.287181 0.078886
Si Si8 0.601286 0.200199 0.534647
O O1 0.443052 0.500000 0.976805
O O2 0.366039 0.292496 0.103170
O O3 0.500000 0.210368 0.000000
O O4 0.390371 0.215378 0.945716
O O5 0.173194 0.500000 0.816691
O O6 0.225076 0.224114 0.723106
O O7 0.086268 0.286684 0.782307
O O8 0.298384 0.500000 0.641892
O O9 0.368065 0.770634 0.666912
O O10 0.322366 0.782737 0.550253
O O11 0.110629 0.738477 0.620203
O O12 0.976420 0.725550 0.727338
O O13 0.053635 0.000000 0.727813
O O14 0.544962 0.345323 0.527409
O O15 0.400064 0.500000 0.729553
O O16 0.337205 0.227309 0.829116
O O17 0.665747 0.500000 0.085645
O O18 0.750000 0.250000 0.000000
O O19 0.572884 0.000000 0.540025
#
# Coordination Sequence:
#
# PCOD9198887 Si02
#       8
#     8   8   8   8   2   8   8   8
#     4  10  21  39  63  88 120 167 221 271 325 397
#     4  11  24  40  63  95 130 171 218 273 337 401
#     4  10  21  41  65  90 130 175 218 272 336 401
#     4  11  22  41  67  93 129 172 215 275 333 391
#     4  12  22  44  64  98 140 172 214 270 336 386
#     4   9  19  36  63  88 115 163 214 259 322 393
#     4  10  20  36  58  88 120 157 205 256 320 392
#     4  12  25  41  68 100 134 178 224 274 329 400
#
# _framework density 24.501588000000002
#
# number of rings (size 3 to 8) (size 9 to 14) (size 15 to 20)
#    0.000    1.517    1.379    3.517    1.931    5.793 
#    0.000    4.138    0.000    0.000    0.000    0.000 
#    0.000    0.000    0.000    0.000    0.000    0.000 
#
# Total GULP energy -162013.499626 kJ/mol
# GULP energy per Si atom -5586.672401 kJ/mol
# Density = 2.444582 g / cm^3
# Si number density = 24.501588 Si / 1000 Ang^3
#
#
#
# Elastic Constant Matrix: (Units=GPa)
#
#
# Indices 1 2 3 4 5 6 
#
# 1 42.9274 -9.0541 -9.3513 0.0003 -5.7926 0.0007
# 2 -9.0541 105.3922 -19.3696 0.0005 2.0976 0.0011
# 3 -9.3513 -19.3696 95.8926 0.0001 0.1246 0.0001
# 4 0.0003 0.0005 0.0001 19.4159 0.0001 -3.5721
# 5 -5.7926 2.0976 0.1246 0.0001 32.6462 0.0002
# 6 0.0007 0.0011 0.0001 -3.5721 0.0002 5.8264
#
#
#
# Elastic Compliance Matrix: (Units=1/GPa)
#
#
# Indices 1 2 3 4 5 6 
#
# 1 0.025069 0.002614 0.002967 -0.000001 0.004269 -0.000004
# 2 0.002614 0.010140 0.002303 -0.000001 -0.000197 -0.000003
# 3 0.002967 0.002303 0.011183 0.000000 0.000336 -0.000001
# 4 -0.000001 -0.000001 0.000000 0.058053 -0.000001 0.035592
# 5 0.004269 -0.000197 0.000336 -0.000001 0.031400 -0.000002
# 6 -0.000004 -0.000003 -0.000001 0.035592 -0.000002 0.193456
#
#
# Mechanical properties :
#
#
# Convention : Reuss Voigt Hill
#
# Bulk Modulus (GPa) = 16.08736 18.74026 17.41381
# Shear Modulus (GPa) = 14.95882 30.37684 22.66783
#
# Velocity S-wave (km/s) = 2.47356 3.52489 3.04494
# Velocity P-wave (km/s) = 3.83902 4.92256 4.41417
#
# Compressibility (1/GPa) = 0.06216059
#
# Stress axis : x y z
#
# Youngs Moduli (GPa) = 39.89013 98.61767 89.42531
#
# Poissons Ratio (x) = -0.25778 -0.26534
# Poissons Ratio (y) = -0.10427 -0.20598
# Poissons Ratio (z) = -0.11836 -0.22716
#
# Static dielectric constant tensor:
#      x y z
#    x 1.950230 0.000000 -0.058320 
#    y 0.000000 1.939550 0.000000 
#    z -0.058320 0.000000 1.966960 
# 
# From -- ./inp_files/282178.got.cif
#   From: 2010.05.17/outbox.cif.g08.bks.cpg/sg12_142_cif.got.tgz:282178.got - 2010.06.03 13:09:07.
