data_PCOD9198155
_publ_section_title
;
Structure prediction by ZEFSAII (Michael W. Deem and Ramdas Pophale) SiO2 
 PCOD9198155
Probable space group: C 2/M
;
_chemical_formula_sum "Si O2"
_cell_formula_units_Z 48
_cell_length_a 28.915778
_cell_length_b 7.829784
_cell_length_c 18.163436
_cell_angle_alpha 90.000000
_cell_angle_beta 35.630131
_cell_angle_gamma 90.000000
_cell_volume 2395.610682
_symmetry_space_group_name_H-M "C 2/M"
_symmetry_group_IT_number 12
_symmetry_cell_setting 'monoclinic'
loop_
_space_group_symop_operation_xyz
x,y,z
-x,y,-z
-x,-y,-z
x,-y,z
1/2+x,1/2+y,z
1/2-x,1/2+y,-z
1/2-x,1/2-y,-z
1/2+x,1/2-y,z
loop_
_atom_site_type_symbol
_atom_site_label
_atom_site_fract_x
_atom_site_fract_y
_atom_site_fract_z
Si Si1 0.627457 0.706947 0.854197
Si Si2 0.526534 0.794773 0.236098
Si Si3 0.284749 0.701120 0.730239
Si Si4 0.961949 0.299358 0.474499
Si Si5 0.522819 0.705059 0.855533
Si Si6 0.794685 0.705675 0.017046
O O1 0.630071 0.500000 0.852269
O O2 0.713320 0.772837 0.765328
O O3 0.592714 0.761915 0.820025
O O4 0.560873 0.763813 0.000037
O O5 0.494984 0.727033 0.354908
O O6 0.472977 0.755902 0.234527
O O7 0.531138 0.000000 0.235343
O O8 0.615165 0.729051 0.104310
O O9 0.300319 0.500000 0.718011
O O10 0.367338 0.784007 0.600784
O O11 0.252039 0.769944 0.850773
O O12 0.983413 0.500000 0.446168
O O13 0.000000 0.224667 0.500000
O O14 0.521652 0.500000 0.860768
O O15 0.798282 0.500000 0.019186
O O16 0.750000 0.750000 0.000000
#
# Coordination Sequence:
#
# PCOD9198155 Si02
#       6
#     8   8   8   8   8   8
#     4   9  18  34  56  83 114 147 183 220 272 338
#     4  10  20  36  56  81 111 143 184 229 276 330
#     4  11  22  36  56  84 114 143 182 233 281 323
#     4  10  22  40  60  78 107 154 193 224 273 335
#     4   9  18  33  56  85 113 144 182 226 274 328
#     4  10  21  35  53  80 109 139 180 229 276 325
#
# _framework density 20.036645
#
# number of rings (size 3 to 8) (size 9 to 14) (size 15 to 20)
#    0.000    2.167    1.667    2.500    0.000    5.000 
#    0.000    2.500    0.000    0.000    0.000    0.000 
#    0.000    0.000    0.000    0.000    0.000    0.000 
#
# Total GULP energy -133989.270819 kJ/mol
# GULP energy per Si atom -5582.886284 kJ/mol
# Density = 1.999104 g / cm^3
# Si number density = 20.036645 Si / 1000 Ang^3
#
#
#
# Elastic Constant Matrix: (Units=GPa)
#
#
# Indices 1 2 3 4 5 6 
#
# 1 130.5362 -12.4218 32.0140 0.0118 19.3316 -0.0085
# 2 -12.4218 20.1283 -6.8661 0.0166 8.4354 -0.0174
# 3 32.0140 -6.8661 68.8005 0.0227 22.0563 -0.0131
# 4 0.0118 0.0166 0.0227 2.0601 -0.0025 6.3847
# 5 19.3316 8.4354 22.0563 -0.0025 34.1527 0.0012
# 6 -0.0085 -0.0174 -0.0131 6.3847 0.0012 26.5309
#
#
#
# Elastic Compliance Matrix: (Units=1/GPa)
#
#
# Indices 1 2 3 4 5 6 
#
# 1 0.009815 0.008223 -0.001657 -0.000539 -0.006516 0.000138
# 2 0.008223 0.072403 0.013400 -0.003916 -0.031192 0.001000
# 3 -0.001657 0.013400 0.021948 -0.001659 -0.016547 0.000419
# 4 -0.000539 -0.003916 -0.001659 1.909985 0.002500 -0.459644
# 5 -0.006516 -0.031192 -0.016547 0.002500 0.051359 -0.000635
# 6 0.000138 0.001000 0.000419 -0.459644 -0.000635 0.148307
#
#
# Mechanical properties :
#
#
# Convention : Reuss Voigt Hill
#
# Bulk Modulus (GPa) = 6.93964 27.21301 17.07633
# Shear Modulus (GPa) = 2.25031 26.33133 14.29082
#
# Velocity S-wave (km/s) = 1.06091 3.62907 2.67354
# Velocity P-wave (km/s) = 2.22973 5.58312 4.25106
#
# Compressibility (1/GPa) = 0.14409959
#
# Stress axis : x y z
#
# Youngs Moduli (GPa) = 101.88788 13.81151 45.56156
#
# Poissons Ratio (x) = -0.11357 0.07550
# Poissons Ratio (y) = -0.83784 -0.61055
# Poissons Ratio (z) = 0.16883 -0.18508
#
# Static dielectric constant tensor:
#      x y z
#    x 1.709540 0.000000 0.018680 
#    y 0.000000 1.737710 0.000000 
#    z 0.018680 0.000000 1.690730 
# 
# From -- ./inp_files/244768.got.cif
#   From: 2010.05.17/outbox.cif.g08.bks.cpg/sg12_123_cif.got.tgz:244768.got - 2010.06.03 13:09:07.
