data_PCOD9198893
_publ_section_title
;
Structure prediction by ZEFSAII (Michael W. Deem and Ramdas Pophale) SiO2 
 PCOD9198893
Probable space group: C 2/M
;
_chemical_formula_sum "Si O2"
_cell_formula_units_Z 58
_cell_length_a 30.066244
_cell_length_b 7.445192
_cell_length_c 21.240591
_cell_angle_alpha 90.000000
_cell_angle_beta 145.451029
_cell_angle_gamma 90.000000
_cell_volume 2696.430924
_symmetry_space_group_name_H-M "C 2/M"
_symmetry_group_IT_number 12
_symmetry_cell_setting 'monoclinic'
loop_
_space_group_symop_operation_xyz
x,y,z
-x,y,-z
-x,-y,-z
x,-y,z
1/2+x,1/2+y,z
1/2-x,1/2+y,-z
1/2-x,1/2-y,-z
1/2+x,1/2-y,z
loop_
_atom_site_type_symbol
_atom_site_label
_atom_site_fract_x
_atom_site_fract_y
_atom_site_fract_z
Si Si1 0.686092 0.293702 0.089642
Si Si2 0.694221 0.286571 0.875368
Si Si3 0.980752 0.781885 0.298813
Si Si4 0.062741 0.712326 0.124537
Si Si5 0.275033 0.799720 0.728069
Si Si6 0.500000 0.000000 0.500000
Si Si7 0.978124 0.216399 0.155766
Si Si8 0.899883 0.218846 0.450136
O O1 0.670216 0.500000 0.088439
O O2 0.762168 0.286083 0.134875
O O3 0.697178 0.191710 0.167158
O O4 0.611220 0.226592 0.963187
O O5 0.688806 0.500000 0.861021
O O6 0.606710 0.218375 0.785964
O O7 0.750000 0.250000 0.000000
O O8 0.001852 0.720315 0.252904
O O9 0.041507 0.735146 0.423994
O O10 0.978511 0.000000 0.294712
O O11 0.070278 0.500000 0.119018
O O12 0.150708 0.787742 0.220004
O O13 0.029699 0.730833 0.156102
O O14 0.000000 0.784420 0.000000
O O15 0.187551 0.724747 0.631115
O O16 0.264105 0.000000 0.688378
O O17 0.432883 0.839817 0.432421
O O18 0.978350 0.000000 0.158267
O O19 0.900848 0.000000 0.439287
#
# Coordination Sequence:
#
# PCOD9198893 Si02
#       8
#     8   8   8   8   8   2   8   8
#     4  11  22  34  54  85 121 153 197 251 304 362
#     4  11  21  35  54  81 115 154 194 237 296 363
#     4   9  20  41  61  79 119 165 202 245 308 378
#     4  10  20  36  58  88 122 157 202 255 312 369
#     4  10  22  40  61  85 121 160 199 251 315 368
#     4  12  26  44  68  98 122 160 228 252 296 380
#     4  10  20  37  58  86 118 159 203 249 311 373
#     4  10  24  45  66  91 129 170 206 261 313 359
#
# _framework density 21.509913999999998
#
# number of rings (size 3 to 8) (size 9 to 14) (size 15 to 20)
#    0.000    1.793    2.759    1.034    2.897    1.379 
#    2.483    0.690    0.000    0.000    0.000    0.000 
#    0.000    0.000    0.000    0.000    0.000    0.000 
#
# Total GULP energy -161707.764934 kJ/mol
# GULP energy per Si atom -5576.129825 kJ/mol
# Density = 2.146096 g / cm^3
# Si number density = 21.509914 Si / 1000 Ang^3
#
#
#
# Elastic Constant Matrix: (Units=GPa)
#
#
# Indices 1 2 3 4 5 6 
#
# 1 103.0095 2.7684 11.9597 0.0000 27.5395 0.0000
# 2 2.7684 84.5880 15.2182 0.0000 7.2100 0.0000
# 3 11.9597 15.2182 74.1455 0.0000 27.6396 0.0000
# 4 0.0000 0.0000 0.0000 0.6570 0.0000 0.2911
# 5 27.5395 7.2100 27.6396 0.0000 44.7078 0.0000
# 6 0.0000 0.0000 0.0000 0.2911 0.0000 19.3293
#
#
#
# Elastic Compliance Matrix: (Units=1/GPa)
#
#
# Indices 1 2 3 4 5 6 
#
# 1 0.011684 0.000103 0.001018 0.000000 -0.007843 0.000000
# 2 0.000103 0.012287 -0.002308 0.000000 -0.000618 0.000000
# 3 0.001018 -0.002308 0.018052 0.000000 -0.011415 0.000000
# 4 0.000000 0.000000 0.000000 1.532409 0.000000 -0.023079
# 5 -0.007843 -0.000618 -0.011415 0.000000 0.034355 0.000000
# 6 0.000000 0.000000 0.000000 -0.023079 0.000000 0.052083
#
#
# Mechanical properties :
#
#
# Convention : Reuss Voigt Hill
#
# Bulk Modulus (GPa) = 25.22212 35.73729 30.47971
# Shear Modulus (GPa) = 2.98248 28.39193 15.68720
#
# Velocity S-wave (km/s) = 1.17880 3.63705 2.70349
# Velocity P-wave (km/s) = 3.68836 5.85559 4.89346
#
# Compressibility (1/GPa) = 0.03964773
#
# Stress axis : x y z
#
# Youngs Moduli (GPa) = 85.58927 81.38987 55.39647
#
# Poissons Ratio (x) = -0.00838 -0.05639
# Poissons Ratio (y) = -0.00881 0.12786
# Poissons Ratio (z) = -0.08712 0.18785
#
# Static dielectric constant tensor:
#      x y z
#    x 1.777840 0.000000 0.011190 
#    y 0.000000 1.762940 0.000000 
#    z 0.011190 0.000000 1.777290 
# 
# From -- ./inp_files/351425.got.cif
#   From: 2010.05.17/outbox.cif.g08.bks.cpg/sg12_176_cif.got.tgz:351425.got - 2010.06.03 13:09:07.
