data_PCOD9198966
_publ_section_title
;
Structure prediction by ZEFSAII (Michael W. Deem and Ramdas Pophale) SiO2 
 PCOD9198966
Probable space group: C 2/M
;
_chemical_formula_sum "Si O2"
_cell_formula_units_Z 56
_cell_length_a 20.010773
_cell_length_b 7.513893
_cell_length_c 16.451687
_cell_angle_alpha 90.000000
_cell_angle_beta 106.074590
_cell_angle_gamma 90.000000
_cell_volume 2376.941142
_symmetry_space_group_name_H-M "C 2/M"
_symmetry_group_IT_number 12
_symmetry_cell_setting 'monoclinic'
loop_
_space_group_symop_operation_xyz
x,y,z
-x,y,-z
-x,-y,-z
x,-y,z
1/2+x,1/2+y,z
1/2-x,1/2+y,-z
1/2-x,1/2-y,-z
1/2+x,1/2-y,z
loop_
_atom_site_type_symbol
_atom_site_label
_atom_site_fract_x
_atom_site_fract_y
_atom_site_fract_z
Si Si1 0.337862 0.297160 0.863513
Si Si2 0.831468 0.213239 0.522417
Si Si3 0.812620 0.282831 0.209065
Si Si4 0.137796 0.294700 0.950867
Si Si5 0.485436 0.283668 0.853713
Si Si6 0.088353 0.207028 0.608009
Si Si7 0.959595 0.217214 0.661621
O O1 0.340390 0.500000 0.833810
O O2 0.266549 0.220171 0.805120
O O3 0.412376 0.218805 0.865676
O O4 0.332883 0.297963 0.959451
O O5 0.750000 0.250000 0.500000
O O6 0.868562 0.283194 0.452933
O O7 0.881325 0.272656 0.613082
O O8 0.836012 0.000000 0.522363
O O9 0.813944 0.500000 0.210111
O O10 0.837418 0.224255 0.128023
O O11 0.863360 0.218445 0.296220
O O12 0.159008 0.500000 0.963847
O O13 0.054203 0.282192 0.921279
O O14 0.488078 0.500000 0.859917
O O15 0.485171 0.228368 0.759151
O O16 0.013725 0.280112 0.611006
O O17 0.075597 0.000000 0.583824
O O18 0.961592 0.000000 0.663116
#
# Coordination Sequence:
#
# PCOD9198966 Si02
#       7
#     8   8   8   8   8   8   8
#     4  10  22  37  56  81 110 148 195 235 274 334
#     4  10  22  38  60  90 119 148 183 228 280 333
#     4  10  22  38  57  83 114 149 188 232 282 336
#     4  11  22  37  56  82 114 148 185 232 291 338
#     4  10  20  36  59  83 107 147 195 232 272 328
#     4  10  20  37  61  86 111 147 193 233 273 326
#     4   9  18  36  61  84 110 148 192 231 268 323
#
# _framework density 23.559691000000001
#
# number of rings (size 3 to 8) (size 9 to 14) (size 15 to 20)
#    0.000    2.000    1.429    1.714    2.000    5.714 
#    0.000    1.429    0.000    1.714    0.000    0.000 
#    0.000    0.000    0.000    0.000    0.000    0.000 
#
# Total GULP energy -156527.138815 kJ/mol
# GULP energy per Si atom -5590.254958 kJ/mol
# Density = 2.350607 g / cm^3
# Si number density = 23.559691 Si / 1000 Ang^3
#
#
#
# Elastic Constant Matrix: (Units=GPa)
#
#
# Indices 1 2 3 4 5 6 
#
# 1 106.7790 -2.7456 20.0806 0.0000 29.1399 0.0000
# 2 -2.7456 63.9670 -9.6878 0.0000 -3.2645 0.0000
# 3 20.0806 -9.6878 62.2972 0.0000 15.3510 0.0000
# 4 0.0000 0.0000 0.0000 7.3352 0.0000 2.0135
# 5 29.1399 -3.2645 15.3510 0.0000 43.0006 0.0000
# 6 0.0000 0.0000 0.0000 2.0135 0.0000 17.1869
#
#
#
# Elastic Compliance Matrix: (Units=1/GPa)
#
#
# Indices 1 2 3 4 5 6 
#
# 1 0.011714 -0.000172 -0.002021 0.000000 -0.007230 0.000000
# 2 -0.000172 0.016018 0.002432 0.000000 0.000465 0.000000
# 3 -0.002021 0.002432 0.018309 0.000000 -0.004982 0.000000
# 4 0.000000 0.000000 0.000000 0.140858 0.000000 -0.016502
# 5 -0.007230 0.000465 -0.004982 0.000000 0.029969 0.000000
# 6 0.000000 0.000000 0.000000 -0.016502 0.000000 0.060117
#
#
# Mechanical properties :
#
#
# Convention : Reuss Voigt Hill
#
# Bulk Modulus (GPa) = 21.49703 27.59308 24.54506
# Shear Modulus (GPa) = 17.12251 28.53094 22.82672
#
# Velocity S-wave (km/s) = 2.69879 3.48373 3.11607
# Velocity P-wave (km/s) = 4.34231 5.28386 4.83605
#
# Compressibility (1/GPa) = 0.04651805
#
# Stress axis : x y z
#
# Youngs Moduli (GPa) = 85.36995 62.43099 54.61672
#
# Poissons Ratio (x) = 0.01076 0.11038
# Poissons Ratio (y) = 0.01471 -0.13283
# Poissons Ratio (z) = 0.17254 -0.15183
#
# Static dielectric constant tensor:
#      x y z
#    x 1.902950 0.000000 -0.022670 
#    y 0.000000 1.907510 0.000000 
#    z -0.022670 0.000000 1.840910 
# 
# From -- ./inp_files/275056.got.cif
#   From: 2010.05.17/outbox.cif.g08.bks.cpg/sg12_138_cif.got.tgz:275056.got - 2010.06.03 13:09:07.
