data_PCOD9198072
_publ_section_title
;
Structure prediction by ZEFSAII (Michael W. Deem and Ramdas Pophale) SiO2 
 PCOD9198072
Probable space group: C 2/M
;
_chemical_formula_sum "Si O2"
_cell_formula_units_Z 56
_cell_length_a 14.415555
_cell_length_b 24.473469
_cell_length_c 9.582638
_cell_angle_alpha 90.000000
_cell_angle_beta 60.453216
_cell_angle_gamma 90.000000
_cell_volume 2941.087429
_symmetry_space_group_name_H-M "C 2/M"
_symmetry_group_IT_number 12
_symmetry_cell_setting 'monoclinic'
loop_
_space_group_symop_operation_xyz
x,y,z
-x,y,-z
-x,-y,-z
x,-y,z
1/2+x,1/2+y,z
1/2-x,1/2+y,-z
1/2-x,1/2-y,-z
1/2+x,1/2-y,z
loop_
_atom_site_type_symbol
_atom_site_label
_atom_site_fract_x
_atom_site_fract_y
_atom_site_fract_z
Si Si1 0.735486 0.394653 0.062079
Si Si2 0.894635 0.297963 0.987988
Si Si3 0.377000 0.938362 0.719535
Si Si4 0.519677 0.167492 0.639764
Si Si5 0.755162 0.626157 0.568180
Si Si6 0.627129 0.320561 0.913381
Si Si7 0.124893 0.064716 0.422577
O O1 0.678850 0.422979 0.233310
O O2 0.815838 0.348481 0.059095
O O3 0.801412 0.434287 0.911213
O O4 0.659612 0.362033 0.011505
O O5 0.946222 0.297487 0.796069
O O6 0.841227 0.241047 0.069028
O O7 0.000000 0.307820 0.000000
O O8 0.468982 0.893698 0.678491
O O9 0.311852 0.917333 0.631984
O O10 0.414228 0.000000 0.674857
O O11 0.500000 0.189220 0.500000
O O12 0.645944 0.160898 0.569545
O O13 0.682824 0.661618 0.727919
O O14 0.685291 0.597890 0.500051
O O15 0.500000 0.320432 0.000000
O O16 0.000000 0.079426 0.500000
O O17 0.131864 0.000000 0.448430
#
# Coordination Sequence:
#
# PCOD9198072 Si02
#       7
#     8   8   8   8   8   8   8
#     4  10  20  36  56  78 108 142 177 217 263 315
#     4  10  20  37  57  79 108 141 175 214 266 320
#     4   9  18  33  56  82 107 140 177 213 259 319
#     4   9  19  34  54  82 112 136 170 219 266 316
#     4  10  20  36  56  79 108 139 176 220 264 310
#     4  10  21  38  57  77 104 142 185 219 253 309
#     4  11  23  37  53  77 109 142 178 222 267 307
#
# _framework density 19.040576999999999
#
# number of rings (size 3 to 8) (size 9 to 14) (size 15 to 20)
#    0.000    2.143    0.000    3.857    0.000    3.143 
#    0.000   11.429    0.000   11.571    0.000    0.000 
#    0.000    0.000    0.000    0.000    0.000    0.000 
#
# Total GULP energy -156233.358843 kJ/mol
# GULP energy per Si atom -5579.762816 kJ/mol
# Density = 1.899724 g / cm^3
# Si number density = 19.040577 Si / 1000 Ang^3
#
#
#
# Elastic Constant Matrix: (Units=GPa)
#
#
# Indices 1 2 3 4 5 6 
#
# 1 82.9122 18.2148 31.7008 0.0000 -7.9380 0.0000
# 2 18.2148 46.7280 16.5467 0.0000 -0.9307 0.0000
# 3 31.7008 16.5467 119.8448 0.0000 -9.0663 0.0000
# 4 0.0000 0.0000 0.0000 6.7966 0.0000 3.4570
# 5 -7.9380 -0.9307 -9.0663 0.0000 24.6350 0.0000
# 6 0.0000 0.0000 0.0000 3.4570 0.0000 60.4731
#
#
#
# Elastic Compliance Matrix: (Units=1/GPa)
#
#
# Indices 1 2 3 4 5 6 
#
# 1 0.014516 -0.004544 -0.002954 0.000000 0.003419 0.000000
# 2 -0.004544 0.023925 -0.002205 0.000000 -0.001372 0.000000
# 3 -0.002954 -0.002205 0.009619 0.000000 0.002505 0.000000
# 4 0.000000 0.000000 0.000000 0.151537 0.000000 -0.008663
# 5 0.003419 -0.001372 0.002505 0.000000 0.042564 0.000000
# 6 0.000000 0.000000 0.000000 -0.008663 0.000000 0.017032
#
#
# Mechanical properties :
#
#
# Convention : Reuss Voigt Hill
#
# Bulk Modulus (GPa) = 34.89850 42.48996 38.69423
# Shear Modulus (GPa) = 17.35198 30.58245 23.96721
#
# Velocity S-wave (km/s) = 3.02208 4.01206 3.55173
# Velocity P-wave (km/s) = 5.52680 6.62012 6.09802
#
# Compressibility (1/GPa) = 0.02865453
#
# Stress axis : x y z
#
# Youngs Moduli (GPa) = 68.89001 41.79667 103.95699
#
# Poissons Ratio (x) = 0.18994 0.30705
# Poissons Ratio (y) = 0.31306 0.22923
# Poissons Ratio (z) = 0.20348 0.09216
#
# Static dielectric constant tensor:
#      x y z
#    x 1.667160 0.000000 -0.019740 
#    y 0.000000 1.651300 0.000000 
#    z -0.019740 0.000000 1.569880 
# 
# From -- ./inp_files/66833.got.cif
#   From: 2010.05.17/outbox.cif.g08.bks.cpg/sg12_34_cif.got.tgz:66833.got - 2010.06.03 13:09:07.
