data_PCOD9198591
_publ_section_title
;
Structure prediction by ZEFSAII (Michael W. Deem and Ramdas Pophale) SiO2 
 PCOD9198591
Probable space group: C 2/M
;
_chemical_formula_sum "Si O2"
_cell_formula_units_Z 56
_cell_length_a 31.876432
_cell_length_b 7.877402
_cell_length_c 19.711740
_cell_angle_alpha 90.000000
_cell_angle_beta 33.674582
_cell_angle_gamma 90.000000
_cell_volume 2744.478770
_symmetry_space_group_name_H-M "C 2/M"
_symmetry_group_IT_number 12
_symmetry_cell_setting 'monoclinic'
loop_
_space_group_symop_operation_xyz
x,y,z
-x,y,-z
-x,-y,-z
x,-y,z
1/2+x,1/2+y,z
1/2-x,1/2+y,-z
1/2-x,1/2-y,-z
1/2+x,1/2-y,z
loop_
_atom_site_type_symbol
_atom_site_label
_atom_site_fract_x
_atom_site_fract_y
_atom_site_fract_z
Si Si1 0.821335 0.300822 0.311123
Si Si2 0.346765 0.794385 0.428890
Si Si3 0.774963 0.794710 0.889512
Si Si4 0.570229 0.694108 0.947561
Si Si5 0.625181 0.201972 0.020831
Si Si6 0.499795 0.206427 0.295764
Si Si7 0.055720 0.201191 0.367070
O O1 0.838240 0.500000 0.280096
O O2 0.731572 0.275467 0.436835
O O3 0.853232 0.242525 0.341276
O O4 0.859445 0.204705 0.198160
O O5 0.419035 0.741686 0.374465
O O6 0.341830 0.000000 0.435556
O O7 0.858497 0.729712 0.756780
O O8 0.778346 0.000000 0.882450
O O9 0.750000 0.750000 0.000000
O O10 0.708828 0.733617 0.927538
O O11 0.549052 0.500000 0.990464
O O12 0.500000 0.773565 0.000000
O O13 0.594600 0.769371 0.986541
O O14 0.565136 0.267253 0.156687
O O15 0.628508 0.000000 0.025868
O O16 0.515967 0.273227 0.348420
O O17 0.501205 0.000000 0.295632
O O18 0.000000 0.272664 0.500000
O O19 0.063837 0.000000 0.369927
#
# Coordination Sequence:
#
# PCOD9198591 Si02
#       7
#     8   8   8   8   8   8   8
#     4  10  20  36  58  81 110 152 192 233 287 344
#     4   9  19  35  56  82 113 147 187 234 286 344
#     4  10  20  37  61  85 115 153 194 244 294 350
#     4  11  24  39  56  83 119 153 191 242 292 343
#     4  10  21  37  59  86 114 152 200 243 290 351
#     4  10  20  36  58  84 113 146 188 237 287 344
#     4  10  22  38  56  83 119 153 189 239 295 350
#
# _framework density 20.404603999999999
#
# number of rings (size 3 to 8) (size 9 to 14) (size 15 to 20)
#    0.000    2.000    1.429    1.714    0.000    6.000 
#    0.000    1.429    0.000    0.000    0.000    0.000 
#    0.000    0.000    0.000    0.000    0.000    0.000 
#
# Total GULP energy -156342.006353 kJ/mol
# GULP energy per Si atom -5583.643084 kJ/mol
# Density = 2.035816 g / cm^3
# Si number density = 20.404604 Si / 1000 Ang^3
#
#
#
# Elastic Constant Matrix: (Units=GPa)
#
#
# Indices 1 2 3 4 5 6 
#
# 1 162.4983 -1.2299 91.4893 0.0462 -10.0774 0.0155
# 2 -1.2299 17.4844 2.8221 -0.1362 -4.4134 -0.0125
# 3 91.4893 2.8221 134.3606 -0.0666 12.3594 0.0001
# 4 0.0462 -0.1362 -0.0666 178.9715 -0.0102 35.5103
# 5 -10.0774 -4.4134 12.3594 -0.0102 32.7098 -0.0048
# 6 0.0155 -0.0125 0.0001 35.5103 -0.0048 29.6266
#
#
#
# Elastic Compliance Matrix: (Units=1/GPa)
#
#
# Indices 1 2 3 4 5 6 
#
# 1 0.011455 0.004031 -0.008557 -0.000003 0.007306 0.000000
# 2 0.004031 0.061179 -0.005080 0.000051 0.011416 -0.000036
# 3 -0.008557 -0.005080 0.014174 0.000004 -0.008677 -0.000004
# 4 -0.000003 0.000051 0.000004 0.007331 0.000006 -0.008787
# 5 0.007306 0.011416 -0.008677 0.000006 0.037642 0.000000
# 6 0.000000 -0.000036 -0.000004 -0.008787 0.000000 0.044285
#
#
# Mechanical properties :
#
#
# Convention : Reuss Voigt Hill
#
# Bulk Modulus (GPa) = 14.79350 55.61179 35.20265
# Shear Modulus (GPa) = 22.95573 63.01236 42.98405
#
# Velocity S-wave (km/s) = 3.35778 5.56314 4.59473
# Velocity P-wave (km/s) = 4.72215 8.28120 6.74081
#
# Compressibility (1/GPa) = 0.06759726
#
# Stress axis : x y z
#
# Youngs Moduli (GPa) = 87.29695 16.34538 70.55122
#
# Poissons Ratio (x) = -0.06589 0.60369
# Poissons Ratio (y) = -0.35190 0.35840
# Poissons Ratio (z) = 0.74698 0.08303
#
# Static dielectric constant tensor:
#      x y z
#    x 1.703260 -0.000010 -0.031580 
#    y -0.000010 1.748440 0.000010 
#    z -0.031580 0.000010 1.714360 
# 
# From -- ./inp_files/292434.got.cif
#   From: 2010.05.17/outbox.cif.g08.bks.cpg/sg12_147_cif.got.tgz:292434.got - 2010.06.03 13:09:07.
