data_PCOD9198382
_publ_section_title
;
Structure prediction by ZEFSAII (Michael W. Deem and Ramdas Pophale) SiO2 
 PCOD9198382
Probable space group: C 2/M
;
_chemical_formula_sum "Si O2"
_cell_formula_units_Z 56
_cell_length_a 7.098698
_cell_length_b 27.503655
_cell_length_c 16.706672
_cell_angle_alpha 90.000000
_cell_angle_beta 54.612196
_cell_angle_gamma 90.000000
_cell_volume 2659.196576
_symmetry_space_group_name_H-M "C 2/M"
_symmetry_group_IT_number 12
_symmetry_cell_setting 'monoclinic'
loop_
_space_group_symop_operation_xyz
x,y,z
-x,y,-z
-x,-y,-z
x,-y,z
1/2+x,1/2+y,z
1/2-x,1/2+y,-z
1/2-x,1/2-y,-z
1/2+x,1/2-y,z
loop_
_atom_site_type_symbol
_atom_site_label
_atom_site_fract_x
_atom_site_fract_y
_atom_site_fract_z
Si Si1 0.433659 0.190903 0.318911
Si Si2 0.256398 0.646865 0.478305
Si Si3 0.029714 0.899472 0.189238
Si Si4 0.030885 0.405640 0.225243
Si Si5 0.548584 0.444057 0.361639
Si Si6 0.082380 0.197533 0.713280
Si Si7 0.747725 0.555957 0.984522
O O1 0.261734 0.172977 0.431369
O O2 0.444335 0.149739 0.249511
O O3 0.670954 0.188228 0.308703
O O4 0.435659 0.244541 0.282072
O O5 0.380320 0.594515 0.446265
O O6 0.403448 0.680990 0.382315
O O7 0.000000 0.641942 0.500000
O O8 0.771529 0.908043 0.215241
O O9 0.067092 0.842531 0.202510
O O10 0.036021 0.929455 0.270312
O O11 0.206899 0.916998 0.077976
O O12 0.819641 0.435748 0.315245
O O13 0.080194 0.422051 0.123065
O O14 0.484685 0.500000 0.390379
O O15 0.805720 0.500000 0.984825
O O16 0.500000 0.557225 0.000000
#
# Coordination Sequence:
#
# PCOD9198382 Si02
#       7
#     8   8   8   8   8   8   8
#     4  10  20  36  57  82 113 152 184 245 292 333
#     4   9  20  39  56  84 117 147 197 242 285 350
#     4   9  20  39  60  86 119 148 190 244 287 343
#     4  10  22  38  56  87 123 147 196 241 282 345
#     4  11  23  38  60  85 116 158 193 238 292 339
#     4   9  19  34  59  85 111 146 191 236 297 344
#     4   9  17  34  61  85 111 154 193 230 284 340
#
# _framework density 21.058993000000001
#
# number of rings (size 3 to 8) (size 9 to 14) (size 15 to 20)
#    0.000    2.429    0.000    2.143    4.000    3.143 
#    0.000    4.286    0.000    0.000    0.000    0.000 
#    0.000    0.000    0.000    0.000    0.000    0.000 
#
# Total GULP energy -156270.768858 kJ/mol
# GULP energy per Si atom -5581.098888 kJ/mol
# Density = 2.101106 g / cm^3
# Si number density = 21.058993 Si / 1000 Ang^3
#
#
#
# Elastic Constant Matrix: (Units=GPa)
#
#
# Indices 1 2 3 4 5 6 
#
# 1 81.9732 -5.3487 17.6001 0.0000 3.1630 0.0000
# 2 -5.3487 171.8430 64.8100 0.0000 3.5556 0.0000
# 3 17.6001 64.8100 110.8609 0.0000 11.9043 0.0000
# 4 0.0000 0.0000 0.0000 19.9581 0.0000 2.7710
# 5 3.1630 3.5556 11.9043 0.0000 15.9234 0.0000
# 6 0.0000 0.0000 0.0000 2.7710 0.0000 18.1553
#
#
#
# Elastic Compliance Matrix: (Units=1/GPa)
#
#
# Indices 1 2 3 4 5 6 
#
# 1 0.012936 0.001490 -0.002842 0.000000 -0.000778 0.000000
# 2 0.001490 0.007681 -0.004905 0.000000 0.001656 0.000000
# 3 -0.002842 -0.004905 0.013222 0.000000 -0.008225 0.000000
# 4 0.000000 0.000000 0.000000 0.051190 0.000000 -0.007813
# 5 -0.000778 0.001656 -0.008225 0.000000 0.068735 0.000000
# 6 0.000000 0.000000 0.000000 -0.007813 0.000000 0.056273
#
#
# Mechanical properties :
#
#
# Convention : Reuss Voigt Hill
#
# Bulk Modulus (GPa) = 46.88715 57.64443 52.26579
# Shear Modulus (GPa) = 21.77146 29.98175 25.87660
#
# Velocity S-wave (km/s) = 3.21881 3.77729 3.50918
# Velocity P-wave (km/s) = 6.01060 6.81588 6.42587
#
# Compressibility (1/GPa) = 0.02132781
#
# Stress axis : x y z
#
# Youngs Moduli (GPa) = 77.30079 130.18669 75.63084
#
# Poissons Ratio (x) = -0.19403 0.21491
# Poissons Ratio (y) = -0.11521 0.37096
# Poissons Ratio (z) = 0.21965 0.63856
#
# Static dielectric constant tensor:
#      x y z
#    x 1.851340 0.000000 -0.012770 
#    y 0.000000 1.796920 0.000000 
#    z -0.012770 0.000000 1.741160 
# 
# From -- ./inp_files/259160.got.cif
#   From: 2010.05.17/outbox.cif.g08.bks.cpg/sg12_130_cif.got.tgz:259160.got - 2010.06.03 13:09:07.
