data_PCOD9198038
_publ_section_title
;
Structure prediction by ZEFSAII (Michael W. Deem and Ramdas Pophale) SiO2 
 PCOD9198038
Probable space group: C 2/M
;
_chemical_formula_sum "Si O2"
_cell_formula_units_Z 64
_cell_length_a 14.460739
_cell_length_b 9.180917
_cell_length_c 27.566371
_cell_angle_alpha 90.000000
_cell_angle_beta 75.964838
_cell_angle_gamma 90.000000
_cell_volume 3550.534406
_symmetry_space_group_name_H-M "C 2/M"
_symmetry_group_IT_number 12
_symmetry_cell_setting 'monoclinic'
loop_
_space_group_symop_operation_xyz
x,y,z
-x,y,-z
-x,-y,-z
x,-y,z
1/2+x,1/2+y,z
1/2-x,1/2+y,-z
1/2-x,1/2-y,-z
1/2+x,1/2-y,z
loop_
_atom_site_type_symbol
_atom_site_label
_atom_site_fract_x
_atom_site_fract_y
_atom_site_fract_z
Si Si1 0.627665 0.172620 0.889015
Si Si2 0.532208 0.322616 0.443014
Si Si3 0.390042 0.326300 0.719954
Si Si4 0.115825 0.166158 0.989382
Si Si5 0.778397 0.174153 0.634602
Si Si6 0.920641 0.175305 0.361028
Si Si7 0.097934 0.327988 0.088957
Si Si8 0.798191 0.326293 0.823106
O O1 0.648845 0.240964 0.939155
O O2 0.515795 0.198509 0.893160
O O3 0.695478 0.251134 0.841969
O O4 0.644453 0.000000 0.887218
O O5 0.500000 0.271712 0.500000
O O6 0.532313 0.500000 0.443394
O O7 0.638615 0.278761 0.413478
O O8 0.460803 0.279549 0.408792
O O9 0.387643 0.500000 0.730006
O O10 0.321071 0.298577 0.682730
O O11 0.496297 0.288120 0.688156
O O12 0.355059 0.238523 0.770684
O O13 0.150178 0.000000 0.981732
O O14 0.137282 0.238175 0.038326
O O15 0.000000 0.164056 0.000000
O O16 0.679286 0.252675 0.638310
O O17 0.766291 0.000000 0.631413
O O18 0.911726 0.000000 0.362373
O O19 0.110372 0.500000 0.077374
O O20 0.146476 0.293148 0.133765
O O21 0.788811 0.500000 0.820203
#
# Coordination Sequence:
#
# PCOD9198038 Si02
#       8
#     8   8   8   8   8   8   8   8
#     4  10  20  36  56  76 103 138 169 201 250 311
#     4   8  15  30  51  76 110 148 179 209 252 308
#     4   9  20  38  53  69  99 136 171 208 257 315
#     4   9  17  31  53  79 104 131 167 209 248 293
#     4   9  18  33  54  77 102 137 178 215 255 306
#     4   9  18  33  54  78 103 136 178 218 256 303
#     4   9  20  37  54  74 102 134 166 202 251 310
#     4  11  23  37  54  78 103 128 167 217 261 302
#
# _framework density 18.025455999999998
#
# number of rings (size 3 to 8) (size 9 to 14) (size 15 to 20)
#    0.000    2.750    0.000    2.625    0.000    6.000 
#    0.000    5.625    0.000    0.750    0.000    0.000 
#    0.000    0.000    0.000    0.000    0.000    0.000 
#
# Total GULP energy -178580.510727 kJ/mol
# GULP energy per Si atom -5580.640960 kJ/mol
# Density = 1.798443 g / cm^3
# Si number density = 18.025456 Si / 1000 Ang^3
#
#
#
# Elastic Constant Matrix: (Units=GPa)
#
#
# Indices 1 2 3 4 5 6 
#
# 1 116.4297 42.0154 50.8585 0.0000 -18.2354 0.0000
# 2 42.0154 43.6838 47.7873 0.0000 -7.2760 0.0000
# 3 50.8585 47.7873 116.1504 0.0000 -18.6152 0.0000
# 4 0.0000 0.0000 0.0000 25.2397 0.0000 -0.5800
# 5 -18.2354 -7.2760 -18.6152 0.0000 11.1013 0.0000
# 6 0.0000 0.0000 0.0000 -0.5800 0.0000 29.3895
#
#
#
# Elastic Compliance Matrix: (Units=1/GPa)
#
#
# Indices 1 2 3 4 5 6 
#
# 1 0.016062 -0.014431 0.002211 0.000000 0.020634 0.000000
# 2 -0.014431 0.054623 -0.019440 0.000000 -0.020502 0.000000
# 3 0.002211 -0.019440 0.019391 0.000000 0.023406 0.000000
# 4 0.000000 0.000000 0.000000 0.039638 0.000000 0.000782
# 5 0.020634 -0.020502 0.023406 0.000000 0.149785 0.000000
# 6 0.000000 0.000000 0.000000 0.000782 0.000000 0.034041
#
#
# Mechanical properties :
#
#
# Convention : Reuss Voigt Hill
#
# Bulk Modulus (GPa) = 37.37491 61.95403 49.66447
# Shear Modulus (GPa) = 12.96077 22.18628 17.57352
#
# Velocity S-wave (km/s) = 2.68437 3.51213 3.12577
# Velocity P-wave (km/s) = 5.51247 7.13384 6.37491
#
# Compressibility (1/GPa) = 0.02675592
#
# Stress axis : x y z
#
# Youngs Moduli (GPa) = 62.25739 18.30724 51.57037
#
# Poissons Ratio (x) = 0.26419 -0.11402
# Poissons Ratio (y) = 0.89842 1.00255
# Poissons Ratio (z) = -0.13765 0.35590
#
# Static dielectric constant tensor:
#      x y z
#    x 1.626530 0.000000 -0.010570 
#    y 0.000000 1.598280 0.000000 
#    z -0.010570 0.000000 1.598910 
# 
# From -- ./inp_files/359753.got.cif
#   From: 2010.05.17/outbox.cif.g08.bks.cpg/sg12_180_cif.got.tgz:359753.got - 2010.06.03 13:09:07.
