data_PCOD9198632
_publ_section_title
;
Structure prediction by ZEFSAII (Michael W. Deem and Ramdas Pophale) SiO2 
 PCOD9198632
Probable space group: C 2/M
;
_chemical_formula_sum "Si O2"
_cell_formula_units_Z 56
_cell_length_a 19.136767
_cell_length_b 7.740310
_cell_length_c 28.128800
_cell_angle_alpha 90.000000
_cell_angle_beta 37.309127
_cell_angle_gamma 90.000000
_cell_volume 2525.417808
_symmetry_space_group_name_H-M "C 2/M"
_symmetry_group_IT_number 12
_symmetry_cell_setting 'monoclinic'
loop_
_space_group_symop_operation_xyz
x,y,z
-x,y,-z
-x,-y,-z
x,-y,z
1/2+x,1/2+y,z
1/2-x,1/2+y,-z
1/2-x,1/2-y,-z
1/2+x,1/2-y,z
loop_
_atom_site_type_symbol
_atom_site_label
_atom_site_fract_x
_atom_site_fract_y
_atom_site_fract_z
Si Si1 0.885840 0.791059 0.168438
Si Si2 0.396234 0.288447 0.523246
Si Si3 0.332898 0.203995 0.299790
Si Si4 0.146731 0.791730 0.019490
Si Si5 0.207946 0.800540 0.882202
Si Si6 0.468366 0.702281 0.742449
Si Si7 0.115837 0.206997 0.574254
O O1 0.816246 0.735173 0.252854
O O2 0.837559 0.728099 0.143517
O O3 0.882865 0.000000 0.169412
O O4 0.018674 0.733997 0.103517
O O5 0.500000 0.234055 0.500000
O O6 0.391614 0.500000 0.525438
O O7 0.273626 0.229122 0.610647
O O8 0.425830 0.230624 0.454245
O O9 0.452680 0.282089 0.253626
O O10 0.340745 0.000000 0.303420
O O11 0.167422 0.724051 0.954540
O O12 0.144439 0.000000 0.018419
O O13 0.250000 0.750000 0.000000
O O14 0.346127 0.793946 0.809579
O O15 0.168264 0.000000 0.903769
O O16 0.443494 0.500000 0.748196
O O17 0.546791 0.773474 0.656882
O O18 0.250000 0.250000 0.500000
O O19 0.105618 0.000000 0.581829
#
# Coordination Sequence:
#
# PCOD9198632 Si02
#       7
#     8   8   8   8   8   8   8
#     4  10  22  40  61  86 120 153 188 239 291 339
#     4   9  19  35  56  80 110 148 190 236 286 339
#     4  11  22  37  60  85 115 155 198 238 286 350
#     4  10  21  39  63  88 115 153 194 231 282 342
#     4  10  22  40  62  87 117 154 194 234 285 348
#     4  11  23  37  58  86 119 153 194 244 291 340
#     4  10  20  36  58  82 111 149 192 238 288 342
#
# _framework density 22.174548000000001
#
# number of rings (size 3 to 8) (size 9 to 14) (size 15 to 20)
#    0.000    1.857    1.429    2.143    2.000    6.286 
#    0.000    0.000    0.000    4.714    0.000    0.000 
#    0.000    0.000    0.000    0.000    0.000    0.000 
#
# Total GULP energy -156403.470658 kJ/mol
# GULP energy per Si atom -5585.838238 kJ/mol
# Density = 2.212408 g / cm^3
# Si number density = 22.174548 Si / 1000 Ang^3
#
#
#
# Elastic Constant Matrix: (Units=GPa)
#
#
# Indices 1 2 3 4 5 6 
#
# 1 110.2442 -5.3201 6.6307 -0.0008 17.0441 -0.0040
# 2 -5.3201 40.9192 -3.3679 0.0041 2.5351 0.0090
# 3 6.6307 -3.3679 82.0246 0.0009 19.0105 0.0006
# 4 -0.0008 0.0041 0.0009 10.5773 -0.0010 3.5578
# 5 17.0441 2.5351 19.0105 -0.0010 43.1814 0.0002
# 6 -0.0040 0.0090 0.0006 3.5578 0.0002 21.4676
#
#
#
# Elastic Compliance Matrix: (Units=1/GPa)
#
#
# Indices 1 2 3 4 5 6 
#
# 1 0.009756 0.001535 0.000209 -0.000001 -0.004033 0.000001
# 2 0.001535 0.024935 0.001536 -0.000007 -0.002746 -0.000009
# 3 0.000209 0.001536 0.013673 -0.000002 -0.006192 -0.000001
# 4 -0.000001 -0.000007 -0.000002 0.100124 0.000004 -0.016593
# 5 -0.004033 -0.002746 -0.006192 0.000004 0.027637 0.000000
# 6 0.000001 -0.000009 -0.000001 -0.016593 0.000000 0.049332
#
#
# Mechanical properties :
#
#
# Convention : Reuss Voigt Hill
#
# Bulk Modulus (GPa) = 18.20675 25.45259 21.82967
# Shear Modulus (GPa) = 21.07899 30.72826 25.90362
#
# Velocity S-wave (km/s) = 3.08652 3.72660 3.42156
# Velocity P-wave (km/s) = 4.57499 5.47904 5.04730
#
# Compressibility (1/GPa) = 0.05492470
#
# Stress axis : x y z
#
# Youngs Moduli (GPa) = 102.50323 40.10484 73.13809
#
# Poissons Ratio (x) = -0.06158 -0.01529
# Poissons Ratio (y) = -0.15739 -0.11235
# Poissons Ratio (z) = -0.02143 -0.06161
#
# Static dielectric constant tensor:
#      x y z
#    x 1.854730 0.000000 0.056730 
#    y 0.000000 1.832370 0.000000 
#    z 0.056730 0.000000 1.817540 
# 
# From -- ./inp_files/363011.got.cif
#   From: 2010.05.17/outbox.cif.g08.bks.cpg/sg12_182_cif.got.tgz:363011.got - 2010.06.03 13:09:07.
