data_PCOD9198021
_publ_section_title
;
Structure prediction by ZEFSAII (Michael W. Deem and Ramdas Pophale) SiO2 
 PCOD9198021
Probable space group: C 2/M
;
_chemical_formula_sum "Si O2"
_cell_formula_units_Z 52
_cell_length_a 21.899284
_cell_length_b 11.878140
_cell_length_c 12.612306
_cell_angle_alpha 90.000000
_cell_angle_beta 128.914687
_cell_angle_gamma 90.000000
_cell_volume 2552.691361
_symmetry_space_group_name_H-M "C 2/M"
_symmetry_group_IT_number 12
_symmetry_cell_setting 'monoclinic'
loop_
_space_group_symop_operation_xyz
x,y,z
-x,y,-z
-x,-y,-z
x,-y,z
1/2+x,1/2+y,z
1/2-x,1/2+y,-z
1/2-x,1/2-y,-z
1/2+x,1/2-y,z
loop_
_atom_site_type_symbol
_atom_site_label
_atom_site_fract_x
_atom_site_fract_y
_atom_site_fract_z
Si Si1 0.168100 0.678964 0.289190
Si Si2 0.680833 0.000000 0.656366
Si Si3 0.635779 0.253844 0.857579
Si Si4 0.593465 0.000000 0.778528
Si Si5 0.514316 0.636088 0.395523
Si Si6 0.084007 0.500000 0.331749
Si Si7 0.162211 0.871803 0.430748
Si Si8 0.736345 0.277554 0.166148
O O1 0.102282 0.602882 0.271796
O O2 0.151296 0.802640 0.313224
O O3 0.249925 0.640422 0.431481
O O4 0.188841 0.691436 0.189053
O O5 0.612732 0.000000 0.673101
O O6 0.731925 0.112787 0.735883
O O7 0.644020 0.000000 0.498148
O O8 0.630237 0.117525 0.860414
O O9 0.550477 0.305353 0.747620
O O10 0.688095 0.276559 0.809651
O O11 0.679710 0.306365 0.006032
O O12 0.502405 0.000000 0.712568
O O13 0.500000 0.672734 0.500000
O O14 0.506634 0.500000 0.382944
O O15 0.600783 0.669886 0.451595
O O16 0.144770 0.000000 0.391320
#
# Coordination Sequence:
#
# PCOD9198021 Si02
#       8
#     8   4   8   4   8   4   8   8
#     4  11  22  36  58  89 122 164 196 251 309 371
#     4  10  21  40  66  95 121 162 218 265 317 357
#     4  10  22  43  62  92 122 164 208 259 307 374
#     4  10  23  41  64  91 127 164 209 267 315 372
#     4  10  21  37  61  89 120 156 198 256 308 356
#     4  12  23  39  64  98 128 164 206 266 317 379
#     4  10  20  36  55  85 120 151 200 251 297 358
#     4  10  23  39  63  89 124 164 210 254 308 374
#
# _framework density 20.370657999999999
#
# number of rings (size 3 to 8) (size 9 to 14) (size 15 to 20)
#    0.000    1.692    0.769    3.923    2.154    4.308 
#    2.769    3.846    0.000    1.846    0.000    0.000 
#    0.000    0.000    0.000    0.000    0.000    0.000 
#
# Total GULP energy -145105.727209 kJ/mol
# GULP energy per Si atom -5580.989508 kJ/mol
# Density = 2.032429 g / cm^3
# Si number density = 20.370658 Si / 1000 Ang^3
#
#
#
# Elastic Constant Matrix: (Units=GPa)
#
#
# Indices 1 2 3 4 5 6 
#
# 1 137.7441 34.0772 17.7608 0.0000 -12.0092 0.0000
# 2 34.0772 34.9803 16.1573 0.0000 -13.6765 0.0000
# 3 17.7608 16.1573 40.1666 0.0000 -10.4603 0.0000
# 4 0.0000 0.0000 0.0000 18.3700 0.0000 8.5111
# 5 -12.0092 -13.6765 -10.4603 0.0000 30.3798 0.0000
# 6 0.0000 0.0000 0.0000 8.5111 0.0000 80.3514
#
#
#
# Elastic Compliance Matrix: (Units=1/GPa)
#
#
# Indices 1 2 3 4 5 6 
#
# 1 0.009586 -0.009269 -0.000670 0.000000 -0.000614 0.000000
# 2 -0.009269 0.048584 -0.011757 0.000000 0.014159 0.000000
# 3 -0.000670 -0.011757 0.031279 0.000000 0.005212 0.000000
# 4 0.000000 0.000000 0.000000 0.057246 0.000000 -0.006064
# 5 -0.000614 0.014159 0.005212 0.000000 0.040843 0.000000
# 6 0.000000 0.000000 0.000000 -0.006064 0.000000 0.013088
#
#
# Mechanical properties :
#
#
# Convention : Reuss Voigt Hill
#
# Bulk Modulus (GPa) = 21.71248 38.76461 30.23854
# Shear Modulus (GPa) = 19.27747 35.47994 27.37871
#
# Velocity S-wave (km/s) = 3.07959 4.17792 3.67007
# Velocity P-wave (km/s) = 4.82981 6.50725 5.73024
#
# Compressibility (1/GPa) = 0.04605647
#
# Stress axis : x y z
#
# Youngs Moduli (GPa) = 104.32129 20.58300 31.96984
#
# Poissons Ratio (x) = 0.19078 0.02142
# Poissons Ratio (y) = 0.96694 0.37588
# Poissons Ratio (z) = 0.06990 0.24200
#
# Static dielectric constant tensor:
#      x y z
#    x 1.763510 0.000000 -0.013950 
#    y 0.000000 1.759380 0.000000 
#    z -0.013950 0.000000 1.689620 
# 
# From -- ./inp_files/165799.got.cif
#   From: 2010.05.17/outbox.cif.g08.bks.cpg/sg12_83_cif.got.tgz:165799.got - 2010.06.03 13:09:07.
