data_PCOD9198171
_publ_section_title
;
Structure prediction by ZEFSAII (Michael W. Deem and Ramdas Pophale) SiO2 
 PCOD9198171
Probable space group: C 2/M
;
_chemical_formula_sum "Si O2"
_cell_formula_units_Z 56
_cell_length_a 29.341893
_cell_length_b 9.734869
_cell_length_c 21.455396
_cell_angle_alpha 90.000000
_cell_angle_beta 151.256721
_cell_angle_gamma 90.000000
_cell_volume 2947.113345
_symmetry_space_group_name_H-M "C 2/M"
_symmetry_group_IT_number 12
_symmetry_cell_setting 'monoclinic'
loop_
_space_group_symop_operation_xyz
x,y,z
-x,y,-z
-x,-y,-z
x,-y,z
1/2+x,1/2+y,z
1/2-x,1/2+y,-z
1/2-x,1/2-y,-z
1/2+x,1/2-y,z
loop_
_atom_site_type_symbol
_atom_site_label
_atom_site_fract_x
_atom_site_fract_y
_atom_site_fract_z
Si Si1 0.666595 0.658527 0.588166
Si Si2 0.659190 0.342614 0.899650
Si Si3 0.446024 0.346008 0.357053
Si Si4 0.027691 0.335535 0.104726
Si Si5 0.395585 0.340585 0.034519
Si Si6 0.231532 0.336051 0.414481
Si Si7 0.191470 0.340403 0.729831
O O1 0.697783 0.500000 0.635793
O O2 0.556547 0.669115 0.474875
O O3 0.688083 0.689491 0.541847
O O4 0.715797 0.762095 0.694938
O O5 0.688606 0.500000 0.947558
O O6 0.602647 0.338599 0.768224
O O7 0.750000 0.250000 0.000000
O O8 0.596583 0.300611 0.883749
O O9 0.428357 0.500000 0.361709
O O10 0.395460 0.236009 0.340388
O O11 0.016481 0.500000 0.095538
O O12 0.133171 0.304737 0.258847
O O13 0.955370 0.256804 0.062455
O O14 0.000000 0.297820 0.000000
O O15 0.424433 0.500000 0.060824
O O16 0.284390 0.330621 0.884309
O O17 0.231098 0.500000 0.428458
O O18 0.250000 0.250000 0.500000
O O19 0.169783 0.500000 0.692823
#
# Coordination Sequence:
#
# PCOD9198171 Si02
#       7
#     8   8   8   8   8   8   8
#     4  10  22  40  61  83 112 154 198 236 283 347
#     4  10  20  36  56  82 115 151 191 236 286 343
#     4  10  21  36  58  84 113 154 198 231 278 347
#     4  10  22  41  64  91 119 153 202 252 298 352
#     4  10  22  37  58  87 118 151 190 237 293 350
#     4  10  23  42  64  90 121 158 200 250 302 354
#     4  11  22  37  57  87 122 152 187 237 292 344
#
# _framework density 19.001645
#
# number of rings (size 3 to 8) (size 9 to 14) (size 15 to 20)
#    0.000    1.857    1.429    1.714    2.000    6.571 
#    0.000    0.000    0.000    0.000    0.000    0.000 
#    0.000    0.000    0.000    0.000    0.000    0.000 
#
# Total GULP energy -156254.342866 kJ/mol
# GULP energy per Si atom -5580.512245 kJ/mol
# Density = 1.895840 g / cm^3
# Si number density = 19.001645 Si / 1000 Ang^3
#
#
#
# Elastic Constant Matrix: (Units=GPa)
#
#
# Indices 1 2 3 4 5 6 
#
# 1 147.1897 73.8406 38.8284 0.0000 -22.5467 0.0000
# 2 73.8406 77.0429 39.5484 0.0000 -13.7373 0.0000
# 3 38.8284 39.5484 79.3681 0.0000 -20.2283 0.0000
# 4 0.0000 0.0000 0.0000 23.0853 0.0000 -4.9386
# 5 -22.5467 -13.7373 -20.2283 0.0000 35.5422 0.0000
# 6 0.0000 0.0000 0.0000 -4.9386 0.0000 37.4291
#
#
#
# Elastic Compliance Matrix: (Units=1/GPa)
#
#
# Indices 1 2 3 4 5 6 
#
# 1 0.013585 -0.012647 0.000710 0.000000 0.004133 0.000000
# 2 -0.012647 0.029351 -0.008879 0.000000 -0.001732 0.000000
# 3 0.000710 -0.008879 0.018617 0.000000 0.007614 0.000000
# 4 0.000000 0.000000 0.000000 0.044576 0.000000 0.005882
# 5 0.004133 -0.001732 0.007614 0.000000 0.034421 0.000000
# 6 0.000000 0.000000 0.000000 0.005882 0.000000 0.027493
#
#
# Mechanical properties :
#
#
# Convention : Reuss Voigt Hill
#
# Bulk Modulus (GPa) = 50.20445 67.55951 58.88198
# Shear Modulus (GPa) = 23.11425 29.30353 26.20889
#
# Velocity S-wave (km/s) = 3.49153 3.93129 3.71792
# Velocity P-wave (km/s) = 6.53703 7.49923 7.03460
#
# Compressibility (1/GPa) = 0.01991855
#
# Stress axis : x y z
#
# Youngs Moduli (GPa) = 73.61247 34.07096 53.71302
#
# Poissons Ratio (x) = 0.43090 -0.03811
# Poissons Ratio (y) = 0.93100 0.47694
# Poissons Ratio (z) = -0.05223 0.30253
#
# Static dielectric constant tensor:
#      x y z
#    x 1.650280 0.000000 -0.013650 
#    y 0.000000 1.648050 0.000000 
#    z -0.013650 0.000000 1.693540 
# 
# From -- ./inp_files/329655.got.cif
#   From: 2010.05.17/outbox.cif.g08.bks.cpg/sg12_165_cif.got.tgz:329655.got - 2010.06.03 13:09:07.
