data_PCOD9198757
_publ_section_title
;
Structure prediction by ZEFSAII (Michael W. Deem and Ramdas Pophale) SiO2 
 PCOD9198757
Probable space group: C 2/M
;
_chemical_formula_sum "Si O2"
_cell_formula_units_Z 50
_cell_length_a 18.347482
_cell_length_b 7.357124
_cell_length_c 17.243923
_cell_angle_alpha 90.000000
_cell_angle_beta 64.278569
_cell_angle_gamma 90.000000
_cell_volume 2097.028435
_symmetry_space_group_name_H-M "C 2/M"
_symmetry_group_IT_number 12
_symmetry_cell_setting 'monoclinic'
loop_
_space_group_symop_operation_xyz
x,y,z
-x,y,-z
-x,-y,-z
x,-y,z
1/2+x,1/2+y,z
1/2-x,1/2+y,-z
1/2-x,1/2-y,-z
1/2+x,1/2-y,z
loop_
_atom_site_type_symbol
_atom_site_label
_atom_site_fract_x
_atom_site_fract_y
_atom_site_fract_z
Si Si1 0.410834 0.214412 0.806791
Si Si2 0.797930 0.781394 0.302783
Si Si3 0.123416 0.281736 0.451452
Si Si4 0.061100 0.291449 0.645696
Si Si5 0.428206 0.719025 0.976779
Si Si6 0.729486 0.277965 0.861092
Si Si7 0.500000 0.500000 0.500000
O O1 0.479750 0.291244 0.718651
O O2 0.438996 0.232001 0.882430
O O3 0.319758 0.285901 0.839584
O O4 0.405608 0.000000 0.791468
O O5 0.713939 0.736093 0.384229
O O6 0.873279 0.710418 0.316129
O O7 0.793494 0.723442 0.215656
O O8 0.804710 0.000000 0.299967
O O9 0.113561 0.500000 0.446618
O O10 0.104215 0.216282 0.548617
O O11 0.058816 0.161606 0.436236
O O12 0.043686 0.500000 0.632726
O O13 0.428474 0.500000 0.980614
O O14 0.500000 0.783073 0.000000
O O15 0.340766 0.781787 0.048055
O O16 0.730260 0.500000 0.862543
#
# Coordination Sequence:
#
# PCOD9198757 Si02
#       7
#     8   8   8   8   8   8   2
#     4  10  21  37  58  83 117 158 199 246 311 372
#     4  10  21  39  65  89 118 163 208 254 312 379
#     4  10  24  43  65  94 132 170 210 262 321 371
#     4  10  22  39  60  87 123 163 206 259 313 374
#     4  10  20  36  58  84 115 151 197 253 305 369
#     4   9  19  36  58  84 117 156 197 248 317 374
#     4  12  26  40  68  98 128 168 216 268 308 386
#
# _framework density 23.843261999999999
#
# number of rings (size 3 to 8) (size 9 to 14) (size 15 to 20)
#    0.000    2.080    0.000    2.160    4.480    2.240 
#    0.000    1.600    0.000    0.000    0.000    0.000 
#    0.000    0.000    0.000    0.000    0.000    0.000 
#
# Total GULP energy -139563.378013 kJ/mol
# GULP energy per Si atom -5582.535121 kJ/mol
# Density = 2.378899 g / cm^3
# Si number density = 23.843262 Si / 1000 Ang^3
#
#
#
# Elastic Constant Matrix: (Units=GPa)
#
#
# Indices 1 2 3 4 5 6 
#
# 1 68.5907 0.8065 21.7154 0.0006 -7.8587 -0.0016
# 2 0.8065 100.0366 3.4843 0.0013 -16.4646 -0.0037
# 3 21.7154 3.4843 144.5322 0.0000 -6.4148 -0.0001
# 4 0.0006 0.0013 0.0000 -74.2490 0.0001 144.2160
# 5 -7.8587 -16.4646 -6.4148 0.0001 48.8268 -0.0004
# 6 -0.0016 -0.0037 -0.0001 144.2160 -0.0004 -234.9058
#
#
#
# Elastic Compliance Matrix: (Units=1/GPa)
#
#
# Indices 1 2 3 4 5 6 
#
# 1 0.015551 0.000335 -0.002242 0.000000 0.002321 0.000000
# 2 0.000335 0.010592 -0.000146 0.000001 0.003607 0.000000
# 3 -0.002242 -0.000146 0.007283 0.000000 0.000547 0.000000
# 4 0.000000 0.000001 0.000000 0.069981 0.000000 0.042963
# 5 0.002321 0.003607 0.000547 0.000000 0.022142 0.000000
# 6 0.000000 0.000000 0.000000 0.042963 0.000000 0.022120
#
#
# Mechanical properties :
#
#
# Convention : Reuss Voigt Hill
#
# Bulk Modulus (GPa) = 34.10411 40.57467 37.33939
# Shear Modulus (GPa) = 30.95060 -32.92204 -0.98572
#
# Velocity S-wave (km/s) = 3.60680 -3.71990 -0.64367
# Velocity P-wave (km/s) = 5.62849 1.18154 3.89126
#
# Compressibility (1/GPa) = 0.02932198
#
# Stress axis : x y z
#
# Youngs Moduli (GPa) = 64.30495 94.40828 137.29782
#
# Poissons Ratio (x) = -0.03160 0.30775
# Poissons Ratio (y) = -0.02153 0.01999
# Poissons Ratio (z) = 0.14414 0.01374
#
# Static dielectric constant tensor:
#      x y z
#    x 1.931100 0.000000 0.022030 
#    y 0.000000 1.953960 0.000000 
#    z 0.022030 0.000000 1.883520 
# 
# From -- ./inp_files/274967.got.cif
#   From: 2010.05.17/outbox.cif.g08.bks.cpg/sg12_138_cif.got.tgz:274967.got - 2010.06.03 13:09:07.
