data_PCOD9198988
_publ_section_title
;
Structure prediction by ZEFSAII (Michael W. Deem and Ramdas Pophale) SiO2 
 PCOD9198988
Probable space group: C 2/M
;
_chemical_formula_sum "Si O2"
_cell_formula_units_Z 44
_cell_length_a 15.171731
_cell_length_b 19.736598
_cell_length_c 18.500874
_cell_angle_alpha 90.000000
_cell_angle_beta 152.797544
_cell_angle_gamma 90.000000
_cell_volume 2532.474888
_symmetry_space_group_name_H-M "C 2/M"
_symmetry_group_IT_number 12
_symmetry_cell_setting 'monoclinic'
loop_
_space_group_symop_operation_xyz
x,y,z
-x,y,-z
-x,-y,-z
x,-y,z
1/2+x,1/2+y,z
1/2-x,1/2+y,-z
1/2-x,1/2-y,-z
1/2+x,1/2-y,z
loop_
_atom_site_type_symbol
_atom_site_label
_atom_site_fract_x
_atom_site_fract_y
_atom_site_fract_z
Si Si1 0.303439 0.688950 0.092566
Si Si2 0.987025 0.578183 0.864629
Si Si3 0.752431 0.185020 0.556285
Si Si4 0.297140 0.662953 0.251697
Si Si5 0.689606 0.422018 0.514537
Si Si6 0.000000 0.735656 0.500000
O O1 0.532534 0.678664 0.254997
O O2 0.266022 0.699146 0.151700
O O3 0.250000 0.750000 0.000000
O O4 0.173587 0.623019 0.981612
O O5 0.035239 0.500000 0.915398
O O6 0.871987 0.614188 0.845554
O O7 0.833754 0.579977 0.687230
O O8 0.750000 0.250000 0.500000
O O9 0.714837 0.118925 0.481122
O O10 0.601181 0.195619 0.509482
O O11 0.491619 0.617908 0.386556
O O12 0.339721 0.716985 0.345299
O O13 0.646801 0.500000 0.466390
#
# Coordination Sequence:
#
# PCOD9198988 Si02
#       6
#     8   8   8   8   8   4
#     4  11  23  35  54  82 124 157 187 235 294 359
#     4  11  22  36  57  90 125 155 189 239 307 364
#     4  11  21  39  59  84 114 154 203 244 287 351
#     4  11  20  35  60  86 120 151 199 242 289 358
#     4  10  20  36  59  83 118 159 196 241 289 346
#     4  12  20  36  66  88 110 150 204 256 284 328
#
# _framework density 17.374309
#
# number of rings (size 3 to 8) (size 9 to 14) (size 15 to 20)
#    0.000    1.091    5.455    3.273    0.000    5.818 
#    0.000    0.455    0.000    0.000    0.000    2.545 
#    0.000    0.000    0.000    0.000    0.000    0.000 
#
# Total GULP energy -122824.359842 kJ/mol
# GULP energy per Si atom -5582.925447 kJ/mol
# Density = 1.733476 g / cm^3
# Si number density = 17.374309 Si / 1000 Ang^3
#
#
#
# Elastic Constant Matrix: (Units=GPa)
#
#
# Indices 1 2 3 4 5 6 
#
# 1 113.1231 52.7417 26.2819 -0.0112 2.5051 0.0026
# 2 52.7417 78.1258 36.0274 -0.0087 1.8868 0.0075
# 3 26.2819 36.0274 78.5778 -0.0163 -2.3622 0.0020
# 4 -0.0112 -0.0087 -0.0163 27.8640 -0.0050 -0.5654
# 5 2.5051 1.8868 -2.3622 -0.0050 33.4260 -0.0013
# 6 0.0026 0.0075 0.0020 -0.5654 -0.0013 23.0306
#
#
#
# Elastic Compliance Matrix: (Units=1/GPa)
#
#
# Indices 1 2 3 4 5 6 
#
# 1 0.012920 -0.008508 -0.000436 0.000002 -0.000519 0.000001
# 2 -0.008508 0.021905 -0.007231 -0.000001 -0.001110 -0.000006
# 3 -0.000436 -0.007231 0.016235 0.000007 0.001588 0.000001
# 4 0.000002 -0.000001 0.000007 0.035907 0.000006 0.000881
# 5 -0.000519 -0.001110 0.001588 0.000006 0.030131 0.000002
# 6 0.000001 -0.000006 0.000001 0.000881 0.000002 0.043442
#
#
# Mechanical properties :
#
#
# Convention : Reuss Voigt Hill
#
# Bulk Modulus (GPa) = 53.44844 55.54764 54.49804
# Shear Modulus (GPa) = 25.10980 27.18248 26.14614
#
# Velocity S-wave (km/s) = 3.80574 3.95969 3.88348
# Velocity P-wave (km/s) = 7.08105 7.27641 7.17939
#
# Compressibility (1/GPa) = 0.01870962
#
# Stress axis : x y z
#
# Youngs Moduli (GPa) = 77.40229 45.65168 61.59506
#
# Poissons Ratio (x) = 0.38842 0.02684
# Poissons Ratio (y) = 0.65856 0.44539
# Poissons Ratio (z) = 0.03373 0.33010
#
# Static dielectric constant tensor:
#      x y z
#    x 1.589860 0.000000 -0.010010 
#    y 0.000000 1.582160 0.000000 
#    z -0.010010 0.000000 1.631570 
# 
# From -- ./inp_files/61143.got.cif
#   From: 2010.05.17/outbox.cif.g08.bks.cpg/sg12_31_cif.got.tgz:61143.got - 2010.06.03 13:09:07.
