data_PCOD9198089
_publ_section_title
;
Structure prediction by ZEFSAII (Michael W. Deem and Ramdas Pophale) SiO2 
 PCOD9198089
Probable space group: C 2/M
;
_chemical_formula_sum "Si O2"
_cell_formula_units_Z 64
_cell_length_a 26.733879
_cell_length_b 8.614103
_cell_length_c 15.997328
_cell_angle_alpha 90.000000
_cell_angle_beta 108.827556
_cell_angle_gamma 90.000000
_cell_volume 3486.883409
_symmetry_space_group_name_H-M "C 2/M"
_symmetry_group_IT_number 12
_symmetry_cell_setting 'monoclinic'
loop_
_space_group_symop_operation_xyz
x,y,z
-x,y,-z
-x,-y,-z
x,-y,z
1/2+x,1/2+y,z
1/2-x,1/2+y,-z
1/2-x,1/2-y,-z
1/2+x,1/2-y,z
loop_
_atom_site_type_symbol
_atom_site_label
_atom_site_fract_x
_atom_site_fract_y
_atom_site_fract_z
Si Si1 0.054274 0.822727 0.078581
Si Si2 0.075592 0.186569 0.605377
Si Si3 0.592401 0.184863 0.263060
Si Si4 0.038238 0.812580 0.397584
Si Si5 0.813763 0.685720 0.269399
Si Si6 0.698727 0.686091 0.241136
Si Si7 0.150553 0.679859 0.048806
Si Si8 0.300825 0.316094 0.076516
O O1 0.054934 0.770624 0.175053
O O2 0.092719 0.702380 0.054489
O O3 0.075737 0.000000 0.086001
O O4 0.000000 0.821753 0.000000
O O5 0.062320 0.224075 0.501770
O O6 0.131319 0.255087 0.663409
O O7 0.023808 0.234583 0.631230
O O8 0.078646 0.000000 0.613295
O O9 0.571709 0.234145 0.342582
O O10 0.652312 0.239761 0.272494
O O11 0.589890 0.000000 0.251324
O O12 0.040034 0.000000 0.388376
O O13 0.814129 0.500000 0.268218
O O14 0.759740 0.733637 0.288906
O O15 0.808297 0.745855 0.171699
O O16 0.694824 0.500000 0.245432
O O17 0.686376 0.738530 0.139058
O O18 0.165270 0.500000 0.048877
O O19 0.153258 0.764648 0.961864
O O20 0.297165 0.500000 0.080695
O O21 0.250000 0.250000 0.000000
#
# Coordination Sequence:
#
# PCOD9198089 Si02
#       8
#     8   8   8   8   8   8   8   8
#     4  10  21  37  56  78 109 150 191 233 282 336
#     4   9  20  39  64  89 114 149 188 235 289 347
#     4  11  22  35  58  87 113 147 190 237 287 339
#     4   9  19  40  65  87 114 149 191 233 288 351
#     4  11  23  37  57  86 119 152 190 238 291 345
#     4  10  20  36  56  78 112 153 190 230 278 339
#     4  11  21  34  54  78 108 146 188 234 281 332
#     4  12  23  36  55  79 111 150 192 234 278 332
#
# _framework density 18.354500000000002
#
# number of rings (size 3 to 8) (size 9 to 14) (size 15 to 20)
#    0.000    1.625    1.250    6.750    0.000    4.500 
#    0.000    3.125    0.000    0.000    0.000    0.000 
#    0.000    0.000    0.000    0.000    0.000    0.000 
#
# Total GULP energy -178564.446418 kJ/mol
# GULP energy per Si atom -5580.138951 kJ/mol
# Density = 1.831272 g / cm^3
# Si number density = 18.354500 Si / 1000 Ang^3
#
#
#
# Elastic Constant Matrix: (Units=GPa)
#
#
# Indices 1 2 3 4 5 6 
#
# 1 117.7775 42.8797 72.4352 0.0000 -2.5282 0.0000
# 2 42.8797 74.0080 35.9832 0.0000 2.6054 0.0000
# 3 72.4352 35.9832 80.6269 0.0000 -1.4747 0.0000
# 4 0.0000 0.0000 0.0000 27.9176 0.0000 0.3089
# 5 -2.5282 2.6054 -1.4747 0.0000 33.5845 0.0000
# 6 0.0000 0.0000 0.0000 0.3089 0.0000 31.0241
#
#
#
# Elastic Compliance Matrix: (Units=1/GPa)
#
#
# Indices 1 2 3 4 5 6 
#
# 1 0.019730 -0.003653 -0.016076 0.000000 0.001063 0.000000
# 2 -0.003653 0.018028 -0.004799 0.000000 -0.001884 0.000000
# 3 -0.016076 -0.004799 0.028995 0.000000 0.000435 0.000000
# 4 0.000000 0.000000 0.000000 0.035824 0.000000 -0.000357
# 5 0.001063 -0.001884 0.000435 0.000000 0.030021 0.000000
# 6 0.000000 0.000000 0.000000 -0.000357 0.000000 0.032237
#
#
# Mechanical properties :
#
#
# Convention : Reuss Voigt Hill
#
# Bulk Modulus (GPa) = 56.50193 63.88985 60.19589
# Shear Modulus (GPa) = 22.74912 26.57952 24.66432
#
# Velocity S-wave (km/s) = 3.52437 3.80955 3.66973
# Velocity P-wave (km/s) = 6.88565 7.36441 7.12905
#
# Compressibility (1/GPa) = 0.01769851
#
# Stress axis : x y z
#
# Youngs Moduli (GPa) = 50.68336 55.46978 34.48857
#
# Poissons Ratio (x) = 0.20261 0.55444
# Poissons Ratio (y) = 0.18513 0.16550
# Poissons Ratio (z) = 0.81479 0.26618
#
# Static dielectric constant tensor:
#      x y z
#    x 1.693620 0.000000 -0.006900 
#    y 0.000000 1.626820 0.000000 
#    z -0.006900 0.000000 1.618470 
# 
# From -- ./inp_files/244135.got.cif
#   From: 2010.05.17/outbox.cif.g08.bks.cpg/sg12_123_cif.got.tgz:244135.got - 2010.06.03 13:09:07.
