data_PCOD9198808
_publ_section_title
;
Structure prediction by ZEFSAII (Michael W. Deem and Ramdas Pophale) SiO2 
 PCOD9198808
Probable space group: C 2/M
;
_chemical_formula_sum "Si O2"
_cell_formula_units_Z 32
_cell_length_a 24.883571
_cell_length_b 8.662275
_cell_length_c 20.258299
_cell_angle_alpha 90.000000
_cell_angle_beta 24.176183
_cell_angle_gamma 90.000000
_cell_volume 1788.331602
_symmetry_space_group_name_H-M "C 2/M"
_symmetry_group_IT_number 12
_symmetry_cell_setting 'monoclinic'
loop_
_space_group_symop_operation_xyz
x,y,z
-x,y,-z
-x,-y,-z
x,-y,z
1/2+x,1/2+y,z
1/2-x,1/2+y,-z
1/2-x,1/2-y,-z
1/2+x,1/2-y,z
loop_
_atom_site_type_symbol
_atom_site_label
_atom_site_fract_x
_atom_site_fract_y
_atom_site_fract_z
Si Si1 0.100874 0.815000 0.972812
Si Si2 0.684261 0.815404 0.745410
Si Si3 0.131624 0.184905 0.089566
Si Si4 0.651466 0.815481 0.554836
O O1 0.186958 0.744126 0.817537
O O2 0.093304 0.000000 0.973307
O O3 0.149454 0.779577 0.991840
O O4 0.954796 0.746137 0.127311
O O5 0.796974 0.747229 0.572891
O O6 0.684839 0.000000 0.742801
O O7 0.994126 0.257453 0.266371
O O8 0.124020 0.000000 0.104636
O O9 0.250000 0.250000 0.000000
O O10 0.750000 0.750000 0.500000
O O11 0.656974 0.000000 0.549820
#
# Coordination Sequence:
#
# PCOD9198808 Si02
#       4
#     8   8   8   8
#     4  10  20  36  58  85 120 157 196 243 297 352
#     4  11  21  34  58  89 120 153 196 247 298 349
#     4  11  24  41  62  88 122 161 199 243 299 358
#     4  12  23  38  61  89 121 155 200 250 297 351
#
# _framework density 17.893772999999999
#
# number of rings (size 3 to 8) (size 9 to 14) (size 15 to 20)
#    0.000    1.000    2.500    7.500    0.000    3.000 
#    0.000    1.250    0.000    7.500    0.000    0.000 
#    0.000    0.000    0.000    0.000    0.000    0.000 
#
# Total GULP energy -89463.499603 kJ/mol
# GULP energy per Si atom -5591.468725 kJ/mol
# Density = 1.785305 g / cm^3
# Si number density = 17.893773 Si / 1000 Ang^3
#
#
#
# Elastic Constant Matrix: (Units=GPa)
#
#
# Indices 1 2 3 4 5 6 
#
# 1 156.0052 86.0819 94.4357 0.0000 16.9185 0.0000
# 2 86.0819 151.7777 67.0399 -0.0005 13.5117 0.0003
# 3 94.4357 67.0399 133.4065 -0.0004 16.2341 0.0002
# 4 0.0000 -0.0005 -0.0004 34.3372 0.0001 2.6046
# 5 16.9185 13.5117 16.2341 0.0001 33.3693 0.0000
# 6 0.0000 0.0003 0.0002 2.6046 0.0000 31.8577
#
#
#
# Elastic Compliance Matrix: (Units=1/GPa)
#
#
# Indices 1 2 3 4 5 6 
#
# 1 0.013143 -0.004229 -0.006990 0.000000 -0.001551 0.000000
# 2 -0.004229 0.009895 -0.001863 0.000000 -0.000956 0.000000
# 3 -0.006990 -0.001863 0.013666 0.000000 -0.002350 0.000000
# 4 0.000000 0.000000 0.000000 0.029305 0.000000 -0.002396
# 5 -0.001551 -0.000956 -0.002350 0.000000 0.032285 0.000000
# 6 0.000000 0.000000 0.000000 -0.002396 0.000000 0.031585
#
#
# Mechanical properties :
#
#
# Convention : Reuss Voigt Hill
#
# Bulk Modulus (GPa) = 94.86500 104.03382 99.44941
# Shear Modulus (GPa) = 31.33746 32.82164 32.07955
#
# Velocity S-wave (km/s) = 4.18940 4.28746 4.23871
# Velocity P-wave (km/s) = 8.74827 9.09811 8.92490
#
# Compressibility (1/GPa) = 0.01054130
#
# Stress axis : x y z
#
# Youngs Moduli (GPa) = 76.08829 101.06428 73.17528
#
# Poissons Ratio (x) = 0.42735 0.51148
# Poissons Ratio (y) = 0.32174 0.13630
# Poissons Ratio (z) = 0.53184 0.18825
#
# Static dielectric constant tensor:
#      x y z
#    x 1.605740 0.000000 0.029320 
#    y 0.000000 1.595750 0.000000 
#    z 0.029320 0.000000 1.590660 
# 
# From -- ./inp_files/81852.got.cif
#   From: 2010.05.17/outbox.cif.g08.bks.cpg/sg12_41_cif.got.tgz:81852.got - 2010.06.03 13:09:07.
