data_PCOD9198698
_publ_section_title
;
Structure prediction by ZEFSAII (Michael W. Deem and Ramdas Pophale) SiO2 
 PCOD9198698
Probable space group: C 2/M
;
_chemical_formula_sum "Si O2"
_cell_formula_units_Z 56
_cell_length_a 28.844859
_cell_length_b 13.642947
_cell_length_c 13.686994
_cell_angle_alpha 90.000000
_cell_angle_beta 34.301560
_cell_angle_gamma 90.000000
_cell_volume 3035.400624
_symmetry_space_group_name_H-M "C 2/M"
_symmetry_group_IT_number 12
_symmetry_cell_setting 'monoclinic'
loop_
_space_group_symop_operation_xyz
x,y,z
-x,y,-z
-x,-y,-z
x,-y,z
1/2+x,1/2+y,z
1/2-x,1/2+y,-z
1/2-x,1/2-y,-z
1/2+x,1/2-y,z
loop_
_atom_site_type_symbol
_atom_site_label
_atom_site_fract_x
_atom_site_fract_y
_atom_site_fract_z
Si Si1 0.626424 0.187960 0.738578
Si Si2 0.463369 0.883492 0.917111
Si Si3 0.215850 0.885626 0.861895
Si Si4 0.438864 0.610516 0.512638
Si Si5 0.430936 0.251955 0.796284
Si Si6 0.204913 0.112493 0.646924
Si Si7 0.828075 0.736522 0.793778
O O1 0.549328 0.161058 0.805412
O O2 0.708162 0.137240 0.554911
O O3 0.642460 0.304201 0.718725
O O4 0.603799 0.147600 0.885113
O O5 0.441648 0.836227 0.851963
O O6 0.469926 0.000000 0.902592
O O7 0.215141 0.876086 0.746128
O O8 0.298975 0.841967 0.764813
O O9 0.206999 0.000000 0.902674
O O10 0.139875 0.824292 0.038884
O O11 0.500000 0.604103 0.500000
O O12 0.426469 0.500000 0.497843
O O13 0.486801 0.683391 0.357184
O O14 0.355862 0.663435 0.692388
O O15 0.402158 0.214140 0.739720
O O16 0.180859 0.000000 0.668963
O O17 0.750000 0.750000 0.000000
#
# Coordination Sequence:
#
# PCOD9198698 Si02
#       7
#     8   8   8   8   8   8   8
#     4  10  21  39  60  82 114 148 195 239 282 346
#     4  11  22  38  60  83 113 155 193 232 289 344
#     4  10  20  36  58  83 114 153 190 230 290 340
#     4   9  18  35  59  82 111 151 189 230 282 335
#     4  10  20  37  57  87 117 149 193 237 277 335
#     4  10  20  37  62  86 113 150 189 238 292 339
#     4   9  20  35  56  84 119 148 186 230 273 334
#
# _framework density 18.448965000000001
#
# number of rings (size 3 to 8) (size 9 to 14) (size 15 to 20)
#    0.000    2.143    1.429    2.143    2.000    4.000 
#    0.000    5.000    0.000    2.571    0.000    0.000 
#    0.000    0.000    0.000    0.000    0.000    0.000 
#
# Total GULP energy -156174.978081 kJ/mol
# GULP energy per Si atom -5577.677789 kJ/mol
# Density = 1.840697 g / cm^3
# Si number density = 18.448965 Si / 1000 Ang^3
#
#
#
# Elastic Constant Matrix: (Units=GPa)
#
#
# Indices 1 2 3 4 5 6 
#
# 1 33.3347 48.7215 17.6003 0.0000 1.9481 0.0000
# 2 48.7215 155.7724 52.9074 0.0000 -7.1365 0.0000
# 3 17.6003 52.9074 91.1407 0.0000 -3.3773 0.0000
# 4 0.0000 0.0000 0.0000 17.8023 0.0000 -1.9080
# 5 1.9481 -7.1365 -3.3773 0.0000 11.3352 0.0000
# 6 0.0000 0.0000 0.0000 -1.9080 0.0000 29.6339
#
#
#
# Elastic Compliance Matrix: (Units=1/GPa)
#
#
# Indices 1 2 3 4 5 6 
#
# 1 0.060675 -0.019639 -0.001174 0.000000 -0.023142 0.000000
# 2 -0.019639 0.014509 -0.004213 0.000000 0.011254 0.000000
# 3 -0.001174 -0.004213 0.013705 0.000000 0.001633 0.000000
# 4 0.000000 0.000000 0.000000 0.056563 0.000000 0.003642
# 5 -0.023142 0.011254 0.001633 0.000000 0.099770 0.000000
# 6 0.000000 0.000000 0.000000 0.003642 0.000000 0.033980
#
#
# Mechanical properties :
#
#
# Convention : Reuss Voigt Hill
#
# Bulk Modulus (GPa) = 25.74873 57.63402 41.69137
# Shear Modulus (GPa) = 14.61141 22.48886 18.55014
#
# Velocity S-wave (km/s) = 2.81729 3.49517 3.17438
# Velocity P-wave (km/s) = 4.95680 6.89897 6.00690
#
# Compressibility (1/GPa) = 0.03883687
#
# Stress axis : x y z
#
# Youngs Moduli (GPa) = 16.48118 68.92447 72.96725
#
# Poissons Ratio (x) = 1.35361 0.08567
# Poissons Ratio (y) = 0.32367 0.30739
# Poissons Ratio (z) = 0.01935 0.29036
#
# Static dielectric constant tensor:
#      x y z
#    x 1.645170 0.000000 0.005040 
#    y 0.000000 1.616040 0.000000 
#    z 0.005040 0.000000 1.642290 
# 
# From -- ./inp_files/251003.got.cif
#   From: 2010.05.17/outbox.cif.g08.bks.cpg/sg12_126_cif.got.tgz:251003.got - 2010.06.03 13:09:07.
