data_PCOD9198502
_publ_section_title
;
Structure prediction by ZEFSAII (Michael W. Deem and Ramdas Pophale) SiO2 
 PCOD9198502
Probable space group: C 2/M
;
_chemical_formula_sum "Si O2"
_cell_formula_units_Z 56
_cell_length_a 17.509601
_cell_length_b 16.030581
_cell_length_c 12.416817
_cell_angle_alpha 90.000000
_cell_angle_beta 58.282728
_cell_angle_gamma 90.000000
_cell_volume 2964.749881
_symmetry_space_group_name_H-M "C 2/M"
_symmetry_group_IT_number 12
_symmetry_cell_setting 'monoclinic'
loop_
_space_group_symop_operation_xyz
x,y,z
-x,y,-z
-x,-y,-z
x,-y,z
1/2+x,1/2+y,z
1/2-x,1/2+y,-z
1/2-x,1/2-y,-z
1/2+x,1/2-y,z
loop_
_atom_site_type_symbol
_atom_site_label
_atom_site_fract_x
_atom_site_fract_y
_atom_site_fract_z
Si Si1 0.405570 0.269492 0.010011
Si Si2 0.261747 0.408068 0.134968
Si Si3 0.158184 0.226409 0.511961
Si Si4 0.310863 0.905475 0.055194
Si Si5 0.030738 0.212980 0.275367
Si Si6 0.359255 0.595438 0.658761
Si Si7 0.591233 0.859122 0.386220
O O1 0.421276 0.294424 0.873880
O O2 0.500000 0.278695 0.000000
O O3 0.328743 0.331956 0.110463
O O4 0.373652 0.173130 0.035326
O O5 0.305621 0.500000 0.107313
O O6 0.175758 0.407818 0.277107
O O7 0.224772 0.396415 0.040690
O O8 0.250000 0.250000 0.500000
O O9 0.164012 0.145644 0.431632
O O10 0.127630 0.299967 0.454205
O O11 0.076365 0.213706 0.655283
O O12 0.226312 0.900830 0.198249
O O13 0.349685 0.000000 0.035877
O O14 0.061245 0.141611 0.335952
O O15 0.061055 0.298177 0.311233
O O16 0.381168 0.500000 0.620460
O O17 0.500000 0.900332 0.500000
#
# Coordination Sequence:
#
# PCOD9198502 Si02
#       7
#     8   8   8   8   8   8   8
#     4  12  24  36  62  91 127 165 195 247 316 364
#     4  11  22  39  62  89 120 158 205 250 295 361
#     4  10  22  36  58  84 119 154 200 249 304 360
#     4  10  21  39  65  91 116 152 204 257 299 360
#     4  10  20  36  57  88 114 155 207 245 290 366
#     4  10  20  38  63  88 116 153 202 255 301 354
#     4   9  19  38  61  82 112 154 204 249 291 356
#
# _framework density 18.888608999999999
#
# number of rings (size 3 to 8) (size 9 to 14) (size 15 to 20)
#    0.000    1.714    2.857    3.429    4.000    2.000 
#    0.000    0.714    0.000    0.857    0.000    0.000 
#    0.000    0.000    0.000    0.000    0.000    0.000 
#
# Total GULP energy -156265.641839 kJ/mol
# GULP energy per Si atom -5580.915780 kJ/mol
# Density = 1.884562 g / cm^3
# Si number density = 18.888609 Si / 1000 Ang^3
#
#
#
# Elastic Constant Matrix: (Units=GPa)
#
#
# Indices 1 2 3 4 5 6 
#
# 1 94.5428 53.7189 17.7641 0.0000 -19.1492 0.0000
# 2 53.7189 131.8591 22.8298 0.0000 -14.6129 0.0000
# 3 17.7641 22.8298 72.0532 0.0000 -23.3889 0.0000
# 4 0.0000 0.0000 0.0000 13.6836 0.0000 3.7111
# 5 -19.1492 -14.6129 -23.3889 0.0000 23.3949 0.0000
# 6 0.0000 0.0000 0.0000 3.7111 0.0000 3.7525
#
#
#
# Elastic Compliance Matrix: (Units=1/GPa)
#
#
# Indices 1 2 3 4 5 6 
#
# 1 0.015552 -0.005382 0.001350 0.000000 0.010718 0.000000
# 2 -0.005382 0.010104 -0.001859 0.000000 0.000047 0.000000
# 3 0.001350 -0.001859 0.020899 0.000000 0.020837 0.000000
# 4 0.000000 0.000000 0.000000 0.099867 0.000000 -0.098768
# 5 0.010718 0.000047 0.020837 0.000000 0.072378 0.000000
# 6 0.000000 0.000000 0.000000 -0.098768 0.000000 0.364173
#
#
# Mechanical properties :
#
#
# Convention : Reuss Voigt Hill
#
# Bulk Modulus (GPa) = 28.75830 54.12008 41.43919
# Shear Modulus (GPa) = 8.24612 21.77567 15.01090
#
# Velocity S-wave (km/s) = 2.09168 3.39904 2.82211
# Velocity P-wave (km/s) = 4.59258 6.64222 5.71012
#
# Compressibility (1/GPa) = 0.03477258
#
# Stress axis : x y z
#
# Youngs Moduli (GPa) = 64.29854 98.97528 47.84994
#
# Poissons Ratio (x) = 0.53268 -0.06460
# Poissons Ratio (y) = 0.34605 0.08896
# Poissons Ratio (z) = -0.08681 0.18401
#
# Static dielectric constant tensor:
#      x y z
#    x 1.620160 0.000000 -0.024730 
#    y 0.000000 1.653890 0.000000 
#    z -0.024730 0.000000 1.669270 
# 
# From -- ./inp_files/156522.got.cif
#   From: 2010.05.17/outbox.cif.g08.bks.cpg/sg12_79_cif.got.tgz:156522.got - 2010.06.03 13:09:07.
