data_PCOD9198246
_publ_section_title
;
Structure prediction by ZEFSAII (Michael W. Deem and Ramdas Pophale) SiO2 
 PCOD9198246
Probable space group: C 2/M
;
_chemical_formula_sum "Si O2"
_cell_formula_units_Z 56
_cell_length_a 14.836258
_cell_length_b 8.889102
_cell_length_c 30.684317
_cell_angle_alpha 90.000000
_cell_angle_beta 127.883862
_cell_angle_gamma 90.000000
_cell_volume 3193.869819
_symmetry_space_group_name_H-M "C 2/M"
_symmetry_group_IT_number 12
_symmetry_cell_setting 'monoclinic'
loop_
_space_group_symop_operation_xyz
x,y,z
-x,y,-z
-x,-y,-z
x,-y,z
1/2+x,1/2+y,z
1/2-x,1/2+y,-z
1/2-x,1/2-y,-z
1/2+x,1/2-y,z
loop_
_atom_site_type_symbol
_atom_site_label
_atom_site_fract_x
_atom_site_fract_y
_atom_site_fract_z
Si Si1 0.792131 0.819872 0.734907
Si Si2 0.196095 0.678342 0.940987
Si Si3 0.971580 0.318753 0.355980
Si Si4 0.899040 0.178601 0.936314
Si Si5 0.068254 0.181135 0.563174
Si Si6 0.062218 0.320257 0.144461
Si Si7 0.668077 0.818493 0.346244
O O1 0.657262 0.778566 0.697440
O O2 0.860495 0.755772 0.796054
O O3 0.841610 0.753363 0.704498
O O4 0.799452 0.000000 0.736052
O O5 0.188917 0.500000 0.946968
O O6 0.281529 0.702446 0.926646
O O7 0.069595 0.732064 0.892107
O O8 0.250000 0.750000 0.000000
O O9 0.977250 0.500000 0.360818
O O10 0.981887 0.250541 0.407361
O O11 0.069945 0.270785 0.351208
O O12 0.901538 0.272111 0.893113
O O13 0.912729 0.000000 0.930669
O O14 0.000000 0.220136 0.000000
O O15 0.203023 0.219918 0.599980
O O16 0.000000 0.229919 0.500000
O O17 0.060690 0.000000 0.564076
O O18 0.067014 0.500000 0.151180
O O19 0.661444 0.000000 0.340176
#
# Coordination Sequence:
#
# PCOD9198246 Si02
#       7
#     8   8   8   8   8   8   8
#     4  10  21  37  55  76 103 135 177 223 264 311
#     4  10  21  36  55  78 104 134 167 205 252 308
#     4   9  19  35  55  77 103 141 182 221 264 308
#     4  10  20  36  57  78 103 136 170 206 253 308
#     4   9  18  32  51  79 113 145 177 216 263 313
#     4  11  23  37  55  80 108 137 171 214 264 316
#     4   9  18  35  56  76 105 142 178 219 265 311
#
# _framework density 17.533588999999999
#
# number of rings (size 3 to 8) (size 9 to 14) (size 15 to 20)
#    0.000    2.286    1.429    0.857    0.000    4.571 
#    0.000    5.714    0.000    0.000    0.000    0.000 
#    0.000    0.000    0.000    0.000    0.000    0.000 
#
# Total GULP energy -156214.833522 kJ/mol
# GULP energy per Si atom -5579.101197 kJ/mol
# Density = 1.749368 g / cm^3
# Si number density = 17.533589 Si / 1000 Ang^3
#
#
#
# Elastic Constant Matrix: (Units=GPa)
#
#
# Indices 1 2 3 4 5 6 
#
# 1 116.8917 38.7824 68.4299 0.0000 -8.1000 0.0000
# 2 38.7824 20.8360 40.4418 0.0000 -3.1908 0.0000
# 3 68.4299 40.4418 157.1963 0.0000 -12.0391 0.0000
# 4 0.0000 0.0000 0.0000 31.3288 0.0000 -8.0401
# 5 -8.1000 -3.1908 -12.0391 0.0000 14.0399 0.0000
# 6 0.0000 0.0000 0.0000 -8.0401 0.0000 27.8122
#
#
#
# Elastic Compliance Matrix: (Units=1/GPa)
#
#
# Indices 1 2 3 4 5 6 
#
# 1 0.022953 -0.046556 0.002343 0.000000 0.004671 0.000000
# 2 -0.046556 0.190299 -0.029365 0.000000 -0.008791 0.000000
# 3 0.002343 -0.029365 0.013366 0.000000 0.006140 0.000000
# 4 0.000000 0.000000 0.000000 0.034477 0.000000 0.009967
# 5 0.004671 -0.008791 0.006140 0.000000 0.077187 0.000000
# 6 0.000000 0.000000 0.000000 0.009967 0.000000 0.038837
#
#
# Mechanical properties :
#
#
# Convention : Reuss Voigt Hill
#
# Bulk Modulus (GPa) = 12.58443 65.58135 39.08289
# Shear Modulus (GPa) = 9.07832 24.45417 16.76624
#
# Velocity S-wave (km/s) = 2.27792 3.73863 3.09566
# Velocity P-wave (km/s) = 3.75652 7.49139 5.92589
#
# Compressibility (1/GPa) = 0.07946324
#
# Stress axis : x y z
#
# Youngs Moduli (GPa) = 43.56684 5.25489 74.81530
#
# Poissons Ratio (x) = 0.24465 -0.17532
# Poissons Ratio (y) = 2.02831 2.19693
# Poissons Ratio (z) = -0.10209 0.15431
#
# Static dielectric constant tensor:
#      x y z
#    x 1.594990 0.000000 0.028570 
#    y 0.000000 1.594360 0.000000 
#    z 0.028570 0.000000 1.573060 
# 
# From -- ./inp_files/308890.got.cif
#   From: 2010.05.17/outbox.cif.g08.bks.cpg/sg12_155_cif.got.tgz:308890.got - 2010.06.03 13:09:07.
