data_PCOD9198102
_publ_section_title
;
Structure prediction by ZEFSAII (Michael W. Deem and Ramdas Pophale) SiO2 
 PCOD9198102
Probable space group: C 2/M
;
_chemical_formula_sum "Si O2"
_cell_formula_units_Z 56
_cell_length_a 26.854470
_cell_length_b 8.202447
_cell_length_c 13.776672
_cell_angle_alpha 90.000000
_cell_angle_beta 118.746943
_cell_angle_gamma 90.000000
_cell_volume 2660.610552
_symmetry_space_group_name_H-M "C 2/M"
_symmetry_group_IT_number 12
_symmetry_cell_setting 'monoclinic'
loop_
_space_group_symop_operation_xyz
x,y,z
-x,y,-z
-x,-y,-z
x,-y,z
1/2+x,1/2+y,z
1/2-x,1/2+y,-z
1/2-x,1/2-y,-z
1/2+x,1/2-y,z
loop_
_atom_site_type_symbol
_atom_site_label
_atom_site_fract_x
_atom_site_fract_y
_atom_site_fract_z
Si Si1 0.313845 0.691211 0.946473
Si Si2 0.991408 0.187974 0.840813
Si Si3 0.890686 0.803876 0.626567
Si Si4 0.917852 0.684060 0.939615
Si Si5 0.717764 0.805321 0.372106
Si Si6 0.683254 0.805879 0.844131
Si Si7 0.672304 0.697538 0.628455
O O1 0.314607 0.500000 0.925156
O O2 0.353236 0.781415 0.906372
O O3 0.337651 0.721343 0.077486
O O4 0.248920 0.750008 0.891190
O O5 0.953651 0.250893 0.715704
O O6 0.044806 0.289830 0.927933
O O7 0.008282 0.000000 0.841467
O O8 0.946761 0.197933 0.888826
O O9 0.845528 0.756520 0.668056
O O10 0.865954 0.748644 0.499379
O O11 0.892094 0.000000 0.625402
O O12 0.924845 0.500000 0.910584
O O13 0.750000 0.750000 0.500000
O O14 0.762444 0.746988 0.332607
O O15 0.715416 0.000000 0.364273
O O16 0.653586 0.762113 0.715240
O O17 0.683130 0.000000 0.859373
O O18 0.672052 0.500000 0.629805
#
# Coordination Sequence:
#
# PCOD9198102 Si02
#       7
#     8   8   8   8   8   8   8
#     4  10  21  38  57  77 104 139 175 216 265 312
#     4  10  20  36  56  79 107 140 180 218 261 314
#     4   9  19  33  50  73 103 139 177 215 256 309
#     4  11  22  36  55  80 108 137 175 220 267 314
#     4   9  17  28  43  66  98 136 174 209 250 301
#     4  10  21  35  54  81 106 135 176 217 259 312
#     4   9  18  32  48  72 105 140 172 209 258 310
#
# _framework density 21.047799999999999
#
# number of rings (size 3 to 8) (size 9 to 14) (size 15 to 20)
#    0.000    2.286    0.000    4.714    2.000    5.714 
#    0.000    0.000    0.000    0.857    0.000    6.000 
#    0.000    0.000    0.000    0.000    0.000    0.000 
#
# Total GULP energy -156252.932643 kJ/mol
# GULP energy per Si atom -5580.461880 kJ/mol
# Density = 2.099989 g / cm^3
# Si number density = 21.047800 Si / 1000 Ang^3
#
#
#
# Elastic Constant Matrix: (Units=GPa)
#
#
# Indices 1 2 3 4 5 6 
#
# 1 28.1644 -1.0686 -3.6381 0.0000 -0.9652 0.0000
# 2 -1.0686 25.7565 -4.8389 0.0000 4.1089 0.0000
# 3 -3.6381 -4.8389 84.6093 0.0000 -1.7580 0.0000
# 4 0.0000 0.0000 0.0000 18.9528 0.0000 0.2162
# 5 -0.9652 4.1089 -1.7580 0.0000 32.9366 0.0000
# 6 0.0000 0.0000 0.0000 0.2162 0.0000 20.1419
#
#
#
# Elastic Compliance Matrix: (Units=1/GPa)
#
#
# Indices 1 2 3 4 5 6 
#
# 1 0.035814 0.001648 0.001654 0.000000 0.000932 0.000000
# 2 0.001648 0.040090 0.002263 0.000000 -0.004832 0.000000
# 3 0.001654 0.002263 0.012028 0.000000 0.000408 0.000000
# 4 0.000000 0.000000 0.000000 0.052769 0.000000 -0.000566
# 5 0.000932 -0.004832 0.000408 0.000000 0.031013 0.000000
# 6 0.000000 0.000000 0.000000 -0.000566 0.000000 0.049654
#
#
# Mechanical properties :
#
#
# Convention : Reuss Voigt Hill
#
# Bulk Modulus (GPa) = 10.09481 13.27101 11.68291
# Shear Modulus (GPa) = 20.55423 24.27797 22.41610
#
# Velocity S-wave (km/s) = 3.12837 3.39996 3.26699
# Velocity P-wave (km/s) = 4.22557 4.66174 4.44901
#
# Compressibility (1/GPa) = 0.09906081
#
# Stress axis : x y z
#
# Youngs Moduli (GPa) = 27.92212 24.94410 83.13905
#
# Poissons Ratio (x) = -0.04110 -0.13747
# Poissons Ratio (y) = -0.04601 -0.18816
# Poissons Ratio (z) = -0.04617 -0.05645
#
# Static dielectric constant tensor:
#      x y z
#    x 1.749250 0.000000 0.021470 
#    y 0.000000 1.722550 0.000000 
#    z 0.021470 0.000000 1.838070 
# 
# From -- ./inp_files/248582.got.cif
#   From: 2010.05.17/outbox.cif.g08.bks.cpg/sg12_125_cif.got.tgz:248582.got - 2010.06.03 13:09:07.
