data_PCOD9198371
_publ_section_title
;
Structure prediction by ZEFSAII (Michael W. Deem and Ramdas Pophale) SiO2 
 PCOD9198371
Probable space group: C 2/M
;
_chemical_formula_sum "Si O2"
_cell_formula_units_Z 58
_cell_length_a 16.080432
_cell_length_b 9.654494
_cell_length_c 16.577721
_cell_angle_alpha 90.000000
_cell_angle_beta 83.863282
_cell_angle_gamma 90.000000
_cell_volume 2558.917202
_symmetry_space_group_name_H-M "C 2/M"
_symmetry_group_IT_number 12
_symmetry_cell_setting 'monoclinic'
loop_
_space_group_symop_operation_xyz
x,y,z
-x,y,-z
-x,-y,-z
x,-y,z
1/2+x,1/2+y,z
1/2-x,1/2+y,-z
1/2-x,1/2-y,-z
1/2+x,1/2-y,z
loop_
_atom_site_type_symbol
_atom_site_label
_atom_site_fract_x
_atom_site_fract_y
_atom_site_fract_z
Si Si1 0.391647 0.657692 0.700191
Si Si2 0.960391 0.339680 0.833265
Si Si3 0.942065 0.230617 0.407004
Si Si4 0.381054 0.661042 0.971012
Si Si5 0.310691 0.344963 0.544636
Si Si6 0.500000 0.000000 0.500000
Si Si7 0.856349 0.340633 0.267112
Si Si8 0.208236 0.661239 0.889397
O O1 0.374112 0.500000 0.730804
O O2 0.404288 0.767150 0.769868
O O3 0.481280 0.656670 0.644805
O O4 0.327955 0.696664 0.635083
O O5 0.936688 0.500000 0.849633
O O6 0.948958 0.248451 0.914493
O O7 0.054321 0.336551 0.789033
O O8 0.898221 0.158762 0.487130
O O9 0.871465 0.253704 0.345616
O O10 0.974325 0.378237 0.436753
O O11 0.402716 0.500000 0.980634
O O12 0.297810 0.666380 0.923175
O O13 0.352803 0.738699 0.054814
O O14 0.277561 0.500000 0.547424
O O15 0.250000 0.250000 0.500000
O O16 0.839969 0.500000 0.290890
O O17 0.791123 0.298456 0.204725
O O18 0.179848 0.500000 0.896286
#
# Coordination Sequence:
#
# PCOD9198371 Si02
#       8
#     8   8   8   8   8   2   8   8
#     4  10  21  39  59  80 111 149 190 236 288 343
#     4  10  21  35  58  85 112 142 184 231 279 338
#     4  11  21  36  61  86 115 151 193 237 288 344
#     4  10  20  36  57  82 111 148 186 226 283 338
#     4  11  25  39  56  82 115 151 192 240 292 342
#     4  12  20  32  66  92 112 154 196 244 280 358
#     4   9  19  35  56  85 110 141 186 233 279 327
#     4   9  19  37  59  78 107 147 189 230 271 334
#
# _framework density 22.665837
#
# number of rings (size 3 to 8) (size 9 to 14) (size 15 to 20)
#    0.000    1.931    2.069    1.241    1.931    3.862 
#    0.000    9.655    0.000    0.000    0.000    0.000 
#    0.000    0.000    0.000    0.000    0.000    0.000 
#
# Total GULP energy -161926.873001 kJ/mol
# GULP energy per Si atom -5583.685276 kJ/mol
# Density = 2.261425 g / cm^3
# Si number density = 22.665837 Si / 1000 Ang^3
#
#
#
# Elastic Constant Matrix: (Units=GPa)
#
#
# Indices 1 2 3 4 5 6 
#
# 1 63.3024 24.7761 13.1072 0.0000 7.3392 0.0000
# 2 24.7761 111.5803 38.4128 0.0000 -8.5607 0.0000
# 3 13.1072 38.4128 118.6768 0.0000 2.4456 0.0000
# 4 0.0000 0.0000 0.0000 32.8835 0.0000 2.4020
# 5 7.3392 -8.5607 2.4456 0.0000 52.6853 0.0000
# 6 0.0000 0.0000 0.0000 2.4020 0.0000 16.7037
#
#
#
# Elastic Compliance Matrix: (Units=1/GPa)
#
#
# Indices 1 2 3 4 5 6 
#
# 1 0.017846 -0.003989 -0.000616 0.000000 -0.003106 0.000000
# 2 -0.003989 0.011150 -0.003220 0.000000 0.002517 0.000000
# 3 -0.000616 -0.003220 0.009555 0.000000 -0.000881 0.000000
# 4 0.000000 0.000000 0.000000 0.030733 0.000000 -0.004419
# 5 -0.003106 0.002517 -0.000881 0.000000 0.019863 0.000000
# 6 0.000000 0.000000 0.000000 -0.004419 0.000000 0.060502
#
#
# Mechanical properties :
#
#
# Convention : Reuss Voigt Hill
#
# Bulk Modulus (GPa) = 43.66738 49.57240 46.61989
# Shear Modulus (GPa) = 28.91305 34.93872 31.92588
#
# Velocity S-wave (km/s) = 3.57546 3.93042 3.75713
# Velocity P-wave (km/s) = 6.02933 6.52043 6.27968
#
# Compressibility (1/GPa) = 0.02290039
#
# Stress axis : x y z
#
# Youngs Moduli (GPa) = 56.03494 89.68963 104.66043
#
# Poissons Ratio (x) = 0.35776 0.06446
# Poissons Ratio (y) = 0.22352 0.33702
# Poissons Ratio (z) = 0.03451 0.28881
#
# Static dielectric constant tensor:
#      x y z
#    x 1.943860 0.000000 -0.003570 
#    y 0.000000 1.770070 0.000000 
#    z -0.003570 0.000000 1.831540 
# 
# From -- ./inp_files/275426.got.cif
#   From: 2010.05.17/outbox.cif.g08.bks.cpg/sg12_138_cif.got.tgz:275426.got - 2010.06.03 13:09:07.
