data_PCOD9198914
_publ_section_title
;
Structure prediction by ZEFSAII (Michael W. Deem and Ramdas Pophale) SiO2 
 PCOD9198914
Probable space group: C 2/M
;
_chemical_formula_sum "Si O2"
_cell_formula_units_Z 48
_cell_length_a 24.633692
_cell_length_b 8.508055
_cell_length_c 10.796649
_cell_angle_alpha 90.000000
_cell_angle_beta 80.991374
_cell_angle_gamma 90.000000
_cell_volume 2234.901282
_symmetry_space_group_name_H-M "C 2/M"
_symmetry_group_IT_number 12
_symmetry_cell_setting 'monoclinic'
loop_
_space_group_symop_operation_xyz
x,y,z
-x,y,-z
-x,-y,-z
x,-y,z
1/2+x,1/2+y,z
1/2-x,1/2+y,-z
1/2-x,1/2-y,-z
1/2+x,1/2-y,z
loop_
_atom_site_type_symbol
_atom_site_label
_atom_site_fract_x
_atom_site_fract_y
_atom_site_fract_z
Si Si1 0.063754 0.184771 0.470126
Si Si2 0.908776 0.685964 0.787970
Si Si3 0.123825 0.181047 0.711469
Si Si4 0.020653 0.321564 0.853607
Si Si5 0.259399 0.182551 0.358034
Si Si6 0.209749 0.688550 0.121688
O O1 0.095646 0.283422 0.356225
O O2 0.093171 0.199215 0.590926
O O3 0.000000 0.235074 0.500000
O O4 0.064587 0.000000 0.434812
O O5 0.912607 0.500000 0.813545
O O6 0.853470 0.745277 0.872664
O O7 0.968529 0.753343 0.801685
O O8 0.076594 0.226259 0.824519
O O9 0.176509 0.290897 0.695695
O O10 0.141633 0.000000 0.718956
O O11 0.031388 0.500000 0.802468
O O12 0.000000 0.332574 0.000000
O O13 0.250000 0.250000 0.500000
O O14 0.228160 0.261354 0.253334
O O15 0.244315 0.000000 0.366115
O O16 0.209750 0.500000 0.116226
O O17 0.250000 0.750000 0.000000
#
# Coordination Sequence:
#
# PCOD9198914 Si02
#       6
#     8   8   8   8   8   8
#     4  10  20  36  58  89 126 160 198 250 311 375
#     4  10  22  39  62  91 125 163 208 258 312 380
#     4  11  23  40  64  95 128 164 210 263 319 388
#     4  10  22  39  60  89 126 168 208 255 317 382
#     4  12  26  46  70  97 132 175 224 280 337 398
#     4  11  25  45  68  99 134 176 226 275 330 395
#
# _framework density 21.477461000000002
#
# number of rings (size 3 to 8) (size 9 to 14) (size 15 to 20)
#    0.000    1.333    1.667    3.500    2.333    6.000 
#    0.000    0.000    0.000    0.000    0.000    0.000 
#    0.000    0.000    0.000    0.000    0.000    0.000 
#
# Total GULP energy -134108.476577 kJ/mol
# GULP energy per Si atom -5587.853191 kJ/mol
# Density = 2.142858 g / cm^3
# Si number density = 21.477461 Si / 1000 Ang^3
#
#
#
# Elastic Constant Matrix: (Units=GPa)
#
#
# Indices 1 2 3 4 5 6 
#
# 1 77.1281 2.6048 14.3028 0.0000 -21.1557 0.0000
# 2 2.6048 36.8626 8.2739 0.0000 2.2589 0.0000
# 3 14.3028 8.2739 80.6457 0.0000 -15.8760 0.0000
# 4 0.0000 0.0000 0.0000 28.1147 0.0000 -3.0066
# 5 -21.1557 2.2589 -15.8760 0.0000 35.0792 0.0000
# 6 0.0000 0.0000 0.0000 -3.0066 0.0000 22.7725
#
#
#
# Elastic Compliance Matrix: (Units=1/GPa)
#
#
# Indices 1 2 3 4 5 6 
#
# 1 0.015687 -0.001487 -0.000822 0.000000 0.009185 0.000000
# 2 -0.001487 0.028278 -0.003483 0.000000 -0.004294 0.000000
# 3 -0.000822 -0.003483 0.014106 0.000000 0.006113 0.000000
# 4 0.000000 0.000000 0.000000 0.036078 0.000000 0.004763
# 5 0.009185 -0.004294 0.006113 0.000000 0.037089 0.000000
# 6 0.000000 0.000000 0.000000 0.004763 0.000000 0.044541
#
#
# Mechanical properties :
#
#
# Convention : Reuss Voigt Hill
#
# Bulk Modulus (GPa) = 21.51054 27.22217 24.36635
# Shear Modulus (GPa) = 24.64769 28.49026 26.56898
#
# Velocity S-wave (km/s) = 3.39131 3.64609 3.52101
# Velocity P-wave (km/s) = 5.03704 5.51612 5.28202
#
# Compressibility (1/GPa) = 0.04648884
#
# Stress axis : x y z
#
# Youngs Moduli (GPa) = 63.74571 35.36363 70.89008
#
# Poissons Ratio (x) = 0.05258 0.05824
# Poissons Ratio (y) = 0.09479 0.24689
# Poissons Ratio (z) = 0.05237 0.12316
#
# Static dielectric constant tensor:
#      x y z
#    x 1.830250 0.000000 0.017870 
#    y 0.000000 1.775170 0.000000 
#    z 0.017870 0.000000 1.789330 
# 
# From -- ./inp_files/172194.got.cif
#   From: 2010.05.17/outbox.cif.g08.bks.cpg/sg12_87_cif.got.tgz:172194.got - 2010.06.03 13:09:07.
