data_PCOD9198744
_publ_section_title
;
Structure prediction by ZEFSAII (Michael W. Deem and Ramdas Pophale) SiO2 
 PCOD9198744
Probable space group: C 2/M
;
_chemical_formula_sum "Si O2"
_cell_formula_units_Z 56
_cell_length_a 10.103196
_cell_length_b 15.915056
_cell_length_c 19.765938
_cell_angle_alpha 90.000000
_cell_angle_beta 68.078726
_cell_angle_gamma 90.000000
_cell_volume 2948.430245
_symmetry_space_group_name_H-M "C 2/M"
_symmetry_group_IT_number 12
_symmetry_cell_setting 'monoclinic'
loop_
_space_group_symop_operation_xyz
x,y,z
-x,y,-z
-x,-y,-z
x,-y,z
1/2+x,1/2+y,z
1/2-x,1/2+y,-z
1/2-x,1/2-y,-z
1/2+x,1/2-y,z
loop_
_atom_site_type_symbol
_atom_site_label
_atom_site_fract_x
_atom_site_fract_y
_atom_site_fract_z
Si Si1 0.869791 0.842578 0.810512
Si Si2 0.070842 0.331211 0.270496
Si Si3 0.644592 0.398519 0.441515
Si Si4 0.284550 0.905930 0.280473
Si Si5 0.359613 0.400658 0.151745
Si Si6 0.954582 0.601334 0.433302
Si Si7 0.342078 0.749291 0.050229
O O1 0.908614 0.765300 0.753497
O O2 0.798776 0.907778 0.773277
O O3 0.744526 0.808816 0.882625
O O4 0.004476 0.873582 0.828212
O O5 0.213605 0.379733 0.220103
O O6 0.933533 0.357964 0.252114
O O7 0.032702 0.353299 0.355457
O O8 0.500000 0.362894 0.500000
O O9 0.627508 0.500000 0.441532
O O10 0.683326 0.369807 0.358686
O O11 0.785926 0.381962 0.457710
O O12 0.323545 0.000000 0.294849
O O13 0.367173 0.500000 0.135209
O O14 0.356258 0.340590 0.086092
O O15 0.977510 0.500000 0.421783
O O16 0.000000 0.625951 0.500000
O O17 0.500000 0.777970 0.000000
O O18 0.250000 0.750000 0.000000
#
# Coordination Sequence:
#
# PCOD9198744 Si02
#       7
#     8   8   8   8   8   8   8
#     4  11  23  39  62  86 118 153 191 233 292 352
#     4  10  20  37  58  84 118 156 195 238 295 353
#     4   8  15  29  49  74 105 144 187 232 285 334
#     4  10  20  36  58  84 114 150 196 244 286 342
#     4  11  23  39  63  93 119 150 195 243 284 337
#     4   9  17  30  51  80 113 151 196 246 293 340
#     4  11  23  44  65  88 119 158 189 227 289 356
#
# _framework density 18.993155999999999
#
# number of rings (size 3 to 8) (size 9 to 14) (size 15 to 20)
#    0.000    2.000    1.429    4.286    2.000    1.429 
#    0.000    3.571    0.000    6.429    0.000    0.000 
#    0.000    0.000    0.000    0.000    0.000    0.000 
#
# Total GULP energy -156146.769247 kJ/mol
# GULP energy per Si atom -5576.670330 kJ/mol
# Density = 1.894993 g / cm^3
# Si number density = 18.993156 Si / 1000 Ang^3
#
#
#
# Elastic Constant Matrix: (Units=GPa)
#
#
# Indices 1 2 3 4 5 6 
#
# 1 144.9414 35.7466 84.9185 0.0000 -0.8554 0.0000
# 2 35.7466 64.9053 29.1956 0.0000 -2.0815 0.0000
# 3 84.9185 29.1956 101.1802 0.0000 2.9761 0.0000
# 4 0.0000 0.0000 0.0000 33.3033 0.0000 -14.2415
# 5 -0.8554 -2.0815 2.9761 0.0000 47.7927 0.0000
# 6 0.0000 0.0000 0.0000 -14.2415 0.0000 45.1452
#
#
#
# Elastic Compliance Matrix: (Units=1/GPa)
#
#
# Indices 1 2 3 4 5 6 
#
# 1 0.014031 -0.002751 -0.011006 0.000000 0.000817 0.000000
# 2 -0.002751 0.018301 -0.003000 0.000000 0.000935 0.000000
# 3 -0.011006 -0.003000 0.020033 0.000000 -0.001575 0.000000
# 4 0.000000 0.000000 0.000000 0.034709 0.000000 0.010949
# 5 0.000817 0.000935 -0.001575 0.000000 0.021077 0.000000
# 6 0.000000 0.000000 0.000000 0.010949 0.000000 0.025605
#
#
# Mechanical properties :
#
#
# Convention : Reuss Voigt Hill
#
# Bulk Modulus (GPa) = 53.04604 67.86094 60.45349
# Shear Modulus (GPa) = 28.80968 35.99266 32.40117
#
# Velocity S-wave (km/s) = 3.89889 4.35792 4.13478
# Velocity P-wave (km/s) = 6.94681 7.81848 7.39550
#
# Compressibility (1/GPa) = 0.01885155
#
# Stress axis : x y z
#
# Youngs Moduli (GPa) = 71.27187 54.64094 49.91887
#
# Poissons Ratio (x) = 0.15029 0.54941
# Poissons Ratio (y) = 0.19603 0.14975
# Poissons Ratio (z) = 0.78443 0.16392
#
# Static dielectric constant tensor:
#      x y z
#    x 1.632790 0.000000 0.006640 
#    y 0.000000 1.679720 0.000000 
#    z 0.006640 0.000000 1.676680 
# 
# From -- ./inp_files/257000.got.cif
#   From: 2010.05.17/outbox.cif.g08.bks.cpg/sg12_129_cif.got.tgz:257000.got - 2010.06.03 13:09:07.
