data_PCOD9198628
_publ_section_title
;
Structure prediction by ZEFSAII (Michael W. Deem and Ramdas Pophale) SiO2 
 PCOD9198628
Probable space group: C 2/M
;
_chemical_formula_sum "Si O2"
_cell_formula_units_Z 64
_cell_length_a 20.228176
_cell_length_b 7.755762
_cell_length_c 34.177189
_cell_angle_alpha 90.000000
_cell_angle_beta 143.666302
_cell_angle_gamma 90.000000
_cell_volume 3176.847873
_symmetry_space_group_name_H-M "C 2/M"
_symmetry_group_IT_number 12
_symmetry_cell_setting 'monoclinic'
loop_
_space_group_symop_operation_xyz
x,y,z
-x,y,-z
-x,-y,-z
x,-y,z
1/2+x,1/2+y,z
1/2-x,1/2+y,-z
1/2-x,1/2-y,-z
1/2+x,1/2-y,z
loop_
_atom_site_type_symbol
_atom_site_label
_atom_site_fract_x
_atom_site_fract_y
_atom_site_fract_z
Si Si1 0.383814 0.300474 0.958826
Si Si2 0.640717 0.202837 0.823515
Si Si3 0.628639 0.794058 0.958629
Si Si4 0.879513 0.705840 0.559497
Si Si5 0.224134 0.791746 0.702115
Si Si6 0.018955 0.293551 0.552446
Si Si7 0.917998 0.797404 0.291501
Si Si8 0.522891 0.789085 0.186202
O O1 0.384415 0.500000 0.945231
O O2 0.265656 0.222876 0.888448
O O3 0.500000 0.219452 0.000000
O O4 0.384988 0.293634 0.006153
O O5 0.600161 0.219029 0.759750
O O6 0.550862 0.271943 0.812021
O O7 0.650916 0.000000 0.838109
O O8 0.539410 0.740301 0.883465
O O9 0.619704 0.000000 0.959767
O O10 0.750000 0.750000 0.000000
O O11 0.890688 0.500000 0.565375
O O12 0.750000 0.750000 0.500000
O O13 0.933542 0.773110 0.544741
O O14 0.958043 0.772804 0.631898
O O15 0.141277 0.742343 0.627672
O O16 0.166603 0.729229 0.715175
O O17 0.349332 0.729898 0.754315
O O18 0.226189 0.000000 0.705368
O O19 0.003671 0.500000 0.543454
O O20 0.000000 0.223705 0.500000
O O21 0.896840 0.000000 0.277160
O O22 0.525502 0.000000 0.188828
#
# Coordination Sequence:
#
# PCOD9198628 Si02
#       8
#     8   8   8   8   8   8   8   8
#     4  10  22  39  57  82 115 149 189 237 287 342
#     4  10  20  37  56  76 110 148 182 225 280 333
#     4  11  21  37  60  82 112 148 188 235 287 342
#     4  10  20  36  58  82 111 146 182 219 269 323
#     4   9  19  36  56  78 105 140 181 221 265 320
#     4   9  19  36  56  80 111 141 172 218 269 314
#     4  10  21  36  55  80 111 142 182 229 270 321
#     4   9  19  36  56  78 107 143 180 226 279 329
#
# _framework density 20.145755999999999
#
# number of rings (size 3 to 8) (size 9 to 14) (size 15 to 20)
#    0.000    2.250    1.250    1.125    1.750    3.000 
#    0.000    4.375    0.000    0.000    0.000    0.000 
#    0.000    0.000    0.000    0.000    0.000    0.000 
#
# Total GULP energy -178610.570373 kJ/mol
# GULP energy per Si atom -5581.580324 kJ/mol
# Density = 2.009990 g / cm^3
# Si number density = 20.145756 Si / 1000 Ang^3
#
#
#
# Elastic Constant Matrix: (Units=GPa)
#
#
# Indices 1 2 3 4 5 6 
#
# 1 112.6857 -13.7684 96.8687 0.0002 16.6801 -0.0002
# 2 -13.7684 27.2046 -17.3382 0.0003 1.4897 -0.0008
# 3 96.8687 -17.3382 161.3502 0.0000 11.0129 -0.0001
# 4 0.0002 0.0003 0.0000 20.0373 0.0000 -6.8071
# 5 16.6801 1.4897 11.0129 0.0000 40.8425 0.0001
# 6 -0.0002 -0.0008 -0.0001 -6.8071 0.0001 9.1395
#
#
#
# Elastic Compliance Matrix: (Units=1/GPa)
#
#
# Indices 1 2 3 4 5 6 
#
# 1 0.019472 0.003119 -0.011007 0.000000 -0.005098 0.000001
# 2 0.003119 0.040240 0.002688 0.000001 -0.003466 0.000004
# 3 -0.011007 0.002688 0.013035 0.000000 0.000883 0.000000
# 4 0.000000 0.000001 0.000000 0.066812 0.000000 0.049761
# 5 -0.005098 -0.003466 0.000883 0.000000 0.026455 -0.000001
# 6 0.000001 0.000004 0.000000 0.049761 -0.000001 0.146477
#
#
# Mechanical properties :
#
#
# Convention : Reuss Voigt Hill
#
# Bulk Modulus (GPa) = 16.03937 48.08497 32.06217
# Shear Modulus (GPa) = 14.54869 29.70242 22.12556
#
# Velocity S-wave (km/s) = 2.69024 3.84393 3.31762
# Velocity P-wave (km/s) = 4.19867 6.60465 5.53399
#
# Compressibility (1/GPa) = 0.06234657
#
# Stress axis : x y z
#
# Youngs Moduli (GPa) = 51.35520 24.85090 76.71840
#
# Poissons Ratio (x) = -0.07751 0.84446
# Poissons Ratio (y) = -0.16017 -0.20623
# Poissons Ratio (z) = 0.56528 -0.06680
#
# Static dielectric constant tensor:
#      x y z
#    x 1.708590 0.000000 0.020390 
#    y 0.000000 1.744410 0.000000 
#    z 0.020390 0.000000 1.683490 
# 
# From -- ./inp_files/378516.got.cif
#   From: 2010.05.17/outbox.cif.g08.bks.cpg/sg12_190_cif.got.tgz:378516.got - 2010.06.03 13:09:07.
