data_PCOD9198968
_publ_section_title
;
Structure prediction by ZEFSAII (Michael W. Deem and Ramdas Pophale) SiO2 
 PCOD9198968
Probable space group: C 2/M
;
_chemical_formula_sum "Si O2"
_cell_formula_units_Z 64
_cell_length_a 31.143888
_cell_length_b 7.600591
_cell_length_c 23.548453
_cell_angle_alpha 90.000000
_cell_angle_beta 31.372331
_cell_angle_gamma 90.000000
_cell_volume 2901.914086
_symmetry_space_group_name_H-M "C 2/M"
_symmetry_group_IT_number 12
_symmetry_cell_setting 'monoclinic'
loop_
_space_group_symop_operation_xyz
x,y,z
-x,y,-z
-x,-y,-z
x,-y,z
1/2+x,1/2+y,z
1/2-x,1/2+y,-z
1/2-x,1/2-y,-z
1/2+x,1/2-y,z
loop_
_atom_site_type_symbol
_atom_site_label
_atom_site_fract_x
_atom_site_fract_y
_atom_site_fract_z
Si Si1 0.750769 0.783260 0.239205
Si Si2 0.127686 0.714597 0.579716
Si Si3 0.167974 0.290544 0.057922
Si Si4 0.888177 0.798868 0.998930
Si Si5 0.579889 0.785112 0.373584
Si Si6 0.965868 0.285710 0.700304
Si Si7 0.574208 0.204411 0.764000
Si Si8 0.273890 0.704686 0.340411
O O1 0.665607 0.729138 0.305233
O O2 0.756595 0.721722 0.297575
O O3 0.751804 0.000000 0.237081
O O4 0.830055 0.723052 0.113606
O O5 0.126602 0.500000 0.584644
O O6 0.099852 0.778656 0.673231
O O7 0.215683 0.775839 0.456639
O O8 0.058740 0.764533 0.611123
O O9 0.160330 0.500000 0.058834
O O10 0.163853 0.208065 0.000589
O O11 0.092282 0.228676 0.182399
O O12 0.250000 0.250000 0.000000
O O13 0.977118 0.718084 0.885274
O O14 0.905743 0.000000 0.994243
O O15 0.500000 0.731692 0.500000
O O16 0.567402 0.725717 0.322850
O O17 0.580830 0.000000 0.372100
O O18 0.963241 0.500000 0.702256
O O19 0.631615 0.284977 0.747566
O O20 0.595708 0.000000 0.739402
O O21 0.250788 0.500000 0.362037
#
# Coordination Sequence:
#
# PCOD9198968 Si02
#       8
#     8   8   8   8   8   8   8   8
#     4   9  19  34  52  80 114 145 185 238 282 329
#     4   9  17  32  55  83 113 142 178 233 291 343
#     4  11  21  35  55  81 115 150 189 232 277 328
#     4  11  22  38  58  81 113 151 191 234 282 334
#     4   9  15  25  46  78 111 142 177 219 271 328
#     4   9  16  28  49  77 109 142 175 220 274 323
#     4  11  22  38  57  82 115 146 185 235 288 340
#     4  10  20  36  59  83 108 144 189 235 290 345
#
# _framework density 22.054407999999999
#
# number of rings (size 3 to 8) (size 9 to 14) (size 15 to 20)
#    0.000    2.125    1.250    3.000    0.000    5.500 
#    0.000    4.375    0.000    0.000    0.000    0.000 
#    0.000    6.500    0.000    0.000    0.000    0.000 
#
# Total GULP energy -178776.743044 kJ/mol
# GULP energy per Si atom -5586.773220 kJ/mol
# Density = 2.200421 g / cm^3
# Si number density = 22.054408 Si / 1000 Ang^3
#
#
#
# Elastic Constant Matrix: (Units=GPa)
#
#
# Indices 1 2 3 4 5 6 
#
# 1 108.2792 -1.6490 34.6427 0.0063 -0.1807 0.0090
# 2 -1.6490 46.2034 2.8795 -0.0948 7.4645 0.0139
# 3 34.6427 2.8795 117.5311 -0.0170 5.1149 0.0042
# 4 0.0063 -0.0948 -0.0170 9.7793 0.0135 -2.2719
# 5 -0.1807 7.4645 5.1149 0.0135 37.2832 0.0093
# 6 0.0090 0.0139 0.0042 -2.2719 0.0093 10.9169
#
#
#
# Elastic Compliance Matrix: (Units=1/GPa)
#
#
# Indices 1 2 3 4 5 6 
#
# 1 0.010216 0.000495 -0.003039 -0.000010 0.000367 -0.000010
# 2 0.000495 0.022406 -0.000503 0.000227 -0.004415 0.000022
# 3 -0.003039 -0.000503 0.009469 0.000016 -0.001213 0.000004
# 4 -0.000010 0.000227 0.000016 0.107455 -0.000092 0.022362
# 5 0.000367 -0.004415 -0.001213 -0.000092 0.027874 -0.000037
# 6 -0.000010 0.000022 0.000004 0.022362 -0.000037 0.096255
#
#
# Mechanical properties :
#
#
# Convention : Reuss Voigt Hill
#
# Bulk Modulus (GPa) = 27.78018 38.19555 32.98786
# Shear Modulus (GPa) = 17.13691 27.33858 22.23775
#
# Velocity S-wave (km/s) = 2.79055 3.52461 3.17884
# Velocity P-wave (km/s) = 4.79650 5.82411 5.33510
#
# Compressibility (1/GPa) = 0.03599689
#
# Stress axis : x y z
#
# Youngs Moduli (GPa) = 97.88643 44.63074 105.60401
#
# Poissons Ratio (x) = -0.02208 0.32096
# Poissons Ratio (y) = -0.04842 0.05308
# Poissons Ratio (z) = 0.29750 0.02243
#
# Static dielectric constant tensor:
#      x y z
#    x 1.771710 -0.000020 0.012280 
#    y -0.000020 1.875300 0.000030 
#    z 0.012280 0.000030 1.800920 
# 
# From -- ./inp_files/353255.got.cif
#   From: 2010.05.17/outbox.cif.g08.bks.cpg/sg12_177_cif.got.tgz:353255.got - 2010.06.03 13:09:07.
