data_PCOD9198373
_publ_section_title
;
Structure prediction by ZEFSAII (Michael W. Deem and Ramdas Pophale) SiO2 
 PCOD9198373
Probable space group: C 2/M
;
_chemical_formula_sum "Si O2"
_cell_formula_units_Z 56
_cell_length_a 28.160982
_cell_length_b 8.742939
_cell_length_c 17.958695
_cell_angle_alpha 90.000000
_cell_angle_beta 44.212219
_cell_angle_gamma 90.000000
_cell_volume 3083.265187
_symmetry_space_group_name_H-M "C 2/M"
_symmetry_group_IT_number 12
_symmetry_cell_setting 'monoclinic'
loop_
_space_group_symop_operation_xyz
x,y,z
-x,y,-z
-x,-y,-z
x,-y,z
1/2+x,1/2+y,z
1/2-x,1/2+y,-z
1/2-x,1/2-y,-z
1/2+x,1/2-y,z
loop_
_atom_site_type_symbol
_atom_site_label
_atom_site_fract_x
_atom_site_fract_y
_atom_site_fract_z
Si Si1 0.166455 0.316557 0.943934
Si Si2 0.349254 0.817682 0.610880
Si Si3 0.821517 0.815019 0.799736
Si Si4 0.914315 0.815923 0.833310
Si Si5 0.065158 0.815507 0.614765
Si Si6 0.798567 0.683736 0.260230
Si Si7 0.321229 0.683126 0.390537
O O1 0.162539 0.500000 0.952636
O O2 0.241900 0.270443 0.888109
O O3 0.164922 0.274039 0.858448
O O4 0.109882 0.245904 0.060271
O O5 0.355074 0.755870 0.688341
O O6 0.409041 0.760206 0.490138
O O7 0.278365 0.747760 0.659321
O O8 0.344927 0.000000 0.615264
O O9 0.860458 0.767391 0.830387
O O10 0.824443 0.000000 0.790130
O O11 0.989745 0.767965 0.724020
O O12 0.913660 0.000000 0.836736
O O13 0.119165 0.776389 0.618798
O O14 0.065986 0.000000 0.604551
O O15 0.794697 0.500000 0.269142
O O16 0.832616 0.750751 0.295479
O O17 0.316153 0.500000 0.392903
O O18 0.250000 0.750000 0.500000
#
# Coordination Sequence:
#
# PCOD9198373 Si02
#       7
#     8   8   8   8   8   8   8
#     4   9  19  35  56  81 109 141 177 228 280 316
#     4  11  21  33  54  83 110 141 182 225 274 324
#     4   9  19  36  57  80 109 144 183 224 272 324
#     4  10  21  37  57  79 106 148 189 222 267 324
#     4  10  22  38  54  77 113 148 179 221 274 328
#     4  10  20  36  57  82 112 142 178 226 276 324
#     4  11  21  34  57  84 110 142 182 225 274 325
#
# _framework density 18.162562999999999
#
# number of rings (size 3 to 8) (size 9 to 14) (size 15 to 20)
#    0.000    2.000    1.429    3.429    0.000    5.143 
#    0.000    3.571    0.000    4.286    0.000    0.000 
#    0.000    0.000    0.000    0.000    0.000    0.000 
#
# Total GULP energy -156359.253209 kJ/mol
# GULP energy per Si atom -5584.259043 kJ/mol
# Density = 1.812122 g / cm^3
# Si number density = 18.162563 Si / 1000 Ang^3
#
#
#
# Elastic Constant Matrix: (Units=GPa)
#
#
# Indices 1 2 3 4 5 6 
#
# 1 21.7933 6.7691 14.3924 -0.0095 12.6114 0.0030
# 2 6.7691 26.0718 22.5640 -0.0050 3.4603 0.0021
# 3 14.3924 22.5640 134.9763 -0.0109 12.4401 0.0046
# 4 -0.0095 -0.0050 -0.0109 33.5774 0.0044 6.6530
# 5 12.6114 3.4603 12.4401 0.0044 20.5687 -0.0017
# 6 0.0030 0.0021 0.0046 6.6530 -0.0017 22.0642
#
#
#
# Elastic Compliance Matrix: (Units=1/GPa)
#
#
# Indices 1 2 3 4 5 6 
#
# 1 0.076158 -0.012215 -0.002080 0.000029 -0.043382 -0.000021
# 2 -0.012215 0.047001 -0.006901 0.000001 0.003756 -0.000001
# 3 -0.002080 -0.006901 0.009065 0.000002 -0.003046 -0.000002
# 4 0.000029 0.000001 0.000002 0.031674 -0.000027 -0.009551
# 5 -0.043382 0.003756 -0.003046 -0.000027 0.076427 0.000020
# 6 -0.000021 -0.000001 -0.000002 -0.009551 0.000020 0.048202
#
#
# Mechanical properties :
#
#
# Convention : Reuss Voigt Hill
#
# Bulk Modulus (GPa) = 11.13194 30.03250 20.58222
# Shear Modulus (GPa) = 13.85565 24.51646 19.18605
#
# Velocity S-wave (km/s) = 2.76500 3.67800 3.25368
# Velocity P-wave (km/s) = 4.04179 5.88287 5.04699
#
# Compressibility (1/GPa) = 0.08983160
#
# Stress axis : x y z
#
# Youngs Moduli (GPa) = 13.13059 21.27613 110.31561
#
# Poissons Ratio (x) = 0.25989 0.22950
# Poissons Ratio (y) = 0.16039 0.76128
# Poissons Ratio (z) = 0.02732 0.14682
#
# Static dielectric constant tensor:
#      x y z
#    x 1.618930 0.000000 0.007450 
#    y 0.000000 1.610550 0.000000 
#    z 0.007450 0.000000 1.607940 
# 
# From -- ./inp_files/288212.got.cif
#   From: 2010.05.17/outbox.cif.g08.bks.cpg/sg12_145_cif.got.tgz:288212.got - 2010.06.03 13:09:07.
