data_PCOD9198677
_publ_section_title
;
Structure prediction by ZEFSAII (Michael W. Deem and Ramdas Pophale) SiO2 
 PCOD9198677
Probable space group: C 2/M
;
_chemical_formula_sum "Si O2"
_cell_formula_units_Z 48
_cell_length_a 19.422228
_cell_length_b 8.816954
_cell_length_c 22.550918
_cell_angle_alpha 90.000000
_cell_angle_beta 136.833274
_cell_angle_gamma 90.000000
_cell_volume 2641.900470
_symmetry_space_group_name_H-M "C 2/M"
_symmetry_group_IT_number 12
_symmetry_cell_setting 'monoclinic'
loop_
_space_group_symop_operation_xyz
x,y,z
-x,y,-z
-x,-y,-z
x,-y,z
1/2+x,1/2+y,z
1/2-x,1/2+y,-z
1/2-x,1/2-y,-z
1/2+x,1/2-y,z
loop_
_atom_site_type_symbol
_atom_site_label
_atom_site_fract_x
_atom_site_fract_y
_atom_site_fract_z
Si Si1 0.548186 0.179224 0.743864
Si Si2 0.718802 0.678962 0.775194
Si Si3 0.690950 0.180406 0.407862
Si Si4 0.467186 0.818139 0.130256
Si Si5 0.690071 0.680825 0.280798
Si Si6 0.892375 0.179392 0.964851
O O1 0.615432 0.275173 0.741887
O O2 0.429172 0.204320 0.660545
O O3 0.570955 0.215639 0.827189
O O4 0.568631 0.000000 0.747992
O O5 0.726145 0.500000 0.770751
O O6 0.735350 0.763610 0.723448
O O7 0.807546 0.735435 0.874414
O O8 0.750000 0.250000 0.500000
O O9 0.720454 0.259322 0.364607
O O10 0.707622 0.000000 0.414058
O O11 0.580587 0.753057 0.197991
O O12 0.470997 0.000000 0.125876
O O13 0.403292 0.743933 0.037850
O O14 0.681150 0.500000 0.274816
O O15 0.870528 0.000000 0.952113
O O16 0.000000 0.200733 0.000000
#
# Coordination Sequence:
#
# PCOD9198677 Si02
#       6
#     8   8   8   8   8   8
#     4   9  21  40  59  83 118 152 186 232 289 344
#     4  12  24  37  57  84 116 154 194 241 289 335
#     4  10  21  40  66  93 118 148 187 232 281 342
#     4  10  20  36  58  83 112 151 197 243 285 335
#     4  11  21  36  59  85 116 153 191 234 285 342
#     4  11  22  35  55  82 113 154 199 241 284 338
#
# _framework density 18.168738999999999
#
# number of rings (size 3 to 8) (size 9 to 14) (size 15 to 20)
#    0.000    1.500    1.667    5.500    0.000    5.333 
#    0.000    0.833    0.000    5.000    0.000    0.000 
#    0.000    0.000    0.000    0.000    0.000    0.000 
#
# Total GULP energy -134158.226479 kJ/mol
# GULP energy per Si atom -5589.926103 kJ/mol
# Density = 1.812739 g / cm^3
# Si number density = 18.168739 Si / 1000 Ang^3
#
#
#
# Elastic Constant Matrix: (Units=GPa)
#
#
# Indices 1 2 3 4 5 6 
#
# 1 86.1951 42.6121 25.1304 0.0000 -20.0519 0.0000
# 2 42.6121 76.5955 22.5027 0.0000 -6.7704 0.0000
# 3 25.1304 22.5027 90.1179 0.0000 -26.7672 0.0000
# 4 0.0000 0.0000 0.0000 33.5234 0.0000 -2.6187
# 5 -20.0519 -6.7704 -26.7672 0.0000 19.3251 0.0000
# 6 0.0000 0.0000 0.0000 -2.6187 0.0000 31.9918
#
#
#
# Elastic Compliance Matrix: (Units=1/GPa)
#
#
# Indices 1 2 3 4 5 6 
#
# 1 0.021389 -0.010922 0.003768 0.000000 0.023587 0.000000
# 2 -0.010922 0.019666 -0.005411 0.000000 -0.011937 0.000000
# 3 0.003768 -0.005411 0.020379 0.000000 0.030242 0.000000
# 4 0.000000 0.000000 0.000000 0.030022 0.000000 0.002457
# 5 0.023587 -0.011937 0.030242 0.000000 0.113927 0.000000
# 6 0.000000 0.000000 0.000000 0.002457 0.000000 0.031459
#
#
# Mechanical properties :
#
#
# Convention : Reuss Voigt Hill
#
# Bulk Modulus (GPa) = 27.54268 48.15545 37.84906
# Shear Modulus (GPa) = 18.24336 27.81229 23.02782
#
# Velocity S-wave (km/s) = 3.17220 3.91676 3.56398
# Velocity P-wave (km/s) = 5.34878 6.85688 6.14924
#
# Compressibility (1/GPa) = 0.03630729
#
# Stress axis : x y z
#
# Youngs Moduli (GPa) = 46.75220 50.84906 49.06925
#
# Poissons Ratio (x) = 0.55536 -0.18492
# Poissons Ratio (y) = 0.51061 0.26549
# Poissons Ratio (z) = -0.17618 0.27512
#
# Static dielectric constant tensor:
#      x y z
#    x 1.620770 0.000000 -0.005530 
#    y 0.000000 1.601250 0.000000 
#    z -0.005530 0.000000 1.600020 
# 
# From -- ./inp_files/249345.got.cif
#   From: 2010.05.17/outbox.cif.g08.bks.cpg/sg12_125_cif.got.tgz:249345.got - 2010.06.03 13:09:07.
