data_PCOD9198206
_publ_section_title
;
Structure prediction by ZEFSAII (Michael W. Deem and Ramdas Pophale) SiO2 
 PCOD9198206
Probable space group: C 2/M
;
_chemical_formula_sum "Si O2"
_cell_formula_units_Z 32
_cell_length_a 13.043949
_cell_length_b 26.633867
_cell_length_c 5.325609
_cell_angle_alpha 90.000000
_cell_angle_beta 62.882543
_cell_angle_gamma 90.000000
_cell_volume 1646.791799
_symmetry_space_group_name_H-M "C 2/M"
_symmetry_group_IT_number 12
_symmetry_cell_setting 'monoclinic'
loop_
_space_group_symop_operation_xyz
x,y,z
-x,y,-z
-x,-y,-z
x,-y,z
1/2+x,1/2+y,z
1/2-x,1/2+y,-z
1/2-x,1/2-y,-z
1/2+x,1/2-y,z
loop_
_atom_site_type_symbol
_atom_site_label
_atom_site_fract_x
_atom_site_fract_y
_atom_site_fract_z
Si Si1 0.125557 0.440539 0.607507
Si Si2 0.865109 0.397581 0.901086
Si Si3 0.207573 0.707855 0.845244
Si Si4 0.930016 0.215199 0.318294
O O1 0.108033 0.500000 0.611163
O O2 0.187011 0.419015 0.295053
O O3 0.999682 0.413909 0.749392
O O4 0.184438 0.424949 0.799332
O O5 0.848324 0.338569 0.949430
O O6 0.119056 0.733830 0.752312
O O7 0.314403 0.689377 0.554477
O O8 0.250000 0.750000 0.000000
O O9 0.000000 0.223156 0.500000
O O10 0.000000 0.192335 0.000000
#
# Coordination Sequence:
#
# PCOD9198206 Si02
#       4
#     8   8   8   8
#     4  10  20  36  56  84 120 152 195 244 308 374
#     4  10  21  31  54  78 114 155 189 232 297 352
#     4  11  25  38  58  89 120 156 225 244 289 376
#     4  11  24  39  58  75 119 164 200 255 300 326
#
# _framework density 19.431722000000001
#
# number of rings (size 3 to 8) (size 9 to 14) (size 15 to 20)
#    0.000    1.500    2.500    3.750   10.500    2.000 
#    0.000    0.000    0.000    0.000    0.000    0.000 
#    0.000   34.000    0.000    0.000    0.000    0.000 
#
# Total GULP energy -89149.294393 kJ/mol
# GULP energy per Si atom -5571.830900 kJ/mol
# Density = 1.938749 g / cm^3
# Si number density = 19.431722 Si / 1000 Ang^3
#
#
#
# Elastic Constant Matrix: (Units=GPa)
#
#
# Indices 1 2 3 4 5 6 
#
# 1 43.3228 7.6369 28.9030 0.0000 20.4627 0.0000
# 2 7.6369 128.5238 29.9618 0.0000 13.2431 0.0000
# 3 28.9030 29.9618 139.2481 0.0000 41.0448 0.0000
# 4 0.0000 0.0000 0.0000 89.8428 0.0000 -46.8565
# 5 20.4627 13.2431 41.0448 0.0000 47.1093 0.0000
# 6 0.0000 0.0000 0.0000 -46.8565 0.0000 58.7203
#
#
#
# Elastic Compliance Matrix: (Units=1/GPa)
#
#
# Indices 1 2 3 4 5 6 
#
# 1 0.030076 0.000022 -0.003222 0.000000 -0.010262 0.000000
# 2 0.000022 0.008229 -0.001467 0.000000 -0.001044 0.000000
# 3 -0.003222 -0.001467 0.010269 0.000000 -0.007135 0.000000
# 4 0.000000 0.000000 0.000000 0.019065 0.000000 0.015213
# 5 -0.010262 -0.001044 -0.007135 0.000000 0.032195 0.000000
# 6 0.000000 0.000000 0.000000 0.015213 0.000000 0.029169
#
#
# Mechanical properties :
#
#
# Convention : Reuss Voigt Hill
#
# Bulk Modulus (GPa) = 25.48563 49.34421 37.41492
# Shear Modulus (GPa) = 33.02113 55.44067 44.23090
#
# Velocity S-wave (km/s) = 4.12678 5.34724 4.77615
# Velocity P-wave (km/s) = 5.98757 7.97325 7.05066
#
# Compressibility (1/GPa) = 0.03923780
#
# Stress axis : x y z
#
# Youngs Moduli (GPa) = 33.24926 121.52082 97.37952
#
# Poissons Ratio (x) = -0.00262 0.31379
# Poissons Ratio (y) = -0.00072 0.14288
# Poissons Ratio (z) = 0.10714 0.17831
#
# Static dielectric constant tensor:
#      x y z
#    x 1.731260 0.000000 0.050110 
#    y 0.000000 1.662120 0.000000 
#    z 0.050110 0.000000 1.847470 
# 
# From -- ./inp_files/11084.got.cif
#   From: 2010.05.17/outbox.cif.g08.bks.cpg/sg12_6_cif.got.tgz:11084.got - 2010.06.03 13:09:07.
