data_PCOD9198390
_publ_section_title
;
Structure prediction by ZEFSAII (Michael W. Deem and Ramdas Pophale) SiO2 
 PCOD9198390
Probable space group: C 2/M
;
_chemical_formula_sum "Si O2"
_cell_formula_units_Z 64
_cell_length_a 30.047700
_cell_length_b 8.869383
_cell_length_c 15.057504
_cell_angle_alpha 90.000000
_cell_angle_beta 118.602289
_cell_angle_gamma 90.000000
_cell_volume 3523.175405
_symmetry_space_group_name_H-M "C 2/M"
_symmetry_group_IT_number 12
_symmetry_cell_setting 'monoclinic'
loop_
_space_group_symop_operation_xyz
x,y,z
-x,y,-z
-x,-y,-z
x,-y,z
1/2+x,1/2+y,z
1/2-x,1/2+y,-z
1/2-x,1/2-y,-z
1/2+x,1/2-y,z
loop_
_atom_site_type_symbol
_atom_site_label
_atom_site_fract_x
_atom_site_fract_y
_atom_site_fract_z
Si Si1 0.882304 0.181489 0.761727
Si Si2 0.754757 0.818117 0.906223
Si Si3 0.646651 0.818443 0.728987
Si Si4 0.866323 0.818440 0.948820
Si Si5 0.694484 0.179842 0.447849
Si Si6 0.031966 0.180034 0.297783
Si Si7 0.619046 0.680563 0.517338
Si Si8 0.077298 0.679715 0.831219
O O1 0.882996 0.223950 0.865438
O O2 0.836796 0.263400 0.667454
O O3 0.933275 0.215573 0.755096
O O4 0.874486 0.000000 0.747760
O O5 0.705286 0.775221 0.801888
O O6 0.808081 0.772966 0.913156
O O7 0.754224 0.000000 0.913310
O O8 0.750000 0.750000 0.000000
O O9 0.623218 0.739011 0.621024
O O10 0.615136 0.778471 0.787049
O O11 0.644404 0.000000 0.715185
O O12 0.868617 0.000000 0.956839
O O13 0.901781 0.750250 0.058211
O O14 0.750000 0.250000 0.500000
O O15 0.663269 0.242319 0.502152
O O16 0.696746 0.000000 0.452751
O O17 0.066563 0.218140 0.416410
O O18 0.978872 0.263248 0.243645
O O19 0.023304 0.000000 0.290055
O O20 0.624796 0.500000 0.518720
O O21 0.077702 0.500000 0.839205
#
# Coordination Sequence:
#
# PCOD9198390 Si02
#       8
#     8   8   8   8   8   8   8   8
#     4   9  20  39  60  85 115 149 193 243 292 345
#     4  10  20  36  57  82 115 154 191 232 287 344
#     4  10  22  38  56  85 120 154 190 236 291 345
#     4  10  21  37  60  86 114 153 195 235 287 347
#     4  11  22  37  58  85 118 155 194 238 286 343
#     4   9  20  40  61  81 113 149 190 243 295 349
#     4  10  22  40  61  87 115 150 194 241 292 347
#     4  11  23  38  58  84 117 153 196 243 289 345
#
# _framework density 18.165431000000002
#
# number of rings (size 3 to 8) (size 9 to 14) (size 15 to 20)
#    0.000    2.000    1.250    2.625    1.750    5.500 
#    0.000    5.000    0.000    0.000    0.000    0.000 
#    0.000    0.000    0.000    0.000    0.000    0.000 
#
# Total GULP energy -178715.635233 kJ/mol
# GULP energy per Si atom -5584.863601 kJ/mol
# Density = 1.812409 g / cm^3
# Si number density = 18.165431 Si / 1000 Ang^3
#
#
#
# Elastic Constant Matrix: (Units=GPa)
#
#
# Indices 1 2 3 4 5 6 
#
# 1 40.1102 21.2155 45.8448 0.0000 20.7725 0.0000
# 2 21.2155 34.5395 37.5654 0.0000 3.6726 0.0000
# 3 45.8448 37.5654 124.2399 0.0000 -7.5400 0.0000
# 4 0.0000 0.0000 0.0000 33.3021 0.0000 -1.2099
# 5 20.7725 3.6726 -7.5400 0.0000 31.3279 0.0000
# 6 0.0000 0.0000 0.0000 -1.2099 0.0000 29.0574
#
#
#
# Elastic Compliance Matrix: (Units=1/GPa)
#
#
# Indices 1 2 3 4 5 6 
#
# 1 0.205690 -0.026251 -0.077181 0.000000 -0.151885 0.000000
# 2 -0.026251 0.048736 -0.004404 0.000000 0.010633 0.000000
# 3 -0.077181 -0.004404 0.041605 0.000000 0.061706 0.000000
# 4 0.000000 0.000000 0.000000 0.030074 0.000000 0.001252
# 5 -0.151885 0.010633 0.061706 0.000000 0.146235 0.000000
# 6 0.000000 0.000000 0.000000 0.001252 0.000000 0.034467
#
#
# Mechanical properties :
#
#
# Convention : Reuss Voigt Hill
#
# Bulk Modulus (GPa) = 12.44389 45.34900 28.89644
# Shear Modulus (GPa) = 6.67320 25.02173 15.84747
#
# Velocity S-wave (km/s) = 1.91874 3.71541 2.95684
# Velocity P-wave (km/s) = 3.43131 6.58971 5.25349
#
# Compressibility (1/GPa) = 0.08036072
#
# Stress axis : x y z
#
# Youngs Moduli (GPa) = 4.86168 20.51877 24.03537
#
# Poissons Ratio (x) = 0.53863 1.85507
# Poissons Ratio (y) = 0.12762 0.10585
# Poissons Ratio (z) = 0.37523 0.09037
#
# Static dielectric constant tensor:
#      x y z
#    x 1.611650 0.000000 -0.004200 
#    y 0.000000 1.602600 0.000000 
#    z -0.004200 0.000000 1.600750 
# 
# From -- ./inp_files/244255.got.cif
#   From: 2010.05.17/outbox.cif.g08.bks.cpg/sg12_123_cif.got.tgz:244255.got - 2010.06.03 13:09:07.
