data_PCOD9198258
_publ_section_title
;
Structure prediction by ZEFSAII (Michael W. Deem and Ramdas Pophale) SiO2 
 PCOD9198258
Probable space group: C 2/M
;
_chemical_formula_sum "Si O2"
_cell_formula_units_Z 64
_cell_length_a 15.463196
_cell_length_b 8.743052
_cell_length_c 34.761168
_cell_angle_alpha 90.000000
_cell_angle_beta 135.256585
_cell_angle_gamma 90.000000
_cell_volume 3308.171901
_symmetry_space_group_name_H-M "C 2/M"
_symmetry_group_IT_number 12
_symmetry_cell_setting 'monoclinic'
loop_
_space_group_symop_operation_xyz
x,y,z
-x,y,-z
-x,-y,-z
x,-y,z
1/2+x,1/2+y,z
1/2-x,1/2+y,-z
1/2-x,1/2-y,-z
1/2+x,1/2-y,z
loop_
_atom_site_type_symbol
_atom_site_label
_atom_site_fract_x
_atom_site_fract_y
_atom_site_fract_z
Si Si1 0.813485 0.181426 0.282841
Si Si2 0.464299 0.813335 0.796154
Si Si3 0.571460 0.176377 0.609544
Si Si4 0.954750 0.318635 0.260905
Si Si5 0.802931 0.821774 0.628318
Si Si6 0.382531 0.184726 0.081216
Si Si7 0.831064 0.684956 0.491466
Si Si8 0.095456 0.184658 0.995942
O O1 0.677026 0.238055 0.250040
O O2 0.912717 0.234782 0.345803
O O3 0.849703 0.240814 0.252544
O O4 0.811680 0.000000 0.282510
O O5 0.533211 0.764024 0.779183
O O6 0.531110 0.765953 0.856305
O O7 0.463811 0.000000 0.795536
O O8 0.701492 0.181358 0.629528
O O9 0.469211 0.231415 0.546787
O O10 0.541730 0.000000 0.609492
O O11 0.937627 0.500000 0.255744
O O12 0.081745 0.276296 0.322339
O O13 0.731838 0.764688 0.567953
O O14 0.841032 0.000000 0.634559
O O15 0.427010 0.252095 0.054367
O O16 0.385910 0.000000 0.079221
O O17 0.240594 0.226352 0.046943
O O18 0.830690 0.500000 0.489665
O O19 0.750000 0.750000 0.500000
O O20 0.088328 0.000000 0.992640
O O21 0.000000 0.234097 0.000000
#
# Coordination Sequence:
#
# PCOD9198258 Si02
#       8
#     8   8   8   8   8   8   8   8
#     4  11  22  38  57  80 109 144 186 233 281 331
#     4   9  20  38  57  78 111 150 187 228 275 326
#     4  10  20  36  57  79 104 138 181 226 279 337
#     4  11  22  38  58  82 110 145 186 230 281 336
#     4  10  20  36  57  79 105 139 180 226 279 334
#     4   9  18  35  57  80 111 152 190 225 271 322
#     4  10  21  35  51  75 105 137 174 223 275 336
#     4   9  18  33  55  85 118 149 183 227 274 320
#
# _framework density 19.346031
#
# number of rings (size 3 to 8) (size 9 to 14) (size 15 to 20)
#    0.000    2.125    1.250    1.875    0.000    5.750 
#    0.000    3.750    0.000    2.250    0.000    0.000 
#    0.000    0.000    0.000    0.000    0.000    0.000 
#
# Total GULP energy -178477.660796 kJ/mol
# GULP energy per Si atom -5577.426900 kJ/mol
# Density = 1.930200 g / cm^3
# Si number density = 19.346031 Si / 1000 Ang^3
#
#
#
# Elastic Constant Matrix: (Units=GPa)
#
#
# Indices 1 2 3 4 5 6 
#
# 1 79.2688 8.3929 29.9707 0.0000 -30.7115 0.0000
# 2 8.3929 7.7109 13.5488 0.0000 -7.4519 0.0000
# 3 29.9707 13.5488 120.5355 0.0000 -27.9901 0.0000
# 4 0.0000 0.0000 0.0000 24.0456 0.0000 -4.3965
# 5 -30.7115 -7.4519 -27.9901 0.0000 26.2811 0.0000
# 6 0.0000 0.0000 0.0000 -4.3965 0.0000 27.4100
#
#
#
# Elastic Compliance Matrix: (Units=1/GPa)
#
#
# Indices 1 2 3 4 5 6 
#
# 1 0.023098 0.000642 0.000657 0.000000 0.027874 0.000000
# 2 0.000642 0.190467 -0.011763 0.000000 0.042228 0.000000
# 3 0.000657 -0.011763 0.011770 0.000000 0.009968 0.000000
# 4 0.000000 0.000000 0.000000 0.042844 0.000000 0.006872
# 5 0.027874 0.042228 0.009968 0.000000 0.093213 0.000000
# 6 0.000000 0.000000 0.000000 0.006872 0.000000 0.037585
#
#
# Mechanical properties :
#
#
# Convention : Reuss Voigt Hill
#
# Bulk Modulus (GPa) = 4.89220 34.59335 19.74278
# Shear Modulus (GPa) = 10.24503 25.92085 18.08294
#
# Velocity S-wave (km/s) = 2.30373 3.66437 3.06062
# Velocity P-wave (km/s) = 3.10008 5.98529 4.76625
#
# Compressibility (1/GPa) = 0.20440703
#
# Stress axis : x y z
#
# Youngs Moduli (GPa) = 43.29333 5.25025 84.96320
#
# Poissons Ratio (x) = -0.00337 -0.05585
# Poissons Ratio (y) = -0.02778 0.99943
# Poissons Ratio (z) = -0.02846 0.06176
#
# Static dielectric constant tensor:
#      x y z
#    x 1.684790 0.000000 0.007780 
#    y 0.000000 1.659460 0.000000 
#    z 0.007780 0.000000 1.689130 
# 
# From -- ./inp_files/375630.got.cif
#   From: 2010.05.17/outbox.cif.g08.bks.cpg/sg12_188_cif.got.tgz:375630.got - 2010.06.03 13:09:07.
