data_PCOD9198163
_publ_section_title
;
Structure prediction by ZEFSAII (Michael W. Deem and Ramdas Pophale) SiO2 
 PCOD9198163
Probable space group: C 2/M
;
_chemical_formula_sum "Si O2"
_cell_formula_units_Z 48
_cell_length_a 15.949381
_cell_length_b 25.408546
_cell_length_c 12.094920
_cell_angle_alpha 90.000000
_cell_angle_beta 149.730194
_cell_angle_gamma 90.000000
_cell_volume 2470.698210
_symmetry_space_group_name_H-M "C 2/M"
_symmetry_group_IT_number 12
_symmetry_cell_setting 'monoclinic'
loop_
_space_group_symop_operation_xyz
x,y,z
-x,y,-z
-x,-y,-z
x,-y,z
1/2+x,1/2+y,z
1/2-x,1/2+y,-z
1/2-x,1/2-y,-z
1/2+x,1/2-y,z
loop_
_atom_site_type_symbol
_atom_site_label
_atom_site_fract_x
_atom_site_fract_y
_atom_site_fract_z
Si Si1 0.854787 0.351969 0.549285
Si Si2 0.913593 0.942476 0.283713
Si Si3 0.972412 0.562667 0.099286
Si Si4 0.169055 0.818045 0.137512
Si Si5 0.968367 0.839700 0.691683
Si Si6 0.901581 0.739313 0.255774
O O1 0.753499 0.359518 0.317942
O O2 0.712549 0.327992 0.465486
O O3 0.925883 0.401539 0.697798
O O4 0.994564 0.309116 0.677921
O O5 0.000000 0.946399 0.500000
O O6 0.012489 0.897573 0.333742
O O7 0.922372 0.000000 0.238622
O O8 0.720652 0.929655 0.087125
O O9 0.011105 0.500000 0.152940
O O10 0.000000 0.576678 0.000000
O O11 0.314357 0.777351 0.270924
O O12 0.000000 0.795453 0.000000
O O13 0.100917 0.839043 0.943704
O O14 0.006019 0.794878 0.645468
O O15 0.750000 0.750000 0.000000
#
# Coordination Sequence:
#
# PCOD9198163 Si02
#       6
#     8   8   8   8   8   8
#     4  11  21  37  60  86 117 150 187 236 287 337
#     4  10  21  38  59  82 111 148 191 240 289 337
#     4  10  21  38  60  86 115 149 192 239 285 337
#     4   9  20  37  58  83 116 151 186 233 286 339
#     4  10  21  38  58  85 115 152 194 233 284 341
#     4  10  20  36  56  81 114 150 189 230 279 335
#
# _framework density 19.427707000000002
#
# number of rings (size 3 to 8) (size 9 to 14) (size 15 to 20)
#    0.000    2.000    0.000    4.000    0.000    3.333 
#    0.000   18.333    0.000    7.000    0.000    0.000 
#    0.000    0.000    0.000    0.000    0.000    0.000 
#
# Total GULP energy -133715.367501 kJ/mol
# GULP energy per Si atom -5571.473646 kJ/mol
# Density = 1.938349 g / cm^3
# Si number density = 19.427707 Si / 1000 Ang^3
#
#
#
# Elastic Constant Matrix: (Units=GPa)
#
#
# Indices 1 2 3 4 5 6 
#
# 1 98.5599 54.6044 39.1522 0.0000 -1.2049 0.0000
# 2 54.6044 80.1405 38.5054 0.0000 -0.1309 0.0000
# 3 39.1522 38.5054 102.4922 0.0000 0.5248 0.0000
# 4 0.0000 0.0000 0.0000 -0.2756 0.0000 -34.8725
# 5 -1.2049 -0.1309 0.5248 0.0000 32.3598 0.0000
# 6 0.0000 0.0000 0.0000 -34.8725 0.0000 -7.3425
#
#
#
# Elastic Compliance Matrix: (Units=1/GPa)
#
#
# Indices 1 2 3 4 5 6 
#
# 1 0.016857 -0.010237 -0.002597 0.000000 0.000628 0.000000
# 2 -0.010237 0.021444 -0.004145 0.000000 -0.000227 0.000000
# 3 -0.002597 -0.004145 0.012307 0.000000 -0.000313 0.000000
# 4 0.000000 0.000000 0.000000 0.006048 0.000000 -0.028724
# 5 0.000628 -0.000227 -0.000313 0.000000 0.030930 0.000000
# 6 0.000000 0.000000 0.000000 -0.028724 0.000000 0.000227
#
#
# Mechanical properties :
#
#
# Convention : Reuss Voigt Hill
#
# Bulk Modulus (GPa) = 60.05295 60.63519 60.34407
# Shear Modulus (GPa) = 39.27107 14.87705 27.07406
#
# Velocity S-wave (km/s) = 4.50087 2.77025 3.73712
# Velocity P-wave (km/s) = 7.61502 6.44289 7.05334
#
# Compressibility (1/GPa) = 0.01665197
#
# Stress axis : x y z
#
# Youngs Moduli (GPa) = 59.32348 46.63291 81.25140
#
# Poissons Ratio (x) = 0.47737 0.21098
# Poissons Ratio (y) = 0.60728 0.33676
# Poissons Ratio (z) = 0.15404 0.19328
#
# Static dielectric constant tensor:
#      x y z
#    x 1.702350 0.000000 0.006890 
#    y 0.000000 1.676990 0.000000 
#    z 0.006890 0.000000 1.738900 
# 
# From -- ./inp_files/149877.got.cif
#   From: 2010.05.17/outbox.cif.g08.bks.cpg/sg12_75_cif.got.tgz:149877.got - 2010.06.03 13:09:07.
