data_PCOD9198121
_publ_section_title
;
Structure prediction by ZEFSAII (Michael W. Deem and Ramdas Pophale) SiO2 
 PCOD9198121
Probable space group: C 2/M
;
_chemical_formula_sum "Si O2"
_cell_formula_units_Z 60
_cell_length_a 13.125217
_cell_length_b 15.650550
_cell_length_c 12.386394
_cell_angle_alpha 90.000000
_cell_angle_beta 110.325586
_cell_angle_gamma 90.000000
_cell_volume 2385.945998
_symmetry_space_group_name_H-M "C 2/M"
_symmetry_group_IT_number 12
_symmetry_cell_setting 'monoclinic'
loop_
_space_group_symop_operation_xyz
x,y,z
-x,y,-z
-x,-y,-z
x,-y,z
1/2+x,1/2+y,z
1/2-x,1/2+y,-z
1/2-x,1/2-y,-z
1/2+x,1/2-y,z
loop_
_atom_site_type_symbol
_atom_site_label
_atom_site_fract_x
_atom_site_fract_y
_atom_site_fract_z
Si Si1 0.973178 0.349773 0.820947
Si Si2 0.370425 0.000000 0.179165
Si Si3 0.714579 0.101320 0.103235
Si Si4 0.407048 0.403904 0.040342
Si Si5 0.290544 0.139480 0.323933
Si Si6 0.964155 0.160962 0.731348
Si Si7 0.143601 0.170208 0.652832
Si Si8 0.810629 0.400868 0.568417
O O1 0.894214 0.353197 0.896246
O O2 0.996627 0.251695 0.799273
O O3 0.904112 0.380247 0.689168
O O4 0.064740 0.422246 0.862772
O O5 0.318846 0.073465 0.241969
O O6 0.789995 0.112520 0.237473
O O7 0.789768 0.133531 0.030775
O O8 0.699500 0.000000 0.080512
O O9 0.383776 0.500000 0.988640
O O10 0.472426 0.408425 0.175508
O O11 0.500000 0.362822 0.000000
O O12 0.162389 0.145235 0.301507
O O13 0.328981 0.233011 0.306513
O O14 0.345331 0.117108 0.458971
O O15 0.017147 0.158430 0.632233
O O16 0.204441 0.152617 0.563353
O O17 0.782821 0.500000 0.566336
#
# Coordination Sequence:
#
# PCOD9198121 Si02
#       8
#     8   4   8   8   8   8   8   8
#     4  11  20  37  61  84 113 165 204 241 294 354
#     4  12  24  39  58  89 119 161 208 256 301 355
#     4   9  16  33  61  86 111 143 203 239 277 355
#     4   9  20  39  65  94 119 149 190 243 296 368
#     4  12  24  38  54  87 120 161 204 262 302 347
#     4  11  23  38  60  87 122 152 196 246 315 356
#     4  10  20  36  56  79 113 160 200 247 294 359
#     4  11  22  38  55  80 118 154 217 255 286 347
#
# _framework density 25.147258999999998
#
# number of rings (size 3 to 8) (size 9 to 14) (size 15 to 20)
#    0.000    1.467    6.000    1.600    0.933    2.133 
#    0.000    1.333    0.000    0.000    0.000    1.400 
#    0.000    0.000    0.000    0.000    0.000    0.000 
#
# Total GULP energy -167133.913853 kJ/mol
# GULP energy per Si atom -5571.130462 kJ/mol
# Density = 2.509002 g / cm^3
# Si number density = 25.147259 Si / 1000 Ang^3
#
#
#
# Elastic Constant Matrix: (Units=GPa)
#
#
# Indices 1 2 3 4 5 6 
#
# 1 110.0655 24.6852 56.2206 0.0000 -37.2623 0.0000
# 2 24.6852 104.4916 6.1533 0.0000 0.5694 0.0000
# 3 56.2206 6.1533 83.2081 0.0000 -23.9001 0.0000
# 4 0.0000 0.0000 0.0000 38.7318 0.0000 -0.6614
# 5 -37.2623 0.5694 -23.9001 0.0000 52.5015 0.0000
# 6 0.0000 0.0000 0.0000 -0.6614 0.0000 21.1413
#
#
#
# Elastic Compliance Matrix: (Units=1/GPa)
#
#
# Indices 1 2 3 4 5 6 
#
# 1 0.017296 -0.003597 -0.009069 0.000000 0.008186 0.000000
# 2 -0.003597 0.010371 0.001033 0.000000 -0.002195 0.000000
# 3 -0.009069 0.001033 0.018657 0.000000 0.002045 0.000000
# 4 0.000000 0.000000 0.000000 0.025832 0.000000 0.000808
# 5 0.008186 -0.002195 0.002045 0.000000 0.025812 0.000000
# 6 0.000000 0.000000 0.000000 0.000808 0.000000 0.047326
#
#
# Mechanical properties :
#
#
# Convention : Reuss Voigt Hill
#
# Bulk Modulus (GPa) = 43.36906 52.43149 47.90027
# Shear Modulus (GPa) = 28.36954 36.52199 32.44577
#
# Velocity S-wave (km/s) = 3.36242 3.81507 3.59587
# Velocity P-wave (km/s) = 5.68840 6.34834 6.02741
#
# Compressibility (1/GPa) = 0.02305791
#
# Stress axis : x y z
#
# Youngs Moduli (GPa) = 57.81748 96.42318 53.60015
#
# Poissons Ratio (x) = 0.34679 0.48609
# Poissons Ratio (y) = 0.20794 -0.05535
# Poissons Ratio (z) = 0.52434 -0.09957
#
# Static dielectric constant tensor:
#      x y z
#    x 2.081950 0.000000 0.017470 
#    y 0.000000 2.070340 0.000000 
#    z 0.017470 0.000000 2.093870 
# 
# From -- ./inp_files/214809.got.cif
#   From: 2010.05.17/outbox.cif.g08.bks.cpg/sg12_108_cif.got.tgz:214809.got - 2010.06.03 13:09:07.
