data_PCOD9198902
_publ_section_title
;
Structure prediction by ZEFSAII (Michael W. Deem and Ramdas Pophale) SiO2 
 PCOD9198902
Probable space group: C 2/M
;
_chemical_formula_sum "Si O2"
_cell_formula_units_Z 58
_cell_length_a 19.556951
_cell_length_b 20.225150
_cell_length_c 16.179300
_cell_angle_alpha 90.000000
_cell_angle_beta 28.034737
_cell_angle_gamma 90.000000
_cell_volume 3007.854019
_symmetry_space_group_name_H-M "C 2/M"
_symmetry_group_IT_number 12
_symmetry_cell_setting 'monoclinic'
loop_
_space_group_symop_operation_xyz
x,y,z
-x,y,-z
-x,-y,-z
x,-y,z
1/2+x,1/2+y,z
1/2-x,1/2+y,-z
1/2-x,1/2-y,-z
1/2+x,1/2-y,z
loop_
_atom_site_type_symbol
_atom_site_label
_atom_site_fract_x
_atom_site_fract_y
_atom_site_fract_z
Si Si1 0.000000 0.500000 0.000000
Si Si2 0.373003 0.771357 0.269603
Si Si3 0.776542 0.421025 0.964365
Si Si4 0.953135 0.923813 0.352433
Si Si5 0.887685 0.625406 0.019624
Si Si6 0.250971 0.144885 0.550300
Si Si7 0.982628 0.420201 0.423069
Si Si8 0.633996 0.672632 0.408590
O O1 0.032948 0.559314 0.033151
O O2 0.507555 0.810871 0.087717
O O3 0.342156 0.809159 0.389216
O O4 0.376889 0.693457 0.281257
O O5 0.232907 0.780539 0.359715
O O6 0.791954 0.500000 0.960444
O O7 0.605135 0.407045 0.146121
O O8 0.841487 0.385110 0.974718
O O9 0.869832 0.404060 0.784441
O O10 0.821797 0.910315 0.429724
O O11 0.930863 0.879958 0.457379
O O12 0.956128 0.000000 0.374288
O O13 0.745509 0.636875 0.227297
O O14 0.351352 0.114939 0.514253
O O15 0.960922 0.500000 0.442934
O O16 0.000000 0.401058 0.500000
O O17 0.500000 0.702397 0.500000
#
# Coordination Sequence:
#
# PCOD9198902 Si02
#       8
#     2   8   8   8   8   8   8   8
#     4  12  24  32  62  96 126 176 208 236 308 372
#     4  10  22  39  56  83 123 164 211 246 292 366
#     4  10  20  36  58  88 125 157 193 250 313 364
#     4  10  22  37  60  92 128 163 200 246 311 370
#     4  12  21  36  57  90 128 165 204 244 292 370
#     4  10  21  40  62  82 115 163 207 255 304 359
#     4  10  21  39  66  94 116 147 207 271 318 363
#     4  11  22  35  56  89 132 163 199 242 294 361
#
# _framework density 19.282851000000001
#
# number of rings (size 3 to 8) (size 9 to 14) (size 15 to 20)
#    0.000    1.517    4.828    0.414    0.966    0.828 
#    0.000    5.517    0.000    3.310    0.000    0.000 
#    0.000    0.000    0.000    0.000    0.000    0.000 
#
# Total GULP energy -161568.308476 kJ/mol
# GULP energy per Si atom -5571.320982 kJ/mol
# Density = 1.923896 g / cm^3
# Si number density = 19.282851 Si / 1000 Ang^3
#
#
#
# Elastic Constant Matrix: (Units=GPa)
#
#
# Indices 1 2 3 4 5 6 
#
# 1 124.1852 2.7443 28.8225 0.0006 9.0783 0.0003
# 2 2.7443 22.5349 19.0974 -0.0005 2.7168 0.0003
# 3 28.8225 19.0974 88.1229 0.0001 9.9263 -0.0004
# 4 0.0006 -0.0005 0.0001 4.6613 -0.0003 0.4753
# 5 9.0783 2.7168 9.9263 -0.0003 30.8551 -0.0002
# 6 0.0003 0.0003 -0.0004 0.4753 -0.0002 14.0225
#
#
#
# Elastic Compliance Matrix: (Units=1/GPa)
#
#
# Indices 1 2 3 4 5 6 
#
# 1 0.008857 0.001740 -0.003075 -0.000001 -0.001770 0.000000
# 2 0.001740 0.054733 -0.012275 0.000006 -0.001382 -0.000002
# 3 -0.003075 -0.012275 0.015346 -0.000001 -0.002951 0.000001
# 4 -0.000001 0.000006 -0.000001 0.215276 0.000002 -0.007296
# 5 -0.001770 -0.001382 -0.002951 0.000002 0.034002 0.000000
# 6 0.000000 -0.000002 0.000001 -0.007296 0.000000 0.071561
#
#
# Mechanical properties :
#
#
# Convention : Reuss Voigt Hill
#
# Bulk Modulus (GPa) = 19.33576 37.35239 28.34408
# Shear Modulus (GPa) = 11.25539 22.18637 16.72088
#
# Velocity S-wave (km/s) = 2.41861 3.39569 2.94791
# Velocity P-wave (km/s) = 4.22478 5.89806 5.13010
#
# Compressibility (1/GPa) = 0.05171764
#
# Stress axis : x y z
#
# Youngs Moduli (GPa) = 112.90457 18.27059 65.16347
#
# Poissons Ratio (x) = -0.03180 0.20036
# Poissons Ratio (y) = -0.19651 0.79987
# Poissons Ratio (z) = 0.34715 0.22427
#
# Static dielectric constant tensor:
#      x y z
#    x 1.668460 0.000000 -0.006550 
#    y 0.000000 1.656890 0.000000 
#    z -0.006550 0.000000 1.702000 
# 
# From -- ./inp_files/78071.got.cif
#   From: 2010.05.17/outbox.cif.g08.bks.cpg/sg12_40_cif.got.tgz:78071.got - 2010.06.03 13:09:07.
