data_PCOD9198886
_publ_section_title
;
Structure prediction by ZEFSAII (Michael W. Deem and Ramdas Pophale) SiO2 
 PCOD9198886
Probable space group: C 2/M
;
_chemical_formula_sum "Si O2"
_cell_formula_units_Z 64
_cell_length_a 12.084736
_cell_length_b 19.200615
_cell_length_c 28.939119
_cell_angle_alpha 90.000000
_cell_angle_beta 148.679624
_cell_angle_gamma 90.000000
_cell_volume 3490.543551
_symmetry_space_group_name_H-M "C 2/M"
_symmetry_group_IT_number 12
_symmetry_cell_setting 'monoclinic'
loop_
_space_group_symop_operation_xyz
x,y,z
-x,y,-z
-x,-y,-z
x,-y,z
1/2+x,1/2+y,z
1/2-x,1/2+y,-z
1/2-x,1/2-y,-z
1/2+x,1/2-y,z
loop_
_atom_site_type_symbol
_atom_site_label
_atom_site_fract_x
_atom_site_fract_y
_atom_site_fract_z
Si Si1 0.743568 0.320770 0.408854
Si Si2 0.690002 0.869452 0.315485
Si Si3 0.719995 0.078750 0.875251
Si Si4 0.940745 0.328203 0.629558
Si Si5 0.781059 0.305328 0.942546
Si Si6 0.156166 0.082028 0.459349
Si Si7 0.365566 0.710394 0.733444
Si Si8 0.616104 0.347728 0.979572
O O1 0.658835 0.249468 0.402180
O O2 0.668629 0.385732 0.412534
O O3 0.657427 0.322489 0.325750
O O4 0.000000 0.317802 0.500000
O O5 0.521190 0.912503 0.225868
O O6 0.604693 0.862604 0.337175
O O7 0.690306 0.791612 0.294546
O O8 0.923039 0.901841 0.396539
O O9 0.755522 0.100769 0.940894
O O10 0.790837 0.000000 0.892758
O O11 0.871075 0.130576 0.899809
O O12 0.186827 0.320618 0.703629
O O13 0.822956 0.373620 0.548929
O O14 0.597552 0.296892 0.838760
O O15 0.841328 0.229286 0.984865
O O16 0.689143 0.348147 0.952992
O O17 0.000000 0.334532 0.000000
O O18 0.199906 0.000000 0.475927
#
# Coordination Sequence:
#
# PCOD9198886 Si02
#       8
#     8   8   8   8   8   8   8   8
#     4  11  22  40  65  88 116 162 208 250 299 361
#     4  11  22  37  60  93 122 153 204 251 306 357
#     4  11  21  39  61  86 124 162 203 241 297 375
#     4  11  22  40  64  87 120 159 205 253 306 359
#     4  11  21  36  60  91 128 149 195 264 304 349
#     4  12  25  41  60  87 126 162 202 251 304 362
#     4  11  21  38  64  90 123 155 203 256 304 358
#     4  10  20  36  58  88 120 157 204 238 307 353
#
# _framework density 18.335253000000002
#
# number of rings (size 3 to 8) (size 9 to 14) (size 15 to 20)
#    0.000    1.000    5.000    4.125    0.000    5.750 
#    0.000    0.000    0.000    3.000    0.000    0.000 
#    0.000    0.000    0.000    0.000    0.000    0.000 
#
# Total GULP energy -178776.571986 kJ/mol
# GULP energy per Si atom -5586.767875 kJ/mol
# Density = 1.829352 g / cm^3
# Si number density = 18.335253 Si / 1000 Ang^3
#
#
#
# Elastic Constant Matrix: (Units=GPa)
#
#
# Indices 1 2 3 4 5 6 
#
# 1 97.0488 35.8615 25.9669 0.0002 -4.9285 0.0001
# 2 35.8615 49.9221 12.4380 -0.0002 3.8245 -0.0001
# 3 25.9669 12.4380 68.3407 0.0005 7.1886 0.0001
# 4 0.0002 -0.0002 0.0005 6.0099 0.0001 -0.4454
# 5 -4.9285 3.8245 7.1886 0.0001 22.2046 0.0000
# 6 0.0001 -0.0001 0.0001 -0.4454 0.0000 11.3424
#
#
#
# Elastic Compliance Matrix: (Units=1/GPa)
#
#
# Indices 1 2 3 4 5 6 
#
# 1 0.015929 -0.010773 -0.004823 -0.000001 0.006952 0.000000
# 2 -0.010773 0.028400 -0.000320 0.000001 -0.007179 0.000000
# 3 -0.004823 -0.000320 0.017216 -0.000001 -0.006589 0.000000
# 4 -0.000001 0.000001 -0.000001 0.166877 0.000000 0.006552
# 5 0.006952 -0.007179 -0.006589 0.000000 0.049949 0.000000
# 6 0.000000 0.000000 0.000000 0.006552 0.000000 0.088422
#
#
# Mechanical properties :
#
#
# Convention : Reuss Voigt Hill
#
# Bulk Modulus (GPa) = 33.65608 40.42715 37.04162
# Shear Modulus (GPa) = 12.23902 17.31440 14.77671
#
# Velocity S-wave (km/s) = 2.58643 3.07632 2.84195
# Velocity P-wave (km/s) = 5.22640 5.89195 5.56913
#
# Compressibility (1/GPa) = 0.02971231
#
# Stress axis : x y z
#
# Youngs Moduli (GPa) = 62.78051 35.21138 58.08405
#
# Poissons Ratio (x) = 0.37934 0.28013
# Poissons Ratio (y) = 0.67635 0.01860
# Poissons Ratio (z) = 0.30278 0.01128
#
# Static dielectric constant tensor:
#      x y z
#    x 1.641480 0.000000 0.000910 
#    y 0.000000 1.615830 0.000000 
#    z 0.000910 0.000000 1.625530 
# 
# From -- ./inp_files/374500.got.cif
#   From: 2010.05.17/outbox.cif.g08.bks.cpg/sg12_188_cif.got.tgz:374500.got - 2010.06.03 13:09:07.
