data_PCOD9198619
_publ_section_title
;
Structure prediction by ZEFSAII (Michael W. Deem and Ramdas Pophale) SiO2 
 PCOD9198619
Probable space group: C 2/M
;
_chemical_formula_sum "Si O2"
_cell_formula_units_Z 56
_cell_length_a 32.340846
_cell_length_b 7.560299
_cell_length_c 12.275396
_cell_angle_alpha 90.000000
_cell_angle_beta 58.284333
_cell_angle_gamma 90.000000
_cell_volume 2553.204757
_symmetry_space_group_name_H-M "C 2/M"
_symmetry_group_IT_number 12
_symmetry_cell_setting 'monoclinic'
loop_
_space_group_symop_operation_xyz
x,y,z
-x,y,-z
-x,-y,-z
x,-y,z
1/2+x,1/2+y,z
1/2-x,1/2+y,-z
1/2-x,1/2-y,-z
1/2+x,1/2-y,z
loop_
_atom_site_type_symbol
_atom_site_label
_atom_site_fract_x
_atom_site_fract_y
_atom_site_fract_z
Si Si1 0.073561 0.214383 0.139045
Si Si2 0.104413 0.289335 0.622644
Si Si3 0.785606 0.287061 0.549496
Si Si4 0.326485 0.285195 0.897564
Si Si5 0.480755 0.792346 0.411033
Si Si6 0.746712 0.205948 0.178347
Si Si7 0.555949 0.286711 0.921729
O O1 0.119630 0.271853 0.146381
O O2 0.023950 0.276087 0.263224
O O3 0.072580 0.000000 0.140761
O O4 0.078368 0.271280 0.006385
O O5 0.106503 0.500000 0.602368
O O6 0.159384 0.219666 0.540786
O O7 0.067341 0.217297 0.581766
O O8 0.082619 0.264324 0.773786
O O9 0.789221 0.500000 0.555419
O O10 0.750000 0.250000 0.500000
O O11 0.761042 0.214889 0.693069
O O12 0.325377 0.500000 0.896147
O O13 0.303928 0.219950 0.816354
O O14 0.288845 0.220337 0.042607
O O15 0.500000 0.716884 0.500000
O O16 0.471168 0.000000 0.444447
O O17 0.759486 0.000000 0.174116
O O18 0.555455 0.500000 0.923451
O O19 0.500000 0.225584 0.000000
#
# Coordination Sequence:
#
# PCOD9198619 Si02
#       7
#     8   8   8   8   8   8   8
#     4  10  21  36  56  84 114 143 184 231 276 331
#     4  10  22  39  57  83 115 147 188 236 280 329
#     4  10  23  40  59  83 113 150 191 234 280 334
#     4   9  19  35  56  83 111 141 180 231 281 327
#     4  10  22  38  58  83 114 151 189 226 275 338
#     4   9  19  37  59  80 108 145 185 229 279 330
#     4  10  20  36  58  82 110 145 185 225 274 334
#
# _framework density 21.933216999999999
#
# number of rings (size 3 to 8) (size 9 to 14) (size 15 to 20)
#    0.000    2.286    1.429    0.000    4.000    2.857 
#    0.000    0.000    0.000    0.000    0.000    0.000 
#    0.000    0.000    0.000    0.000    0.000    0.000 
#
# Total GULP energy -156360.099736 kJ/mol
# GULP energy per Si atom -5584.289276 kJ/mol
# Density = 2.188330 g / cm^3
# Si number density = 21.933217 Si / 1000 Ang^3
#
#
#
# Elastic Constant Matrix: (Units=GPa)
#
#
# Indices 1 2 3 4 5 6 
#
# 1 132.2018 -10.3496 49.8526 0.0000 10.5600 0.0000
# 2 -10.3496 48.6885 -3.5312 0.0000 -0.8692 0.0000
# 3 49.8526 -3.5312 92.1175 0.0000 29.9544 0.0000
# 4 0.0000 0.0000 0.0000 35.5264 0.0000 -2.4840
# 5 10.5600 -0.8692 29.9544 0.0000 36.4340 0.0000
# 6 0.0000 0.0000 0.0000 -2.4840 0.0000 18.9382
#
#
#
# Elastic Compliance Matrix: (Units=1/GPa)
#
#
# Indices 1 2 3 4 5 6 
#
# 1 0.009749 0.001683 -0.005877 0.000000 0.002046 0.000000
# 2 0.001683 0.020888 -0.000155 0.000000 0.000138 0.000000
# 3 -0.005877 -0.000155 0.018395 0.000000 -0.013424 0.000000
# 4 0.000000 0.000000 0.000000 0.028409 0.000000 0.003726
# 5 0.002046 0.000138 -0.013424 0.000000 0.037894 0.000000
# 6 0.000000 0.000000 0.000000 0.003726 0.000000 0.053292
#
#
# Mechanical properties :
#
#
# Convention : Reuss Voigt Hill
#
# Bulk Modulus (GPa) = 24.79299 38.32793 31.56046
# Shear Modulus (GPa) = 26.20979 33.98210 30.09595
#
# Velocity S-wave (km/s) = 3.46060 3.94044 3.70829
# Velocity P-wave (km/s) = 5.22456 6.18187 5.72327
#
# Compressibility (1/GPa) = 0.04033399
#
# Stress axis : x y z
#
# Youngs Moduli (GPa) = 102.57970 47.87520 54.36149
#
# Poissons Ratio (x) = -0.08055 0.31946
# Poissons Ratio (y) = -0.17260 0.00841
# Poissons Ratio (z) = 0.60282 0.00741
#
# Static dielectric constant tensor:
#      x y z
#    x 1.795130 0.000000 0.010720 
#    y 0.000000 1.842960 0.000000 
#    z 0.010720 0.000000 1.775140 
# 
# From -- ./inp_files/187259.got.cif
#   From: 2010.05.17/outbox.cif.g08.bks.cpg/sg12_94_cif.got.tgz:187259.got - 2010.06.03 13:09:07.
