data_PCOD9198866
_publ_section_title
;
Structure prediction by ZEFSAII (Michael W. Deem and Ramdas Pophale) SiO2 
 PCOD9198866
Probable space group: C 2/M
;
_chemical_formula_sum "Si O2"
_cell_formula_units_Z 64
_cell_length_a 16.496159
_cell_length_b 8.910484
_cell_length_c 33.250449
_cell_angle_alpha 90.000000
_cell_angle_beta 42.147086
_cell_angle_gamma 90.000000
_cell_volume 3279.650474
_symmetry_space_group_name_H-M "C 2/M"
_symmetry_group_IT_number 12
_symmetry_cell_setting 'monoclinic'
loop_
_space_group_symop_operation_xyz
x,y,z
-x,y,-z
-x,-y,-z
x,-y,z
1/2+x,1/2+y,z
1/2-x,1/2+y,-z
1/2-x,1/2-y,-z
1/2+x,1/2-y,z
loop_
_atom_site_type_symbol
_atom_site_label
_atom_site_fract_x
_atom_site_fract_y
_atom_site_fract_z
Si Si1 0.729292 0.822517 0.626446
Si Si2 0.370590 0.318901 0.863875
Si Si3 0.544655 0.818472 0.861685
Si Si4 0.341116 0.678971 0.498287
Si Si5 0.488053 0.675133 0.737524
Si Si6 0.605747 0.817366 0.930506
Si Si7 0.697580 0.675246 0.263598
Si Si8 0.590234 0.823058 0.379435
O O1 0.791443 0.787267 0.561008
O O2 0.590200 0.775071 0.679534
O O3 0.796752 0.728929 0.635670
O O4 0.742598 0.000000 0.628881
O O5 0.368740 0.500000 0.868322
O O6 0.427379 0.248725 0.883105
O O7 0.457854 0.280926 0.794152
O O8 0.236116 0.269188 0.899933
O O9 0.571301 0.769634 0.897819
O O10 0.664038 0.776100 0.792085
O O11 0.536810 0.000000 0.864456
O O12 0.343913 0.500000 0.492685
O O13 0.250000 0.750000 0.500000
O O14 0.472860 0.743823 0.441071
O O15 0.526302 0.500000 0.722710
O O16 0.365861 0.683980 0.756474
O O17 0.610734 0.000000 0.927303
O O18 0.500000 0.773530 0.000000
O O19 0.695335 0.500000 0.276898
O O20 0.619934 0.768242 0.323717
O O21 0.572963 0.000000 0.386845
#
# Coordination Sequence:
#
# PCOD9198866 Si02
#       8
#     8   8   8   8   8   8   8   8
#     4  11  24  40  58  83 114 149 191 240 293 352
#     4  10  20  36  58  87 120 156 200 248 298 353
#     4  10  20  36  59  88 119 157 203 247 298 359
#     4  11  24  42  62  84 113 149 191 240 294 355
#     4  10  20  36  59  85 115 152 194 241 294 356
#     4   9  18  36  61  86 118 161 204 243 291 358
#     4  10  20  37  60  84 116 155 195 243 297 357
#     4  12  25  39  58  85 115 150 194 242 294 355
#
# _framework density 19.514272999999999
#
# number of rings (size 3 to 8) (size 9 to 14) (size 15 to 20)
#    0.000    1.625    1.250    3.750    0.000    9.500 
#    0.000    0.625    0.000    0.750    0.000    0.000 
#    0.000    0.000    0.000    0.000    0.000    0.000 
#
# Total GULP energy -178783.378530 kJ/mol
# GULP energy per Si atom -5586.980579 kJ/mol
# Density = 1.946986 g / cm^3
# Si number density = 19.514273 Si / 1000 Ang^3
#
#
#
# Elastic Constant Matrix: (Units=GPa)
#
#
# Indices 1 2 3 4 5 6 
#
# 1 117.5972 19.9872 43.4620 0.0017 -0.8734 0.0032
# 2 19.9872 23.9855 30.4380 0.0031 2.8414 0.0040
# 3 43.4620 30.4380 105.3220 0.0000 -4.9347 0.0004
# 4 0.0017 0.0031 0.0000 14.2023 0.0000 0.2290
# 5 -0.8734 2.8414 -4.9347 0.0000 19.1799 0.0005
# 6 0.0032 0.0040 0.0004 0.2290 0.0005 30.2296
#
#
#
# Elastic Compliance Matrix: (Units=1/GPa)
#
#
# Indices 1 2 3 4 5 6 
#
# 1 0.010419 -0.005246 -0.002758 0.000000 0.000542 0.000000
# 2 -0.005246 0.072927 -0.019665 -0.000015 -0.016102 -0.000009
# 3 -0.002758 -0.019665 0.016647 0.000005 0.007071 0.000003
# 4 0.000000 -0.000015 0.000005 0.070420 0.000004 -0.000533
# 5 0.000542 -0.016102 0.007071 0.000004 0.056367 0.000001
# 6 0.000000 -0.000009 0.000003 -0.000533 0.000001 0.033084
#
#
# Mechanical properties :
#
#
# Convention : Reuss Voigt Hill
#
# Bulk Modulus (GPa) = 22.39456 48.29767 35.34611
# Shear Modulus (GPa) = 15.14752 22.92351 19.03552
#
# Velocity S-wave (km/s) = 2.78911 3.43112 3.12663
# Velocity P-wave (km/s) = 4.67687 6.36399 5.58451
#
# Compressibility (1/GPa) = 0.04465371
#
# Stress axis : x y z
#
# Youngs Moduli (GPa) = 95.98283 13.71240 60.07023
#
# Poissons Ratio (x) = 0.07194 0.16565
# Poissons Ratio (y) = 0.50357 1.18129
# Poissons Ratio (z) = 0.26469 0.26966
#
# Static dielectric constant tensor:
#      x y z
#    x 1.719470 0.000000 -0.050340 
#    y 0.000000 1.661570 0.000000 
#    z -0.050340 0.000000 1.789250 
# 
# From -- ./inp_files/375368.got.cif
#   From: 2010.05.17/outbox.cif.g08.bks.cpg/sg12_188_cif.got.tgz:375368.got - 2010.06.03 13:09:07.
