data_PCOD9198281
_publ_section_title
;
Structure prediction by ZEFSAII (Michael W. Deem and Ramdas Pophale) SiO2 
 PCOD9198281
Probable space group: C 2/M
;
_chemical_formula_sum "Si O2"
_cell_formula_units_Z 48
_cell_length_a 19.807244
_cell_length_b 7.501871
_cell_length_c 30.122909
_cell_angle_alpha 90.000000
_cell_angle_beta 155.486621
_cell_angle_gamma 90.000000
_cell_volume 1857.120010
_symmetry_space_group_name_H-M "C 2/M"
_symmetry_group_IT_number 12
_symmetry_cell_setting 'monoclinic'
loop_
_space_group_symop_operation_xyz
x,y,z
-x,y,-z
-x,-y,-z
x,-y,z
1/2+x,1/2+y,z
1/2-x,1/2+y,-z
1/2-x,1/2-y,-z
1/2+x,1/2-y,z
loop_
_atom_site_type_symbol
_atom_site_label
_atom_site_fract_x
_atom_site_fract_y
_atom_site_fract_z
Si Si1 0.986571 0.204148 0.827604
Si Si2 0.406424 0.718167 0.488451
Si Si3 0.705842 0.293306 0.717294
Si Si4 0.745866 0.704380 0.833685
Si Si5 0.715635 0.781363 0.047592
Si Si6 0.132632 0.712675 0.387232
O O1 0.103982 0.277557 0.860033
O O2 0.818479 0.290218 0.741353
O O3 0.951495 0.000000 0.796772
O O4 0.094579 0.217596 0.937160
O O5 0.500000 0.776982 0.500000
O O6 0.404628 0.500000 0.486062
O O7 0.531590 0.781960 0.601330
O O8 0.229871 0.772481 0.400724
O O9 0.679625 0.500000 0.712179
O O10 0.783616 0.213887 0.808227
O O11 0.805069 0.500000 0.869137
O O12 0.813010 0.781259 0.919651
O O13 0.547997 0.707054 0.717882
O O14 0.712131 0.000000 0.044120
O O15 0.111903 0.500000 0.372640
O O16 0.250000 0.750000 0.500000
#
# Coordination Sequence:
#
# PCOD9198281 Si02
#       6
#     8   8   8   8   8   8
#     4  10  21  37  57  83 113 140 179 230 276 326
#     4   9  19  35  54  80 111 145 186 224 263 321
#     4  10  20  36  57  79 110 148 183 222 272 328
#     4  10  21  38  58  82 110 144 188 227 269 327
#     4   9  20  39  60  80 108 146 183 223 275 333
#     4  11  21  36  58  82 112 148 185 226 272 321
#
# _framework density 25.846471000000001
#
# number of rings (size 3 to 8) (size 9 to 14) (size 15 to 20)
#    0.000    2.167    1.667    1.000    2.333    2.667 
#    0.000    3.333    0.000    2.500    0.000    0.000 
#    0.000    0.000    0.000    0.000    0.000    0.000 
#
# Total GULP energy -134121.623628 kJ/mol
# GULP energy per Si atom -5588.400984 kJ/mol
# Density = 2.578764 g / cm^3
# Si number density = 25.846471 Si / 1000 Ang^3
#
#
#
# Elastic Constant Matrix: (Units=GPa)
#
#
# Indices 1 2 3 4 5 6 
#
# 1 113.8859 3.6890 -8.0415 -0.0001 7.8936 -0.0008
# 2 3.6890 87.0874 -5.6461 -0.0017 -0.5200 -0.0046
# 3 -8.0415 -5.6461 63.1313 -0.0043 8.2134 0.0012
# 4 -0.0001 -0.0017 -0.0043 16.6238 0.0006 2.7846
# 5 7.8936 -0.5200 8.2134 0.0006 48.5301 -0.0004
# 6 -0.0008 -0.0046 0.0012 2.7846 -0.0004 10.0910
#
#
#
# Elastic Compliance Matrix: (Units=1/GPa)
#
#
# Indices 1 2 3 4 5 6 
#
# 1 0.009003 -0.000305 0.001340 0.000000 -0.001694 0.000000
# 2 -0.000305 0.011560 0.000994 0.000001 0.000005 0.000005
# 3 0.001340 0.000994 0.016490 0.000005 -0.002998 -0.000003
# 4 0.000000 0.000001 0.000005 0.063070 -0.000002 -0.017404
# 5 -0.001694 0.000005 -0.002998 -0.000002 0.021389 0.000002
# 6 0.000000 0.000005 -0.000003 -0.017404 0.000002 0.103901
#
#
# Mechanical properties :
#
#
# Convention : Reuss Voigt Hill
#
# Bulk Modulus (GPa) = 24.32385 27.12303 25.72344
# Shear Modulus (GPa) = 21.27143 33.32252 27.29698
#
# Velocity S-wave (km/s) = 2.87190 3.59451 3.25333
# Velocity P-wave (km/s) = 4.51978 5.26726 4.90777
#
# Compressibility (1/GPa) = 0.04111192
#
# Stress axis : x y z
#
# Youngs Moduli (GPa) = 111.07860 86.50424 60.64406
#
# Poissons Ratio (x) = 0.02635 -0.08126
# Poissons Ratio (y) = 0.03383 -0.06030
# Poissons Ratio (z) = -0.14884 -0.08602
#
# Static dielectric constant tensor:
#      x y z
#    x 2.065960 0.000000 -0.037910 
#    y 0.000000 1.965150 0.000000 
#    z -0.037910 0.000000 2.039100 
# 
# From -- ./inp_files/229903.got.cif
#   From: 2010.05.17/outbox.cif.g08.bks.cpg/sg12_115_cif.got.tgz:229903.got - 2010.06.03 13:09:07.
