data_PCOD9198115
_publ_section_title
;
Structure prediction by ZEFSAII (Michael W. Deem and Ramdas Pophale) SiO2 
 PCOD9198115
Probable space group: C 2/M
;
_chemical_formula_sum "Si O2"
_cell_formula_units_Z 40
_cell_length_a 26.526422
_cell_length_b 11.401477
_cell_length_c 23.791155
_cell_angle_alpha 90.000000
_cell_angle_beta 15.470692
_cell_angle_gamma 90.000000
_cell_volume 1919.341678
_symmetry_space_group_name_H-M "C 2/M"
_symmetry_group_IT_number 12
_symmetry_cell_setting 'monoclinic'
loop_
_space_group_symop_operation_xyz
x,y,z
-x,y,-z
-x,-y,-z
x,-y,z
1/2+x,1/2+y,z
1/2-x,1/2+y,-z
1/2-x,1/2-y,-z
1/2+x,1/2-y,z
loop_
_atom_site_type_symbol
_atom_site_label
_atom_site_fract_x
_atom_site_fract_y
_atom_site_fract_z
Si Si1 0.925183 0.301973 0.738401
Si Si2 0.028770 0.126974 0.208811
Si Si3 0.408897 0.129460 0.159716
Si Si4 0.524531 0.367651 0.409534
Si Si5 0.347550 0.631495 0.285421
O O1 0.975161 0.221503 0.738321
O O2 0.869883 0.220870 0.744762
O O3 0.122846 0.366116 0.513731
O O4 0.738966 0.371376 0.956241
O O5 0.885902 0.144340 0.310825
O O6 0.990772 0.000000 0.275663
O O7 0.440315 0.252853 0.157624
O O8 0.184169 0.125762 0.392176
O O9 0.461873 0.000000 0.127353
O O10 0.500000 0.135464 0.000000
O O11 0.500000 0.326828 0.500000
O O12 0.603481 0.500000 0.326509
O O13 0.419541 0.500000 0.192350
#
# Coordination Sequence:
#
# PCOD9198115 Si02
#       5
#     8   8   8   8   8
#     4  10  20  36  56  79 111 147 184 228 276 331
#     4  10  21  36  56  82 111 146 187 231 275 331
#     4   9  19  35  55  80 111 143 186 233 273 327
#     4   9  18  32  53  79 107 141 182 232 279 324
#     4  10  21  37  57  81 114 147 182 229 280 333
#
# _framework density 20.840478999999998
#
# number of rings (size 3 to 8) (size 9 to 14) (size 15 to 20)
#    0.000    2.400    0.000    1.800    2.800    1.200 
#    0.000    5.000    0.000    3.000    0.000    0.000 
#    0.000    0.000    0.000    0.000    0.000    0.000 
#
# Total GULP energy -111482.702123 kJ/mol
# GULP energy per Si atom -5574.135106 kJ/mol
# Density = 2.079304 g / cm^3
# Si number density = 20.840479 Si / 1000 Ang^3
#
#
#
# Elastic Constant Matrix: (Units=GPa)
#
#
# Indices 1 2 3 4 5 6 
#
# 1 63.0772 47.1162 3.3804 0.0049 2.0888 0.0007
# 2 47.1162 157.5097 17.0555 -0.0311 22.0786 -0.0113
# 3 3.3804 17.0555 51.5146 -0.0059 -6.6282 0.0096
# 4 0.0049 -0.0311 -0.0059 51.4353 0.0301 27.9532
# 5 2.0888 22.0786 -6.6282 0.0301 30.6357 0.0114
# 6 0.0007 -0.0113 0.0096 27.9532 0.0114 10.5297
#
#
#
# Elastic Compliance Matrix: (Units=1/GPa)
#
#
# Indices 1 2 3 4 5 6 
#
# 1 0.020823 -0.006927 0.001427 0.000001 0.003881 -0.000017
# 2 -0.006927 0.009876 -0.003775 0.000004 -0.007462 0.000012
# 3 0.001427 -0.003775 0.021504 -0.000029 0.007276 0.000046
# 4 0.000001 0.000004 -0.000029 -0.043914 -0.000009 0.116578
# 5 0.003881 -0.007462 0.007276 -0.000009 0.039329 -0.000033
# 6 -0.000017 0.000012 0.000046 0.116578 -0.000033 -0.214510
#
#
# Mechanical properties :
#
#
# Convention : Reuss Voigt Hill
#
# Bulk Modulus (GPa) = 29.71663 45.24506 37.48085
# Shear Modulus (GPa) = -36.46382 32.15678 -2.15352
#
# Velocity S-wave (km/s) = -4.18744 3.93236 -1.01763
# Velocity P-wave (km/s) = 3.01487 6.50963 4.07957
#
# Compressibility (1/GPa) = 0.03365119
#
# Stress axis : x y z
#
# Youngs Moduli (GPa) = 48.02369 101.25834 46.50202
#
# Poissons Ratio (x) = 0.70145 -0.06634
# Poissons Ratio (y) = 0.33268 0.17555
# Poissons Ratio (z) = -0.06851 0.38227
#
# Static dielectric constant tensor:
#      x y z
#    x 1.712000 -0.000020 -0.002300 
#    y -0.000020 1.817650 0.000000 
#    z -0.002300 0.000000 1.788320 
# 
# From -- ./inp_files/83352.got.cif
#   From: 2010.05.17/outbox.cif.g08.bks.cpg/sg12_42_cif.got.tgz:83352.got - 2010.06.03 13:09:07.
