data_PCOD9198181
_publ_section_title
;
Structure prediction by ZEFSAII (Michael W. Deem and Ramdas Pophale) SiO2 
 PCOD9198181
Probable space group: C 2/M
;
_chemical_formula_sum "Si O2"
_cell_formula_units_Z 42
_cell_length_a 25.927832
_cell_length_b 7.732583
_cell_length_c 24.991168
_cell_angle_alpha 90.000000
_cell_angle_beta 23.847528
_cell_angle_gamma 90.000000
_cell_volume 2025.748525
_symmetry_space_group_name_H-M "C 2/M"
_symmetry_group_IT_number 12
_symmetry_cell_setting 'monoclinic'
loop_
_space_group_symop_operation_xyz
x,y,z
-x,y,-z
-x,-y,-z
x,-y,z
1/2+x,1/2+y,z
1/2-x,1/2+y,-z
1/2-x,1/2-y,-z
1/2+x,1/2-y,z
loop_
_atom_site_type_symbol
_atom_site_label
_atom_site_fract_x
_atom_site_fract_y
_atom_site_fract_z
Si Si1 0.041221 0.290502 0.377345
Si Si2 0.911835 0.204714 0.899959
Si Si3 0.291312 0.789552 0.683350
Si Si4 0.000000 0.000000 0.000000
Si Si5 0.013622 0.312535 0.913035
Si Si6 0.381748 0.791390 0.811622
O O1 0.048917 0.500000 0.369642
O O2 0.152632 0.235105 0.312417
O O3 0.058137 0.228428 0.300925
O O4 0.905829 0.253006 0.533284
O O5 0.947878 0.238808 0.804256
O O6 0.994769 0.288146 0.867714
O O7 0.913548 0.000000 0.907053
O O8 0.765602 0.268123 0.045602
O O9 0.162488 0.703061 0.786493
O O10 0.264355 0.000000 0.710083
O O11 0.953371 0.152853 0.002134
O O12 0.962090 0.500000 0.977270
O O13 0.380545 0.000000 0.811656
#
# Coordination Sequence:
#
# PCOD9198181 Si02
#       6
#     8   8   8   2   8   8
#     4   8  16  31  59  87 113 157 201 242 297 354
#     4  10  20  36  56  82 121 160 191 247 299 345
#     4   9  17  35  59  85 120 157 194 244 300 350
#     4  12  26  44  60  88 124 160 190 242 296 358
#     4  12  25  40  62  89 120 157 198 239 296 354
#     4   9  18  33  57  84 115 153 204 245 293 354
#
# _framework density 20.733076000000001
#
# number of rings (size 3 to 8) (size 9 to 14) (size 15 to 20)
#    0.000    2.286    1.905    2.000    2.667    0.762 
#    0.000    4.762    0.000    0.000    0.000    0.000 
#    0.000    0.000    0.000    0.000    0.000    0.000 
#
# Total GULP energy -117045.093152 kJ/mol
# GULP energy per Si atom -5573.575864 kJ/mol
# Density = 2.068589 g / cm^3
# Si number density = 20.733076 Si / 1000 Ang^3
#
#
#
# Elastic Constant Matrix: (Units=GPa)
#
#
# Indices 1 2 3 4 5 6 
#
# 1 182.4632 35.6880 54.5630 0.0008 27.9565 0.0001
# 2 35.6880 98.6598 21.4682 -0.0086 4.1005 -0.0004
# 3 54.5630 21.4682 46.1487 -0.0027 10.9452 0.0004
# 4 0.0008 -0.0086 -0.0027 11.1815 0.0024 11.4630
# 5 27.9565 4.1005 10.9452 0.0024 39.2737 0.0000
# 6 0.0001 -0.0004 0.0004 11.4630 0.0000 9.8794
#
#
#
# Elastic Compliance Matrix: (Units=1/GPa)
#
#
# Indices 1 2 3 4 5 6 
#
# 1 0.009049 -0.001093 -0.009305 0.000017 -0.003734 -0.000019
# 2 -0.001093 0.011413 -0.004196 -0.000037 0.000756 0.000043
# 3 -0.009305 -0.004196 0.035279 -0.000043 -0.002771 0.000048
# 4 0.000017 -0.000037 -0.000043 -0.471939 0.000033 0.547585
# 5 -0.003734 0.000756 -0.002771 0.000033 0.028814 -0.000038
# 6 -0.000019 0.000043 0.000048 0.547585 -0.000038 -0.534137
#
#
# Mechanical properties :
#
#
# Convention : Reuss Voigt Hill
#
# Bulk Modulus (GPa) = 37.65989 61.19001 49.42495
# Shear Modulus (GPa) = -5.65942 26.43708 10.38883
#
# Velocity S-wave (km/s) = -1.65396 3.57475 2.24090
# Velocity P-wave (km/s) = 3.81525 6.82757 5.53046
#
# Compressibility (1/GPa) = 0.02655345
#
# Stress axis : x y z
#
# Youngs Moduli (GPa) = 110.51018 87.61994 28.34537
#
# Poissons Ratio (x) = 0.09580 0.26374
# Poissons Ratio (y) = 0.12083 0.11893
# Poissons Ratio (z) = 1.02825 0.36764
#
# Static dielectric constant tensor:
#      x y z
#    x 1.739890 0.000000 0.011230 
#    y 0.000000 1.627110 -0.000070 
#    z 0.011230 -0.000070 1.846420 
# 
# From -- ./inp_files/348409.got.cif
#   From: 2010.05.17/outbox.cif.g08.bks.cpg/sg12_175_cif.got.tgz:348409.got - 2010.06.03 13:09:07.
