data_PCOD9198899
_publ_section_title
;
Structure prediction by ZEFSAII (Michael W. Deem and Ramdas Pophale) SiO2 
 PCOD9198899
Probable space group: C 2/M
;
_chemical_formula_sum "Si O2"
_cell_formula_units_Z 36
_cell_length_a 14.647378
_cell_length_b 25.105491
_cell_length_c 5.320792
_cell_angle_alpha 90.000000
_cell_angle_beta 53.747500
_cell_angle_gamma 90.000000
_cell_volume 1577.849353
_symmetry_space_group_name_H-M "C 2/M"
_symmetry_group_IT_number 12
_symmetry_cell_setting 'monoclinic'
loop_
_space_group_symop_operation_xyz
x,y,z
-x,y,-z
-x,-y,-z
x,-y,z
1/2+x,1/2+y,z
1/2-x,1/2+y,-z
1/2-x,1/2-y,-z
1/2+x,1/2-y,z
loop_
_atom_site_type_symbol
_atom_site_label
_atom_site_fract_x
_atom_site_fract_y
_atom_site_fract_z
Si Si1 0.371369 0.385679 0.603032
Si Si2 0.478296 0.869234 0.286285
Si Si3 0.776265 0.835266 0.253980
Si Si4 0.577738 0.500000 0.621368
Si Si5 0.931050 0.254777 0.862063
O O1 0.500000 0.381215 0.500000
O O2 0.341309 0.349795 0.408113
O O3 0.354750 0.445064 0.518120
O O4 0.303463 0.372469 0.968195
O O5 0.500000 0.901377 0.500000
O O6 0.355440 0.842476 0.477772
O O7 0.565941 0.818980 0.153339
O O8 0.500000 0.900521 0.000000
O O9 0.815398 0.776985 0.095524
O O10 0.500000 0.500000 0.500000
O O11 0.500000 0.500000 0.000000
O O12 0.000000 0.237643 0.500000
O O13 0.000000 0.241332 0.000000
#
# Coordination Sequence:
#
# PCOD9198899 Si02
#       5
#     8   8   8   4   8
#     4  11  22  37  59  89 119 147 182 228 286 355
#     4  10  23  39  54  78 111 152 200 246 282 321
#     4  12  22  36  59  83 112 156 196 232 282 338
#     4  10  20  36  58  88 124 148 170 226 296 350
#     4  10  21  34  51  77 110 146 190 236 276 328
#
# _framework density 22.815864000000001
#
# number of rings (size 3 to 8) (size 9 to 14) (size 15 to 20)
#    0.000    1.333    0.000    8.000    0.000    7.111 
#    0.000    0.000    0.000    1.333    0.000   15.556 
#    0.000    0.000    0.000    0.000    0.000    0.000 
#
# Total GULP energy -100469.173407 kJ/mol
# GULP energy per Si atom -5581.620745 kJ/mol
# Density = 2.276393 g / cm^3
# Si number density = 22.815864 Si / 1000 Ang^3
#
#
#
# Elastic Constant Matrix: (Units=GPa)
#
#
# Indices 1 2 3 4 5 6 
#
# 1 127.7170 16.1796 63.5132 0.0000 43.1869 0.0000
# 2 16.1796 45.4647 10.1813 0.0000 11.8729 0.0000
# 3 63.5132 10.1813 169.4380 0.0000 47.0834 0.0000
# 4 0.0000 0.0000 0.0000 22.3399 0.0000 20.9857
# 5 43.1869 11.8729 47.0834 0.0000 55.4780 0.0000
# 6 0.0000 0.0000 0.0000 20.9857 0.0000 22.5632
#
#
#
# Elastic Compliance Matrix: (Units=1/GPa)
#
#
# Indices 1 2 3 4 5 6 
#
# 1 0.011440 -0.001843 -0.002372 0.000000 -0.006498 0.000000
# 2 -0.001843 0.023594 0.000363 0.000000 -0.003923 0.000000
# 3 -0.002372 0.000363 0.008215 0.000000 -0.005203 0.000000
# 4 0.000000 0.000000 0.000000 0.354438 0.000000 -0.329658
# 5 -0.006498 -0.003923 -0.005203 0.000000 0.028339 0.000000
# 6 0.000000 0.000000 0.000000 -0.329658 0.000000 0.350929
#
#
# Mechanical properties :
#
#
# Convention : Reuss Voigt Hill
#
# Bulk Modulus (GPa) = 28.13264 58.04087 43.08675
# Shear Modulus (GPa) = 6.27740 36.92592 21.60166
#
# Velocity S-wave (km/s) = 1.66051 4.02734 3.08032
# Velocity P-wave (km/s) = 4.00418 6.86440 5.61932
#
# Compressibility (1/GPa) = 0.03554590
#
# Stress axis : x y z
#
# Youngs Moduli (GPa) = 87.41156 42.38347 121.72830
#
# Poissons Ratio (x) = 0.07812 0.28872
# Poissons Ratio (y) = 0.16111 -0.04422
# Poissons Ratio (z) = 0.20732 -0.01540
#
# Static dielectric constant tensor:
#      x y z
#    x 1.897220 0.000000 0.000470 
#    y 0.000000 1.880330 0.000000 
#    z 0.000470 0.000000 1.941270 
# 
# From -- ./inp_files/12597.got.cif
#   From: 2010.05.17/outbox.cif.g08.bks.cpg/sg12_7_cif.got.tgz:12597.got - 2010.06.03 13:09:07.
