data_PCOD9198694
_publ_section_title
;
Structure prediction by ZEFSAII (Michael W. Deem and Ramdas Pophale) SiO2 
 PCOD9198694
Probable space group: C 2/M
;
_chemical_formula_sum "Si O2"
_cell_formula_units_Z 56
_cell_length_a 23.653536
_cell_length_b 9.580689
_cell_length_c 15.543952
_cell_angle_alpha 90.000000
_cell_angle_beta 124.897685
_cell_angle_gamma 90.000000
_cell_volume 2889.088102
_symmetry_space_group_name_H-M "C 2/M"
_symmetry_group_IT_number 12
_symmetry_cell_setting 'monoclinic'
loop_
_space_group_symop_operation_xyz
x,y,z
-x,y,-z
-x,-y,-z
x,-y,z
1/2+x,1/2+y,z
1/2-x,1/2+y,-z
1/2-x,1/2-y,-z
1/2+x,1/2-y,z
loop_
_atom_site_type_symbol
_atom_site_label
_atom_site_fract_x
_atom_site_fract_y
_atom_site_fract_z
Si Si1 0.208676 0.167073 0.891197
Si Si2 0.189826 0.337531 0.169349
Si Si3 0.344746 0.159258 0.527884
Si Si4 0.547163 0.338043 0.458171
Si Si5 0.957010 0.663132 0.045840
Si Si6 0.049978 0.164211 0.790595
Si Si7 0.683851 0.339814 0.335577
O O1 0.243108 0.198824 0.828852
O O2 0.127943 0.200015 0.829085
O O3 0.217290 0.000000 0.911356
O O4 0.250000 0.250000 0.000000
O O5 0.195009 0.500000 0.202137
O O6 0.178309 0.238163 0.240197
O O7 0.123528 0.327005 0.049432
O O8 0.388979 0.234788 0.493371
O O9 0.351929 0.250955 0.620455
O O10 0.264732 0.158242 0.431382
O O11 0.366758 0.000000 0.561296
O O12 0.500000 0.315843 0.500000
O O13 0.570533 0.500000 0.479260
O O14 0.500562 0.314789 0.333375
O O15 0.974162 0.500000 0.074384
O O16 0.970224 0.748698 0.143311
O O17 0.000000 0.711619 0.000000
O O18 0.049457 0.000000 0.811925
O O19 0.659063 0.500000 0.311372
#
# Coordination Sequence:
#
# PCOD9198694 Si02
#       7
#     8   8   8   8   8   8   8
#     4  10  20  36  58  83 114 148 191 237 284 343
#     4  10  21  36  58  87 117 153 194 237 291 347
#     4  10  22  41  62  86 117 153 196 244 296 351
#     4  10  23  41  62  87 119 159 201 245 298 356
#     4  10  22  39  58  85 120 158 196 235 290 353
#     4  10  22  39  59  87 116 153 198 243 294 345
#     4  10  22  39  61  89 118 151 193 242 296 351
#
# _framework density 19.383279000000002
#
# number of rings (size 3 to 8) (size 9 to 14) (size 15 to 20)
#    0.000    2.000    1.429    0.857    4.000    4.000 
#    0.000    0.000    0.000    0.000    0.000    0.000 
#    0.000    0.000    0.000    0.000    0.000    0.000 
#
# Total GULP energy -156444.684795 kJ/mol
# GULP energy per Si atom -5587.310171 kJ/mol
# Density = 1.933916 g / cm^3
# Si number density = 19.383279 Si / 1000 Ang^3
#
#
#
# Elastic Constant Matrix: (Units=GPa)
#
#
# Indices 1 2 3 4 5 6 
#
# 1 91.8065 44.9532 12.6686 0.0000 -14.3903 0.0000
# 2 44.9532 90.4700 40.7245 0.0000 -21.3183 0.0000
# 3 12.6686 40.7245 50.2584 0.0000 -26.0025 0.0000
# 4 0.0000 0.0000 0.0000 8.6305 0.0000 -17.9541
# 5 -14.3903 -21.3183 -26.0025 0.0000 29.8505 0.0000
# 6 0.0000 0.0000 0.0000 -17.9541 0.0000 25.0875
#
#
#
# Elastic Compliance Matrix: (Units=1/GPa)
#
#
# Indices 1 2 3 4 5 6 
#
# 1 0.015607 -0.009388 0.007458 0.000000 0.007316 0.000000
# 2 -0.009388 0.023049 -0.018450 0.000000 -0.004137 0.000000
# 3 0.007458 -0.018450 0.050991 0.000000 0.034837 0.000000
# 4 0.000000 0.000000 0.000000 -0.237049 0.000000 -0.169647
# 5 0.007316 -0.004137 0.034837 0.000000 0.064419 0.000000
# 6 0.000000 0.000000 0.000000 -0.169647 0.000000 -0.081549
#
#
# Mechanical properties :
#
#
# Convention : Reuss Voigt Hill
#
# Bulk Modulus (GPa) = 20.45558 47.69193 34.07376
# Shear Modulus (GPa) = -46.52178 21.65961 -12.43109
#
# Velocity S-wave (km/s) = -4.90440 3.34644 -2.53520
# Velocity P-wave (km/s) = 4.63623 6.29203 3.00790
#
# Compressibility (1/GPa) = 0.04888641
#
# Stress axis : x y z
#
# Youngs Moduli (GPa) = 64.07368 43.38623 19.61116
#
# Poissons Ratio (x) = 0.40733 -0.14627
# Poissons Ratio (y) = 0.60155 0.36184
# Poissons Ratio (z) = -0.47789 0.80050
#
# Static dielectric constant tensor:
#      x y z
#    x 1.693990 0.000000 0.021770 
#    y 0.000000 1.657390 0.000000 
#    z 0.021770 0.000000 1.650060 
# 
# From -- ./inp_files/238342.got.cif
#   From: 2010.05.17/outbox.cif.g08.bks.cpg/sg12_120_cif.got.tgz:238342.got - 2010.06.03 13:09:07.
