data_PCOD9198871
_publ_section_title
;
Structure prediction by ZEFSAII (Michael W. Deem and Ramdas Pophale) SiO2 
 PCOD9198871
Probable space group: C 2/M
;
_chemical_formula_sum "Si O2"
_cell_formula_units_Z 48
_cell_length_a 14.247398
_cell_length_b 13.984109
_cell_length_c 17.012512
_cell_angle_alpha 90.000000
_cell_angle_beta 141.841057
_cell_angle_gamma 90.000000
_cell_volume 2094.201245
_symmetry_space_group_name_H-M "C 2/M"
_symmetry_group_IT_number 12
_symmetry_cell_setting 'monoclinic'
loop_
_space_group_symop_operation_xyz
x,y,z
-x,y,-z
-x,-y,-z
x,-y,z
1/2+x,1/2+y,z
1/2-x,1/2+y,-z
1/2-x,1/2-y,-z
1/2+x,1/2-y,z
loop_
_atom_site_type_symbol
_atom_site_label
_atom_site_fract_x
_atom_site_fract_y
_atom_site_fract_z
Si Si1 0.387340 0.395840 0.784119
Si Si2 0.579009 0.219964 0.867796
Si Si3 0.258067 0.895505 0.487969
Si Si4 0.029010 0.500000 0.889401
Si Si5 0.925408 0.366121 0.370765
Si Si6 0.240102 0.000000 0.811643
Si Si7 0.533199 0.313499 0.667461
O O1 0.469791 0.500000 0.842532
O O2 0.477670 0.296639 0.851259
O O3 0.311681 0.392104 0.646682
O O4 0.245136 0.400898 0.749956
O O5 0.547047 0.105998 0.859782
O O6 0.557584 0.255984 0.764501
O O7 0.750000 0.250000 0.000000
O O8 0.438220 0.886136 0.599613
O O9 0.147625 0.826734 0.463087
O O10 0.227640 0.000000 0.501097
O O11 0.864209 0.500000 0.823475
O O12 0.159810 0.500000 0.042877
O O13 0.906173 0.252514 0.361358
O O14 0.000000 0.401215 0.500000
O O15 0.128904 0.909331 0.736066
#
# Coordination Sequence:
#
# PCOD9198871 Si02
#       7
#     8   8   8   4   8   4   8
#     4   9  19  35  60  87 118 155 200 249 303 363
#     4  11  23  39  64  90 121 160 209 259 309 366
#     4   9  17  32  58  84 111 156 205 244 297 361
#     4  11  24  42  62  92 126 167 207 259 313 367
#     4  10  20  36  58  87 124 157 198 253 307 366
#     4  11  22  40  67  88 121 169 216 247 306 385
#     4  11  21  38  63  90 121 166 208 252 307 368
#
# _framework density 22.920435000000001
#
# number of rings (size 3 to 8) (size 9 to 14) (size 15 to 20)
#    0.000    1.833    2.500    2.000    2.333    2.000 
#    3.000    0.417    0.000    1.000    0.000    0.000 
#    0.000    0.000    0.000    0.000    0.000    0.000 
#
# Total GULP energy -133702.516492 kJ/mol
# GULP energy per Si atom -5570.938187 kJ/mol
# Density = 2.286827 g / cm^3
# Si number density = 22.920435 Si / 1000 Ang^3
#
#
#
# Elastic Constant Matrix: (Units=GPa)
#
#
# Indices 1 2 3 4 5 6 
#
# 1 63.3309 63.2228 36.9242 0.0001 28.3506 0.0000
# 2 63.2228 231.7078 54.2165 0.0001 21.7775 0.0000
# 3 36.9242 54.2165 59.8595 0.0004 27.3748 0.0002
# 4 0.0001 0.0001 0.0004 24.1255 0.0002 10.6119
# 5 28.3506 21.7775 27.3748 0.0002 33.2589 0.0001
# 6 0.0000 0.0000 0.0002 10.6119 0.0001 32.5055
#
#
#
# Elastic Compliance Matrix: (Units=1/GPa)
#
#
# Indices 1 2 3 4 5 6 
#
# 1 0.034737 -0.005997 -0.006816 0.000000 -0.020074 0.000000
# 2 -0.005997 0.006525 -0.004161 0.000000 0.004264 0.000000
# 3 -0.006816 -0.004161 0.033316 0.000000 -0.018888 0.000000
# 4 0.000000 0.000000 0.000000 0.048400 0.000000 -0.015801
# 5 -0.020074 0.004264 -0.018888 0.000000 0.059933 0.000000
# 6 0.000000 0.000000 0.000000 -0.015801 0.000000 0.035923
#
#
# Mechanical properties :
#
#
# Convention : Reuss Voigt Hill
#
# Bulk Modulus (GPa) = 24.61149 73.73614 49.17381
# Shear Modulus (GPa) = 18.77424 31.34695 25.06060
#
# Velocity S-wave (km/s) = 2.86511 3.70218 3.31021
# Velocity P-wave (km/s) = 4.65899 7.10740 6.00922
#
# Compressibility (1/GPa) = 0.04063143
#
# Stress axis : x y z
#
# Youngs Moduli (GPa) = 28.78816 153.26216 30.01560
#
# Poissons Ratio (x) = 0.91905 0.20458
# Poissons Ratio (y) = 0.17263 0.12488
# Poissons Ratio (z) = 0.19621 0.63766
#
# Static dielectric constant tensor:
#      x y z
#    x 1.913220 0.000000 -0.005800 
#    y 0.000000 1.966200 0.000000 
#    z -0.005800 0.000000 1.847800 
# 
# From -- ./inp_files/310300.got.cif
#   From: 2010.05.17/outbox.cif.g08.bks.cpg/sg12_156_cif.got.tgz:310300.got - 2010.06.03 13:09:07.
