data_PCOD9198596
_publ_section_title
;
Structure prediction by ZEFSAII (Michael W. Deem and Ramdas Pophale) SiO2 
 PCOD9198596
Probable space group: C 2/M
;
_chemical_formula_sum "Si O2"
_cell_formula_units_Z 64
_cell_length_a 21.678571
_cell_length_b 28.988970
_cell_length_c 7.308402
_cell_angle_alpha 90.000000
_cell_angle_beta 38.046200
_cell_angle_gamma 90.000000
_cell_volume 2830.581689
_symmetry_space_group_name_H-M "C 2/M"
_symmetry_group_IT_number 12
_symmetry_cell_setting 'monoclinic'
loop_
_space_group_symop_operation_xyz
x,y,z
-x,y,-z
-x,-y,-z
x,-y,z
1/2+x,1/2+y,z
1/2-x,1/2+y,-z
1/2-x,1/2-y,-z
1/2+x,1/2-y,z
loop_
_atom_site_type_symbol
_atom_site_label
_atom_site_fract_x
_atom_site_fract_y
_atom_site_fract_z
Si Si1 0.499799 0.149975 0.224147
Si Si2 0.286108 0.887937 0.283249
Si Si3 0.707175 0.888779 0.326318
Si Si4 0.386114 0.447268 0.820146
Si Si5 0.315251 0.699714 0.654142
Si Si6 0.489823 0.742688 0.804429
Si Si7 0.607623 0.447689 0.755990
Si Si8 0.222385 0.209762 0.844045
O O1 0.399578 0.122585 0.512662
O O2 0.493569 0.203989 0.294787
O O3 0.500000 0.151150 0.000000
O O4 0.602379 0.125345 0.046186
O O5 0.311053 0.908801 0.428504
O O6 0.226266 0.840590 0.372812
O O7 0.198470 0.924262 0.437183
O O8 0.790116 0.914237 0.009265
O O9 0.753198 0.840139 0.286112
O O10 0.500000 0.432245 0.500000
O O11 0.374003 0.500000 0.781102
O O12 0.378642 0.449176 0.057951
O O13 0.430879 0.703322 0.436807
O O14 0.261548 0.701625 0.976087
O O15 0.295086 0.749617 0.611145
O O16 0.385040 0.727102 0.966429
O O17 0.500000 0.742232 0.000000
O O18 0.596677 0.500000 0.712858
O O19 0.500000 0.422700 0.000000
#
# Coordination Sequence:
#
# PCOD9198596 Si02
#       8
#     8   8   8   8   8   8   8   8
#     4   9  18  33  54  80 108 146 189 237 283 340
#     4  10  20  36  59  82 111 149 198 236 289 353
#     4  10  20  36  58  81 111 150 197 240 288 346
#     4   9  19  36  59  86 116 150 188 239 302 356
#     4  11  23  36  51  77 113 150 190 239 289 337
#     4  11  21  35  57  77 106 149 196 240 286 336
#     4   9  19  36  59  86 116 147 187 242 297 351
#     4  11  23  36  51  78 113 149 190 239 286 339
#
# _framework density 22.610192000000001
#
# number of rings (size 3 to 8) (size 9 to 14) (size 15 to 20)
#    0.000    2.000    2.500    1.125    0.000    5.500 
#    0.000    1.250    0.000    3.750    0.000    0.000 
#    0.000    6.000    0.000    0.000    0.000    0.000 
#
# Total GULP energy -178183.306246 kJ/mol
# GULP energy per Si atom -5568.228320 kJ/mol
# Density = 2.255873 g / cm^3
# Si number density = 22.610192 Si / 1000 Ang^3
#
#
#
# Elastic Constant Matrix: (Units=GPa)
#
#
# Indices 1 2 3 4 5 6 
#
# 1 73.6502 17.9761 49.5449 0.0000 0.0831 0.0000
# 2 17.9761 74.2858 58.8378 0.0000 -28.9657 0.0000
# 3 49.5449 58.8378 139.4620 0.0000 -48.5001 0.0000
# 4 0.0000 0.0000 0.0000 37.7667 0.0000 -11.6275
# 5 0.0831 -28.9657 -48.5001 0.0000 58.4767 0.0000
# 6 0.0000 0.0000 0.0000 -11.6275 0.0000 8.8293
#
#
#
# Elastic Compliance Matrix: (Units=1/GPa)
#
#
# Indices 1 2 3 4 5 6 
#
# 1 0.020476 -0.000263 -0.010145 0.000000 -0.008573 0.000000
# 2 -0.000263 0.020957 -0.007221 0.000000 0.004392 0.000000
# 3 -0.010145 -0.007221 0.017682 0.000000 0.011103 0.000000
# 4 0.000000 0.000000 0.000000 0.044535 0.000000 0.058650
# 5 -0.008573 0.004392 0.011103 0.000000 0.028497 0.000000
# 6 0.000000 0.000000 0.000000 0.058650 0.000000 0.190498
#
#
# Mechanical properties :
#
#
# Convention : Reuss Voigt Hill
#
# Bulk Modulus (GPa) = 41.91386 60.01285 50.96336
# Shear Modulus (GPa) = 13.66660 31.75048 22.70854
#
# Velocity S-wave (km/s) = 2.46121 3.75140 3.17259
# Velocity P-wave (km/s) = 5.16281 6.73528 6.00078
#
# Compressibility (1/GPa) = 0.02385845
#
# Stress axis : x y z
#
# Youngs Moduli (GPa) = 48.83755 47.71701 56.55414
#
# Poissons Ratio (x) = 0.01253 0.57374
# Poissons Ratio (y) = 0.01282 0.40837
# Poissons Ratio (z) = 0.49546 0.34455
#
# Static dielectric constant tensor:
#      x y z
#    x 1.986960 0.000000 0.060590 
#    y 0.000000 1.890850 0.000000 
#    z 0.060590 0.000000 1.921760 
# 
# From -- ./inp_files/100218.got.cif
#   From: 2010.05.17/outbox.cif.g08.bks.cpg/sg12_51_cif.got.tgz:100218.got - 2010.06.03 13:09:07.
