data_PCOD9198830
_publ_section_title
;
Structure prediction by ZEFSAII (Michael W. Deem and Ramdas Pophale) SiO2 
 PCOD9198830
Probable space group: C 2/M
;
_chemical_formula_sum "Si O2"
_cell_formula_units_Z 64
_cell_length_a 19.246440
_cell_length_b 8.719392
_cell_length_c 33.305887
_cell_angle_alpha 90.000000
_cell_angle_beta 142.650004
_cell_angle_gamma 90.000000
_cell_volume 3390.930889
_symmetry_space_group_name_H-M "C 2/M"
_symmetry_group_IT_number 12
_symmetry_cell_setting 'monoclinic'
loop_
_space_group_symop_operation_xyz
x,y,z
-x,y,-z
-x,-y,-z
x,-y,z
1/2+x,1/2+y,z
1/2-x,1/2+y,-z
1/2-x,1/2-y,-z
1/2+x,1/2-y,z
loop_
_atom_site_type_symbol
_atom_site_label
_atom_site_fract_x
_atom_site_fract_y
_atom_site_fract_z
Si Si1 0.589198 0.680175 0.279076
Si Si2 0.455052 0.315637 0.523866
Si Si3 0.717033 0.686521 0.776066
Si Si4 0.299703 0.315048 0.584990
Si Si5 0.994881 0.683273 0.370866
Si Si6 0.412636 0.183613 0.805324
Si Si7 0.824916 0.317036 0.070159
Si Si8 0.815666 0.181021 0.150141
O O1 0.611477 0.500000 0.283679
O O2 0.645468 0.726652 0.346638
O O3 0.629008 0.767548 0.257822
O O4 0.452440 0.701631 0.218587
O O5 0.500000 0.271713 0.500000
O O6 0.454863 0.500000 0.526072
O O7 0.327710 0.250783 0.472489
O O8 0.526129 0.248549 0.594032
O O9 0.705444 0.500000 0.769988
O O10 0.602651 0.755815 0.704098
O O11 0.824066 0.735206 0.798235
O O12 0.735227 0.731424 0.830710
O O13 0.297917 0.500000 0.579995
O O14 0.383450 0.245368 0.589896
O O15 0.996371 0.500000 0.372412
O O16 0.542815 0.239926 0.871439
O O17 0.416687 0.000000 0.808585
O O18 0.825454 0.500000 0.067673
O O19 0.780798 0.267389 0.093813
O O20 0.750000 0.250000 0.000000
O O21 0.793736 0.000000 0.134425
#
# Coordination Sequence:
#
# PCOD9198830 Si02
#       8
#     8   8   8   8   8   8   8   8
#     4   9  18  33  55  83 112 146 184 229 283 338
#     4  11  26  45  62  83 114 153 196 245 300 357
#     4  10  20  38  60  85 118 153 189 238 295 345
#     4  11  22  40  63  86 116 151 194 243 294 353
#     4  12  25  40  61  87 116 154 197 241 292 354
#     4   9  20  35  56  84 116 150 190 236 282 335
#     4  10  20  36  58  86 116 153 195 234 278 335
#     4   9  17  34  58  83 112 148 187 228 278 336
#
# _framework density 18.873873
#
# number of rings (size 3 to 8) (size 9 to 14) (size 15 to 20)
#    0.000    1.875    1.250    2.625    1.750    3.500 
#    0.000    0.625    0.000    3.750    0.000    0.000 
#    0.000    0.000    0.000    0.000    0.000    0.000 
#
# Total GULP energy -178701.910003 kJ/mol
# GULP energy per Si atom -5584.434688 kJ/mol
# Density = 1.883092 g / cm^3
# Si number density = 18.873873 Si / 1000 Ang^3
#
#
#
# Elastic Constant Matrix: (Units=GPa)
#
#
# Indices 1 2 3 4 5 6 
#
# 1 145.5856 42.6717 43.3680 0.0000 -24.7939 0.0001
# 2 42.6717 45.0515 29.8342 -0.0001 -15.8728 0.0003
# 3 43.3680 29.8342 87.3205 0.0000 -30.6243 0.0001
# 4 0.0000 -0.0001 0.0000 30.0804 0.0000 -5.4827
# 5 -24.7939 -15.8728 -30.6243 0.0000 27.8136 0.0000
# 6 0.0001 0.0003 0.0001 -5.4827 0.0000 25.3954
#
#
#
# Elastic Compliance Matrix: (Units=1/GPa)
#
#
# Indices 1 2 3 4 5 6 
#
# 1 0.009992 -0.007482 -0.001270 0.000000 0.003238 0.000000
# 2 -0.007482 0.035773 -0.006004 0.000000 0.007135 0.000000
# 3 -0.001270 -0.006004 0.020421 0.000000 0.017926 0.000000
# 4 0.000000 0.000000 0.000000 0.034606 0.000000 0.007471
# 5 0.003238 0.007135 0.017926 0.000000 0.062650 0.000000
# 6 0.000000 0.000000 0.000000 0.007471 0.000000 0.040990
#
#
# Mechanical properties :
#
#
# Convention : Reuss Voigt Hill
#
# Bulk Modulus (GPa) = 27.26776 56.63395 41.95085
# Shear Modulus (GPa) = 20.31124 27.46346 23.88735
#
# Velocity S-wave (km/s) = 3.28404 3.81872 3.56143
# Velocity P-wave (km/s) = 5.37202 7.03670 6.25994
#
# Compressibility (1/GPa) = 0.03667334
#
# Stress axis : x y z
#
# Youngs Moduli (GPa) = 100.08351 27.95392 48.96841
#
# Poissons Ratio (x) = 0.20914 0.06221
# Poissons Ratio (y) = 0.74878 0.29402
# Poissons Ratio (z) = 0.12715 0.16785
#
# Static dielectric constant tensor:
#      x y z
#    x 1.664690 0.000000 -0.004510 
#    y 0.000000 1.638270 0.000000 
#    z -0.004510 0.000000 1.649740 
# 
# From -- ./inp_files/378298.got.cif
#   From: 2010.05.17/outbox.cif.g08.bks.cpg/sg12_190_cif.got.tgz:378298.got - 2010.06.03 13:09:07.
