data_PCOD9198400
_publ_section_title
;
Structure prediction by ZEFSAII (Michael W. Deem and Ramdas Pophale) SiO2 
 PCOD9198400
Probable space group: C 2/M
;
_chemical_formula_sum "Si O2"
_cell_formula_units_Z 60
_cell_length_a 13.946521
_cell_length_b 21.450534
_cell_length_c 19.405630
_cell_angle_alpha 90.000000
_cell_angle_beta 35.309989
_cell_angle_gamma 90.000000
_cell_volume 3355.517472
_symmetry_space_group_name_H-M "C 2/M"
_symmetry_group_IT_number 12
_symmetry_cell_setting 'monoclinic'
loop_
_space_group_symop_operation_xyz
x,y,z
-x,y,-z
-x,-y,-z
x,-y,z
1/2+x,1/2+y,z
1/2-x,1/2+y,-z
1/2-x,1/2-y,-z
1/2+x,1/2-y,z
loop_
_atom_site_type_symbol
_atom_site_label
_atom_site_fract_x
_atom_site_fract_y
_atom_site_fract_z
Si Si1 0.315523 0.237503 0.259304
Si Si2 0.312623 0.666699 0.137499
Si Si3 0.843391 0.756430 0.872433
Si Si4 0.000000 0.167372 0.500000
Si Si5 0.509889 0.426101 0.365920
Si Si6 0.284671 0.924549 0.563497
Si Si7 0.152203 0.425540 0.318984
Si Si8 0.676170 0.141759 0.867725
O O1 0.283874 0.292324 0.223064
O O2 0.463196 0.258876 0.222589
O O3 0.157150 0.211747 0.393042
O O4 0.363327 0.181350 0.178472
O O5 0.195197 0.694344 0.148016
O O6 0.260290 0.598986 0.192882
O O7 0.500000 0.672527 0.000000
O O8 0.765869 0.811762 0.870701
O O9 0.750000 0.750000 0.000000
O O10 0.981049 0.120569 0.446504
O O11 0.493652 0.500000 0.392080
O O12 0.373282 0.408162 0.388897
O O13 0.691843 0.410887 0.229437
O O14 0.460820 0.902966 0.429100
O O15 0.278056 0.905427 0.647146
O O16 0.291468 0.000000 0.559897
O O17 0.149651 0.500000 0.320153
O O18 0.500000 0.120060 0.000000
#
# Coordination Sequence:
#
# PCOD9198400 Si02
#       8
#     8   8   8   4   8   8   8   8
#     4  10  21  39  53  82 111 144 183 230 278 332
#     4  11  22  34  55  84 109 146 185 223 282 331
#     4  11  19  36  61  77 111 151 184 226 280 327
#     4  10  23  38  58  82 115 144 184 238 280 326
#     4  10  21  37  58  83 112 148 186 228 282 336
#     4   8  17  35  55  77 106 145 183 219 272 325
#     4   9  19  36  57  81 113 146 182 229 274 332
#     4  10  20  36  57  83 110 145 191 227 275 328
#
# _framework density 17.880998000000002
#
# number of rings (size 3 to 8) (size 9 to 14) (size 15 to 20)
#    0.000    2.133    2.667    1.800    3.733    1.600 
#    0.000    2.000    0.000    0.800    0.000    0.000 
#    0.000    0.000    0.000    0.000    0.000    0.000 
#
# Total GULP energy -167204.406381 kJ/mol
# GULP energy per Si atom -5573.480213 kJ/mol
# Density = 1.784030 g / cm^3
# Si number density = 17.880998 Si / 1000 Ang^3
#
#
#
# Elastic Constant Matrix: (Units=GPa)
#
#
# Indices 1 2 3 4 5 6 
#
# 1 110.5312 25.2217 49.3257 -0.0031 -11.2873 0.0012
# 2 25.2217 40.9128 37.8763 -0.0082 0.7739 0.0028
# 3 49.3257 37.8763 117.9617 -0.0132 0.5301 0.0048
# 4 -0.0031 -0.0082 -0.0132 27.3193 0.0049 2.2083
# 5 -11.2873 0.7739 0.5301 0.0049 21.3218 -0.0014
# 6 0.0012 0.0028 0.0048 2.2083 -0.0014 19.5808
#
#
#
# Elastic Compliance Matrix: (Units=1/GPa)
#
#
# Indices 1 2 3 4 5 6 
#
# 1 0.012436 -0.004202 -0.003882 -0.000003 0.006832 0.000002
# 2 -0.004202 0.036222 -0.009859 0.000007 -0.003294 -0.000004
# 3 -0.003882 -0.009859 0.013275 0.000004 -0.002027 -0.000002
# 4 -0.000003 0.000007 0.000004 0.036941 -0.000011 -0.004166
# 5 0.006832 -0.003294 -0.002027 -0.000011 0.050687 0.000005
# 6 0.000002 -0.000004 -0.000002 -0.004166 0.000005 0.051540
#
#
# Mechanical properties :
#
#
# Convention : Reuss Voigt Hill
#
# Bulk Modulus (GPa) = 38.39022 54.91702 46.65362
# Shear Modulus (GPa) = 20.35262 24.10986 22.23124
#
# Velocity S-wave (km/s) = 3.37742 3.67597 3.52985
# Velocity P-wave (km/s) = 6.06018 6.98543 6.53919
#
# Compressibility (1/GPa) = 0.02604830
#
# Stress axis : x y z
#
# Youngs Moduli (GPa) = 80.41178 27.60757 75.32979
#
# Poissons Ratio (x) = 0.11601 0.29239
# Poissons Ratio (y) = 0.33791 0.74264
# Poissons Ratio (z) = 0.31212 0.27217
#
# Static dielectric constant tensor:
#      x y z
#    x 1.603180 0.000000 -0.000020 
#    y 0.000000 1.632310 0.000000 
#    z -0.000020 0.000000 1.640790 
# 
# From -- ./inp_files/265694.got.cif
#   From: 2010.05.17/outbox.cif.g08.bks.cpg/sg12_133_cif.got.tgz:265694.got - 2010.06.03 13:09:07.
