data_PCOD9198834
_publ_section_title
;
Structure prediction by ZEFSAII (Michael W. Deem and Ramdas Pophale) SiO2 
 PCOD9198834
Probable space group: C 2/M
;
_chemical_formula_sum "Si O2"
_cell_formula_units_Z 58
_cell_length_a 22.740955
_cell_length_b 7.819473
_cell_length_c 18.899965
_cell_angle_alpha 90.000000
_cell_angle_beta 52.040062
_cell_angle_gamma 90.000000
_cell_volume 2649.820192
_symmetry_space_group_name_H-M "C 2/M"
_symmetry_group_IT_number 12
_symmetry_cell_setting 'monoclinic'
loop_
_space_group_symop_operation_xyz
x,y,z
-x,y,-z
-x,-y,-z
x,-y,z
1/2+x,1/2+y,z
1/2-x,1/2+y,-z
1/2-x,1/2-y,-z
1/2+x,1/2-y,z
loop_
_atom_site_type_symbol
_atom_site_label
_atom_site_fract_x
_atom_site_fract_y
_atom_site_fract_z
Si Si1 0.824991 0.198084 0.175099
Si Si2 0.144664 0.297578 0.546609
Si Si3 0.331609 0.200769 0.913219
Si Si4 0.566147 0.807440 0.027119
Si Si5 0.508499 0.293207 0.412716
Si Si6 0.712522 0.299178 0.642752
Si Si7 0.334038 0.304204 0.756253
Si Si8 0.500000 0.500000 0.000000
O O1 0.873433 0.298389 0.081670
O O2 0.821567 0.266612 0.258179
O O3 0.739701 0.204201 0.211670
O O4 0.854097 0.000000 0.149477
O O5 0.157973 0.500000 0.543370
O O6 0.206939 0.230292 0.444151
O O7 0.160847 0.221388 0.612035
O O8 0.061855 0.266677 0.580482
O O9 0.344349 0.303056 0.832564
O O10 0.333018 0.000000 0.894444
O O11 0.250000 0.250000 0.000000
O O12 0.389755 0.228246 0.933132
O O13 0.534577 0.000000 0.053406
O O14 0.510949 0.653547 0.051686
O O15 0.500000 0.242633 0.500000
O O16 0.509429 0.500000 0.407318
O O17 0.589318 0.230002 0.329655
O O18 0.723254 0.500000 0.650314
O O19 0.323996 0.500000 0.738494
#
# Coordination Sequence:
#
# PCOD9198834 Si02
#       8
#     8   8   8   8   8   8   8   2
#     4  11  21  38  63  92 123 163 212 265 324 383
#     4  10  20  36  58  86 118 158 206 260 315 376
#     4  11  23  40  66  95 128 164 210 272 329 388
#     4  11  25  45  68  98 132 173 223 271 327 399
#     4  10  22  40  59  85 124 166 204 253 319 383
#     4   9  20  37  59  85 118 160 209 257 312 379
#     4  11  23  37  61  94 126 164 212 264 326 394
#     4  12  26  48  72  94 132 180 214 266 332 398
#
# _framework density 21.888278
#
# number of rings (size 3 to 8) (size 9 to 14) (size 15 to 20)
#    0.000    1.517    2.069    2.690    1.931    3.034 
#    2.483    0.000    0.000    0.000    0.000    0.000 
#    0.000    0.000    0.000    0.000    0.000    0.000 
#
# Total GULP energy -161853.823208 kJ/mol
# GULP energy per Si atom -5581.166318 kJ/mol
# Density = 2.183846 g / cm^3
# Si number density = 21.888278 Si / 1000 Ang^3
#
#
#
# Elastic Constant Matrix: (Units=GPa)
#
#
# Indices 1 2 3 4 5 6 
#
# 1 91.9171 16.4103 1.0353 -0.0002 2.0567 0.0011
# 2 16.4103 80.9057 -10.5389 0.0010 0.6431 -0.0005
# 3 1.0353 -10.5389 89.1498 0.0001 13.7542 0.0001
# 4 -0.0002 0.0010 0.0001 -6.4951 -0.0001 27.3844
# 5 2.0567 0.6431 13.7542 -0.0001 32.0338 0.0001
# 6 0.0011 -0.0005 0.0001 27.3844 0.0001 -3.6330
#
#
#
# Elastic Compliance Matrix: (Units=1/GPa)
#
#
# Indices 1 2 3 4 5 6 
#
# 1 0.011311 -0.002332 -0.000324 0.000000 -0.000540 0.000000
# 2 -0.002332 0.013061 0.001701 0.000000 -0.000843 0.000000
# 3 -0.000324 0.001701 0.012234 0.000000 -0.005266 0.000000
# 4 0.000000 0.000000 0.000000 0.005002 0.000000 0.037704
# 5 -0.000540 -0.000843 -0.005266 0.000000 0.033530 0.000000
# 6 0.000000 0.000000 0.000000 0.037704 0.000000 0.008943
#
#
# Mechanical properties :
#
#
# Convention : Reuss Voigt Hill
#
# Bulk Modulus (GPa) = 28.82011 30.64287 29.73149
# Shear Modulus (GPa) = 51.25199 21.38554 36.31876
#
# Velocity S-wave (km/s) = 4.84418 3.12914 4.07784
# Velocity P-wave (km/s) = 6.66961 5.20437 5.98202
#
# Compressibility (1/GPa) = 0.03469800
#
# Stress axis : x y z
#
# Youngs Moduli (GPa) = 88.40572 76.56134 81.73631
#
# Poissons Ratio (x) = 0.17856 0.02646
# Poissons Ratio (y) = 0.20618 -0.13905
# Poissons Ratio (z) = 0.02862 -0.13025
#
# Static dielectric constant tensor:
#      x y z
#    x 1.915280 0.000000 -0.163600 
#    y 0.000000 1.802030 0.000000 
#    z -0.163600 0.000000 1.936640 
# 
# From -- ./inp_files/282170.got.cif
#   From: 2010.05.17/outbox.cif.g08.bks.cpg/sg12_142_cif.got.tgz:282170.got - 2010.06.03 13:09:07.
