data_PCOD9198174
_publ_section_title
;
Structure prediction by ZEFSAII (Michael W. Deem and Ramdas Pophale) SiO2 
 PCOD9198174
Probable space group: C 2/M
;
_chemical_formula_sum "Si O2"
_cell_formula_units_Z 40
_cell_length_a 12.935625
_cell_length_b 15.138027
_cell_length_c 18.501361
_cell_angle_alpha 90.000000
_cell_angle_beta 149.310056
_cell_angle_gamma 90.000000
_cell_volume 1849.116295
_symmetry_space_group_name_H-M "C 2/M"
_symmetry_group_IT_number 12
_symmetry_cell_setting 'monoclinic'
loop_
_space_group_symop_operation_xyz
x,y,z
-x,y,-z
-x,-y,-z
x,-y,z
1/2+x,1/2+y,z
1/2-x,1/2+y,-z
1/2-x,1/2-y,-z
1/2+x,1/2-y,z
loop_
_atom_site_type_symbol
_atom_site_label
_atom_site_fract_x
_atom_site_fract_y
_atom_site_fract_z
Si Si1 0.808193 0.904427 0.938160
Si Si2 0.504046 0.340018 0.322111
Si Si3 0.142406 0.298194 0.013753
Si Si4 0.879008 0.635727 0.620827
Si Si5 0.790346 0.395869 0.727698
O O1 0.824568 0.806114 0.983910
O O2 0.599365 0.905670 0.766312
O O3 0.811999 0.000000 0.980934
O O4 0.000000 0.905878 0.000000
O O5 0.348510 0.348323 0.161767
O O6 0.718421 0.389998 0.461822
O O7 0.564723 0.237729 0.355586
O O8 0.371995 0.357635 0.314281
O O9 0.000000 0.296972 0.000000
O O10 0.004041 0.351314 0.875211
O O11 0.760890 0.621734 0.625413
O O12 0.798853 0.500000 0.744666
#
# Coordination Sequence:
#
# PCOD9198174 Si02
#       5
#     8   8   8   8   8
#     4   9  17  31  52  77 107 147 194 239 285 343
#     4   9  20  36  55  82 120 157 191 241 300 353
#     4   8  17  34  53  78 114 151 188 236 294 348
#     4  10  20  36  56  82 116 156 198 241 296 356
#     4  11  22  36  59  91 122 155 199 248 297 354
#
# _framework density 21.631955000000001
#
# number of rings (size 3 to 8) (size 9 to 14) (size 15 to 20)
#    0.000    2.600    0.000    2.400    0.000    9.200 
#    0.000    0.000    0.000    1.200    0.000    0.000 
#    0.000   89.600    0.000    0.000    0.000    0.000 
#
# Total GULP energy -111385.512250 kJ/mol
# GULP energy per Si atom -5569.275613 kJ/mol
# Density = 2.158272 g / cm^3
# Si number density = 21.631955 Si / 1000 Ang^3
#
#
#
# Elastic Constant Matrix: (Units=GPa)
#
#
# Indices 1 2 3 4 5 6 
#
# 1 72.3744 46.7751 19.6994 -0.0113 18.4336 -0.0100
# 2 46.7751 174.3419 45.2688 -0.0189 -0.8923 -0.0176
# 3 19.6994 45.2688 178.4967 -0.0257 3.9244 -0.0223
# 4 -0.0113 -0.0189 -0.0257 -381.5129 -0.0078 -400.7614
# 5 18.4336 -0.8923 3.9244 -0.0078 27.8826 -0.0072
# 6 -0.0100 -0.0176 -0.0223 -400.7614 -0.0072 -359.4725
#
#
#
# Elastic Compliance Matrix: (Units=1/GPa)
#
#
# Indices 1 2 3 4 5 6 
#
# 1 0.021195 -0.005601 -0.000609 0.000000 -0.014106 0.000000
# 2 -0.005601 0.007625 -0.001407 0.000000 0.004145 0.000000
# 3 -0.000609 -0.001407 0.006037 0.000000 -0.000492 0.000000
# 4 0.000000 0.000000 0.000000 0.015319 0.000000 -0.017078
# 5 -0.014106 0.004145 -0.000492 0.000000 0.045392 0.000000
# 6 0.000000 0.000000 0.000000 -0.017078 0.000000 0.016258
#
#
# Mechanical properties :
#
#
# Convention : Reuss Voigt Hill
#
# Bulk Modulus (GPa) = 50.95540 72.07771 61.51655
# Shear Modulus (GPa) = 37.42512 -121.72259 -42.14874
#
# Velocity S-wave (km/s) = 4.16394 -7.50946 -4.41891
# Velocity P-wave (km/s) = 6.83554 6.46505 1.56966
#
# Compressibility (1/GPa) = 0.01962500
#
# Stress axis : x y z
#
# Youngs Moduli (GPa) = 47.18055 131.14751 165.64192
#
# Poissons Ratio (x) = 0.73452 0.10081
# Poissons Ratio (y) = 0.26425 0.23303
# Poissons Ratio (z) = 0.02871 0.18450
#
# Static dielectric constant tensor:
#      x y z
#    x 1.871900 0.000000 -0.037930 
#    y 0.000000 1.782000 0.000000 
#    z -0.037930 0.000000 1.881950 
# 
# From -- ./inp_files/310626.got.cif
#   From: 2010.05.17/outbox.cif.g08.bks.cpg/sg12_156_cif.got.tgz:310626.got - 2010.06.03 13:09:07.
