data_PCOD9198820
_publ_section_title
;
Structure prediction by ZEFSAII (Michael W. Deem and Ramdas Pophale) SiO2 
 PCOD9198820
Probable space group: C 2/M
;
_chemical_formula_sum "Si O2"
_cell_formula_units_Z 58
_cell_length_a 17.532159
_cell_length_b 14.536830
_cell_length_c 9.473721
_cell_angle_alpha 90.000000
_cell_angle_beta 84.373607
_cell_angle_gamma 90.000000
_cell_volume 2402.859431
_symmetry_space_group_name_H-M "C 2/M"
_symmetry_group_IT_number 12
_symmetry_cell_setting 'monoclinic'
loop_
_space_group_symop_operation_xyz
x,y,z
-x,y,-z
-x,-y,-z
x,-y,z
1/2+x,1/2+y,z
1/2-x,1/2+y,-z
1/2-x,1/2-y,-z
1/2+x,1/2-y,z
loop_
_atom_site_type_symbol
_atom_site_label
_atom_site_fract_x
_atom_site_fract_y
_atom_site_fract_z
Si Si1 0.611687 0.156419 0.945705
Si Si2 0.939041 0.396242 0.354517
Si Si3 0.574338 0.250226 0.341158
Si Si4 0.268487 0.398065 0.866669
Si Si5 0.070552 0.852025 0.060124
Si Si6 0.330471 0.391461 0.537651
Si Si7 0.814027 0.604750 0.628589
Si Si8 0.500000 0.000000 0.000000
O O1 0.599464 0.121802 0.788040
O O2 0.702402 0.160926 0.948355
O O3 0.561176 0.081796 0.038147
O O4 0.580970 0.257726 0.972794
O O5 0.972112 0.500000 0.345198
O O6 0.873848 0.394590 0.485486
O O7 0.005133 0.321669 0.361358
O O8 0.552738 0.321317 0.222882
O O9 0.602367 0.315172 0.465872
O O10 0.648483 0.186293 0.286792
O O11 0.234767 0.500000 0.873988
O O12 0.346752 0.397183 0.940096
O O13 0.289101 0.379355 0.698540
O O14 0.000000 0.901767 0.000000
O O15 0.353674 0.500000 0.526148
O O16 0.269051 0.374376 0.424345
O O17 0.812827 0.500000 0.685933
#
# Coordination Sequence:
#
# PCOD9198820 Si02
#       8
#     8   8   8   8   8   8   8   2
#     4  12  20  37  55  84 113 150 183 228 292 348
#     4  11  20  34  58  82 114 147 183 231 285 349
#     4  11  21  35  54  85 118 142 186 233 283 335
#     4  10  20  37  60  81 110 152 195 232 281 338
#     4  11  23  37  54  84 116 151 191 236 282 333
#     4   9  19  36  60  83 107 149 191 232 277 332
#     4  10  20  36  58  86 113 144 185 235 289 339
#     4  12  20  28  60  84 110 144 184 224 282 352
#
# _framework density 24.137909000000001
#
# number of rings (size 3 to 8) (size 9 to 14) (size 15 to 20)
#    0.000    1.379    4.828    1.655    0.000    1.379 
#    1.241    0.000    0.000    1.655    0.000    0.000 
#    0.000    0.000    0.000    0.000    0.000    0.000 
#
# Total GULP energy -161797.998212 kJ/mol
# GULP energy per Si atom -5579.241318 kJ/mol
# Density = 2.408297 g / cm^3
# Si number density = 24.137909 Si / 1000 Ang^3
#
#
#
# Elastic Constant Matrix: (Units=GPa)
#
#
# Indices 1 2 3 4 5 6 
#
# 1 135.4291 36.6950 11.4966 0.0000 29.0853 0.0000
# 2 36.6950 123.3910 -5.8538 0.0000 5.1262 0.0000
# 3 11.4966 -5.8538 34.0133 0.0000 12.5126 0.0000
# 4 0.0000 0.0000 0.0000 3.0875 0.0000 19.8261
# 5 29.0853 5.1262 12.5126 0.0000 35.4122 0.0000
# 6 0.0000 0.0000 0.0000 19.8261 0.0000 31.2221
#
#
#
# Elastic Compliance Matrix: (Units=1/GPa)
#
#
# Indices 1 2 3 4 5 6 
#
# 1 0.009749 -0.002650 -0.001088 0.000000 -0.007239 0.000000
# 2 -0.002650 0.009008 0.002443 0.000000 0.000010 0.000000
# 3 -0.001088 0.002443 0.034470 0.000000 -0.011640 0.000000
# 4 0.000000 0.000000 0.000000 -0.105239 0.000000 0.066827
# 5 -0.007239 0.000010 -0.011640 0.000000 0.038296 0.000000
# 6 0.000000 0.000000 0.000000 0.066827 0.000000 -0.010407
#
#
# Mechanical properties :
#
#
# Convention : Reuss Voigt Hill
#
# Bulk Modulus (GPa) = 19.74891 41.94544 30.84717
# Shear Modulus (GPa) = -1074.66204 30.64406 -522.00899
#
# Velocity S-wave (km/s) = -21.12307 3.56693 -14.72177
# Velocity P-wave (km/s) = 24.22215 5.86337 16.61827
#
# Compressibility (1/GPa) = 0.05063570
#
# Stress axis : x y z
#
# Youngs Moduli (GPa) = 102.57368 111.01347 29.01037
#
# Poissons Ratio (x) = 0.29420 0.03157
# Poissons Ratio (y) = 0.27183 -0.07086
# Poissons Ratio (z) = 0.11162 -0.27115
#
# Static dielectric constant tensor:
#      x y z
#    x 1.963660 0.000000 0.007830 
#    y 0.000000 1.912340 0.000000 
#    z 0.007830 0.000000 2.031450 
# 
# From -- ./inp_files/145575.got.cif
#   From: 2010.05.17/outbox.cif.g08.bks.cpg/sg12_73_cif.got.tgz:145575.got - 2010.06.03 13:09:07.
