data_PCOD9198211
_publ_section_title
;
Structure prediction by ZEFSAII (Michael W. Deem and Ramdas Pophale) SiO2 
 PCOD9198211
Probable space group: C 2/M
;
_chemical_formula_sum "Si O2"
_cell_formula_units_Z 40
_cell_length_a 29.602631
_cell_length_b 8.993707
_cell_length_c 20.273648
_cell_angle_alpha 90.000000
_cell_angle_beta 20.685883
_cell_angle_gamma 90.000000
_cell_volume 1906.672810
_symmetry_space_group_name_H-M "C 2/M"
_symmetry_group_IT_number 12
_symmetry_cell_setting 'monoclinic'
loop_
_space_group_symop_operation_xyz
x,y,z
-x,y,-z
-x,-y,-z
x,-y,z
1/2+x,1/2+y,z
1/2-x,1/2+y,-z
1/2-x,1/2-y,-z
1/2+x,1/2-y,z
loop_
_atom_site_type_symbol
_atom_site_label
_atom_site_fract_x
_atom_site_fract_y
_atom_site_fract_z
Si Si1 0.716441 0.176427 0.244519
Si Si2 0.438154 0.830196 0.018682
Si Si3 0.685538 0.820794 0.023920
Si Si4 0.222407 0.336154 0.602691
Si Si5 0.598948 0.178591 0.539229
O O1 0.607526 0.217820 0.448606
O O2 0.706486 0.000000 0.246251
O O3 0.741223 0.257868 0.140885
O O4 0.842854 0.224134 0.111960
O O5 0.570449 0.851292 0.801396
O O6 0.385586 0.000000 0.103252
O O7 0.500000 0.764202 0.000000
O O8 0.533783 0.783935 0.241723
O O9 0.694847 0.000000 0.010399
O O10 0.750000 0.750000 0.000000
O O11 0.279880 0.500000 0.525412
O O12 0.250000 0.250000 0.500000
O O13 0.283203 0.253674 0.582796
O O14 0.613405 0.000000 0.522123
#
# Coordination Sequence:
#
# PCOD9198211 Si02
#       5
#     8   8   8   8   8
#     4  11  23  40  65  95 126 163 208 256 305 364
#     4  10  20  36  56  84 123 164 201 242 295 352
#     4  11  25  46  68  91 122 159 203 258 318 375
#     4  11  22  35  56  85 122 164 206 250 298 357
#     4  10  23  42  63  89 124 163 203 251 309 369
#
# _framework density 20.978953000000001
#
# number of rings (size 3 to 8) (size 9 to 14) (size 15 to 20)
#    0.000    1.400    2.000    3.000    0.000   10.000 
#    0.000    4.000    0.000    0.000    0.000    0.000 
#    0.000    0.000    0.000    0.000    0.000    0.000 
#
# Total GULP energy -111338.930620 kJ/mol
# GULP energy per Si atom -5566.946531 kJ/mol
# Density = 2.093120 g / cm^3
# Si number density = 20.978953 Si / 1000 Ang^3
#
#
#
# Elastic Constant Matrix: (Units=GPa)
#
#
# Indices 1 2 3 4 5 6 
#
# 1 90.3486 24.6764 14.1840 0.0000 40.9762 -0.0004
# 2 24.6764 52.3776 25.5262 0.0000 18.7347 -0.0018
# 3 14.1840 25.5262 58.6820 0.0001 21.2518 -0.0008
# 4 0.0000 0.0000 0.0001 26.0983 0.0000 19.9096
# 5 40.9762 18.7347 21.2518 0.0000 39.8857 0.0001
# 6 -0.0004 -0.0018 -0.0008 19.9096 0.0001 193.4133
#
#
#
# Elastic Compliance Matrix: (Units=1/GPa)
#
#
# Indices 1 2 3 4 5 6 
#
# 1 0.022037 -0.004548 0.005052 0.000000 -0.023195 0.000000
# 2 -0.004548 0.026929 -0.009573 0.000000 -0.002876 0.000000
# 3 0.005052 -0.009573 0.025073 0.000000 -0.014053 0.000000
# 4 0.000000 0.000000 0.000000 0.041582 0.000000 -0.004280
# 5 -0.023195 -0.002876 -0.014053 0.000000 0.057740 0.000000
# 6 0.000000 0.000000 0.000000 -0.004280 0.000000 0.005611
#
#
# Mechanical properties :
#
#
# Convention : Reuss Voigt Hill
#
# Bulk Modulus (GPa) = 17.88860 36.68681 27.28770
# Shear Modulus (GPa) = 23.17571 61.01423 42.09497
#
# Velocity S-wave (km/s) = 3.32733 5.39877 4.48429
# Velocity P-wave (km/s) = 4.82772 7.50917 6.31247
#
# Compressibility (1/GPa) = 0.05590152
#
# Stress axis : x y z
#
# Youngs Moduli (GPa) = 45.37825 37.13500 39.88289
#
# Poissons Ratio (x) = 0.16888 -0.20148
# Poissons Ratio (y) = 0.20636 0.38180
# Poissons Ratio (z) = -0.22924 0.35549
#
# Static dielectric constant tensor:
#      x y z
#    x 1.744470 0.000000 -0.007350 
#    y 0.000000 1.788360 0.000000 
#    z -0.007350 0.000000 1.517240 
# 
# From -- ./inp_files/151751.got.cif
#   From: 2010.05.17/outbox.cif.g08.bks.cpg/sg12_76_cif.got.tgz:151751.got - 2010.06.03 13:09:07.
