data_PCOD9198999
_publ_section_title
;
Structure prediction by ZEFSAII (Michael W. Deem and Ramdas Pophale) SiO2 
 PCOD9198999
Probable space group: C 2/M
;
_chemical_formula_sum "Si O2"
_cell_formula_units_Z 48
_cell_length_a 19.828943
_cell_length_b 7.612975
_cell_length_c 25.912003
_cell_angle_alpha 90.000000
_cell_angle_beta 150.865071
_cell_angle_gamma 90.000000
_cell_volume 1904.434991
_symmetry_space_group_name_H-M "C 2/M"
_symmetry_group_IT_number 12
_symmetry_cell_setting 'monoclinic'
loop_
_space_group_symop_operation_xyz
x,y,z
-x,y,-z
-x,-y,-z
x,-y,z
1/2+x,1/2+y,z
1/2-x,1/2+y,-z
1/2-x,1/2-y,-z
1/2+x,1/2-y,z
loop_
_atom_site_type_symbol
_atom_site_label
_atom_site_fract_x
_atom_site_fract_y
_atom_site_fract_z
Si Si1 0.097003 0.714482 0.453724
Si Si2 0.433530 0.206707 0.792376
Si Si3 0.177709 0.711960 0.682709
Si Si4 0.661008 0.715482 0.106397
Si Si5 0.305338 0.303466 0.981231
Si Si6 0.917903 0.703782 0.670379
O O1 0.106791 0.500000 0.459987
O O2 0.047778 0.772822 0.363406
O O3 0.250865 0.785453 0.563010
O O4 0.981557 0.767264 0.417886
O O5 0.273154 0.229350 0.699442
O O6 0.528727 0.296501 0.898898
O O7 0.468160 0.279152 0.758481
O O8 0.465275 0.000000 0.815053
O O9 0.177105 0.500000 0.681088
O O10 0.256219 0.770210 0.787563
O O11 0.664144 0.500000 0.108060
O O12 0.500000 0.767986 0.000000
O O13 0.722973 0.781475 0.093144
O O14 0.256169 0.500000 0.942437
O O15 0.250000 0.250000 0.000000
O O16 0.959011 0.500000 0.697215
#
# Coordination Sequence:
#
# PCOD9198999 Si02
#       6
#     8   8   8   8   8   8
#     4   9  19  36  60  84 106 142 191 236 278 333
#     4  11  23  38  57  83 116 151 185 230 284 336
#     4  10  20  36  59  84 110 146 192 233 276 334
#     4   9  17  34  59  81 107 149 188 221 271 334
#     4  11  23  39  60  85 115 150 189 232 278 332
#     4   9  20  38  58  80 112 149 185 229 284 340
#
# _framework density 25.204325999999998
#
# number of rings (size 3 to 8) (size 9 to 14) (size 15 to 20)
#    0.000    2.167    1.667    1.000    2.333    2.667 
#    0.000    5.833    0.000    0.000    0.000    0.000 
#    0.000    0.000    0.000    0.000    0.000    0.000 
#
# Total GULP energy -134136.582972 kJ/mol
# GULP energy per Si atom -5589.024291 kJ/mol
# Density = 2.514696 g / cm^3
# Si number density = 25.204326 Si / 1000 Ang^3
#
#
#
# Elastic Constant Matrix: (Units=GPa)
#
#
# Indices 1 2 3 4 5 6 
#
# 1 125.5115 1.1670 -2.9856 0.0000 0.3737 -0.0001
# 2 1.1670 57.7361 -1.6792 -0.0002 1.0879 -0.0008
# 3 -2.9856 -1.6792 60.0573 -0.0001 2.8890 0.0000
# 4 0.0000 -0.0002 -0.0001 9.2482 0.0000 4.5058
# 5 0.3737 1.0879 2.8890 0.0000 53.3199 0.0000
# 6 -0.0001 -0.0008 0.0000 4.5058 0.0000 21.6043
#
#
#
# Elastic Compliance Matrix: (Units=1/GPa)
#
#
# Indices 1 2 3 4 5 6 
#
# 1 0.007978 -0.000148 0.000396 0.000000 -0.000074 0.000000
# 2 -0.000148 0.017345 0.000496 0.000000 -0.000380 0.000001
# 3 0.000396 0.000496 0.016729 0.000000 -0.000919 0.000000
# 4 0.000000 0.000000 0.000000 0.120359 0.000000 -0.025102
# 5 -0.000074 -0.000380 -0.000919 0.000000 0.018813 0.000000
# 6 0.000000 0.000001 0.000000 -0.025102 0.000000 0.051522
#
#
# Mechanical properties :
#
#
# Convention : Reuss Voigt Hill
#
# Bulk Modulus (GPa) = 22.96799 26.25659 24.61229
# Shear Modulus (GPa) = 20.34412 33.28800 26.81606
#
# Velocity S-wave (km/s) = 2.84415 3.63812 3.26536
# Velocity P-wave (km/s) = 4.46297 5.29981 4.89929
#
# Compressibility (1/GPa) = 0.04353885
#
# Stress axis : x y z
#
# Youngs Moduli (GPa) = 125.33815 57.65427 59.77809
#
# Poissons Ratio (x) = 0.00855 -0.02368
# Poissons Ratio (y) = 0.01859 -0.02964
# Poissons Ratio (z) = -0.04964 -0.02859
#
# Static dielectric constant tensor:
#      x y z
#    x 2.016820 0.000000 0.014040 
#    y 0.000000 1.975640 0.000000 
#    z 0.014040 0.000000 2.018210 
# 
# From -- ./inp_files/221706.got.cif
#   From: 2010.05.17/outbox.cif.g08.bks.cpg/sg12_111_cif.got.tgz:221706.got - 2010.06.03 13:09:07.
