data_PCOD9198525
_publ_section_title
;
Structure prediction by ZEFSAII (Michael W. Deem and Ramdas Pophale) SiO2 
 PCOD9198525
Probable space group: C 2/M
;
_chemical_formula_sum "Si O2"
_cell_formula_units_Z 40
_cell_length_a 9.758398
_cell_length_b 24.088082
_cell_length_c 8.224584
_cell_angle_alpha 90.000000
_cell_angle_beta 112.005194
_cell_angle_gamma 90.000000
_cell_volume 1792.440055
_symmetry_space_group_name_H-M "C 2/M"
_symmetry_group_IT_number 12
_symmetry_cell_setting 'monoclinic'
loop_
_space_group_symop_operation_xyz
x,y,z
-x,y,-z
-x,-y,-z
x,-y,z
1/2+x,1/2+y,z
1/2-x,1/2+y,-z
1/2-x,1/2-y,-z
1/2+x,1/2-y,z
loop_
_atom_site_type_symbol
_atom_site_label
_atom_site_fract_x
_atom_site_fract_y
_atom_site_fract_z
Si Si1 0.933661 0.564433 0.804025
Si Si2 0.039274 0.776741 0.703224
Si Si3 0.500000 0.873991 0.500000
Si Si4 0.238184 0.188432 0.230187
Si Si5 0.403586 0.407356 0.297796
Si Si6 0.000000 0.103088 0.000000
O O1 0.977778 0.500000 0.815373
O O2 0.985601 0.592845 0.661618
O O3 0.758439 0.570062 0.744183
O O4 0.000000 0.589174 0.000000
O O5 0.154017 0.730683 0.814110
O O6 0.097384 0.840037 0.723737
O O7 0.000000 0.763724 0.500000
O O8 0.889476 0.776515 0.738777
O O9 0.654212 0.841131 0.591768
O O10 0.144931 0.141931 0.093353
O O11 0.500000 0.419631 0.500000
O O12 0.472292 0.427993 0.157433
#
# Coordination Sequence:
#
# PCOD9198525 Si02
#       6
#     8   8   4   8   8   4
#     4  11  25  44  66  96 127 162 216 276 327 379
#     4  10  20  36  57  92 127 171 212 261 301 387
#     4  12  23  42  70  94 124 180 211 264 320 396
#     4  11  23  35  63  90 133 171 219 252 322 370
#     4  10  22  41  65  88 128 170 212 263 319 379
#     4  10  22  42  57  96 130 170 215 268 306 390
#
# _framework density 22.315949
#
# number of rings (size 3 to 8) (size 9 to 14) (size 15 to 20)
#    0.000    1.400    1.000    5.700    2.800    3.600 
#    1.800    0.500    0.000    0.000    0.000    0.000 
#    0.000    0.000    0.000    0.000    0.000    0.000 
#
# Total GULP energy -111775.899544 kJ/mol
# GULP energy per Si atom -5588.794977 kJ/mol
# Density = 2.226516 g / cm^3
# Si number density = 22.315949 Si / 1000 Ang^3
#
#
#
# Elastic Constant Matrix: (Units=GPa)
#
#
# Indices 1 2 3 4 5 6 
#
# 1 128.0929 18.3090 47.6210 0.0000 -18.0816 0.0000
# 2 18.3090 43.3750 16.2758 0.0000 -4.0369 0.0000
# 3 47.6210 16.2758 153.2492 0.0000 -15.8621 0.0000
# 4 0.0000 0.0000 0.0000 48.1169 0.0000 9.4416
# 5 -18.0816 -4.0369 -15.8621 0.0000 45.1174 0.0000
# 6 0.0000 0.0000 0.0000 9.4416 0.0000 7.3084
#
#
#
# Elastic Compliance Matrix: (Units=1/GPa)
#
#
# Indices 1 2 3 4 5 6 
#
# 1 0.009476 -0.002862 -0.002360 0.000000 0.002712 0.000000
# 2 -0.002862 0.024950 -0.001710 0.000000 0.000484 0.000000
# 3 -0.002360 -0.001710 0.007603 0.000000 0.001574 0.000000
# 4 0.000000 0.000000 0.000000 0.027840 0.000000 -0.035966
# 5 0.002712 0.000484 0.001574 0.000000 0.023848 0.000000
# 6 0.000000 0.000000 0.000000 -0.035966 0.000000 0.183292
#
#
# Mechanical properties :
#
#
# Convention : Reuss Voigt Hill
#
# Bulk Modulus (GPa) = 35.50580 54.34765 44.92673
# Shear Modulus (GPa) = 16.65215 36.27595 26.46405
#
# Velocity S-wave (km/s) = 2.73463 4.03620 3.44740
# Velocity P-wave (km/s) = 5.09077 6.79175 6.00182
#
# Compressibility (1/GPa) = 0.02816441
#
# Stress axis : x y z
#
# Youngs Moduli (GPa) = 105.52871 40.08072 131.52267
#
# Poissons Ratio (x) = 0.11471 0.31039
# Poissons Ratio (y) = 0.30202 0.22495
# Poissons Ratio (z) = 0.24904 0.06855
#
# Static dielectric constant tensor:
#      x y z
#    x 1.784810 0.000000 -0.030850 
#    y 0.000000 1.849660 0.000000 
#    z -0.030850 0.000000 1.896830 
# 
# From -- ./inp_files/41925.got.cif
#   From: 2010.05.17/outbox.cif.g08.bks.cpg/sg12_21_cif.got.tgz:41925.got - 2010.06.03 13:09:07.
