data_PCOD9198392
_publ_section_title
;
Structure prediction by ZEFSAII (Michael W. Deem and Ramdas Pophale) SiO2 
 PCOD9198392
Probable space group: C 2/M
;
_chemical_formula_sum "Si O2"
_cell_formula_units_Z 56
_cell_length_a 30.113086
_cell_length_b 8.779190
_cell_length_c 22.477147
_cell_angle_alpha 90.000000
_cell_angle_beta 149.620972
_cell_angle_gamma 90.000000
_cell_volume 3005.102784
_symmetry_space_group_name_H-M "C 2/M"
_symmetry_group_IT_number 12
_symmetry_cell_setting 'monoclinic'
loop_
_space_group_symop_operation_xyz
x,y,z
-x,y,-z
-x,-y,-z
x,-y,z
1/2+x,1/2+y,z
1/2-x,1/2+y,-z
1/2-x,1/2-y,-z
1/2+x,1/2-y,z
loop_
_atom_site_type_symbol
_atom_site_label
_atom_site_fract_x
_atom_site_fract_y
_atom_site_fract_z
Si Si1 0.506485 0.682983 0.782470
Si Si2 0.471640 0.180964 0.616124
Si Si3 0.356881 0.684546 0.849984
Si Si4 0.478505 0.684785 0.881031
Si Si5 0.714199 0.681889 0.020214
Si Si6 0.663285 0.681875 0.631202
Si Si7 0.366164 0.317930 0.269214
O O1 0.495882 0.500000 0.764926
O O2 0.468396 0.760128 0.679868
O O3 0.467416 0.735645 0.800496
O O4 0.611001 0.713958 0.906028
O O5 0.390223 0.239323 0.483176
O O6 0.558883 0.247814 0.685653
O O7 0.475951 0.000000 0.620265
O O8 0.347424 0.500000 0.840930
O O9 0.403479 0.727269 0.841352
O O10 0.263305 0.761824 0.748240
O O11 0.427244 0.729140 0.982158
O O12 0.479818 0.500000 0.881648
O O13 0.725900 0.500000 0.034018
O O14 0.772642 0.754224 0.139610
O O15 0.750000 0.750000 0.000000
O O16 0.659576 0.500000 0.619634
O O17 0.620944 0.719125 0.646537
O O18 0.367508 0.500000 0.263826
#
# Coordination Sequence:
#
# PCOD9198392 Si02
#       7
#     8   8   8   8   8   8   8
#     4  10  20  36  57  82 116 154 187 224 280 336
#     4  12  25  39  57  80 109 148 194 239 280 333
#     4   9  17  35  62  90 116 142 184 232 276 330
#     4   8  16  33  61  91 116 146 181 226 279 333
#     4  11  21  33  55  84 116 150 185 228 276 329
#     4  11  24  40  58  81 112 149 188 233 286 337
#     4  11  23  39  58  81 112 150 189 233 284 337
#
# _framework density 18.634969999999999
#
# number of rings (size 3 to 8) (size 9 to 14) (size 15 to 20)
#    0.000    1.714    1.429    4.714    0.000    5.714 
#    0.000    3.571    0.000    0.000    0.000    0.000 
#    0.000    0.000    0.000    0.000    0.000    0.000 
#
# Total GULP energy -156453.838448 kJ/mol
# GULP energy per Si atom -5587.637087 kJ/mol
# Density = 1.859256 g / cm^3
# Si number density = 18.634970 Si / 1000 Ang^3
#
#
#
# Elastic Constant Matrix: (Units=GPa)
#
#
# Indices 1 2 3 4 5 6 
#
# 1 95.7683 29.8508 38.2436 0.0000 -37.6905 0.0000
# 2 29.8508 38.7672 23.9474 0.0000 -16.2323 0.0000
# 3 38.2436 23.9474 80.0013 0.0000 -29.2645 0.0000
# 4 0.0000 0.0000 0.0000 21.4379 0.0000 2.2613
# 5 -37.6905 -16.2323 -29.2645 0.0000 30.4378 0.0000
# 6 0.0000 0.0000 0.0000 2.2613 0.0000 17.2869
#
#
#
# Elastic Compliance Matrix: (Units=1/GPa)
#
#
# Indices 1 2 3 4 5 6 
#
# 1 0.021772 -0.007135 0.000305 0.000000 0.023449 0.000000
# 2 -0.007135 0.037098 -0.005690 0.000000 0.005478 0.000000
# 3 0.000305 -0.005690 0.020184 0.000000 0.016750 0.000000
# 4 0.000000 0.000000 0.000000 0.047299 0.000000 -0.006187
# 5 0.023449 0.005478 0.016750 0.000000 0.080916 0.000000
# 6 0.000000 0.000000 0.000000 -0.006187 0.000000 0.058657
#
#
# Mechanical properties :
#
#
# Convention : Reuss Voigt Hill
#
# Bulk Modulus (GPa) = 18.51350 44.29116 31.40233
# Shear Modulus (GPa) = 16.18280 21.99885 19.09083
#
# Velocity S-wave (km/s) = 2.95008 3.43959 3.20419
# Velocity P-wave (km/s) = 4.64331 6.29235 5.52965
#
# Compressibility (1/GPa) = 0.05401463
#
# Stress axis : x y z
#
# Youngs Moduli (GPa) = 45.92953 26.95591 49.54391
#
# Poissons Ratio (x) = 0.19233 -0.01513
# Poissons Ratio (y) = 0.32771 0.28191
# Poissons Ratio (z) = -0.01403 0.15338
#
# Static dielectric constant tensor:
#      x y z
#    x 1.650710 0.000000 -0.017120 
#    y 0.000000 1.621210 0.000000 
#    z -0.017120 0.000000 1.629040 
# 
# From -- ./inp_files/329643.got.cif
#   From: 2010.05.17/outbox.cif.g08.bks.cpg/sg12_165_cif.got.tgz:329643.got - 2010.06.03 13:09:07.
