data_PCOD9198385
_publ_section_title
;
Structure prediction by ZEFSAII (Michael W. Deem and Ramdas Pophale) SiO2 
 PCOD9198385
Probable space group: C 2/M
;
_chemical_formula_sum "Si O2"
_cell_formula_units_Z 64
_cell_length_a 27.272278
_cell_length_b 8.722987
_cell_length_c 13.364201
_cell_angle_alpha 90.000000
_cell_angle_beta 100.877371
_cell_angle_gamma 90.000000
_cell_volume 3122.165084
_symmetry_space_group_name_H-M "C 2/M"
_symmetry_group_IT_number 12
_symmetry_cell_setting 'monoclinic'
loop_
_space_group_symop_operation_xyz
x,y,z
-x,y,-z
-x,-y,-z
x,-y,z
1/2+x,1/2+y,z
1/2-x,1/2+y,-z
1/2-x,1/2-y,-z
1/2+x,1/2-y,z
loop_
_atom_site_type_symbol
_atom_site_label
_atom_site_fract_x
_atom_site_fract_y
_atom_site_fract_z
Si Si1 0.326319 0.316032 0.858571
Si Si2 0.640864 0.684216 0.905219
Si Si3 0.399563 0.820269 0.571128
Si Si4 0.706396 0.823607 0.545344
Si Si5 0.546955 0.177253 0.592973
Si Si6 0.429067 0.317769 0.789991
Si Si7 0.718132 0.683175 0.762370
Si Si8 0.466092 0.184198 0.185568
O O1 0.323398 0.500000 0.843098
O O2 0.378093 0.263698 0.825196
O O3 0.274306 0.245406 0.801355
O O4 0.333283 0.283677 0.978792
O O5 0.634207 0.500000 0.894378
O O6 0.677923 0.736197 0.830536
O O7 0.586091 0.759577 0.880386
O O8 0.340529 0.819675 0.546806
O O9 0.412673 0.753946 0.466430
O O10 0.421851 0.728776 0.671348
O O11 0.416665 0.000000 0.584769
O O12 0.750000 0.750000 0.500000
O O13 0.700002 0.736324 0.646877
O O14 0.716554 0.000000 0.574724
O O15 0.500000 0.179028 0.500000
O O16 0.536608 0.240049 0.698585
O O17 0.561862 0.000000 0.616326
O O18 0.431988 0.500000 0.803252
O O19 0.482483 0.247187 0.841746
O O20 0.720156 0.500000 0.768567
O O21 0.468817 0.000000 0.184850
#
# Coordination Sequence:
#
# PCOD9198385 Si02
#       8
#     8   8   8   8   8   8   8   8
#     4  10  23  43  65  86 116 161 205 249 308 373
#     4  10  23  43  64  89 121 156 199 255 313 365
#     4  10  20  36  57  82 113 153 197 240 286 347
#     4  11  23  38  59  87 124 164 201 242 294 357
#     4   9  16  31  55  80 108 144 185 227 277 338
#     4  11  23  38  58  86 120 159 200 246 301 359
#     4  11  23  40  65  94 123 154 198 258 312 362
#     4  11  22  38  62  89 120 159 202 247 296 360
#
# _framework density 20.498595999999999
#
# number of rings (size 3 to 8) (size 9 to 14) (size 15 to 20)
#    0.000    1.625    1.250    3.375    0.000    7.000 
#    0.000    4.375    0.000    0.000    0.000    0.000 
#    0.000    0.000    0.000    0.000    0.000    0.000 
#
# Total GULP energy -178588.568199 kJ/mol
# GULP energy per Si atom -5580.892756 kJ/mol
# Density = 2.045194 g / cm^3
# Si number density = 20.498596 Si / 1000 Ang^3
#
#
#
# Elastic Constant Matrix: (Units=GPa)
#
#
# Indices 1 2 3 4 5 6 
#
# 1 124.0184 27.4995 10.2842 0.0000 4.0896 0.0000
# 2 27.4995 32.3394 2.1232 0.0000 7.2953 0.0000
# 3 10.2842 2.1232 38.0579 0.0000 9.3216 0.0000
# 4 0.0000 0.0000 0.0000 26.8663 0.0000 3.7537
# 5 4.0896 7.2953 9.3216 0.0000 25.6560 0.0000
# 6 0.0000 0.0000 0.0000 3.7537 0.0000 32.2050
#
#
#
# Elastic Compliance Matrix: (Units=1/GPa)
#
#
# Indices 1 2 3 4 5 6 
#
# 1 0.010207 -0.008929 -0.002726 0.000000 0.001903 0.000000
# 2 -0.008929 0.040862 0.002888 0.000000 -0.011245 0.000000
# 3 -0.002726 0.002888 0.029578 0.000000 -0.011133 0.000000
# 4 0.000000 0.000000 0.000000 0.037837 0.000000 -0.004410
# 5 0.001903 -0.011245 -0.011133 0.000000 0.045917 0.000000
# 6 0.000000 0.000000 0.000000 -0.004410 0.000000 0.031565
#
#
# Mechanical properties :
#
#
# Convention : Reuss Voigt Hill
#
# Bulk Modulus (GPa) = 15.84496 30.46996 23.15746
# Shear Modulus (GPa) = 21.31845 27.24606 24.28226
#
# Velocity S-wave (km/s) = 3.22840 3.64973 3.44551
# Velocity P-wave (km/s) = 4.65223 5.71466 5.21060
#
# Compressibility (1/GPa) = 0.06311156
#
# Stress axis : x y z
#
# Youngs Moduli (GPa) = 97.97590 24.47251 33.80873
#
# Poissons Ratio (x) = 0.21852 0.09216
# Poissons Ratio (y) = 0.87486 -0.09762
# Poissons Ratio (z) = 0.26707 -0.07067
#
# Static dielectric constant tensor:
#      x y z
#    x 1.793380 0.000000 -0.039490 
#    y 0.000000 1.719760 0.000000 
#    z -0.039490 0.000000 1.718730 
# 
# From -- ./inp_files/244082.got.cif
#   From: 2010.05.17/outbox.cif.g08.bks.cpg/sg12_123_cif.got.tgz:244082.got - 2010.06.03 13:09:07.
