data_PCOD9198095
_publ_section_title
;
Structure prediction by ZEFSAII (Michael W. Deem and Ramdas Pophale) SiO2 
 PCOD9198095
Probable space group: C 2/M
;
_chemical_formula_sum "Si O2"
_cell_formula_units_Z 64
_cell_length_a 21.139156
_cell_length_b 7.768089
_cell_length_c 32.592616
_cell_angle_alpha 90.000000
_cell_angle_beta 143.020668
_cell_angle_gamma 90.000000
_cell_volume 3219.408655
_symmetry_space_group_name_H-M "C 2/M"
_symmetry_group_IT_number 12
_symmetry_cell_setting 'monoclinic'
loop_
_space_group_symop_operation_xyz
x,y,z
-x,y,-z
-x,-y,-z
x,-y,z
1/2+x,1/2+y,z
1/2-x,1/2+y,-z
1/2-x,1/2-y,-z
1/2+x,1/2-y,z
loop_
_atom_site_type_symbol
_atom_site_label
_atom_site_fract_x
_atom_site_fract_y
_atom_site_fract_z
Si Si1 0.357659 0.707254 0.578735
Si Si2 0.262357 0.206704 0.053780
Si Si3 0.606259 0.797917 0.574825
Si Si4 0.325181 0.293758 0.653886
Si Si5 0.047127 0.707042 0.793290
Si Si6 0.687186 0.792020 0.789905
Si Si7 0.881114 0.789602 0.945899
Si Si8 0.072676 0.797246 0.649543
O O1 0.367760 0.500000 0.585815
O O2 0.250000 0.750000 0.500000
O O3 0.350060 0.774216 0.621246
O O4 0.461092 0.772239 0.608801
O O5 0.373184 0.268483 0.130225
O O6 0.170730 0.266177 0.037650
O O7 0.262457 0.000000 0.056884
O O8 0.250000 0.250000 0.000000
O O9 0.500000 0.722221 0.500000
O O10 0.715150 0.723944 0.613829
O O11 0.602291 0.784154 0.621687
O O12 0.606873 0.000000 0.563960
O O13 0.316044 0.500000 0.646020
O O14 0.426726 0.259039 0.734215
O O15 0.050704 0.500000 0.794748
O O16 0.097892 0.766151 0.776262
O O17 0.798602 0.739037 0.867447
O O18 0.657258 0.728974 0.729455
O O19 0.685974 0.000000 0.788422
O O20 0.882913 0.000000 0.947041
O O21 0.000000 0.730392 0.000000
O O22 0.061067 0.000000 0.635943
#
# Coordination Sequence:
#
# PCOD9198095 Si02
#       8
#     8   8   8   8   8   8   8   8
#     4  10  21  35  54  81 106 133 173 219 263 310
#     4   9  18  33  53  79 109 141 176 214 263 313
#     4  10  22  40  59  76 103 143 180 219 268 321
#     4  10  20  36  56  79 105 135 178 223 263 313
#     4   9  18  33  54  79 108 143 178 217 265 315
#     4   9  17  32  56  81 106 141 181 218 262 314
#     4   8  15  31  55  80 105 136 179 224 256 298
#     4  11  22  36  55  80 111 141 173 219 270 319
#
# _framework density 19.879427
#
# number of rings (size 3 to 8) (size 9 to 14) (size 15 to 20)
#    0.000    2.500    1.250    2.625    0.000    3.750 
#    2.250    1.875    0.000    0.750    0.000    0.000 
#    0.000    0.000    0.000    0.000    0.000    0.000 
#
# Total GULP energy -178557.478122 kJ/mol
# GULP energy per Si atom -5579.921191 kJ/mol
# Density = 1.983418 g / cm^3
# Si number density = 19.879427 Si / 1000 Ang^3
#
#
#
# Elastic Constant Matrix: (Units=GPa)
#
#
# Indices 1 2 3 4 5 6 
#
# 1 87.4180 -5.2274 61.6393 -0.0003 19.1661 0.0008
# 2 -5.2274 24.2381 -9.2528 0.0000 7.2727 -0.0003
# 3 61.6393 -9.2528 136.8900 -0.0002 16.5639 0.0009
# 4 -0.0003 0.0000 -0.0002 23.0461 0.0000 -1.1831
# 5 19.1661 7.2727 16.5639 0.0000 39.6708 -0.0001
# 6 0.0008 -0.0003 0.0009 -1.1831 -0.0001 12.0818
#
#
#
# Elastic Compliance Matrix: (Units=1/GPa)
#
#
# Indices 1 2 3 4 5 6 
#
# 1 0.018049 0.003046 -0.007160 0.000000 -0.006289 -0.000001
# 2 0.003046 0.046506 0.003140 0.000000 -0.011309 0.000001
# 3 -0.007160 0.003140 0.010946 0.000000 -0.001686 0.000000
# 4 0.000000 0.000000 0.000000 0.043610 0.000000 0.004271
# 5 -0.006289 -0.011309 -0.001686 0.000000 0.031023 0.000001
# 6 -0.000001 0.000001 0.000000 0.004271 0.000001 0.083188
#
#
# Mechanical properties :
#
#
# Convention : Reuss Voigt Hill
#
# Bulk Modulus (GPa) = 13.59564 38.09605 25.84584
# Shear Modulus (GPa) = 19.24648 28.38553 23.81600
#
# Velocity S-wave (km/s) = 3.11490 3.78284 3.46500
# Velocity P-wave (km/s) = 4.44868 6.18748 5.38868
#
# Compressibility (1/GPa) = 0.07355301
#
# Stress axis : x y z
#
# Youngs Moduli (GPa) = 55.40454 21.50246 91.36048
#
# Poissons Ratio (x) = -0.06550 0.65417
# Poissons Ratio (y) = -0.16877 -0.28689
# Poissons Ratio (z) = 0.39672 -0.06752
#
# Static dielectric constant tensor:
#      x y z
#    x 1.685490 0.000000 0.024140 
#    y 0.000000 1.748670 0.000000 
#    z 0.024140 0.000000 1.664190 
# 
# From -- ./inp_files/346309.got.cif
#   From: 2010.05.17/outbox.cif.g08.bks.cpg/sg12_174_cif.got.tgz:346309.got - 2010.06.03 13:09:07.
