data_PCOD9198517
_publ_section_title
;
Structure prediction by ZEFSAII (Michael W. Deem and Ramdas Pophale) SiO2 
 PCOD9198517
Probable space group: C 2/M
;
_chemical_formula_sum "Si O2"
_cell_formula_units_Z 40
_cell_length_a 18.740380
_cell_length_b 19.914406
_cell_length_c 14.012040
_cell_angle_alpha 90.000000
_cell_angle_beta 23.487333
_cell_angle_gamma 90.000000
_cell_volume 2084.135331
_symmetry_space_group_name_H-M "C 2/M"
_symmetry_group_IT_number 12
_symmetry_cell_setting 'monoclinic'
loop_
_space_group_symop_operation_xyz
x,y,z
-x,y,-z
-x,-y,-z
x,-y,z
1/2+x,1/2+y,z
1/2-x,1/2+y,-z
1/2-x,1/2-y,-z
1/2+x,1/2-y,z
loop_
_atom_site_type_symbol
_atom_site_label
_atom_site_fract_x
_atom_site_fract_y
_atom_site_fract_z
Si Si1 0.326143 0.648579 0.914797
Si Si2 0.266110 0.000000 0.217227
Si Si3 0.500000 0.211927 0.000000
Si Si4 0.268681 0.000000 0.998832
Si Si5 0.776533 0.114978 0.576047
Si Si6 0.204615 0.756389 0.214525
Si Si7 0.121690 0.500000 0.662310
O O1 0.288785 0.570067 0.974828
O O2 0.540417 0.655280 0.656329
O O3 0.264842 0.676001 0.886272
O O4 0.234535 0.694969 0.105636
O O5 0.217035 0.934665 0.339463
O O6 0.813134 0.000000 0.792509
O O7 0.477558 0.000000 0.927763
O O8 0.611791 0.164430 0.791972
O O9 0.651290 0.248475 0.877147
O O10 0.484369 0.000000 0.744279
O O11 0.739667 0.065695 0.532695
O O12 0.000000 0.757896 0.500000
#
# Coordination Sequence:
#
# PCOD9198517 Si02
#       7
#     8   4   4   4   8   8   4
#     4  11  24  39  63  93 125 164 207 254 314 369
#     4   9  17  26  52  89 126 151 184 241 326 372
#     4  12  20  37  64  83 122 172 200 248 308 356
#     4  10  20  36  57  90 125 159 200 253 312 370
#     4  11  17  31  55  90 127 155 193 243 307 389
#     4  11  25  45  61  91 126 164 212 257 303 369
#     4   9  17  29  51  92 124 154 190 237 324 376
#
# _framework density 19.192610999999999
#
# number of rings (size 3 to 8) (size 9 to 14) (size 15 to 20)
#    0.600    0.800    4.000    4.200    0.000    1.600 
#    3.600    0.500    0.000    0.600    0.000    0.000 
#    0.000    0.000    0.000    0.000    0.000    0.000 
#
# Total GULP energy -111579.782165 kJ/mol
# GULP energy per Si atom -5578.989108 kJ/mol
# Density = 1.914893 g / cm^3
# Si number density = 19.192611 Si / 1000 Ang^3
#
#
#
# Elastic Constant Matrix: (Units=GPa)
#
#
# Indices 1 2 3 4 5 6 
#
# 1 72.1074 18.4276 44.8256 0.0024 -20.7500 -0.0271
# 2 18.4276 79.7593 27.3608 -0.0110 6.1671 -0.0154
# 3 44.8256 27.3608 47.8669 -0.0403 -9.7009 0.0201
# 4 0.0024 -0.0110 -0.0403 20.4342 0.0181 -10.1529
# 5 -20.7500 6.1671 -9.7009 0.0181 23.5467 0.0075
# 6 -0.0271 -0.0154 0.0201 -10.1529 0.0075 -1.3906
#
#
#
# Elastic Compliance Matrix: (Units=1/GPa)
#
#
# Indices 1 2 3 4 5 6 
#
# 1 0.041997 0.000628 -0.035156 -0.000151 0.022361 -0.000115
# 2 0.000628 0.017321 -0.012325 -0.000048 -0.009061 -0.000082
# 3 -0.035156 -0.012325 0.060266 0.000206 -0.002924 0.000176
# 4 -0.000151 -0.000048 0.000206 0.010576 -0.000019 -0.077209
# 5 0.022361 -0.009061 -0.002924 -0.000019 0.063342 0.000101
# 6 -0.000115 -0.000082 0.000176 -0.077209 0.000101 -0.155395
#
#
# Mechanical properties :
#
#
# Convention : Reuss Voigt Hill
#
# Bulk Modulus (GPa) = 38.64286 42.32908 40.48597
# Shear Modulus (GPa) = 35.60210 15.79270 25.69740
#
# Velocity S-wave (km/s) = 4.31163 2.87165 3.66310
# Velocity P-wave (km/s) = 6.70558 5.75308 6.24751
#
# Compressibility (1/GPa) = 0.02587800
#
# Stress axis : x y z
#
# Youngs Moduli (GPa) = 23.81102 57.73234 16.59298
#
# Poissons Ratio (x) = -0.03625 0.58335
# Poissons Ratio (y) = -0.01495 0.20451
# Poissons Ratio (z) = 0.83711 0.71157
#
# Static dielectric constant tensor:
#      x y z
#    x 1.726850 0.000000 -0.035930 
#    y 0.000000 1.663060 0.000000 
#    z -0.035930 0.000000 1.676070 
# 
# From -- ./inp_files/235160.got.cif
#   From: 2010.05.17/outbox.cif.g08.bks.cpg/sg12_118_cif.got.tgz:235160.got - 2010.06.03 13:09:07.
