data_PCOD9198266
_publ_section_title
;
Structure prediction by ZEFSAII (Michael W. Deem and Ramdas Pophale) SiO2 
 PCOD9198266
Probable space group: C 2/M
;
_chemical_formula_sum "Si O2"
_cell_formula_units_Z 56
_cell_length_a 19.791156
_cell_length_b 7.744045
_cell_length_c 16.031250
_cell_angle_alpha 90.000000
_cell_angle_beta 84.692159
_cell_angle_gamma 90.000000
_cell_volume 2446.471601
_symmetry_space_group_name_H-M "C 2/M"
_symmetry_group_IT_number 12
_symmetry_cell_setting 'monoclinic'
loop_
_space_group_symop_operation_xyz
x,y,z
-x,y,-z
-x,-y,-z
x,-y,z
1/2+x,1/2+y,z
1/2-x,1/2+y,-z
1/2-x,1/2-y,-z
1/2+x,1/2-y,z
loop_
_atom_site_type_symbol
_atom_site_label
_atom_site_fract_x
_atom_site_fract_y
_atom_site_fract_z
Si Si1 0.108153 0.795663 0.132889
Si Si2 0.452131 0.288420 0.581504
Si Si3 0.746936 0.711899 0.205262
Si Si4 0.343984 0.799273 0.331401
Si Si5 0.674614 0.307209 0.489626
Si Si6 0.179270 0.704803 0.962920
Si Si7 0.983415 0.209089 0.249483
O O1 0.173328 0.729160 0.179513
O O2 0.035386 0.730489 0.172083
O O3 0.107807 0.000000 0.149505
O O4 0.122997 0.771823 0.033212
O O5 0.500000 0.232947 0.500000
O O6 0.451148 0.500000 0.580359
O O7 0.376892 0.220916 0.568757
O O8 0.480465 0.239991 0.667735
O O9 0.745776 0.500000 0.204947
O O10 0.775870 0.762452 0.292052
O O11 0.804422 0.768951 0.131737
O O12 0.359625 0.699575 0.414799
O O13 0.407987 0.782516 0.262828
O O14 0.335761 0.000000 0.354933
O O15 0.681622 0.500000 0.457464
O O16 0.750000 0.250000 0.500000
O O17 0.170935 0.500000 0.959661
O O18 0.250000 0.750000 0.000000
O O19 0.977233 0.000000 0.247075
#
# Coordination Sequence:
#
# PCOD9198266 Si02
#       7
#     8   8   8   8   8   8   8
#     4   9  18  33  56  81 105 137 182 224 262 317
#     4   9  17  34  59  78  99 142 188 214 251 320
#     4   8  17  33  54  78 104 142 182 214 259 325
#     4  11  22  37  56  79 111 144 178 221 271 319
#     4  11  23  39  59  82 109 140 180 223 268 319
#     4   9  16  31  54  78 106 137 177 221 264 317
#     4  10  20  36  57  79 106 143 184 222 262 318
#
# _framework density 22.89011
#
# number of rings (size 3 to 8) (size 9 to 14) (size 15 to 20)
#    0.000    2.429    1.429    2.143    2.000    0.571 
#    0.000   10.000    0.000    4.286    0.000    0.000 
#    0.000    0.000    0.000    0.000    0.000    0.000 
#
# Total GULP energy -156183.270054 kJ/mol
# GULP energy per Si atom -5577.973931 kJ/mol
# Density = 2.283801 g / cm^3
# Si number density = 22.890110 Si / 1000 Ang^3
#
#
#
# Elastic Constant Matrix: (Units=GPa)
#
#
# Indices 1 2 3 4 5 6 
#
# 1 87.6835 4.5600 -2.2006 0.0000 -12.7496 0.0000
# 2 4.5600 33.1120 -8.7935 0.0000 0.3987 0.0000
# 3 -2.2006 -8.7935 26.0132 0.0000 -5.3659 0.0000
# 4 0.0000 0.0000 0.0000 16.0445 0.0000 -5.8018
# 5 -12.7496 0.3987 -5.3659 0.0000 47.1638 0.0000
# 6 0.0000 0.0000 0.0000 -5.8018 0.0000 18.7560
#
#
#
# Elastic Compliance Matrix: (Units=1/GPa)
#
#
# Indices 1 2 3 4 5 6 
#
# 1 0.012001 -0.001360 0.001257 0.000000 0.003399 0.000000
# 2 -0.001360 0.033381 0.011300 0.000000 0.000636 0.000000
# 3 0.001257 0.011300 0.043438 0.000000 0.005186 0.000000
# 4 0.000000 0.000000 0.000000 0.070176 0.000000 0.021708
# 5 0.003399 0.000636 0.005186 0.000000 0.022706 0.000000
# 6 0.000000 0.000000 0.000000 0.021708 0.000000 0.060031
#
#
# Mechanical properties :
#
#
# Convention : Reuss Voigt Hill
#
# Bulk Modulus (GPa) = 8.99169 14.88229 11.93699
# Shear Modulus (GPa) = 19.49991 26.60905 23.05448
#
# Velocity S-wave (km/s) = 2.92189 3.41320 3.17705
# Velocity P-wave (km/s) = 3.91407 4.69563 4.32255
#
# Compressibility (1/GPa) = 0.11121378
#
# Stress axis : x y z
#
# Youngs Moduli (GPa) = 83.32566 29.95709 23.02135
#
# Poissons Ratio (x) = 0.04074 -0.02893
# Poissons Ratio (y) = 0.11332 -0.26015
# Poissons Ratio (z) = -0.10471 -0.33852
#
# Static dielectric constant tensor:
#      x y z
#    x 1.885940 0.000000 -0.043700 
#    y 0.000000 1.870070 0.000000 
#    z -0.043700 0.000000 1.883350 
# 
# From -- ./inp_files/230865.got.cif
#   From: 2010.05.17/outbox.cif.g08.bks.cpg/sg12_116_cif.got.tgz:230865.got - 2010.06.03 13:09:07.
