data_PCOD9198265
_publ_section_title
;
Structure prediction by ZEFSAII (Michael W. Deem and Ramdas Pophale) SiO2 
 PCOD9198265
Probable space group: C 2/M
;
_chemical_formula_sum "Si O2"
_cell_formula_units_Z 56
_cell_length_a 18.562568
_cell_length_b 8.742316
_cell_length_c 19.282483
_cell_angle_alpha 90.000000
_cell_angle_beta 104.381281
_cell_angle_gamma 90.000000
_cell_volume 3031.103985
_symmetry_space_group_name_H-M "C 2/M"
_symmetry_group_IT_number 12
_symmetry_cell_setting 'monoclinic'
loop_
_space_group_symop_operation_xyz
x,y,z
-x,y,-z
-x,-y,-z
x,-y,z
1/2+x,1/2+y,z
1/2-x,1/2+y,-z
1/2-x,1/2-y,-z
1/2+x,1/2-y,z
loop_
_atom_site_type_symbol
_atom_site_label
_atom_site_fract_x
_atom_site_fract_y
_atom_site_fract_z
Si Si1 0.410958 0.676439 0.493645
Si Si2 0.808723 0.184962 0.068559
Si Si3 0.260996 0.683359 0.212253
Si Si4 0.524461 0.686375 0.929247
Si Si5 0.455908 0.685280 0.650669
Si Si6 0.617769 0.181210 0.655291
Si Si7 0.100860 0.185006 0.210923
O O1 0.500000 0.678219 0.500000
O O2 0.386322 0.500000 0.482883
O O3 0.406552 0.731256 0.572018
O O4 0.374309 0.771844 0.423564
O O5 0.787335 0.230561 0.141556
O O6 0.892278 0.235802 0.069739
O O7 0.807013 0.000000 0.064771
O O8 0.750000 0.250000 0.000000
O O9 0.261851 0.500000 0.215374
O O10 0.317818 0.747746 0.282566
O O11 0.178765 0.744600 0.207133
O O12 0.524957 0.500000 0.929631
O O13 0.464478 0.733050 0.857326
O O14 0.500000 0.736913 0.000000
O O15 0.462799 0.500000 0.649161
O O16 0.538183 0.753519 0.661618
O O17 0.420940 0.727468 0.715794
O O18 0.617900 0.000000 0.661746
O O19 0.106332 0.000000 0.209509
#
# Coordination Sequence:
#
# PCOD9198265 Si02
#       7
#     8   8   8   8   8   8   8
#     4   8  15  30  52  77 106 140 177 221 277 332
#     4  10  21  37  58  83 110 142 178 219 269 322
#     4  11  23  38  54  76 111 149 183 223 274 325
#     4   9  17  31  54  81 107 137 173 214 262 315
#     4   9  18  34  56  80 108 143 180 224 280 333
#     4  11  21  33  54  82 109 141 184 228 269 322
#     4  10  20  36  57  79 106 142 186 229 268 321
#
# _framework density 18.475117000000001
#
# number of rings (size 3 to 8) (size 9 to 14) (size 15 to 20)
#    0.000    2.286    0.000    4.286    0.000    7.714 
#    0.000    1.429    0.000    2.571    0.000    0.000 
#    0.000    0.000    0.000    0.000    0.000    0.000 
#
# Total GULP energy -156295.690105 kJ/mol
# GULP energy per Si atom -5581.988932 kJ/mol
# Density = 1.843307 g / cm^3
# Si number density = 18.475117 Si / 1000 Ang^3
#
#
#
# Elastic Constant Matrix: (Units=GPa)
#
#
# Indices 1 2 3 4 5 6 
#
# 1 149.2699 36.9031 112.4171 0.0000 -2.7507 0.0000
# 2 36.9031 27.8608 45.5488 0.0000 0.0738 0.0000
# 3 112.4171 45.5488 210.3339 0.0000 -6.7185 0.0000
# 4 0.0000 0.0000 0.0000 20.2078 0.0000 6.1030
# 5 -2.7507 0.0738 -6.7185 0.0000 32.0064 0.0000
# 6 0.0000 0.0000 0.0000 6.1030 0.0000 28.1840
#
#
#
# Elastic Compliance Matrix: (Units=1/GPa)
#
#
# Indices 1 2 3 4 5 6 
#
# 1 0.012435 -0.008685 -0.004762 0.000000 0.000089 0.000000
# 2 -0.008685 0.061858 -0.008842 0.000000 -0.002745 0.000000
# 3 -0.004762 -0.008842 0.009264 0.000000 0.001556 0.000000
# 4 0.000000 0.000000 0.000000 0.052949 0.000000 -0.011466
# 5 0.000089 -0.002745 0.001556 0.000000 0.031584 0.000000
# 6 0.000000 0.000000 0.000000 -0.011466 0.000000 0.037964
#
#
# Mechanical properties :
#
#
# Convention : Reuss Voigt Hill
#
# Bulk Modulus (GPa) = 25.65451 86.35586 56.00519
# Shear Modulus (GPa) = 18.96640 28.91936 23.94288
#
# Velocity S-wave (km/s) = 3.20752 3.96070 3.60384
# Velocity P-wave (km/s) = 5.25678 8.23161 6.90627
#
# Compressibility (1/GPa) = 0.03897950
#
# Stress axis : x y z
#
# Youngs Moduli (GPa) = 80.42107 16.16600 107.94374
#
# Poissons Ratio (x) = 0.14040 0.51407
# Poissons Ratio (y) = 0.69843 0.95441
# Poissons Ratio (z) = 0.38299 0.14293
#
# Static dielectric constant tensor:
#      x y z
#    x 1.605930 0.000000 -0.018970 
#    y 0.000000 1.629390 0.000000 
#    z -0.018970 0.000000 1.641210 
# 
# From -- ./inp_files/275496.got.cif
#   From: 2010.05.17/outbox.cif.g08.bks.cpg/sg12_138_cif.got.tgz:275496.got - 2010.06.03 13:09:07.
