data_PCOD9198028
_publ_section_title
;
Structure prediction by ZEFSAII (Michael W. Deem and Ramdas Pophale) SiO2 
 PCOD9198028
Probable space group: C 2/M
;
_chemical_formula_sum "Si O2"
_cell_formula_units_Z 56
_cell_length_a 14.906090
_cell_length_b 21.354932
_cell_length_c 16.713081
_cell_angle_alpha 90.000000
_cell_angle_beta 145.626927
_cell_angle_gamma 90.000000
_cell_volume 3003.608318
_symmetry_space_group_name_H-M "C 2/M"
_symmetry_group_IT_number 12
_symmetry_cell_setting 'monoclinic'
loop_
_space_group_symop_operation_xyz
x,y,z
-x,y,-z
-x,-y,-z
x,-y,z
1/2+x,1/2+y,z
1/2-x,1/2+y,-z
1/2-x,1/2-y,-z
1/2+x,1/2-y,z
loop_
_atom_site_type_symbol
_atom_site_label
_atom_site_fract_x
_atom_site_fract_y
_atom_site_fract_z
Si Si1 0.050676 0.573652 0.628263
Si Si2 0.640141 0.926558 0.354273
Si Si3 0.760135 0.687621 0.819181
Si Si4 0.858773 0.774387 0.692633
Si Si5 0.897617 0.176558 0.543025
Si Si6 0.670192 0.668368 0.160489
Si Si7 0.028709 0.339841 0.886123
O O1 0.093244 0.500000 0.662412
O O2 0.196108 0.617904 0.758291
O O3 0.000000 0.588300 0.500000
O O4 0.913760 0.583511 0.593431
O O5 0.796969 0.885831 0.453482
O O6 0.504180 0.897239 0.196978
O O7 0.660766 0.000000 0.355541
O O8 0.582915 0.672218 0.661442
O O9 0.782728 0.762823 0.837845
O O10 0.887243 0.662696 0.848191
O O11 0.811628 0.661749 0.944097
O O12 0.885268 0.806639 0.627845
O O13 0.696322 0.733487 0.568738
O O14 0.847494 0.821557 0.757523
O O15 0.997682 0.723839 0.813259
O O16 0.500000 0.651117 0.000000
#
# Coordination Sequence:
#
# PCOD9198028 Si02
#       7
#     8   8   8   8   8   8   8
#     4  10  23  40  60  82 113 156 196 234 278 338
#     4  10  22  41  58  80 112 153 197 236 279 338
#     4  10  20  36  55  88 118 146 182 239 294 334
#     4   9  19  34  50  85 113 144 186 231 293 331
#     4  10  21  33  56  83 111 147 187 245 280 334
#     4  11  21  35  56  85 119 152 184 231 285 344
#     4   9  19  38  55  80 119 148 182 229 287 349
#
# _framework density 18.644241999999998
#
# number of rings (size 3 to 8) (size 9 to 14) (size 15 to 20)
#    0.000    2.143    2.857    0.857    8.000    6.571 
#    0.000    3.571    0.000    3.429    0.000    0.000 
#    0.000    0.000    0.000    0.000    0.000    0.000 
#
# Total GULP energy -156329.676391 kJ/mol
# GULP energy per Si atom -5583.202728 kJ/mol
# Density = 1.860181 g / cm^3
# Si number density = 18.644242 Si / 1000 Ang^3
#
#
#
# Elastic Constant Matrix: (Units=GPa)
#
#
# Indices 1 2 3 4 5 6 
#
# 1 36.4875 19.2563 24.7530 -0.0004 -8.0392 -0.0002
# 2 19.2563 45.9478 17.9944 -0.0004 6.0118 -0.0002
# 3 24.7530 17.9944 78.8210 -0.0018 -3.9360 -0.0010
# 4 -0.0004 -0.0004 -0.0018 10.4787 -0.0007 0.0162
# 5 -8.0392 6.0118 -3.9360 -0.0007 33.6254 -0.0003
# 6 -0.0002 -0.0002 -0.0010 0.0162 -0.0003 22.7115
#
#
#
# Elastic Compliance Matrix: (Units=1/GPa)
#
#
# Indices 1 2 3 4 5 6 
#
# 1 0.045970 -0.017077 -0.009895 0.000000 0.012886 0.000000
# 2 -0.017077 0.031089 -0.002229 -0.000001 -0.009902 0.000000
# 3 -0.009895 -0.002229 0.016300 0.000002 -0.000059 0.000001
# 4 0.000000 -0.000001 0.000002 0.095432 0.000002 -0.000068
# 5 0.012886 -0.009902 -0.000059 0.000002 0.034584 0.000000
# 6 0.000000 0.000000 0.000001 -0.000068 0.000000 0.044031
#
#
# Mechanical properties :
#
#
# Convention : Reuss Voigt Hill
#
# Bulk Modulus (GPa) = 28.60512 31.69596 30.15054
# Shear Modulus (GPa) = 14.81657 19.97994 17.39826
#
# Velocity S-wave (km/s) = 2.82210 3.27714 3.05810
# Velocity P-wave (km/s) = 5.09852 5.59972 5.35499
#
# Compressibility (1/GPa) = 0.03495877
#
# Stress axis : x y z
#
# Youngs Moduli (GPa) = 21.75316 32.16561 61.34883
#
# Poissons Ratio (x) = 0.54928 0.60702
# Poissons Ratio (y) = 0.37147 0.13676
# Poissons Ratio (z) = 0.21524 0.07170
#
# Static dielectric constant tensor:
#      x y z
#    x 1.676650 0.000000 -0.012160 
#    y 0.000000 1.613100 0.000000 
#    z -0.012160 0.000000 1.661630 
# 
# From -- ./inp_files/272390.got.cif
#   From: 2010.05.17/outbox.cif.g08.bks.cpg/sg12_137_cif.got.tgz:272390.got - 2010.06.03 13:09:07.
