data_PCOD9198488
_publ_section_title
;
Structure prediction by ZEFSAII (Michael W. Deem and Ramdas Pophale) SiO2 
 PCOD9198488
Probable space group: C 2/M
;
_chemical_formula_sum "Si O2"
_cell_formula_units_Z 50
_cell_length_a 21.238943
_cell_length_b 14.159052
_cell_length_c 7.400612
_cell_angle_alpha 90.000000
_cell_angle_beta 59.407240
_cell_angle_gamma 90.000000
_cell_volume 1915.755894
_symmetry_space_group_name_H-M "C 2/M"
_symmetry_group_IT_number 12
_symmetry_cell_setting 'monoclinic'
loop_
_space_group_symop_operation_xyz
x,y,z
-x,y,-z
-x,-y,-z
x,-y,z
1/2+x,1/2+y,z
1/2-x,1/2+y,-z
1/2-x,1/2-y,-z
1/2+x,1/2-y,z
loop_
_atom_site_type_symbol
_atom_site_label
_atom_site_fract_x
_atom_site_fract_y
_atom_site_fract_z
Si Si1 0.078888 0.648021 0.893879
Si Si2 0.772641 0.884975 0.214576
Si Si3 0.832806 0.615423 0.918313
Si Si4 0.557445 0.664757 0.692402
Si Si5 0.757665 0.606545 0.365915
Si Si6 0.099112 0.115162 0.247675
Si Si7 0.000000 0.000000 0.000000
O O1 0.154543 0.601663 0.715022
O O2 0.069422 0.740499 0.785604
O O3 0.000000 0.600090 0.000000
O O4 0.902929 0.656398 0.917113
O O5 0.695237 0.858047 0.236536
O O6 0.837269 0.859315 0.984898
O O7 0.772234 0.000000 0.225399
O O8 0.779926 0.847336 0.406725
O O9 0.838215 0.500000 0.917459
O O10 0.767620 0.646108 0.151326
O O11 0.607782 0.647110 0.442945
O O12 0.476621 0.654086 0.721744
O O13 0.555707 0.581021 0.839494
O O14 0.729311 0.500000 0.386399
O O15 0.091581 0.000000 0.256410
#
# Coordination Sequence:
#
# PCOD9198488 Si02
#       7
#     8   8   8   8   8   8   2
#     4  10  20  36  57  86 121 157 194 246 294 345
#     4   9  17  36  63  90 117 158 195 242 297 357
#     4   8  17  35  58  86 121 154 193 240 284 358
#     4  11  21  39  58  88 116 153 201 253 291 356
#     4   8  17  35  58  89 123 153 193 235 289 362
#     4  10  20  39  62  85 116 154 198 248 306 351
#     4  12  20  38  60  80 118 146 204 256 290 342
#
# _framework density 26.099357999999999
#
# number of rings (size 3 to 8) (size 9 to 14) (size 15 to 20)
#    0.960    1.600    2.400    0.480    0.000    1.280 
#    8.640    1.600    0.000    2.880    0.000    0.000 
#    0.000    0.000    0.000    0.000    0.000    0.000 
#
# Total GULP energy -139384.903265 kJ/mol
# GULP energy per Si atom -5575.396131 kJ/mol
# Density = 2.603995 g / cm^3
# Si number density = 26.099358 Si / 1000 Ang^3
#
#
#
# Elastic Constant Matrix: (Units=GPa)
#
#
# Indices 1 2 3 4 5 6 
#
# 1 95.9336 23.4187 -3.3247 0.0000 10.5597 0.0000
# 2 23.4187 136.8329 12.3669 0.0000 9.4022 0.0000
# 3 -3.3247 12.3669 84.4319 0.0000 4.4977 0.0000
# 4 0.0000 0.0000 0.0000 22.3029 0.0000 -0.0552
# 5 10.5597 9.4022 4.4977 0.0000 47.9456 0.0000
# 6 0.0000 0.0000 0.0000 -0.0552 0.0000 35.7700
#
#
#
# Elastic Compliance Matrix: (Units=1/GPa)
#
#
# Indices 1 2 3 4 5 6 
#
# 1 0.011138 -0.001831 0.000823 0.000000 -0.002171 0.000000
# 2 -0.001831 0.007796 -0.001160 0.000000 -0.001017 0.000000
# 3 0.000823 -0.001160 0.012104 0.000000 -0.001089 0.000000
# 4 0.000000 0.000000 0.000000 0.044837 0.000000 0.000069
# 5 -0.002171 -0.001017 -0.001089 0.000000 0.021637 0.000000
# 6 0.000000 0.000000 0.000000 0.000069 0.000000 0.027956
#
#
# Mechanical properties :
#
#
# Convention : Reuss Voigt Hill
#
# Bulk Modulus (GPa) = 37.45145 42.45781 39.95463
# Shear Modulus (GPa) = 36.04700 40.18618 38.11659
#
# Velocity S-wave (km/s) = 3.72041 3.92821 3.82572
# Velocity P-wave (km/s) = 5.73027 6.07268 5.90396
#
# Compressibility (1/GPa) = 0.02670124
#
# Stress axis : x y z
#
# Youngs Moduli (GPa) = 89.77908 128.26544 82.61614
#
# Poissons Ratio (x) = 0.23492 -0.06795
# Poissons Ratio (y) = 0.16443 0.09583
# Poissons Ratio (z) = -0.07385 0.14878
#
# Static dielectric constant tensor:
#      x y z
#    x 2.145270 0.000000 -0.018240 
#    y 0.000000 1.976170 0.000000 
#    z -0.018240 0.000000 2.069370 
# 
# From -- ./inp_files/104386.got.cif
#   From: 2010.05.17/outbox.cif.g08.bks.cpg/sg12_53_cif.got.tgz:104386.got - 2010.06.03 13:09:07.
