data_PCOD9198079
_publ_section_title
;
Structure prediction by ZEFSAII (Michael W. Deem and Ramdas Pophale) SiO2 
 PCOD9198079
Probable space group: C 2/M
;
_chemical_formula_sum "Si O2"
_cell_formula_units_Z 56
_cell_length_a 19.404301
_cell_length_b 7.495623
_cell_length_c 27.812216
_cell_angle_alpha 90.000000
_cell_angle_beta 142.311324
_cell_angle_gamma 90.000000
_cell_volume 2473.124144
_symmetry_space_group_name_H-M "C 2/M"
_symmetry_group_IT_number 12
_symmetry_cell_setting 'monoclinic'
loop_
_space_group_symop_operation_xyz
x,y,z
-x,y,-z
-x,-y,-z
x,-y,z
1/2+x,1/2+y,z
1/2-x,1/2+y,-z
1/2-x,1/2-y,-z
1/2+x,1/2-y,z
loop_
_atom_site_type_symbol
_atom_site_label
_atom_site_fract_x
_atom_site_fract_y
_atom_site_fract_z
Si Si1 0.603626 0.714298 0.160246
Si Si2 0.600879 0.718119 0.521851
Si Si3 0.327281 0.786968 0.698412
Si Si4 0.117334 0.788160 0.424783
Si Si5 0.724831 0.281375 0.129777
Si Si6 0.649508 0.713524 0.982189
Si Si7 0.023619 0.702896 0.744621
O O1 0.598552 0.500000 0.154077
O O2 0.678864 0.756739 0.248261
O O3 0.655897 0.779099 0.138668
O O4 0.476069 0.780760 0.099531
O O5 0.500000 0.774095 0.500000
O O6 0.604796 0.500000 0.523477
O O7 0.720433 0.780244 0.609167
O O8 0.576029 0.774241 0.453937
O O9 0.444863 0.712860 0.742157
O O10 0.329881 0.000000 0.691906
O O11 0.250000 0.750000 0.500000
O O12 0.054534 0.701409 0.345604
O O13 0.100326 0.000000 0.410626
O O14 0.721637 0.500000 0.129723
O O15 0.676658 0.225625 0.051462
O O16 0.855040 0.220418 0.201623
O O17 0.642832 0.500000 0.980498
O O18 0.750000 0.750000 0.000000
O O19 0.048339 0.500000 0.774043
#
# Coordination Sequence:
#
# PCOD9198079 Si02
#       7
#     8   8   8   8   8   8   8
#     4  10  21  36  56  84 113 141 181 228 269 319
#     4   9  19  35  54  76 106 144 184 222 267 328
#     4  10  20  36  56  78 109 148 184 220 272 330
#     4  11  21  36  58  81 107 142 185 230 275 323
#     4   9  19  36  58  81 111 148 181 219 273 329
#     4  10  20  37  61  84 110 146 184 221 267 323
#     4  10  20  36  56  79 108 143 185 226 269 326
#
# _framework density 22.643426000000002
#
# number of rings (size 3 to 8) (size 9 to 14) (size 15 to 20)
#    0.000    2.143    1.429    1.714    2.000    4.000 
#    0.000    1.429    0.000    3.857    0.000    0.000 
#    0.000    0.000    0.000    0.000    0.000    0.000 
#
# Total GULP energy -156415.804383 kJ/mol
# GULP energy per Si atom -5586.278728 kJ/mol
# Density = 2.259189 g / cm^3
# Si number density = 22.643426 Si / 1000 Ang^3
#
#
#
# Elastic Constant Matrix: (Units=GPa)
#
#
# Indices 1 2 3 4 5 6 
#
# 1 142.1333 0.8769 16.8430 -0.0001 -12.8226 -0.0003
# 2 0.8769 66.4509 -6.8963 -0.0001 4.5688 -0.0014
# 3 16.8430 -6.8963 74.1117 0.0000 -8.5539 0.0001
# 4 -0.0001 -0.0001 0.0000 8.2029 0.0000 -6.4678
# 5 -12.8226 4.5688 -8.5539 0.0000 43.0890 0.0000
# 6 -0.0003 -0.0014 0.0001 -6.4678 0.0000 10.4646
#
#
#
# Elastic Compliance Matrix: (Units=1/GPa)
#
#
# Indices 1 2 3 4 5 6 
#
# 1 0.007390 -0.000386 -0.001491 0.000000 0.001944 0.000000
# 2 -0.000386 0.015294 0.001341 0.000003 -0.001470 0.000004
# 3 -0.001491 0.001341 0.014215 0.000000 0.002236 0.000000
# 4 0.000000 0.000003 0.000000 0.237790 0.000000 0.146970
# 5 0.001944 -0.001470 0.002236 0.000000 0.024386 0.000000
# 6 0.000000 0.000004 0.000000 0.146970 0.000000 0.186397
#
#
# Mechanical properties :
#
#
# Convention : Reuss Voigt Hill
#
# Bulk Modulus (GPa) = 27.91152 33.81588 30.86370
# Shear Modulus (GPa) = 10.03036 30.47612 20.25324
#
# Velocity S-wave (km/s) = 2.10697 3.67265 2.99397
# Velocity P-wave (km/s) = 4.27462 5.74030 5.06080
#
# Compressibility (1/GPa) = 0.03582749
#
# Stress axis : x y z
#
# Youngs Moduli (GPa) = 135.31602 65.38476 70.34874
#
# Poissons Ratio (x) = 0.02523 0.10489
# Poissons Ratio (y) = 0.05222 -0.09435
# Poissons Ratio (z) = 0.20176 -0.08769
#
# Static dielectric constant tensor:
#      x y z
#    x 1.838330 0.000000 0.009240 
#    y 0.000000 1.870870 0.000000 
#    z 0.009240 0.000000 1.804610 
# 
# From -- ./inp_files/363164.got.cif
#   From: 2010.05.17/outbox.cif.g08.bks.cpg/sg12_182_cif.got.tgz:363164.got - 2010.06.03 13:09:07.
