data_PCOD9198936
_publ_section_title
;
Structure prediction by ZEFSAII (Michael W. Deem and Ramdas Pophale) SiO2 
 PCOD9198936
Probable space group: C 2/M
;
_chemical_formula_sum "Si O2"
_cell_formula_units_Z 50
_cell_length_a 14.520963
_cell_length_b 9.200574
_cell_length_c 16.512266
_cell_angle_alpha 90.000000
_cell_angle_beta 101.478789
_cell_angle_gamma 90.000000
_cell_volume 2161.933861
_symmetry_space_group_name_H-M "C 2/M"
_symmetry_group_IT_number 12
_symmetry_cell_setting 'monoclinic'
loop_
_space_group_symop_operation_xyz
x,y,z
-x,y,-z
-x,-y,-z
x,-y,z
1/2+x,1/2+y,z
1/2-x,1/2+y,-z
1/2-x,1/2-y,-z
1/2+x,1/2-y,z
loop_
_atom_site_type_symbol
_atom_site_label
_atom_site_fract_x
_atom_site_fract_y
_atom_site_fract_z
Si Si1 0.612160 0.829922 0.929325
Si Si2 0.108425 0.775642 0.447939
Si Si3 0.771265 0.835202 0.376126
Si Si4 0.500000 0.000000 0.500000
Si Si5 0.553489 0.675562 0.173449
Si Si6 0.941582 0.836022 0.308843
Si Si7 0.217984 0.330021 0.120794
O O1 0.519144 0.732973 0.906964
O O2 0.687316 0.758771 0.880724
O O3 0.592471 0.000000 0.908071
O O4 0.660009 0.824126 0.025911
O O5 0.166774 0.845486 0.530712
O O6 0.181316 0.756060 0.386480
O O7 0.014505 0.844799 0.395766
O O8 0.071117 0.624538 0.476366
O O9 0.844171 0.769530 0.323467
O O10 0.744347 0.000000 0.348440
O O11 0.563071 0.500000 0.174889
O O12 0.500780 0.728958 0.245778
O O13 0.652440 0.752970 0.175354
O O14 0.918139 0.000000 0.279650
O O15 0.235277 0.500000 0.140870
#
# Coordination Sequence:
#
# PCOD9198936 Si02
#       7
#     8   8   8   2   8   8   8
#     4  10  21  39  62  90 119 152 196 245 294 355
#     4  11  21  36  57  83 113 142 184 239 288 336
#     4  10  20  36  59  80 103 145 188 229 282 335
#     4  12  20  36  54  88 118 136 182 254 282 350
#     4  11  23  38  58  85 121 158 199 246 295 352
#     4  10  22  40  56  78 112 151 192 231 278 346
#     4  10  21  39  63  89 118 153 197 244 296 354
#
# _framework density 23.127441000000001
#
# number of rings (size 3 to 8) (size 9 to 14) (size 15 to 20)
#    0.000    1.600    2.400    2.400    0.000    6.400 
#    2.880    1.600    0.000    0.000    0.000    0.000 
#    0.000    0.000    0.000    0.000    0.000    0.000 
#
# Total GULP energy -139423.972439 kJ/mol
# GULP energy per Si atom -5576.958898 kJ/mol
# Density = 2.307480 g / cm^3
# Si number density = 23.127441 Si / 1000 Ang^3
#
#
#
# Elastic Constant Matrix: (Units=GPa)
#
#
# Indices 1 2 3 4 5 6 
#
# 1 133.1690 18.5319 27.6355 0.0000 -36.2810 0.0000
# 2 18.5319 98.6033 11.4245 0.0000 -18.9200 0.0000
# 3 27.6355 11.4245 72.7121 0.0000 -24.4945 0.0000
# 4 0.0000 0.0000 0.0000 10.6427 0.0000 -16.5589
# 5 -36.2810 -18.9200 -24.4945 0.0000 62.2610 0.0000
# 6 0.0000 0.0000 0.0000 -16.5589 0.0000 15.2548
#
#
#
# Elastic Compliance Matrix: (Units=1/GPa)
#
#
# Indices 1 2 3 4 5 6 
#
# 1 0.009198 -0.000662 -0.001907 0.000000 0.004409 0.000000
# 2 -0.000662 0.010846 -0.000544 0.000000 0.002696 0.000000
# 3 -0.001907 -0.000544 0.016292 0.000000 0.005133 0.000000
# 4 0.000000 0.000000 0.000000 -0.136390 0.000000 -0.148050
# 5 0.004409 0.002696 0.005133 0.000000 0.021469 0.000000
# 6 0.000000 0.000000 0.000000 -0.148050 0.000000 -0.095154
#
#
# Mechanical properties :
#
#
# Convention : Reuss Voigt Hill
#
# Bulk Modulus (GPa) = 33.21053 46.62978 39.92015
# Shear Modulus (GPa) = -31.75099 34.09119 1.17010
#
# Velocity S-wave (km/s) = -3.70925 3.84351 0.71206
# Velocity P-wave (km/s) = 1.98839 6.31685 4.23963
#
# Compressibility (1/GPa) = 0.03011093
#
# Stress axis : x y z
#
# Youngs Moduli (GPa) = 108.71708 92.19593 61.37872
#
# Poissons Ratio (x) = 0.06102 0.11704
# Poissons Ratio (y) = 0.07196 0.03341
# Poissons Ratio (z) = 0.20730 0.05019
#
# Static dielectric constant tensor:
#      x y z
#    x 1.866400 0.000000 0.004480 
#    y 0.000000 1.807190 0.000000 
#    z 0.004480 0.000000 1.962260 
# 
# From -- ./inp_files/308396.got.cif
#   From: 2010.05.17/outbox.cif.g08.bks.cpg/sg12_155_cif.got.tgz:308396.got - 2010.06.03 13:09:07.
