data_PCOD9198724
_publ_section_title
;
Structure prediction by ZEFSAII (Michael W. Deem and Ramdas Pophale) SiO2 
 PCOD9198724
Probable space group: C 2/M
;
_chemical_formula_sum "Si O2"
_cell_formula_units_Z 44
_cell_length_a 23.618463
_cell_length_b 18.553273
_cell_length_c 5.293312
_cell_angle_alpha 90.000000
_cell_angle_beta 93.383808
_cell_angle_gamma 90.000000
_cell_volume 2315.484231
_symmetry_space_group_name_H-M "C 2/M"
_symmetry_group_IT_number 12
_symmetry_cell_setting 'monoclinic'
loop_
_space_group_symop_operation_xyz
x,y,z
-x,y,-z
-x,-y,-z
x,-y,z
1/2+x,1/2+y,z
1/2-x,1/2+y,-z
1/2-x,1/2-y,-z
1/2+x,1/2-y,z
loop_
_atom_site_type_symbol
_atom_site_label
_atom_site_fract_x
_atom_site_fract_y
_atom_site_fract_z
Si Si1 0.962475 0.000000 0.236959
Si Si2 0.335027 0.710557 0.146986
Si Si3 0.853089 0.082860 0.812263
Si Si4 0.211491 0.673816 0.191328
Si Si5 0.065569 0.150232 0.562234
Si Si6 0.773968 0.415935 0.324668
O O1 0.934342 0.921292 0.258428
O O2 0.000000 0.000000 0.500000
O O3 0.000000 0.000000 0.000000
O O4 0.272210 0.714879 0.250700
O O5 0.392550 0.712248 0.321961
O O6 0.335705 0.629367 0.045717
O O7 0.332427 0.765006 0.910496
O O8 0.904029 0.121065 0.681195
O O9 0.794124 0.084428 0.638883
O O10 0.866844 0.000000 0.865813
O O11 0.198528 0.628935 0.439126
O O12 0.215333 0.621864 0.944016
O O13 0.000000 0.170726 0.500000
O O14 0.790919 0.500000 0.321909
#
# Coordination Sequence:
#
# PCOD9198724 Si02
#       6
#     4   8   8   8   8   8
#     4  10  24  38  50  70 102 148 194 234 261 289
#     4  10  23  33  54  73 109 147 188 224 274 320
#     4  10  21  34  51  77 107 150 191 229 264 303
#     4  10  21  37  56  80 109 144 178 223 276 334
#     4  11  23  34  50  73 106 146 194 234 262 307
#     4  10  20  36  58  84 111 137 180 224 275 331
#
# _framework density 19.002503000000001
#
# number of rings (size 3 to 8) (size 9 to 14) (size 15 to 20)
#    0.000    1.818    2.727    0.545    8.909    2.909 
#    0.000    0.000    0.000    0.000    0.000    0.000 
#    0.000    4.364    0.000    0.000    0.000    0.000 
#
# Total GULP energy -122669.163341 kJ/mol
# GULP energy per Si atom -5575.871061 kJ/mol
# Density = 1.895925 g / cm^3
# Si number density = 19.002503 Si / 1000 Ang^3
#
#
#
# Elastic Constant Matrix: (Units=GPa)
#
#
# Indices 1 2 3 4 5 6 
#
# 1 71.6693 28.2222 27.2158 0.0000 19.6071 0.0000
# 2 28.2222 65.5016 28.1429 0.0000 26.1579 0.0000
# 3 27.2158 28.1429 86.5238 0.0000 5.7386 0.0000
# 4 0.0000 0.0000 0.0000 42.7423 0.0000 8.7400
# 5 19.6071 26.1579 5.7386 0.0000 33.0069 0.0000
# 6 0.0000 0.0000 0.0000 8.7400 0.0000 26.3456
#
#
#
# Elastic Compliance Matrix: (Units=1/GPa)
#
#
# Indices 1 2 3 4 5 6 
#
# 1 0.019078 -0.003049 -0.004469 0.000000 -0.008139 0.000000
# 2 -0.003049 0.026623 -0.006496 0.000000 -0.018158 0.000000
# 3 -0.004469 -0.006496 0.014728 0.000000 0.005242 0.000000
# 4 0.000000 0.000000 0.000000 0.025099 0.000000 -0.008326
# 5 -0.008139 -0.018158 0.005242 0.000000 0.048610 0.000000
# 6 0.000000 0.000000 0.000000 -0.008326 0.000000 0.040719
#
#
# Mechanical properties :
#
#
# Convention : Reuss Voigt Hill
#
# Bulk Modulus (GPa) = 30.86418 43.42852 37.14635
# Shear Modulus (GPa) = 23.39885 29.75988 26.57937
#
# Velocity S-wave (km/s) = 3.51288 3.96170 3.74402
# Velocity P-wave (km/s) = 5.72111 6.62046 6.18715
#
# Compressibility (1/GPa) = 0.03240002
#
# Stress axis : x y z
#
# Youngs Moduli (GPa) = 52.41776 37.56166 67.89565
#
# Poissons Ratio (x) = 0.11454 0.30344
# Poissons Ratio (y) = 0.15984 0.44105
# Poissons Ratio (z) = 0.23426 0.24400
#
# Static dielectric constant tensor:
#      x y z
#    x 1.681220 0.000000 -0.017600 
#    y 0.000000 1.712340 0.000000 
#    z -0.017600 0.000000 1.704770 
# 
# From -- ./inp_files/20404.got.cif
#   From: 2010.05.17/outbox.cif.g08.bks.cpg/sg12_11_cif.got.tgz:20404.got - 2010.06.03 13:09:07.
