data_PCOD9198560
_publ_section_title
;
Structure prediction by ZEFSAII (Michael W. Deem and Ramdas Pophale) SiO2 
 PCOD9198560
Probable space group: C 2/M
;
_chemical_formula_sum "Si O2"
_cell_formula_units_Z 56
_cell_length_a 20.704678
_cell_length_b 7.432809
_cell_length_c 15.696314
_cell_angle_alpha 90.000000
_cell_angle_beta 63.057413
_cell_angle_gamma 90.000000
_cell_volume 2153.383981
_symmetry_space_group_name_H-M "C 2/M"
_symmetry_group_IT_number 12
_symmetry_cell_setting 'monoclinic'
loop_
_space_group_symop_operation_xyz
x,y,z
-x,y,-z
-x,-y,-z
x,-y,z
1/2+x,1/2+y,z
1/2-x,1/2+y,-z
1/2-x,1/2-y,-z
1/2+x,1/2-y,z
loop_
_atom_site_type_symbol
_atom_site_label
_atom_site_fract_x
_atom_site_fract_y
_atom_site_fract_z
Si Si1 0.917355 0.709131 0.384001
Si Si2 0.704413 0.717455 0.666334
Si Si3 0.859773 0.719302 0.779669
Si Si4 0.978895 0.714820 0.828166
Si Si5 0.371699 0.220117 0.587891
Si Si6 0.096627 0.214714 0.883923
Si Si7 0.287349 0.285559 0.067326
O O1 0.938819 0.500000 0.378268
O O2 0.835951 0.719671 0.395019
O O3 0.967316 0.785272 0.278923
O O4 0.916622 0.784272 0.479566
O O5 0.704170 0.500000 0.667430
O O6 0.787519 0.773730 0.625702
O O7 0.651705 0.775581 0.775512
O O8 0.859472 0.500000 0.781234
O O9 0.894899 0.773797 0.669139
O O10 0.776416 0.775753 0.830863
O O11 0.901767 0.781383 0.839314
O O12 0.976736 0.500000 0.825142
O O13 0.016452 0.751088 0.895865
O O14 0.373602 0.000000 0.584868
O O15 0.135260 0.286309 0.946795
O O16 0.098951 0.000000 0.886895
O O17 0.292052 0.500000 0.069647
O O18 0.250000 0.250000 0.000000
#
# Coordination Sequence:
#
# PCOD9198560 Si02
#       7
#     8   8   8   8   8   8   8
#     4   9  17  26  40  69 102 129 161 204 242 271
#     4   9  15  26  45  66  91 129 170 199 233 285
#     4   9  17  32  52  73  99 132 167 200 241 296
#     4   9  18  31  49  74 104 134 164 201 241 281
#     4   9  15  25  44  68  96 129 167 204 237 278
#     4   9  17  32  53  73  96 131 167 197 239 297
#     4  10  20  36  58  80  98 122 160 205 249 295
#
# _framework density 26.005582
#
# number of rings (size 3 to 8) (size 9 to 14) (size 15 to 20)
#    0.000    2.857    1.429    0.429    0.000    1.143 
#    0.000    4.286    0.000    6.857    0.000    4.000 
#    0.000    0.000    0.000    0.000    0.000    0.000 
#
# Total GULP energy -156354.421537 kJ/mol
# GULP energy per Si atom -5584.086483 kJ/mol
# Density = 2.594639 g / cm^3
# Si number density = 26.005582 Si / 1000 Ang^3
#
#
#
# Elastic Constant Matrix: (Units=GPa)
#
#
# Indices 1 2 3 4 5 6 
#
# 1 188.2317 6.5542 61.5117 0.0000 33.1711 -0.0001
# 2 6.5542 81.2962 -4.1356 0.0001 -0.8425 0.0003
# 3 61.5117 -4.1356 109.2666 0.0000 33.7384 0.0000
# 4 0.0000 0.0001 0.0000 -0.8200 0.0000 4.8603
# 5 33.1711 -0.8425 33.7384 0.0000 45.8725 0.0000
# 6 -0.0001 0.0003 0.0000 4.8603 0.0000 12.1870
#
#
#
# Elastic Compliance Matrix: (Units=1/GPa)
#
#
# Indices 1 2 3 4 5 6 
#
# 1 0.006803 -0.000730 -0.003020 0.000000 -0.002711 0.000000
# 2 -0.000730 0.012404 0.000837 0.000000 0.000140 0.000000
# 3 -0.003020 0.000837 0.013203 0.000000 -0.007511 0.000000
# 4 0.000000 0.000000 0.000000 -0.362543 0.000000 0.144584
# 5 -0.002711 0.000140 -0.007511 0.000000 0.029287 0.000000
# 6 0.000000 0.000000 0.000000 0.144584 0.000000 0.024393
#
#
# Mechanical properties :
#
#
# Convention : Reuss Voigt Hill
#
# Bulk Modulus (GPa) = 37.61723 56.29499 46.95611
# Shear Modulus (GPa) = -19.10100 32.43885 6.66893
#
# Velocity S-wave (km/s) = -2.71310 3.53566 1.60312
# Velocity P-wave (km/s) = 2.16377 6.19372 4.63918
#
# Compressibility (1/GPa) = 0.02658356
#
# Stress axis : x y z
#
# Youngs Moduli (GPa) = 146.99917 80.62170 75.73998
#
# Poissons Ratio (x) = 0.05887 0.22874
# Poissons Ratio (y) = 0.10734 -0.06342
# Poissons Ratio (z) = 0.44395 -0.06750
#
# Static dielectric constant tensor:
#      x y z
#    x 1.754330 0.000000 -0.077300 
#    y 0.000000 2.057500 0.000000 
#    z -0.077300 0.000000 2.082120 
# 
# From -- ./inp_files/280212.got.cif
#   From: 2010.05.17/outbox.cif.g08.bks.cpg/sg12_141_cif.got.tgz:280212.got - 2010.06.03 13:09:07.
