data_PCOD9198523
_publ_section_title
;
Structure prediction by ZEFSAII (Michael W. Deem and Ramdas Pophale) SiO2 
 PCOD9198523
Probable space group: C 2/M
;
_chemical_formula_sum "Si O2"
_cell_formula_units_Z 56
_cell_length_a 13.840718
_cell_length_b 18.668354
_cell_length_c 12.756807
_cell_angle_alpha 90.000000
_cell_angle_beta 56.990054
_cell_angle_gamma 90.000000
_cell_volume 2764.070191
_symmetry_space_group_name_H-M "C 2/M"
_symmetry_group_IT_number 12
_symmetry_cell_setting 'monoclinic'
loop_
_space_group_symop_operation_xyz
x,y,z
-x,y,-z
-x,-y,-z
x,-y,z
1/2+x,1/2+y,z
1/2-x,1/2+y,-z
1/2-x,1/2-y,-z
1/2+x,1/2-y,z
loop_
_atom_site_type_symbol
_atom_site_label
_atom_site_fract_x
_atom_site_fract_y
_atom_site_fract_z
Si Si1 0.563813 0.712988 0.684662
Si Si2 0.176303 0.913982 0.704857
Si Si3 0.290529 0.416040 0.073098
Si Si4 0.101652 0.663353 0.521624
Si Si5 0.484590 0.915549 0.784959
Si Si6 0.809726 0.193790 0.887068
Si Si7 0.404747 0.196383 0.132866
O O1 0.586059 0.629018 0.686303
O O2 0.618888 0.756124 0.555805
O O3 0.426162 0.724635 0.768253
O O4 0.614595 0.750636 0.758793
O O5 0.164560 0.898656 0.836636
O O6 0.294130 0.877703 0.594781
O O7 0.176600 0.000000 0.692260
O O8 0.311171 0.500000 0.044192
O O9 0.151824 0.403527 0.152586
O O10 0.339819 0.371251 0.947354
O O11 0.056504 0.616580 0.646126
O O12 0.000000 0.667580 0.500000
O O13 0.530730 0.872913 0.858161
O O14 0.502427 0.000000 0.783897
O O15 0.712569 0.178005 0.857795
O O16 0.750000 0.250000 0.000000
O O17 0.500000 0.230951 0.000000
#
# Coordination Sequence:
#
# PCOD9198523 Si02
#       7
#     8   8   8   8   8   8   8
#     4  11  26  40  62  92 124 166 209 255 310 380
#     4  11  24  42  65  92 127 166 206 258 316 372
#     4  10  21  35  59  93 124 160 205 252 306 369
#     4  11  22  40  67  93 120 158 212 270 315 356
#     4  10  20  36  57  91 125 156 206 261 316 369
#     4  12  22  38  60  87 127 166 207 254 304 369
#     4  11  21  36  58  88 120 165 204 250 311 359
#
# _framework density 20.259978
#
# number of rings (size 3 to 8) (size 9 to 14) (size 15 to 20)
#    0.000    1.143    4.286    2.571    2.000    2.000 
#    0.000    1.429    0.000    0.429    0.000    0.000 
#    0.000    0.000    0.000    0.000    0.000    0.000 
#
# Total GULP energy -156441.570714 kJ/mol
# GULP energy per Si atom -5587.198954 kJ/mol
# Density = 2.021387 g / cm^3
# Si number density = 20.259978 Si / 1000 Ang^3
#
#
#
# Elastic Constant Matrix: (Units=GPa)
#
#
# Indices 1 2 3 4 5 6 
#
# 1 49.1434 27.3200 -3.5615 0.0000 1.1979 0.0000
# 2 27.3200 92.8107 5.2801 0.0000 6.3006 0.0000
# 3 -3.5615 5.2801 41.6914 0.0000 1.4282 0.0000
# 4 0.0000 0.0000 0.0000 29.4461 0.0000 3.4075
# 5 1.1979 6.3006 1.4282 0.0000 26.3825 0.0000
# 6 0.0000 0.0000 0.0000 3.4075 0.0000 30.3879
#
#
#
# Elastic Compliance Matrix: (Units=1/GPa)
#
#
# Indices 1 2 3 4 5 6 
#
# 1 0.024717 -0.007483 0.003042 0.000000 0.000500 0.000000
# 2 -0.007483 0.013288 -0.002229 0.000000 -0.002713 0.000000
# 3 0.003042 -0.002229 0.024560 0.000000 -0.000935 0.000000
# 4 0.000000 0.000000 0.000000 0.034407 0.000000 -0.003858
# 5 0.000500 -0.002713 -0.000935 0.000000 0.038580 0.000000
# 6 0.000000 0.000000 0.000000 -0.003858 0.000000 0.033340
#
#
# Mechanical properties :
#
#
# Convention : Reuss Voigt Hill
#
# Bulk Modulus (GPa) = 20.31483 26.85807 23.58645
# Shear Modulus (GPa) = 25.17115 27.55044 26.36080
#
# Velocity S-wave (km/s) = 3.52860 3.69161 3.61103
# Velocity P-wave (km/s) = 5.16239 5.60858 5.39010
#
# Compressibility (1/GPa) = 0.04922513
#
# Stress axis : x y z
#
# Youngs Moduli (GPa) = 40.45848 75.25452 40.71661
#
# Poissons Ratio (x) = 0.56311 -0.12386
# Poissons Ratio (y) = 0.30274 0.09077
# Poissons Ratio (z) = -0.12307 0.16776
#
# Static dielectric constant tensor:
#      x y z
#    x 1.730090 0.000000 -0.010250 
#    y 0.000000 1.748740 0.000000 
#    z -0.010250 0.000000 1.754620 
# 
# From -- ./inp_files/146038.got.cif
#   From: 2010.05.17/outbox.cif.g08.bks.cpg/sg12_74_cif.got.tgz:146038.got - 2010.06.03 13:09:07.
