data_PCOD9198270
_publ_section_title
;
Structure prediction by ZEFSAII (Michael W. Deem and Ramdas Pophale) SiO2 
 PCOD9198270
Probable space group: C 2/M
;
_chemical_formula_sum "Si O2"
_cell_formula_units_Z 56
_cell_length_a 19.183916
_cell_length_b 8.883112
_cell_length_c 26.053080
_cell_angle_alpha 90.000000
_cell_angle_beta 40.661052
_cell_angle_gamma 90.000000
_cell_volume 2892.884871
_symmetry_space_group_name_H-M "C 2/M"
_symmetry_group_IT_number 12
_symmetry_cell_setting 'monoclinic'
loop_
_space_group_symop_operation_xyz
x,y,z
-x,y,-z
-x,-y,-z
x,-y,z
1/2+x,1/2+y,z
1/2-x,1/2+y,-z
1/2-x,1/2-y,-z
1/2+x,1/2-y,z
loop_
_atom_site_type_symbol
_atom_site_label
_atom_site_fract_x
_atom_site_fract_y
_atom_site_fract_z
Si Si1 0.073668 0.676204 0.508577
Si Si2 0.386249 0.819570 0.089634
Si Si3 0.778264 0.678563 0.429507
Si Si4 0.325167 0.320443 0.231726
Si Si5 0.043980 0.679658 0.748066
Si Si6 0.161460 0.174925 0.176848
Si Si7 0.103744 0.175665 0.329437
O O1 0.098894 0.500000 0.500085
O O2 0.182081 0.769812 0.446232
O O3 0.000000 0.696957 0.500000
O O4 0.001577 0.734550 0.595763
O O5 0.372955 0.731803 0.150280
O O6 0.286114 0.779665 0.108742
O O7 0.375692 0.000000 0.106111
O O8 0.500000 0.792633 0.000000
O O9 0.779072 0.500000 0.434987
O O10 0.750000 0.750000 0.500000
O O11 0.888510 0.724953 0.340601
O O12 0.315833 0.500000 0.239634
O O13 0.399185 0.258531 0.235733
O O14 0.206963 0.247274 0.299422
O O15 0.052410 0.500000 0.748989
O O16 0.921656 0.728734 0.809169
O O17 0.126457 0.185595 0.256154
O O18 0.153398 0.000000 0.165843
O O19 0.092250 0.000000 0.349636
#
# Coordination Sequence:
#
# PCOD9198270 Si02
#       7
#     8   8   8   8   8   8   8
#     4  11  23  36  52  77 108 142 184 236 289 336
#     4   9  19  39  65  90 118 150 183 223 274 334
#     4  11  24  39  56  78 108 149 194 241 290 341
#     4  11  22  36  58  86 116 149 187 233 281 331
#     4  11  23  38  56  80 112 150 192 234 279 335
#     4   9  19  35  57  84 110 140 179 223 273 328
#     4  10  20  36  57  79 107 144 187 232 279 336
#
# _framework density 19.357838999999998
#
# number of rings (size 3 to 8) (size 9 to 14) (size 15 to 20)
#    0.000    1.714    0.000    5.571    0.000   11.143 
#    0.000    0.714    0.000    0.000    0.000    0.000 
#    0.000    0.000    0.000    0.000    0.000    0.000 
#
# Total GULP energy -156500.572308 kJ/mol
# GULP energy per Si atom -5589.306154 kJ/mol
# Density = 1.931378 g / cm^3
# Si number density = 19.357839 Si / 1000 Ang^3
#
#
#
# Elastic Constant Matrix: (Units=GPa)
#
#
# Indices 1 2 3 4 5 6 
#
# 1 92.1879 29.1424 13.3614 0.0000 -16.0399 0.0000
# 2 29.1424 33.0060 0.9729 0.0000 1.0919 0.0000
# 3 13.3614 0.9729 57.6292 0.0000 -20.3383 0.0000
# 4 0.0000 0.0000 0.0000 22.4401 0.0000 -3.2186
# 5 -16.0399 1.0919 -20.3383 0.0000 26.5088 0.0000
# 6 0.0000 0.0000 0.0000 -3.2186 0.0000 34.4010
#
#
#
# Elastic Compliance Matrix: (Units=1/GPa)
#
#
# Indices 1 2 3 4 5 6 
#
# 1 0.018009 -0.016298 0.000250 0.000000 0.011760 0.000000
# 2 -0.016298 0.045160 -0.001536 0.000000 -0.012900 0.000000
# 3 0.000250 -0.001536 0.023855 0.000000 0.018517 0.000000
# 4 0.000000 0.000000 0.000000 0.045169 0.000000 0.004226
# 5 0.011760 -0.012900 0.018517 0.000000 0.059577 0.000000
# 6 0.000000 0.000000 0.000000 0.004226 0.000000 0.029464
#
#
# Mechanical properties :
#
#
# Convention : Reuss Voigt Hill
#
# Bulk Modulus (GPa) = 19.28423 29.97517 24.62970
# Shear Modulus (GPa) = 18.26898 25.95976 22.11437
#
# Velocity S-wave (km/s) = 3.07539 3.66600 3.38361
# Velocity P-wave (km/s) = 4.75334 5.78254 5.29302
#
# Compressibility (1/GPa) = 0.05185583
#
# Stress axis : x y z
#
# Youngs Moduli (GPa) = 55.52676 22.14372 41.91963
#
# Poissons Ratio (x) = 0.36089 -0.01048
# Poissons Ratio (y) = 0.90496 0.06441
# Poissons Ratio (z) = -0.01388 0.03402
#
# Static dielectric constant tensor:
#      x y z
#    x 1.688480 0.000000 -0.003970 
#    y 0.000000 1.649240 0.000000 
#    z -0.003970 0.000000 1.680010 
# 
# From -- ./inp_files/362972.got.cif
#   From: 2010.05.17/outbox.cif.g08.bks.cpg/sg12_182_cif.got.tgz:362972.got - 2010.06.03 13:09:07.
