data_PCOD9198307
_publ_section_title
;
Structure prediction by ZEFSAII (Michael W. Deem and Ramdas Pophale) SiO2 
 PCOD9198307
Probable space group: C 2/M
;
_chemical_formula_sum "Si O2"
_cell_formula_units_Z 48
_cell_length_a 9.990710
_cell_length_b 30.908371
_cell_length_c 15.489029
_cell_angle_alpha 90.000000
_cell_angle_beta 150.575072
_cell_angle_gamma 90.000000
_cell_volume 2349.785279
_symmetry_space_group_name_H-M "C 2/M"
_symmetry_group_IT_number 12
_symmetry_cell_setting 'monoclinic'
loop_
_space_group_symop_operation_xyz
x,y,z
-x,y,-z
-x,-y,-z
x,-y,z
1/2+x,1/2+y,z
1/2-x,1/2+y,-z
1/2-x,1/2-y,-z
1/2+x,1/2-y,z
loop_
_atom_site_type_symbol
_atom_site_label
_atom_site_fract_x
_atom_site_fract_y
_atom_site_fract_z
Si Si1 0.296799 0.393103 0.208847
Si Si2 0.278053 0.243239 0.616925
Si Si3 0.275429 0.377859 0.802107
Si Si4 0.930745 0.821045 0.154588
Si Si5 0.581236 0.147462 0.251738
Si Si6 0.825809 0.950358 0.694846
O O1 0.393230 0.347721 0.221491
O O2 0.510061 0.428076 0.291587
O O3 0.253040 0.383549 0.285149
O O4 0.000000 0.403711 0.000000
O O5 0.250000 0.250000 0.500000
O O6 0.523400 0.271323 0.795926
O O7 0.298078 0.192938 0.650804
O O8 0.000000 0.260520 0.500000
O O9 0.307877 0.340176 0.749735
O O10 0.006542 0.376882 0.709309
O O11 0.362172 0.420985 0.800293
O O12 0.500000 0.368809 0.000000
O O13 0.673099 0.835941 0.951785
O O14 0.500000 0.949083 0.500000
O O15 0.911546 0.000000 0.753568
#
# Coordination Sequence:
#
# PCOD9198307 Si02
#       6
#     8   8   8   8   8   8
#     4   9  19  37  61  85 109 145 194 237 276 328
#     4  12  24  34  49  80 115 148 194 238 278 326
#     4   9  19  36  59  83 108 146 193 234 279 339
#     4   9  19  37  55  74 109 155 193 228 277 334
#     4  10  20  36  57  80 109 147 191 239 284 322
#     4  10  22  40  61  86 117 151 181 219 285 359
#
# _framework density 20.427398
#
# number of rings (size 3 to 8) (size 9 to 14) (size 15 to 20)
#    0.000    2.167    0.000    3.500    0.000    7.333 
#    0.000    7.500    0.000    2.000    0.000    0.000 
#    0.000    0.000    0.000    0.000    0.000    0.000 
#
# Total GULP energy -133810.213232 kJ/mol
# GULP energy per Si atom -5575.425551 kJ/mol
# Density = 2.038090 g / cm^3
# Si number density = 20.427398 Si / 1000 Ang^3
#
#
#
# Elastic Constant Matrix: (Units=GPa)
#
#
# Indices 1 2 3 4 5 6 
#
# 1 186.8598 61.9603 34.5102 0.0000 -1.5561 0.0000
# 2 61.9603 110.1233 9.2483 0.0000 8.1171 0.0000
# 3 34.5102 9.2483 21.6268 0.0000 2.9540 0.0000
# 4 0.0000 0.0000 0.0000 23.9969 0.0000 3.8957
# 5 -1.5561 8.1171 2.9540 0.0000 19.3148 0.0000
# 6 0.0000 0.0000 0.0000 3.8957 0.0000 3.5004
#
#
#
# Elastic Compliance Matrix: (Units=1/GPa)
#
#
# Indices 1 2 3 4 5 6 
#
# 1 0.009425 -0.004497 -0.013765 0.000000 0.004755 0.000000
# 2 -0.004497 0.011791 0.002921 0.000000 -0.005764 0.000000
# 3 -0.013765 0.002921 0.068710 0.000000 -0.012845 0.000000
# 4 0.000000 0.000000 0.000000 0.050862 0.000000 -0.056606
# 5 0.004755 -0.005764 -0.012845 0.000000 0.056544 0.000000
# 6 0.000000 0.000000 0.000000 -0.056606 0.000000 0.348684
#
#
# Mechanical properties :
#
#
# Convention : Reuss Voigt Hill
#
# Bulk Modulus (GPa) = 16.87964 58.89419 37.88691
# Shear Modulus (GPa) = 8.38302 23.55514 15.96908
#
# Velocity S-wave (km/s) = 2.02798 3.39944 2.79901
# Velocity P-wave (km/s) = 3.71009 6.65596 5.38826
#
# Compressibility (1/GPa) = 0.05924298
#
# Stress axis : x y z
#
# Youngs Moduli (GPa) = 106.10456 84.81371 14.55394
#
# Poissons Ratio (x) = 0.38142 0.20034
# Poissons Ratio (y) = 0.47717 -0.04252
# Poissons Ratio (z) = 1.46057 -0.24778
#
# Static dielectric constant tensor:
#      x y z
#    x 1.772990 0.000000 0.054880 
#    y 0.000000 1.687550 0.000000 
#    z 0.054880 0.000000 1.808700 
# 
# From -- ./inp_files/200222.got.cif
#   From: 2010.05.17/outbox.cif.g08.bks.cpg/sg12_101_cif.got.tgz:200222.got - 2010.06.03 13:09:07.
