data_PCOD9198326
_publ_section_title
;
Structure prediction by ZEFSAII (Michael W. Deem and Ramdas Pophale) SiO2 
 PCOD9198326
Probable space group: C 2/M
;
_chemical_formula_sum "Si O2"
_cell_formula_units_Z 60
_cell_length_a 16.094700
_cell_length_b 24.918668
_cell_length_c 9.339103
_cell_angle_alpha 90.000000
_cell_angle_beta 118.087728
_cell_angle_gamma 90.000000
_cell_volume 3304.407350
_symmetry_space_group_name_H-M "C 2/M"
_symmetry_group_IT_number 12
_symmetry_cell_setting 'monoclinic'
loop_
_space_group_symop_operation_xyz
x,y,z
-x,y,-z
-x,-y,-z
x,-y,z
1/2+x,1/2+y,z
1/2-x,1/2+y,-z
1/2-x,1/2-y,-z
1/2+x,1/2-y,z
loop_
_atom_site_type_symbol
_atom_site_label
_atom_site_fract_x
_atom_site_fract_y
_atom_site_fract_z
Si Si1 0.669799 0.062490 0.782680
Si Si2 0.100100 0.824166 0.037387
Si Si3 0.305811 0.604463 0.658797
Si Si4 0.000000 0.625939 0.500000
Si Si5 0.846419 0.303773 0.526482
Si Si6 0.273726 0.768889 0.760117
Si Si7 0.393457 0.563591 0.438843
Si Si8 0.210154 0.128383 0.884924
O O1 0.739605 0.066864 0.702223
O O2 0.572326 0.089622 0.650762
O O3 0.658603 0.000000 0.814320
O O4 0.718943 0.098534 0.946826
O O5 0.119932 0.869014 0.173481
O O6 0.179975 0.778917 0.113231
O O7 0.119102 0.852000 0.901460
O O8 0.000000 0.800723 0.000000
O O9 0.238941 0.653239 0.552636
O O10 0.355451 0.577921 0.564903
O O11 0.938124 0.664534 0.551173
O O12 0.818283 0.255870 0.394453
O O13 0.843931 0.282546 0.685697
O O14 0.254136 0.820043 0.841695
O O15 0.500000 0.583711 0.500000
O O16 0.394142 0.500000 0.421824
O O17 0.324481 0.588813 0.266042
#
# Coordination Sequence:
#
# PCOD9198326 Si02
#       8
#     8   8   8   4   8   8   8   8
#     4  10  21  38  62  85 114 158 199 242 292 344
#     4  10  21  34  54  83 114 148 188 231 285 344
#     4   9  18  37  57  78 111 149 189 230 289 347
#     4  10  21  38  62  88 118 148 203 248 282 348
#     4   9  19  36  57  85 111 152 189 236 284 344
#     4  10  20  36  57  80 118 153 188 229 291 354
#     4  11  22  36  58  85 112 146 193 242 290 345
#     4  11  22  38  58  83 120 152 190 242 293 345
#
# _framework density 18.157568000000001
#
# number of rings (size 3 to 8) (size 9 to 14) (size 15 to 20)
#    0.000    2.000    1.333    3.000    0.000    2.133 
#    1.200    0.000    0.000    7.200    0.000    0.000 
#    0.000    0.000    0.000    0.000    0.000    0.000 
#
# Total GULP energy -167337.165824 kJ/mol
# GULP energy per Si atom -5577.905527 kJ/mol
# Density = 1.811624 g / cm^3
# Si number density = 18.157568 Si / 1000 Ang^3
#
#
#
# Elastic Constant Matrix: (Units=GPa)
#
#
# Indices 1 2 3 4 5 6 
#
# 1 90.1522 37.2910 43.6606 0.0000 -4.6678 0.0000
# 2 37.2910 99.7555 46.1569 0.0000 -8.4001 0.0000
# 3 43.6606 46.1569 88.8372 0.0000 -10.9489 0.0000
# 4 0.0000 0.0000 0.0000 21.8655 0.0000 -5.7112
# 5 -4.6678 -8.4001 -10.9489 0.0000 21.2789 0.0000
# 6 0.0000 0.0000 0.0000 -5.7112 0.0000 18.9312
#
#
#
# Elastic Compliance Matrix: (Units=1/GPa)
#
#
# Indices 1 2 3 4 5 6 
#
# 1 0.015197 -0.002963 -0.006046 0.000000 -0.000947 0.000000
# 2 -0.002963 0.013840 -0.005489 0.000000 0.001989 0.000000
# 3 -0.006046 -0.005489 0.017777 0.000000 0.005654 0.000000
# 4 0.000000 0.000000 0.000000 0.049646 0.000000 0.014977
# 5 -0.000947 0.001989 0.005654 0.000000 0.050481 0.000000
# 6 0.000000 0.000000 0.000000 0.014977 0.000000 0.057341
#
#
# Mechanical properties :
#
#
# Convention : Reuss Voigt Hill
#
# Bulk Modulus (GPa) = 56.12731 59.21801 57.67266
# Shear Modulus (GPa) = 20.90142 22.52419 21.71280
#
# Velocity S-wave (km/s) = 3.39649 3.52587 3.46178
# Velocity P-wave (km/s) = 6.80881 7.01854 6.91447
#
# Compressibility (1/GPa) = 0.01781664
#
# Stress axis : x y z
#
# Youngs Moduli (GPa) = 65.80179 72.25667 56.25337
#
# Poissons Ratio (x) = 0.21412 0.34011
# Poissons Ratio (y) = 0.19499 0.30878
# Poissons Ratio (z) = 0.39784 0.39662
#
# Static dielectric constant tensor:
#      x y z
#    x 1.616260 0.000000 0.008350 
#    y 0.000000 1.615460 0.000000 
#    z 0.008350 0.000000 1.614710 
# 
# From -- ./inp_files/65920.got.cif
#   From: 2010.05.17/outbox.cif.g08.bks.cpg/sg12_33_cif.got.tgz:65920.got - 2010.06.03 13:09:07.
