data_PCOD9198926
_publ_section_title
;
Structure prediction by ZEFSAII (Michael W. Deem and Ramdas Pophale) SiO2 
 PCOD9198926
Probable space group: C 2/M
;
_chemical_formula_sum "Si O2"
_cell_formula_units_Z 36
_cell_length_a 8.990380
_cell_length_b 20.323112
_cell_length_c 9.067448
_cell_angle_alpha 90.000000
_cell_angle_beta 112.084118
_cell_angle_gamma 90.000000
_cell_volume 1535.186138
_symmetry_space_group_name_H-M "C 2/M"
_symmetry_group_IT_number 12
_symmetry_cell_setting 'monoclinic'
loop_
_space_group_symop_operation_xyz
x,y,z
-x,y,-z
-x,-y,-z
x,-y,z
1/2+x,1/2+y,z
1/2-x,1/2+y,-z
1/2-x,1/2-y,-z
1/2+x,1/2-y,z
loop_
_atom_site_type_symbol
_atom_site_label
_atom_site_fract_x
_atom_site_fract_y
_atom_site_fract_z
Si Si1 0.673421 0.634660 0.552036
Si Si2 0.324983 0.071714 0.357498
Si Si3 0.498710 0.873822 0.175119
Si Si4 0.349019 0.264123 0.217158
Si Si5 0.000000 0.787612 0.000000
O O1 0.500000 0.601400 0.500000
O O2 0.727861 0.628778 0.403375
O O3 0.651054 0.705385 0.621385
O O4 0.824436 0.606805 0.700826
O O5 0.500000 0.072918 0.500000
O O6 0.362862 0.081507 0.200373
O O7 0.252300 0.000000 0.359098
O O8 0.447441 0.802982 0.227244
O O9 0.500000 0.875210 0.000000
O O10 0.429900 0.315132 0.128793
O O11 0.163884 0.250527 0.106833
#
# Coordination Sequence:
#
# PCOD9198926 Si02
#       5
#     8   8   8   8   4
#     4  11  25  40  61  95 130 169 207 260 310 376
#     4   9  22  44  66  89 123 167 212 264 318 365
#     4  11  22  42  66  93 126 167 212 256 310 381
#     4  11  20  37  59  92 130 170 199 246 313 382
#     4  10  20  36  58  90 134 166 196 256 308 370
#
# _framework density 23.449926999999999
#
# number of rings (size 3 to 8) (size 9 to 14) (size 15 to 20)
#    0.000    1.556    3.333    1.333    3.111    5.333 
#    0.000    0.000    0.000    1.333    0.000    0.000 
#    0.000    0.000    0.000    0.000    0.000    0.000 
#
# Total GULP energy -100224.206725 kJ/mol
# GULP energy per Si atom -5568.011485 kJ/mol
# Density = 2.339655 g / cm^3
# Si number density = 23.449927 Si / 1000 Ang^3
#
#
#
# Elastic Constant Matrix: (Units=GPa)
#
#
# Indices 1 2 3 4 5 6 
#
# 1 177.3054 27.4730 75.5261 0.0000 -19.5960 0.0000
# 2 27.4730 50.1362 39.4095 0.0000 -28.8840 0.0000
# 3 75.5261 39.4095 110.3958 0.0000 -13.9722 0.0000
# 4 0.0000 0.0000 0.0000 11.0954 0.0000 -4.0960
# 5 -19.5960 -28.8840 -13.9722 0.0000 54.1143 0.0000
# 6 0.0000 0.0000 0.0000 -4.0960 0.0000 10.6598
#
#
#
# Elastic Compliance Matrix: (Units=1/GPa)
#
#
# Indices 1 2 3 4 5 6 
#
# 1 0.008127 0.001315 -0.005756 0.000000 0.002158 0.000000
# 2 0.001315 0.039960 -0.012824 0.000000 0.018494 0.000000
# 3 -0.005756 -0.012824 0.017000 0.000000 -0.004540 0.000000
# 4 0.000000 0.000000 0.000000 0.105026 0.000000 0.040356
# 5 0.002158 0.018494 -0.004540 0.000000 0.027960 0.000000
# 6 0.000000 0.000000 0.000000 0.040356 0.000000 0.109317
#
#
# Mechanical properties :
#
#
# Convention : Reuss Voigt Hill
#
# Bulk Modulus (GPa) = 32.72664 69.18384 50.95524
# Shear Modulus (GPa) = 14.20033 28.20248 21.20141
#
# Velocity S-wave (km/s) = 2.46348 3.47171 3.01011
# Velocity P-wave (km/s) = 4.69872 6.75553 5.81873
#
# Compressibility (1/GPa) = 0.03055615
#
# Stress axis : x y z
#
# Youngs Moduli (GPa) = 123.05176 25.02499 58.82513
#
# Poissons Ratio (x) = -0.03290 0.33860
# Poissons Ratio (y) = -0.16179 0.75437
# Poissons Ratio (z) = 0.70828 0.32092
#
# Static dielectric constant tensor:
#      x y z
#    x 1.925180 0.000000 -0.049940 
#    y 0.000000 1.987300 0.000000 
#    z -0.049940 0.000000 1.973960 
# 
# From -- ./inp_files/39535.got.cif
#   From: 2010.05.17/outbox.cif.g08.bks.cpg/sg12_20_cif.got.tgz:39535.got - 2010.06.03 13:09:07.
