data_PCOD9198539
_publ_section_title
;
Structure prediction by ZEFSAII (Michael W. Deem and Ramdas Pophale) SiO2 
 PCOD9198539
Probable space group: C 2/M
;
_chemical_formula_sum "Si O2"
_cell_formula_units_Z 64
_cell_length_a 11.962300
_cell_length_b 15.252646
_cell_length_c 27.079588
_cell_angle_alpha 90.000000
_cell_angle_beta 139.031307
_cell_angle_gamma 90.000000
_cell_volume 3239.453225
_symmetry_space_group_name_H-M "C 2/M"
_symmetry_group_IT_number 12
_symmetry_cell_setting 'monoclinic'
loop_
_space_group_symop_operation_xyz
x,y,z
-x,y,-z
-x,-y,-z
x,-y,z
1/2+x,1/2+y,z
1/2-x,1/2+y,-z
1/2-x,1/2-y,-z
1/2+x,1/2-y,z
loop_
_atom_site_type_symbol
_atom_site_label
_atom_site_fract_x
_atom_site_fract_y
_atom_site_fract_z
Si Si1 0.118871 0.099157 0.180000
Si Si2 0.610634 0.293676 0.317189
Si Si3 0.767881 0.339177 0.566980
Si Si4 0.384989 0.901798 0.355404
Si Si5 0.692689 0.601465 0.743162
Si Si6 0.552182 0.599153 0.585612
Si Si7 0.998656 0.721958 0.177634
Si Si8 0.815763 0.899107 0.914403
O O1 0.287762 0.107096 0.270312
O O2 0.999964 0.178977 0.157492
O O3 0.164761 0.108265 0.138134
O O4 0.050901 0.000000 0.165244
O O5 0.647375 0.246207 0.380850
O O6 0.787988 0.334711 0.358164
O O7 0.464076 0.365824 0.275815
O O8 0.546423 0.230593 0.251758
O O9 0.599476 0.333390 0.477306
O O10 0.696049 0.389061 0.591742
O O11 0.917040 0.386338 0.587197
O O12 0.354801 0.000000 0.363767
O O13 0.736399 0.500000 0.767489
O O14 0.628620 0.608143 0.665147
O O15 0.851860 0.667197 0.799435
O O16 0.481504 0.500000 0.557725
O O17 0.824080 0.669544 0.114308
O O18 0.763283 0.000000 0.907860
O O19 0.000000 0.884596 0.000000
#
# Coordination Sequence:
#
# PCOD9198539 Si02
#       8
#     8   8   8   8   8   8   8   8
#     4   9  20  36  57  84 115 148 186 233 278 330
#     4  11  22  37  55  85 113 142 187 243 283 334
#     4  11  20  36  57  76 106 143 193 233 285 340
#     4  10  20  36  58  79 107 148 188 227 280 340
#     4  11  23  39  57  83 117 150 187 237 296 342
#     4  10  22  38  55  80 110 145 188 245 292 340
#     4  11  20  38  61  85 113 152 194 226 279 345
#     4  10  21  37  58  88 120 149 187 234 277 323
#
# _framework density 19.756421
#
# number of rings (size 3 to 8) (size 9 to 14) (size 15 to 20)
#    0.000    1.625    1.250    5.250    0.000    1.500 
#    2.250    0.000    0.000    2.625    0.000    0.875 
#    0.000    0.000    0.000    0.000    0.000    0.000 
#
# Total GULP energy -178747.464723 kJ/mol
# GULP energy per Si atom -5585.858273 kJ/mol
# Density = 1.971145 g / cm^3
# Si number density = 19.756421 Si / 1000 Ang^3
#
#
#
# Elastic Constant Matrix: (Units=GPa)
#
#
# Indices 1 2 3 4 5 6 
#
# 1 65.0500 37.0599 17.0670 0.0000 20.8866 0.0000
# 2 37.0599 114.8736 39.2390 0.0000 23.5997 0.0000
# 3 17.0670 39.2390 20.5080 0.0000 18.7649 0.0000
# 4 0.0000 0.0000 0.0000 5.1706 0.0000 5.2009
# 5 20.8866 23.5997 18.7649 0.0000 22.4360 0.0000
# 6 0.0000 0.0000 0.0000 5.2009 0.0000 35.7572
#
#
#
# Elastic Compliance Matrix: (Units=1/GPa)
#
#
# Indices 1 2 3 4 5 6 
#
# 1 0.049332 -0.074658 0.306575 0.000000 -0.223807 0.000000
# 2 -0.074658 0.203502 -0.830669 0.000000 0.550194 0.000000
# 3 0.306575 -0.830669 3.598579 0.000002 -2.421406 0.000000
# 4 0.000000 0.000000 0.000002 0.226543 -0.000001 -0.032951
# 5 -0.223807 0.550194 -2.421406 -0.000001 1.699391 0.000000
# 6 0.000000 0.000000 0.000000 -0.032951 0.000000 0.032759
#
#
# Mechanical properties :
#
#
# Convention : Reuss Voigt Hill
#
# Bulk Modulus (GPa) = 0.37680 43.01815 21.69748
# Shear Modulus (GPa) = 0.63353 19.81048 10.22201
#
# Velocity S-wave (km/s) = 0.56689 3.17004 2.27711
# Velocity P-wave (km/s) = 0.78717 5.93468 4.23320
#
# Compressibility (1/GPa) = 2.65391072
#
# Stress axis : x y z
#
# Youngs Moduli (GPa) = 20.27067 4.91395 0.27789
#
# Poissons Ratio (x) = 0.36686 -0.08519
# Poissons Ratio (y) = 1.51336 0.23083
# Poissons Ratio (z) = -6.21448 4.08187
#
# Static dielectric constant tensor:
#      x y z
#    x 1.666780 0.000000 -0.013620 
#    y 0.000000 1.739860 0.000000 
#    z -0.013620 0.000000 1.670730 
# 
# From -- ./inp_files/358395.got.cif
#   From: 2010.05.17/outbox.cif.g08.bks.cpg/sg12_180_cif.got.tgz:358395.got - 2010.06.03 13:09:07.
