data_PCOD9198578
_publ_section_title
;
Structure prediction by ZEFSAII (Michael W. Deem and Ramdas Pophale) SiO2 
 PCOD9198578
Probable space group: C 2/M
;
_chemical_formula_sum "Si O2"
_cell_formula_units_Z 64
_cell_length_a 19.864211
_cell_length_b 7.651982
_cell_length_c 31.497629
_cell_angle_alpha 90.000000
_cell_angle_beta 141.124887
_cell_angle_gamma 90.000000
_cell_volume 3004.853686
_symmetry_space_group_name_H-M "C 2/M"
_symmetry_group_IT_number 12
_symmetry_cell_setting 'monoclinic'
loop_
_space_group_symop_operation_xyz
x,y,z
-x,y,-z
-x,-y,-z
x,-y,z
1/2+x,1/2+y,z
1/2-x,1/2+y,-z
1/2-x,1/2-y,-z
1/2+x,1/2-y,z
loop_
_atom_site_type_symbol
_atom_site_label
_atom_site_fract_x
_atom_site_fract_y
_atom_site_fract_z
Si Si1 0.967528 0.713786 0.936092
Si Si2 0.334189 0.214488 0.666798
Si Si3 0.220365 0.207919 0.807906
Si Si4 0.151776 0.291271 0.421952
Si Si5 0.376247 0.209975 0.064815
Si Si6 0.573752 0.206224 0.656048
Si Si7 0.102968 0.200116 0.575660
Si Si8 0.933722 0.710993 0.187627
O O1 0.969276 0.500000 0.936355
O O2 0.049769 0.771535 0.938804
O O3 0.843850 0.771017 0.868959
O O4 0.000000 0.766576 0.000000
O O5 0.331503 0.270825 0.617001
O O6 0.220856 0.279848 0.628244
O O7 0.446890 0.272650 0.741599
O O8 0.336009 0.000000 0.671041
O O9 0.158297 0.273204 0.735638
O O10 0.152753 0.246228 0.817831
O O11 0.225140 0.000000 0.806799
O O12 0.141446 0.500000 0.414399
O O13 0.250000 0.250000 0.500000
O O14 0.039404 0.223739 0.383131
O O15 0.409218 0.274707 0.127970
O O16 0.388307 0.000000 0.070718
O O17 0.250000 0.250000 0.000000
O O18 0.590503 0.299136 0.619819
O O19 0.565869 0.000000 0.642598
O O20 0.000000 0.277280 0.500000
O O21 0.110401 0.000000 0.562854
O O22 0.935192 0.500000 0.186995
#
# Coordination Sequence:
#
# PCOD9198578 Si02
#       8
#     8   8   8   8   8   8   8   8
#     4   9  19  36  59  88 119 152 191 237 286 339
#     4   9  18  35  57  79 110 151 190 232 285 343
#     4  11  22  37  62  89 115 151 198 245 285 341
#     4  10  20  36  58  81 108 147 191 237 289 343
#     4  10  21  37  61  88 117 155 193 233 286 344
#     4  11  23  39  58  83 120 158 190 237 300 355
#     4  10  21  37  60  86 113 149 199 249 288 344
#     4  10  20  37  59  82 115 156 194 235 293 351
#
# _framework density 21.298874999999999
#
# number of rings (size 3 to 8) (size 9 to 14) (size 15 to 20)
#    0.000    2.000    1.250    2.250    1.750    3.750 
#    0.000    2.500    0.000    3.375    0.000    0.000 
#    0.000    0.000    0.000    0.000    0.000    0.000 
#
# Total GULP energy -178539.174524 kJ/mol
# GULP energy per Si atom -5579.349204 kJ/mol
# Density = 2.125040 g / cm^3
# Si number density = 21.298875 Si / 1000 Ang^3
#
#
#
# Elastic Constant Matrix: (Units=GPa)
#
#
# Indices 1 2 3 4 5 6 
#
# 1 206.8407 -4.9829 115.1289 0.0000 13.2701 0.0000
# 2 -4.9829 42.2635 -7.6777 0.0001 1.7323 -0.0004
# 3 115.1289 -7.6777 218.0259 0.0000 8.8316 0.0001
# 4 0.0000 0.0001 0.0000 18.8900 0.0000 0.0656
# 5 13.2701 1.7323 8.8316 0.0000 43.3553 0.0000
# 6 0.0000 -0.0004 0.0001 0.0656 0.0000 17.0237
#
#
#
# Elastic Compliance Matrix: (Units=1/GPa)
#
#
# Indices 1 2 3 4 5 6 
#
# 1 0.006931 0.000221 -0.003595 0.000000 -0.001398 0.000000
# 2 0.000221 0.023876 0.000772 0.000000 -0.001179 0.000000
# 3 -0.003595 0.000772 0.006523 0.000000 -0.000259 0.000000
# 4 0.000000 0.000000 0.000000 0.052939 0.000000 -0.000204
# 5 -0.001398 -0.001179 -0.000259 0.000000 0.023593 0.000000
# 6 0.000000 0.000000 0.000000 -0.000204 0.000000 0.058742
#
#
# Mechanical properties :
#
#
# Convention : Reuss Voigt Hill
#
# Bulk Modulus (GPa) = 31.12894 74.67409 52.90151
# Shear Modulus (GPa) = 26.52286 40.16460 33.34373
#
# Velocity S-wave (km/s) = 3.53267 4.34725 3.96095
# Velocity P-wave (km/s) = 5.59345 7.76752 6.76834
#
# Compressibility (1/GPa) = 0.03212445
#
# Stress axis : x y z
#
# Youngs Moduli (GPa) = 144.28128 41.88366 153.30675
#
# Poissons Ratio (x) = -0.00927 0.55121
# Poissons Ratio (y) = -0.03193 -0.11830
# Poissons Ratio (z) = 0.51876 -0.03232
#
# Static dielectric constant tensor:
#      x y z
#    x 1.648790 0.000000 0.022790 
#    y 0.000000 1.787800 0.000000 
#    z 0.022790 0.000000 1.731130 
# 
# From -- ./inp_files/378337.got.cif
#   From: 2010.05.17/outbox.cif.g08.bks.cpg/sg12_190_cif.got.tgz:378337.got - 2010.06.03 13:09:07.
