data_PCOD9198463
_publ_section_title
;
Structure prediction by ZEFSAII (Michael W. Deem and Ramdas Pophale) SiO2 
 PCOD9198463
Probable space group: C 2/M
;
_chemical_formula_sum "Si O2"
_cell_formula_units_Z 64
_cell_length_a 15.281331
_cell_length_b 28.106912
_cell_length_c 9.625775
_cell_angle_alpha 90.000000
_cell_angle_beta 53.499310
_cell_angle_gamma 90.000000
_cell_volume 3323.417292
_symmetry_space_group_name_H-M "C 2/M"
_symmetry_group_IT_number 12
_symmetry_cell_setting 'monoclinic'
loop_
_space_group_symop_operation_xyz
x,y,z
-x,y,-z
-x,-y,-z
x,-y,z
1/2+x,1/2+y,z
1/2-x,1/2+y,-z
1/2-x,1/2-y,-z
1/2+x,1/2-y,z
loop_
_atom_site_type_symbol
_atom_site_label
_atom_site_fract_x
_atom_site_fract_y
_atom_site_fract_z
Si Si1 0.599371 0.629311 0.987026
Si Si2 0.284923 0.052942 0.776129
Si Si3 0.242432 0.554357 0.775308
Si Si4 0.796159 0.810280 0.346351
Si Si5 0.102466 0.139228 0.300498
Si Si6 0.464314 0.054083 0.843085
Si Si7 0.821132 0.593520 0.444645
Si Si8 0.621777 0.730550 0.445594
O O1 0.698988 0.592875 0.898398
O O2 0.633801 0.671352 0.849676
O O3 0.500000 0.604843 0.000000
O O4 0.570916 0.645204 0.169419
O O5 0.386957 0.054884 0.781933
O O6 0.322129 0.064282 0.585642
O O7 0.237695 0.000000 0.830352
O O8 0.273089 0.500000 0.777958
O O9 0.320212 0.593698 0.766496
O O10 0.245326 0.565334 0.609480
O O11 0.120103 0.560915 0.950965
O O12 0.732703 0.855658 0.472571
O O13 0.705809 0.774111 0.370959
O O14 0.867895 0.787836 0.403864
O O15 0.157651 0.186610 0.312455
O O16 0.000000 0.131535 0.500000
O O17 0.556716 0.093014 0.730881
O O18 0.511260 0.000000 0.809941
O O19 0.500000 0.742110 0.500000
#
# Coordination Sequence:
#
# PCOD9198463 Si02
#       8
#     8   8   8   8   8   8   8   8
#     4  11  23  39  63  90 119 161 207 256 313 368
#     4  10  21  36  55  86 123 159 204 256 308 367
#     4  11  22  38  59  89 124 164 210 253 298 363
#     4  10  23  41  66  96 125 155 207 260 308 384
#     4  11  23  41  65  85 121 167 205 253 315 360
#     4  10  20  36  57  84 125 166 201 250 307 362
#     4  11  21  36  60  89 121 162 203 248 309 371
#     4  10  21  43  70  92 124 164 198 253 322 373
#
# _framework density 19.257287000000002
#
# number of rings (size 3 to 8) (size 9 to 14) (size 15 to 20)
#    0.000    1.500    2.500    3.375    1.750    5.000 
#    0.000    0.000    2.750    0.000    0.000    0.000 
#    0.000    0.000    0.000    0.000    0.000    0.000 
#
# Total GULP energy -178512.686883 kJ/mol
# GULP energy per Si atom -5578.521465 kJ/mol
# Density = 1.921346 g / cm^3
# Si number density = 19.257287 Si / 1000 Ang^3
#
#
#
# Elastic Constant Matrix: (Units=GPa)
#
#
# Indices 1 2 3 4 5 6 
#
# 1 96.3278 22.1089 34.5962 0.0000 18.9542 0.0000
# 2 22.1089 46.5417 23.0541 0.0000 -1.4360 0.0000
# 3 34.5962 23.0541 112.5667 0.0000 23.0303 0.0000
# 4 0.0000 0.0000 0.0000 -9.1743 0.0000 0.2034
# 5 18.9542 -1.4360 23.0303 0.0000 40.3329 0.0000
# 6 0.0000 0.0000 0.0000 0.2034 0.0000 32.8365
#
#
#
# Elastic Compliance Matrix: (Units=1/GPa)
#
#
# Indices 1 2 3 4 5 6 
#
# 1 0.013408 -0.005617 -0.001857 0.000000 -0.005440 0.000000
# 2 -0.005617 0.026889 -0.005114 0.000000 0.006517 0.000000
# 3 -0.001857 -0.005114 0.011731 0.000000 -0.006008 0.000000
# 4 0.000000 0.000000 0.000000 -0.108985 0.000000 0.000675
# 5 -0.005440 0.006517 -0.006008 0.000000 0.031013 0.000000
# 6 0.000000 0.000000 0.000000 0.000675 0.000000 0.030450
#
#
# Mechanical properties :
#
#
# Convention : Reuss Voigt Hill
#
# Bulk Modulus (GPa) = 37.24270 46.10607 41.67438
# Shear Modulus (GPa) = 129.42783 24.51083 76.96933
#
# Velocity S-wave (km/s) = 8.20705 3.57151 6.32896
# Velocity P-wave (km/s) = 10.44936 6.40326 8.66576
#
# Compressibility (1/GPa) = 0.02685090
#
# Stress axis : x y z
#
# Youngs Moduli (GPa) = 74.58228 37.19049 85.24498
#
# Poissons Ratio (x) = 0.20890 0.15833
# Poissons Ratio (y) = 0.41894 0.43593
# Poissons Ratio (z) = 0.13852 0.19019
#
# Static dielectric constant tensor:
#      x y z
#    x 1.716930 0.000000 0.010130 
#    y 0.000000 1.655310 0.000000 
#    z 0.010130 0.000000 1.682520 
# 
# From -- ./inp_files/68234.got.cif
#   From: 2010.05.17/outbox.cif.g08.bks.cpg/sg12_35_cif.got.tgz:68234.got - 2010.06.03 13:09:07.
