data_PCOD9198397
_publ_section_title
;
Structure prediction by ZEFSAII (Michael W. Deem and Ramdas Pophale) SiO2 
 PCOD9198397
Probable space group: C 2/M
;
_chemical_formula_sum "Si O2"
_cell_formula_units_Z 48
_cell_length_a 9.786101
_cell_length_b 10.940394
_cell_length_c 23.197033
_cell_angle_alpha 90.000000
_cell_angle_beta 80.252957
_cell_angle_gamma 90.000000
_cell_volume 2447.711790
_symmetry_space_group_name_H-M "C 2/M"
_symmetry_group_IT_number 12
_symmetry_cell_setting 'monoclinic'
loop_
_space_group_symop_operation_xyz
x,y,z
-x,y,-z
-x,-y,-z
x,-y,z
1/2+x,1/2+y,z
1/2-x,1/2+y,-z
1/2-x,1/2-y,-z
1/2+x,1/2-y,z
loop_
_atom_site_type_symbol
_atom_site_label
_atom_site_fract_x
_atom_site_fract_y
_atom_site_fract_z
Si Si1 0.663612 0.142381 0.974997
Si Si2 0.915401 0.365858 0.674219
Si Si3 0.204301 0.361539 0.835426
Si Si4 0.148442 0.210119 0.646192
Si Si5 0.148752 0.135912 0.519323
Si Si6 0.993156 0.223955 0.769926
O O1 0.686506 0.155637 0.904879
O O2 0.701713 0.000000 0.987925
O O3 0.500000 0.156007 0.000000
O O4 0.750000 0.250000 0.000000
O O5 0.866904 0.500000 0.663827
O O6 0.807193 0.274991 0.652583
O O7 0.069052 0.337454 0.641477
O O8 0.924555 0.339965 0.741503
O O9 0.161137 0.500000 0.823987
O O10 0.107137 0.269324 0.806789
O O11 0.365222 0.345693 0.806879
O O12 0.132103 0.135626 0.589610
O O13 0.069882 0.161415 0.709491
O O14 0.250000 0.250000 0.500000
O O15 0.000000 0.156058 0.500000
O O16 0.199450 0.000000 0.497884
#
# Coordination Sequence:
#
# PCOD9198397 Si02
#       6
#     8   8   8   8   8   8
#     4  10  22  41  64  89 124 167 211 257 306 357
#     4  10  20  36  57  82 117 154 191 236 298 364
#     4  11  22  38  61  89 122 158 201 253 302 361
#     4  10  21  39  60  87 119 156 197 247 305 368
#     4  11  25  43  64  91 122 162 212 259 309 368
#     4  10  20  39  56  88 122 150 195 245 304 369
#
# _framework density 19.610153
#
# number of rings (size 3 to 8) (size 9 to 14) (size 15 to 20)
#    1.000    0.667    1.667    3.000    0.000    2.667 
#    0.000    5.000    0.000    0.000    0.000    0.000 
#    0.000    0.000    0.000    0.000    0.000    0.000 
#
# Total GULP energy -133620.156193 kJ/mol
# GULP energy per Si atom -5567.506508 kJ/mol
# Density = 1.956552 g / cm^3
# Si number density = 19.610153 Si / 1000 Ang^3
#
#
#
# Elastic Constant Matrix: (Units=GPa)
#
#
# Indices 1 2 3 4 5 6 
#
# 1 115.5067 63.0626 42.9643 0.0000 12.4217 0.0000
# 2 63.0626 101.1843 53.9951 0.0000 -1.2400 0.0000
# 3 42.9643 53.9951 100.4859 0.0000 2.8448 0.0000
# 4 0.0000 0.0000 0.0000 16.2359 0.0000 -1.8451
# 5 12.4217 -1.2400 2.8448 0.0000 24.0104 0.0000
# 6 0.0000 0.0000 0.0000 -1.8451 0.0000 13.1028
#
#
#
# Elastic Compliance Matrix: (Units=1/GPa)
#
#
# Indices 1 2 3 4 5 6 
#
# 1 0.014667 -0.008425 -0.001522 0.000000 -0.007843 0.000000
# 2 -0.008425 0.018757 -0.006650 0.000000 0.006115 0.000000
# 3 -0.001522 -0.006650 0.014211 0.000000 -0.001240 0.000000
# 4 0.000000 0.000000 0.000000 0.062593 0.000000 0.008814
# 5 -0.007843 0.006115 -0.001240 0.000000 0.046169 0.000000
# 6 0.000000 0.000000 0.000000 0.008814 0.000000 0.077561
#
#
# Mechanical properties :
#
#
# Convention : Reuss Voigt Hill
#
# Bulk Modulus (GPa) = 69.24644 70.80234 70.02439
# Shear Modulus (GPa) = 18.38470 21.14680 19.76575
#
# Velocity S-wave (km/s) = 3.06520 3.28740 3.17824
# Velocity P-wave (km/s) = 6.92210 7.11285 7.01812
#
# Compressibility (1/GPa) = 0.01444118
#
# Stress axis : x y z
#
# Youngs Moduli (GPa) = 68.18163 53.31246 70.36919
#
# Poissons Ratio (x) = 0.44915 0.10709
# Poissons Ratio (y) = 0.57443 0.46795
# Poissons Ratio (z) = 0.10377 0.35453
#
# Static dielectric constant tensor:
#      x y z
#    x 1.672340 0.000000 -0.019670 
#    y 0.000000 1.702950 0.000000 
#    z -0.019670 0.000000 1.696690 
# 
# From -- ./inp_files/355399.got.cif
#   From: 2010.05.17/outbox.cif.g08.bks.cpg/sg12_178_cif.got.tgz:355399.got - 2010.06.03 13:09:07.
