data_PCOD9198219
_publ_section_title
;
Structure prediction by ZEFSAII (Michael W. Deem and Ramdas Pophale) SiO2 
 PCOD9198219
Probable space group: C 2/M
;
_chemical_formula_sum "Si O2"
_cell_formula_units_Z 56
_cell_length_a 21.014530
_cell_length_b 13.940870
_cell_length_c 18.212189
_cell_angle_alpha 90.000000
_cell_angle_beta 34.811121
_cell_angle_gamma 90.000000
_cell_volume 3045.868609
_symmetry_space_group_name_H-M "C 2/M"
_symmetry_group_IT_number 12
_symmetry_cell_setting 'monoclinic'
loop_
_space_group_symop_operation_xyz
x,y,z
-x,y,-z
-x,-y,-z
x,-y,z
1/2+x,1/2+y,z
1/2-x,1/2+y,-z
1/2-x,1/2-y,-z
1/2+x,1/2-y,z
loop_
_atom_site_type_symbol
_atom_site_label
_atom_site_fract_x
_atom_site_fract_y
_atom_site_fract_z
Si Si1 0.552773 0.692882 0.303263
Si Si2 0.427439 0.111046 0.246722
Si Si3 0.101059 0.607447 0.214965
Si Si4 0.739564 0.609478 0.224652
Si Si5 0.143627 0.887398 0.064265
Si Si6 0.314087 0.611600 0.552207
Si Si7 0.937001 0.250580 0.986660
O O1 0.582285 0.804329 0.286918
O O2 0.623957 0.629979 0.292451
O O3 0.594213 0.663423 0.182825
O O4 0.422261 0.673413 0.433315
O O5 0.505762 0.115104 0.243541
O O6 0.299071 0.136995 0.383570
O O7 0.426682 0.000000 0.221230
O O8 0.479612 0.179957 0.136712
O O9 0.098005 0.500000 0.249799
O O10 0.221932 0.619386 0.062755
O O11 0.775920 0.500000 0.174715
O O12 0.718666 0.619375 0.331058
O O13 0.830954 0.684553 0.109701
O O14 0.114199 0.000000 0.092345
O O15 0.100874 0.833230 0.032309
O O16 0.342119 0.500000 0.510559
O O17 0.000000 0.216070 0.000000
#
# Coordination Sequence:
#
# PCOD9198219 Si02
#       7
#     8   8   8   8   8   8   8
#     4  12  21  38  62  85 118 157 192 232 290 347
#     4  10  20  36  56  86 119 150 188 234 288 344
#     4  10  21  38  61  86 114 146 193 245 287 335
#     4  11  22  36  59  91 119 150 192 239 291 345
#     4  11  23  40  60  86 115 149 197 244 285 340
#     4  10  22  37  56  88 124 154 186 232 289 348
#     4  12  22  37  61  86 115 152 193 239 297 339
#
# _framework density 18.385560000000002
#
# number of rings (size 3 to 8) (size 9 to 14) (size 15 to 20)
#    0.000    1.143    4.286    3.429    0.000    3.714 
#    0.000    0.000    0.000    2.571    0.000    0.000 
#    0.000    0.000    0.000    0.000    0.000    0.000 
#
# Total GULP energy -156446.111276 kJ/mol
# GULP energy per Si atom -5587.361117 kJ/mol
# Density = 1.834371 g / cm^3
# Si number density = 18.385560 Si / 1000 Ang^3
#
#
#
# Elastic Constant Matrix: (Units=GPa)
#
#
# Indices 1 2 3 4 5 6 
#
# 1 83.3024 13.2193 4.6129 0.0000 -19.5406 0.0000
# 2 13.2193 93.6733 30.8417 0.0000 -7.2219 0.0000
# 3 4.6129 30.8417 60.6555 0.0000 -29.4468 0.0000
# 4 0.0000 0.0000 0.0000 19.2935 0.0000 -2.7333
# 5 -19.5406 -7.2219 -29.4468 0.0000 24.5107 0.0000
# 6 0.0000 0.0000 0.0000 -2.7333 0.0000 22.1513
#
#
#
# Elastic Compliance Matrix: (Units=1/GPa)
#
#
# Indices 1 2 3 4 5 6 
#
# 1 0.021901 -0.007290 0.022735 0.000000 0.042626 0.000000
# 2 -0.007290 0.016294 -0.019727 0.000000 -0.024711 0.000000
# 3 0.022735 -0.019727 0.073822 0.000000 0.101002 0.000000
# 4 0.000000 0.000000 0.000000 0.052753 0.000000 0.006509
# 5 0.042626 -0.024711 0.101002 0.000000 0.188843 0.000000
# 6 0.000000 0.000000 0.000000 0.006509 0.000000 0.045947
#
#
# Mechanical properties :
#
#
# Convention : Reuss Voigt Hill
#
# Bulk Modulus (GPa) = 9.66619 37.21990 23.44304
# Shear Modulus (GPa) = 11.29663 25.78824 18.54243
#
# Velocity S-wave (km/s) = 2.48146 3.74924 3.17919
# Velocity P-wave (km/s) = 3.67139 6.24744 5.12394
#
# Compressibility (1/GPa) = 0.10345342
#
# Stress axis : x y z
#
# Youngs Moduli (GPa) = 45.65944 61.37154 13.54604
#
# Poissons Ratio (x) = 0.44739 -0.30797
# Poissons Ratio (y) = 0.33285 0.26723
# Poissons Ratio (z) = -1.03807 1.21070
#
# Static dielectric constant tensor:
#      x y z
#    x 1.636390 0.000000 -0.019120 
#    y 0.000000 1.644220 0.000000 
#    z -0.019120 0.000000 1.605400 
# 
# From -- ./inp_files/156703.got.cif
#   From: 2010.05.17/outbox.cif.g08.bks.cpg/sg12_79_cif.got.tgz:156703.got - 2010.06.03 13:09:07.
