data_PCOD9198291
_publ_section_title
;
Structure prediction by ZEFSAII (Michael W. Deem and Ramdas Pophale) SiO2 
 PCOD9198291
Probable space group: C 2/M
;
_chemical_formula_sum "Si O2"
_cell_formula_units_Z 64
_cell_length_a 19.604396
_cell_length_b 7.462423
_cell_length_c 22.515498
_cell_angle_alpha 90.000000
_cell_angle_beta 49.404016
_cell_angle_gamma 90.000000
_cell_volume 2501.139782
_symmetry_space_group_name_H-M "C 2/M"
_symmetry_group_IT_number 12
_symmetry_cell_setting 'monoclinic'
loop_
_space_group_symop_operation_xyz
x,y,z
-x,y,-z
-x,-y,-z
x,-y,z
1/2+x,1/2+y,z
1/2-x,1/2+y,-z
1/2-x,1/2-y,-z
1/2+x,1/2-y,z
loop_
_atom_site_type_symbol
_atom_site_label
_atom_site_fract_x
_atom_site_fract_y
_atom_site_fract_z
Si Si1 0.880779 0.293078 0.630202
Si Si2 0.508299 0.793930 0.113507
Si Si3 0.685216 0.783593 0.789578
Si Si4 0.335774 0.207463 0.531804
Si Si5 0.652790 0.780626 0.945097
Si Si6 0.552466 0.217518 0.284990
Si Si7 0.663706 0.295733 0.113180
Si Si8 0.856893 0.282878 0.385307
O O1 0.908678 0.500000 0.608000
O O2 0.777405 0.290866 0.711184
O O3 0.882599 0.212624 0.563205
O O4 0.937796 0.218921 0.652715
O O5 0.409736 0.724146 0.185798
O O6 0.584043 0.793581 0.121360
O O7 0.489329 0.000000 0.108176
O O8 0.560371 0.716640 0.026958
O O9 0.670676 0.732714 0.866991
O O10 0.695813 0.000000 0.778573
O O11 0.228180 0.214512 0.602315
O O12 0.348279 0.282178 0.458714
O O13 0.363441 0.000000 0.511566
O O14 0.735740 0.721023 0.939992
O O15 0.653173 0.000000 0.946700
O O16 0.631180 0.290304 0.199903
O O17 0.457059 0.267708 0.310886
O O18 0.558364 0.000000 0.281925
O O19 0.667056 0.500000 0.091452
O O20 0.850996 0.500000 0.387328
#
# Coordination Sequence:
#
# PCOD9198291 Si02
#       8
#     8   8   8   8   8   8   8   8
#     4  10  21  36  55  80 111 144 178 223 273 317
#     4  10  21  36  57  81 106 140 183 227 270 323
#     4  10  20  36  57  80 107 142 183 224 266 319
#     4   9  19  36  57  83 112 142 175 219 271 315
#     4   9  18  36  58  79 104 140 183 224 270 321
#     4  10  21  37  56  79 108 145 185 223 265 318
#     4  11  22  36  55  80 111 143 178 225 274 323
#     4   9  19  36  58  82 109 142 182 220 259 316
#
# _framework density 25.588332999999999
#
# number of rings (size 3 to 8) (size 9 to 14) (size 15 to 20)
#    0.000    2.250    1.250    1.125    1.750    3.500 
#    0.000    3.750    0.000    1.500    0.000    5.250 
#    0.000    0.000    0.000    0.000    0.000    0.000 
#
# Total GULP energy -178877.953343 kJ/mol
# GULP energy per Si atom -5589.936042 kJ/mol
# Density = 2.553009 g / cm^3
# Si number density = 25.588333 Si / 1000 Ang^3
#
#
#
# Elastic Constant Matrix: (Units=GPa)
#
#
# Indices 1 2 3 4 5 6 
#
# 1 115.9147 0.6519 9.0874 -0.0001 -5.3853 -0.0003
# 2 0.6519 82.0148 -0.3478 -0.0009 -1.0886 -0.0081
# 3 9.0874 -0.3478 36.1954 -0.0001 -2.5321 0.0003
# 4 -0.0001 -0.0009 -0.0001 7.7327 0.0003 -3.4955
# 5 -5.3853 -1.0886 -2.5321 0.0003 55.7198 0.0003
# 6 -0.0003 -0.0081 0.0003 -3.4955 0.0003 3.6665
#
#
#
# Elastic Compliance Matrix: (Units=1/GPa)
#
#
# Indices 1 2 3 4 5 6 
#
# 1 0.008832 -0.000069 -0.002165 0.000001 0.000754 0.000001
# 2 -0.000069 0.012197 0.000151 0.000024 0.000238 0.000050
# 3 -0.002165 0.000151 0.028248 -0.000001 0.001077 -0.000003
# 4 0.000001 0.000024 -0.000001 0.227266 -0.000002 0.216667
# 5 0.000754 0.000238 0.001077 -0.000002 0.018073 -0.000003
# 6 0.000001 0.000050 -0.000003 0.216667 -0.000003 0.479302
#
#
# Mechanical properties :
#
#
# Convention : Reuss Voigt Hill
#
# Bulk Modulus (GPa) = 22.16762 28.10089 25.13425
# Shear Modulus (GPa) = 6.30419 28.40602 17.35511
#
# Velocity S-wave (km/s) = 1.57132 3.33546 2.60714
# Velocity P-wave (km/s) = 3.46035 5.08325 4.34819
#
# Compressibility (1/GPa) = 0.04511084
#
# Stress axis : x y z
#
# Youngs Moduli (GPa) = 113.22195 81.98551 35.40038
#
# Poissons Ratio (x) = 0.00569 0.07666
# Poissons Ratio (y) = 0.00786 -0.00536
# Poissons Ratio (z) = 0.24517 -0.01240
#
# Static dielectric constant tensor:
#      x y z
#    x 2.025620 0.000000 0.021360 
#    y 0.000000 1.993550 0.000000 
#    z 0.021360 0.000000 2.019750 
# 
# From -- ./inp_files/346027.got.cif
#   From: 2010.05.17/outbox.cif.g08.bks.cpg/sg12_174_cif.got.tgz:346027.got - 2010.06.03 13:09:07.
