data_PCOD9198512
_publ_section_title
;
Structure prediction by ZEFSAII (Michael W. Deem and Ramdas Pophale) SiO2 
 PCOD9198512
Probable space group: C 2/M
;
_chemical_formula_sum "Si O2"
_cell_formula_units_Z 64
_cell_length_a 16.165241
_cell_length_b 16.543462
_cell_length_c 23.794880
_cell_angle_alpha 90.000000
_cell_angle_beta 147.255987
_cell_angle_gamma 90.000000
_cell_volume 3441.900503
_symmetry_space_group_name_H-M "C 2/M"
_symmetry_group_IT_number 12
_symmetry_cell_setting 'monoclinic'
loop_
_space_group_symop_operation_xyz
x,y,z
-x,y,-z
-x,-y,-z
x,-y,z
1/2+x,1/2+y,z
1/2-x,1/2+y,-z
1/2-x,1/2-y,-z
1/2+x,1/2-y,z
loop_
_atom_site_type_symbol
_atom_site_label
_atom_site_fract_x
_atom_site_fract_y
_atom_site_fract_z
Si Si1 0.702703 0.593304 0.778603
Si Si2 0.056823 0.169129 0.301435
Si Si3 0.424382 0.240987 0.117164
Si Si4 0.043212 0.675882 0.689071
Si Si5 0.028813 0.407296 0.240953
Si Si6 0.618739 0.250476 0.115388
Si Si7 0.895475 0.403420 0.495543
Si Si8 0.643083 0.597730 0.615578
O O1 0.752973 0.500000 0.805873
O O2 0.556804 0.604146 0.735333
O O3 0.829181 0.658423 0.868784
O O4 0.655619 0.619494 0.688096
O O5 0.226395 0.134425 0.391213
O O6 0.982793 0.201407 0.201026
O O7 0.047206 0.245668 0.338633
O O8 0.434776 0.150751 0.147347
O O9 0.533484 0.251674 0.126107
O O10 0.250000 0.250000 0.000000
O O11 0.222086 0.700461 0.790594
O O12 0.017224 0.608152 0.721610
O O13 0.978364 0.643276 0.593817
O O14 0.014227 0.500000 0.216832
O O15 0.203691 0.381115 0.329936
O O16 0.500000 0.279021 0.000000
O O17 0.882340 0.500000 0.499930
O O18 0.000000 0.394129 0.500000
O O19 0.500000 0.632049 0.500000
O O20 0.631079 0.500000 0.608491
#
# Coordination Sequence:
#
# PCOD9198512 Si02
#       8
#     8   8   8   8   8   8   8   8
#     4  10  20  36  57  89 123 151 189 234 291 355
#     4  10  22  39  59  87 119 155 194 234 290 351
#     4  11  22  41  63  85 118 154 194 242 291 345
#     4  10  22  39  60  87 116 154 196 240 290 345
#     4  10  20  37  60  89 117 149 198 245 286 337
#     4  11  22  40  62  84 115 154 194 243 292 347
#     4  11  23  40  61  85 119 158 197 240 287 344
#     4   9  18  32  53  85 122 152 182 229 288 344
#
# _framework density 18.594377999999999
#
# number of rings (size 3 to 8) (size 9 to 14) (size 15 to 20)
#    0.000    1.750    1.250    4.125    1.750    0.250 
#    2.250    2.500    0.000    8.250    0.000    0.000 
#    0.000    0.000    0.000    0.000    0.000    0.000 
#
# Total GULP energy -178634.842717 kJ/mol
# GULP energy per Si atom -5582.338835 kJ/mol
# Density = 1.855206 g / cm^3
# Si number density = 18.594378 Si / 1000 Ang^3
#
#
#
# Elastic Constant Matrix: (Units=GPa)
#
#
# Indices 1 2 3 4 5 6 
#
# 1 133.1448 36.9334 69.2944 0.0001 5.7621 0.0000
# 2 36.9334 67.1285 64.4673 0.0002 0.8326 0.0000
# 3 69.2944 64.4673 158.6590 0.0000 10.1018 0.0000
# 4 0.0001 0.0002 0.0000 19.1193 0.0000 5.5901
# 5 5.7621 0.8326 10.1018 0.0000 32.6495 0.0000
# 6 0.0000 0.0000 0.0000 5.5901 0.0000 21.1532
#
#
#
# Elastic Compliance Matrix: (Units=1/GPa)
#
#
# Indices 1 2 3 4 5 6 
#
# 1 0.009914 -0.002177 -0.003405 0.000000 -0.000641 0.000000
# 2 -0.002177 0.025109 -0.009421 0.000000 0.002659 0.000000
# 3 -0.003405 -0.009421 0.011797 0.000000 -0.002809 0.000000
# 4 0.000000 0.000000 0.000000 0.056683 0.000000 -0.014979
# 5 -0.000641 0.002659 -0.002809 0.000000 0.031543 0.000000
# 6 0.000000 0.000000 0.000000 -0.014979 0.000000 0.051233
#
#
# Mechanical properties :
#
#
# Convention : Reuss Voigt Hill
#
# Bulk Modulus (GPa) = 59.47208 77.81360 68.64284
# Shear Modulus (GPa) = 22.53390 27.13356 24.83373
#
# Velocity S-wave (km/s) = 3.48496 3.82414 3.65848
# Velocity P-wave (km/s) = 6.94598 7.83821 7.40554
#
# Compressibility (1/GPa) = 0.01681461
#
# Stress axis : x y z
#
# Youngs Moduli (GPa) = 100.86579 39.82623 84.77026
#
# Poissons Ratio (x) = 0.08671 0.28861
# Poissons Ratio (y) = 0.21959 0.79861
# Poissons Ratio (z) = 0.34341 0.37520
#
# Static dielectric constant tensor:
#      x y z
#    x 1.636140 0.000000 -0.011940 
#    y 0.000000 1.650440 0.000000 
#    z -0.011940 0.000000 1.608690 
# 
# From -- ./inp_files/340840.got.cif
#   From: 2010.05.17/outbox.cif.g08.bks.cpg/sg12_171_cif.got.tgz:340840.got - 2010.06.03 13:09:07.
