data_PCOD9198895
_publ_section_title
;
Structure prediction by ZEFSAII (Michael W. Deem and Ramdas Pophale) SiO2 
 PCOD9198895
Probable space group: C 2/M
;
_chemical_formula_sum "Si O2"
_cell_formula_units_Z 48
_cell_length_a 21.510329
_cell_length_b 9.510839
_cell_length_c 12.088135
_cell_angle_alpha 90.000000
_cell_angle_beta 82.463900
_cell_angle_gamma 90.000000
_cell_volume 2451.645306
_symmetry_space_group_name_H-M "C 2/M"
_symmetry_group_IT_number 12
_symmetry_cell_setting 'monoclinic'
loop_
_space_group_symop_operation_xyz
x,y,z
-x,y,-z
-x,-y,-z
x,-y,z
1/2+x,1/2+y,z
1/2-x,1/2+y,-z
1/2-x,1/2-y,-z
1/2+x,1/2-y,z
loop_
_atom_site_type_symbol
_atom_site_label
_atom_site_fract_x
_atom_site_fract_y
_atom_site_fract_z
Si Si1 0.926616 0.666176 0.543699
Si Si2 0.812712 0.665561 0.962288
Si Si3 0.482584 0.659550 0.125049
Si Si4 0.867014 0.336147 0.194127
Si Si5 0.610169 0.661041 0.233148
Si Si6 0.304207 0.834080 0.423712
O O1 0.924928 0.500000 0.574853
O O2 0.903052 0.764779 0.647896
O O3 0.873878 0.685061 0.460575
O O4 0.000000 0.698052 0.500000
O O5 0.802978 0.500000 0.942910
O O6 0.846183 0.742277 0.852955
O O7 0.750000 0.750000 0.000000
O O8 0.850264 0.677981 0.069151
O O9 0.459332 0.500000 0.112024
O O10 0.429385 0.747816 0.196583
O O11 0.544419 0.655377 0.183551
O O12 0.500000 0.718884 0.000000
O O13 0.879224 0.500000 0.214411
O O14 0.812544 0.293098 0.292602
O O15 0.633750 0.500000 0.238820
O O16 0.250000 0.750000 0.500000
O O17 0.289173 0.000000 0.434188
#
# Coordination Sequence:
#
# PCOD9198895 Si02
#       6
#     8   8   8   8   8   8
#     4  10  22  42  66  91 124 164 210 261 312 368
#     4  11  24  40  60  89 123 160 202 249 306 365
#     4  10  20  36  58  88 123 156 193 240 299 357
#     4  10  22  40  63  89 119 156 201 248 298 363
#     4  11  23  39  62  91 125 160 201 252 304 365
#     4  10  23  42  63  91 122 160 205 254 311 365
#
# _framework density 19.578688
#
# number of rings (size 3 to 8) (size 9 to 14) (size 15 to 20)
#    0.000    1.667    1.667    2.000    2.333    5.333 
#    0.000    0.000    0.000    0.000    0.000    0.000 
#    0.000    0.000    0.000    0.000    0.000    0.000 
#
# Total GULP energy -133984.322361 kJ/mol
# GULP energy per Si atom -5582.680098 kJ/mol
# Density = 1.953413 g / cm^3
# Si number density = 19.578688 Si / 1000 Ang^3
#
#
#
# Elastic Constant Matrix: (Units=GPa)
#
#
# Indices 1 2 3 4 5 6 
#
# 1 61.6170 45.5301 13.1480 0.0000 -26.5178 0.0000
# 2 45.5301 102.9479 65.9428 0.0000 -25.3848 0.0000
# 3 13.1480 65.9428 117.1003 0.0000 -26.9643 0.0000
# 4 0.0000 0.0000 0.0000 34.3339 0.0000 -7.4715
# 5 -26.5178 -25.3848 -26.9643 0.0000 37.5881 0.0000
# 6 0.0000 0.0000 0.0000 -7.4715 0.0000 33.7618
#
#
#
# Elastic Compliance Matrix: (Units=1/GPa)
#
#
# Indices 1 2 3 4 5 6 
#
# 1 0.036126 -0.017624 0.010777 0.000000 0.021314 0.000000
# 2 -0.017624 0.024599 -0.013070 0.000000 -0.005197 0.000000
# 3 0.010777 -0.013070 0.017259 0.000000 0.011157 0.000000
# 4 0.000000 0.000000 0.000000 0.030599 0.000000 0.006772
# 5 0.021314 -0.005197 0.011157 0.000000 0.046135 0.000000
# 6 0.000000 0.000000 0.000000 0.006772 0.000000 0.031118
#
#
# Mechanical properties :
#
#
# Convention : Reuss Voigt Hill
#
# Bulk Modulus (GPa) = 26.21397 58.98966 42.60181
# Shear Modulus (GPa) = 20.97430 31.60638 26.29034
#
# Velocity S-wave (km/s) = 3.27660 4.02223 3.66840
# Velocity P-wave (km/s) = 5.26620 7.19486 6.30472
#
# Compressibility (1/GPa) = 0.03814760
#
# Stress axis : x y z
#
# Youngs Moduli (GPa) = 27.68116 40.65244 57.94090
#
# Poissons Ratio (x) = 0.71647 -0.62440
# Poissons Ratio (y) = 0.48786 0.75730
# Poissons Ratio (z) = -0.29831 0.53134
#
# Static dielectric constant tensor:
#      x y z
#    x 1.719400 0.000000 0.029330 
#    y 0.000000 1.651690 0.000000 
#    z 0.029330 0.000000 1.724270 
# 
# From -- ./inp_files/172940.got.cif
#   From: 2010.05.17/outbox.cif.g08.bks.cpg/sg12_87_cif.got.tgz:172940.got - 2010.06.03 13:09:07.
