data_PCOD9198816
_publ_section_title
;
Structure prediction by ZEFSAII (Michael W. Deem and Ramdas Pophale) SiO2 
 PCOD9198816
Probable space group: C 2/M
;
_chemical_formula_sum "Si O2"
_cell_formula_units_Z 48
_cell_length_a 18.946689
_cell_length_b 11.472734
_cell_length_c 11.379193
_cell_angle_alpha 90.000000
_cell_angle_beta 77.807490
_cell_angle_gamma 90.000000
_cell_volume 2417.705410
_symmetry_space_group_name_H-M "C 2/M"
_symmetry_group_IT_number 12
_symmetry_cell_setting 'monoclinic'
loop_
_space_group_symop_operation_xyz
x,y,z
-x,y,-z
-x,-y,-z
x,-y,z
1/2+x,1/2+y,z
1/2-x,1/2+y,-z
1/2-x,1/2-y,-z
1/2+x,1/2-y,z
loop_
_atom_site_type_symbol
_atom_site_label
_atom_site_fract_x
_atom_site_fract_y
_atom_site_fract_z
Si Si1 0.414441 0.130443 0.544237
Si Si2 0.515021 0.278116 0.127566
Si Si3 0.248328 0.193355 0.183727
Si Si4 0.837570 0.631113 0.922517
Si Si5 0.594799 0.624858 0.311684
Si Si6 0.619855 0.137688 0.715332
O O1 0.500000 0.121097 0.500000
O O2 0.405131 0.251210 0.619239
O O3 0.384764 0.146362 0.423361
O O4 0.390343 0.000000 0.597231
O O5 0.587965 0.201113 0.093725
O O6 0.537638 0.364673 0.224786
O O7 0.446892 0.202990 0.197862
O O8 0.500000 0.322729 0.000000
O O9 0.216251 0.317548 0.156244
O O10 0.176056 0.122049 0.233148
O O11 0.304615 0.191246 0.269033
O O12 0.293536 0.144207 0.058478
O O13 0.856589 0.500000 0.891663
O O14 0.581867 0.500000 0.379009
O O15 0.617419 0.000000 0.747253
#
# Coordination Sequence:
#
# PCOD9198816 Si02
#       6
#     8   8   8   8   8   8
#     4  10  22  42  67  92 120 156 208 266 310 353
#     4  11  22  36  61  96 122 156 209 255 302 363
#     4  10  22  37  56  88 124 163 203 245 309 369
#     4  10  20  36  58  85 125 166 203 249 304 366
#     4  11  24  42  63  88 128 170 203 245 311 381
#     4  11  21  38  63  91 123 157 203 264 311 353
#
# _framework density 19.853535999999998
#
# number of rings (size 3 to 8) (size 9 to 14) (size 15 to 20)
#    0.000    1.500    3.333    2.000    0.000    4.667 
#    0.000    1.667    0.000    0.000    0.000    0.000 
#    0.000    0.000    0.000    0.000    0.000    0.000 
#
# Total GULP energy -133757.973980 kJ/mol
# GULP energy per Si atom -5573.248916 kJ/mol
# Density = 1.980835 g / cm^3
# Si number density = 19.853536 Si / 1000 Ang^3
#
#
#
# Elastic Constant Matrix: (Units=GPa)
#
#
# Indices 1 2 3 4 5 6 
#
# 1 112.0218 16.2025 9.7549 0.0000 29.6049 0.0000
# 2 16.2025 112.4775 34.3290 0.0000 9.3055 0.0000
# 3 9.7549 34.3290 50.7486 0.0000 18.5377 0.0000
# 4 0.0000 0.0000 0.0000 9.6649 0.0000 7.9663
# 5 29.6049 9.3055 18.5377 0.0000 38.4713 0.0000
# 6 0.0000 0.0000 0.0000 7.9663 0.0000 17.8130
#
#
#
# Elastic Compliance Matrix: (Units=1/GPa)
#
#
# Indices 1 2 3 4 5 6 
#
# 1 0.011486 -0.001584 0.002369 0.000000 -0.009597 0.000000
# 2 -0.001584 0.011464 -0.008353 0.000000 0.002471 0.000000
# 3 0.002369 -0.008353 0.030131 0.000000 -0.014322 0.000000
# 4 0.000000 0.000000 0.000000 0.163875 0.000000 -0.073288
# 5 -0.009597 0.002471 -0.014322 0.000000 0.039682 0.000000
# 6 0.000000 0.000000 0.000000 -0.073288 0.000000 0.088915
#
#
# Mechanical properties :
#
#
# Convention : Reuss Voigt Hill
#
# Bulk Modulus (GPa) = 26.35277 43.98009 35.16643
# Shear Modulus (GPa) = 13.39275 27.52059 20.45667
#
# Velocity S-wave (km/s) = 2.60008 3.72718 3.21343
# Velocity P-wave (km/s) = 4.72401 6.38145 5.61423
#
# Compressibility (1/GPa) = 0.03794667
#
# Stress axis : x y z
#
# Youngs Moduli (GPa) = 87.06280 87.23174 33.18801
#
# Poissons Ratio (x) = 0.13814 -0.07863
# Poissons Ratio (y) = 0.13788 0.27721
# Poissons Ratio (z) = -0.20627 0.72862
#
# Static dielectric constant tensor:
#      x y z
#    x 1.609070 0.000000 -0.021750 
#    y 0.000000 1.749590 0.000000 
#    z -0.021750 0.000000 1.709270 
# 
# From -- ./inp_files/153559.got.cif
#   From: 2010.05.17/outbox.cif.g08.bks.cpg/sg12_77_cif.got.tgz:153559.got - 2010.06.03 13:09:07.
