data_PCOD9198826
_publ_section_title
;
Structure prediction by ZEFSAII (Michael W. Deem and Ramdas Pophale) SiO2 
 PCOD9198826
Probable space group: C 2/M
;
_chemical_formula_sum "Si O2"
_cell_formula_units_Z 56
_cell_length_a 19.377646
_cell_length_b 7.491684
_cell_length_c 23.394475
_cell_angle_alpha 90.000000
_cell_angle_beta 46.304796
_cell_angle_gamma 90.000000
_cell_volume 2455.540325
_symmetry_space_group_name_H-M "C 2/M"
_symmetry_group_IT_number 12
_symmetry_cell_setting 'monoclinic'
loop_
_space_group_symop_operation_xyz
x,y,z
-x,y,-z
-x,-y,-z
x,-y,z
1/2+x,1/2+y,z
1/2-x,1/2+y,-z
1/2-x,1/2-y,-z
1/2+x,1/2-y,z
loop_
_atom_site_type_symbol
_atom_site_label
_atom_site_fract_x
_atom_site_fract_y
_atom_site_fract_z
Si Si1 0.929966 0.718531 0.199818
Si Si2 0.720198 0.718188 0.334688
Si Si3 0.468008 0.704254 0.621620
Si Si4 0.317777 0.713996 0.515357
Si Si5 0.766888 0.212067 0.923743
Si Si6 0.440661 0.217967 0.979353
Si Si7 0.961465 0.297274 0.753759
O O1 0.933303 0.500000 0.198662
O O2 0.821386 0.772441 0.249630
O O3 0.006060 0.777206 0.108788
O O4 0.963336 0.778040 0.243607
O O5 0.719345 0.500000 0.332908
O O6 0.624250 0.782055 0.357861
O O7 0.720576 0.772684 0.400950
O O8 0.473996 0.500000 0.597113
O O9 0.573544 0.783532 0.552647
O O10 0.451089 0.703482 0.699215
O O11 0.323561 0.500000 0.514391
O O12 0.250000 0.750000 0.500000
O O13 0.861110 0.297610 0.844361
O O14 0.777453 0.000000 0.909521
O O15 0.750000 0.250000 0.000000
O O16 0.668349 0.274981 0.952312
O O17 0.439194 0.000000 0.978185
O O18 0.500000 0.273439 0.000000
O O19 0.990494 0.500000 0.723902
#
# Coordination Sequence:
#
# PCOD9198826 Si02
#       7
#     8   8   8   8   8   8   8
#     4   9  17  31  51  77 106 142 186 227 270 324
#     4   9  18  33  56  82 111 145 185 232 278 325
#     4  10  21  36  57  85 112 142 185 234 279 325
#     4  10  20  36  58  86 116 147 184 227 276 333
#     4  11  21  36  58  83 111 146 188 234 283 330
#     4   9  18  31  51  79 108 139 184 233 269 317
#     4  11  22  37  56  81 114 147 186 229 279 339
#
# _framework density 22.805569999999999
#
# number of rings (size 3 to 8) (size 9 to 14) (size 15 to 20)
#    0.000    2.143    1.429    2.143    2.000    3.429 
#    0.000    0.714    0.000    6.857    0.000    0.000 
#    0.000    0.000    0.000    0.000    0.000    0.000 
#
# Total GULP energy -156436.572696 kJ/mol
# GULP energy per Si atom -5587.020453 kJ/mol
# Density = 2.275366 g / cm^3
# Si number density = 22.805570 Si / 1000 Ang^3
#
#
#
# Elastic Constant Matrix: (Units=GPa)
#
#
# Indices 1 2 3 4 5 6 
#
# 1 145.5310 -0.9873 17.6583 0.0001 -20.4496 0.0000
# 2 -0.9873 66.3636 -6.5669 0.0003 -1.9939 -0.0012
# 3 17.6583 -6.5669 76.9213 -0.0002 -17.8445 -0.0001
# 4 0.0001 0.0003 -0.0002 7.8091 0.0000 7.2795
# 5 -20.4496 -1.9939 -17.8445 0.0000 42.8353 0.0001
# 6 0.0000 -0.0012 -0.0001 7.2795 0.0001 8.2126
#
#
#
# Elastic Compliance Matrix: (Units=1/GPa)
#
#
# Indices 1 2 3 4 5 6 
#
# 1 0.007432 0.000110 -0.000966 -0.000001 0.003151 0.000000
# 2 0.000110 0.015273 0.001611 -0.000016 0.001435 0.000016
# 3 -0.000966 0.001611 0.014690 0.000000 0.005733 0.000001
# 4 -0.000001 -0.000016 0.000000 0.737110 0.000000 -0.653362
# 5 0.003151 0.001435 0.005733 0.000000 0.027305 0.000000
# 6 0.000000 0.000016 0.000001 -0.653362 0.000000 0.700894
#
#
# Mechanical properties :
#
#
# Convention : Reuss Voigt Hill
#
# Bulk Modulus (GPa) = 25.70360 34.33602 30.01981
# Shear Modulus (GPa) = 3.30216 30.35220 16.82718
#
# Velocity S-wave (km/s) = 1.20462 3.65212 2.71929
# Velocity P-wave (km/s) = 3.63731 5.73347 4.80118
#
# Compressibility (1/GPa) = 0.03890505
#
# Stress axis : x y z
#
# Youngs Moduli (GPa) = 134.55213 65.47635 68.07518
#
# Poissons Ratio (x) = -0.00718 0.06575
# Poissons Ratio (y) = -0.01476 -0.10970
# Poissons Ratio (z) = 0.12995 -0.10551
#
# Static dielectric constant tensor:
#      x y z
#    x 1.840540 0.000000 -0.024030 
#    y 0.000000 1.980940 0.000000 
#    z -0.024030 0.000000 1.810460 
# 
# From -- ./inp_files/342296.got.cif
#   From: 2010.05.17/outbox.cif.g08.bks.cpg/sg12_172_cif.got.tgz:342296.got - 2010.06.03 13:09:07.
