data_PCOD9198081
_publ_section_title
;
Structure prediction by ZEFSAII (Michael W. Deem and Ramdas Pophale) SiO2 
 PCOD9198081
Probable space group: C 2/M
;
_chemical_formula_sum "Si O2"
_cell_formula_units_Z 44
_cell_length_a 10.117524
_cell_length_b 18.124552
_cell_length_c 23.262278
_cell_angle_alpha 90.000000
_cell_angle_beta 147.203128
_cell_angle_gamma 90.000000
_cell_volume 2310.587346
_symmetry_space_group_name_H-M "C 2/M"
_symmetry_group_IT_number 12
_symmetry_cell_setting 'monoclinic'
loop_
_space_group_symop_operation_xyz
x,y,z
-x,y,-z
-x,-y,-z
x,-y,z
1/2+x,1/2+y,z
1/2-x,1/2+y,-z
1/2-x,1/2-y,-z
1/2+x,1/2-y,z
loop_
_atom_site_type_symbol
_atom_site_label
_atom_site_fract_x
_atom_site_fract_y
_atom_site_fract_z
Si Si1 0.055233 0.415637 0.188628
Si Si2 0.811910 0.840780 0.860028
Si Si3 0.633737 0.803798 0.375817
Si Si4 0.514818 0.668846 0.600317
Si Si5 0.744728 0.083256 0.030708
Si Si6 0.000000 0.708551 0.000000
O O1 0.018605 0.500000 0.193300
O O2 0.321941 0.389646 0.305789
O O3 0.856871 0.366077 0.148909
O O4 0.988495 0.411409 0.097163
O O5 0.627106 0.833289 0.739453
O O6 0.017808 0.899947 0.920478
O O7 0.932361 0.763230 0.922952
O O8 0.586223 0.727612 0.391257
O O9 0.798264 0.795826 0.378496
O O10 0.787447 0.854131 0.476704
O O11 0.754300 0.000000 0.057969
O O12 0.716442 0.152046 0.063146
#
# Coordination Sequence:
#
# PCOD9198081 Si02
#       6
#     8   8   8   8   8   4
#     4  10  20  36  56  78 110 146 180 223 280 333
#     4  11  21  34  57  83 106 141 186 229 270 324
#     4   9  19  32  55  80 111 132 184 230 276 317
#     4   9  18  35  52  83 103 144 175 230 276 326
#     4  11  23  38  53  80 116 148 179 228 285 330
#     4  12  23  34  57  84 108 146 192 226 267 334
#
# _framework density 19.042777000000001
#
# number of rings (size 3 to 8) (size 9 to 14) (size 15 to 20)
#    0.000    1.818    1.818    2.455    5.091    1.455 
#    0.000    8.182    0.000    0.000    0.000    3.818 
#    0.000    0.000    0.000    0.000    0.000    0.000 
#
# Total GULP energy -122599.650176 kJ/mol
# GULP energy per Si atom -5572.711372 kJ/mol
# Density = 1.899943 g / cm^3
# Si number density = 19.042777 Si / 1000 Ang^3
#
#
#
# Elastic Constant Matrix: (Units=GPa)
#
#
# Indices 1 2 3 4 5 6 
#
# 1 20.4582 10.0276 12.5634 -0.0001 -2.4167 0.0000
# 2 10.0276 90.0764 23.0046 0.0001 4.5574 0.0001
# 3 12.5634 23.0046 117.3328 0.0011 0.4466 0.0004
# 4 -0.0001 0.0001 0.0011 21.1815 0.0000 4.6872
# 5 -2.4167 4.5574 0.4466 0.0000 16.1734 -0.0001
# 6 0.0000 0.0001 0.0004 4.6872 -0.0001 17.7479
#
#
#
# Elastic Compliance Matrix: (Units=1/GPa)
#
#
# Indices 1 2 3 4 5 6 
#
# 1 0.055769 -0.005453 -0.004940 0.000001 0.010006 0.000000
# 2 -0.005453 0.012391 -0.001829 0.000000 -0.004256 0.000000
# 3 -0.004940 -0.001829 0.009412 0.000000 -0.000483 0.000000
# 4 0.000001 0.000000 0.000000 0.050141 0.000000 -0.013242
# 5 0.010006 -0.004256 -0.000483 0.000000 0.064537 0.000000
# 6 0.000000 0.000000 0.000000 -0.013242 0.000000 0.059842
#
#
# Mechanical properties :
#
#
# Convention : Reuss Voigt Hill
#
# Bulk Modulus (GPa) = 18.82286 35.45094 27.13690
# Shear Modulus (GPa) = 16.99248 23.17201 20.08224
#
# Velocity S-wave (km/s) = 2.99043 3.49211 3.25096
# Velocity P-wave (km/s) = 4.67221 5.90903 5.32664
#
# Compressibility (1/GPa) = 0.05312690
#
# Stress axis : x y z
#
# Youngs Moduli (GPa) = 17.93117 80.70203 106.24417
#
# Poissons Ratio (x) = 0.44006 0.52489
# Poissons Ratio (y) = 0.09778 0.19436
# Poissons Ratio (z) = 0.08859 0.14764
#
# Static dielectric constant tensor:
#      x y z
#    x 1.700060 0.000000 -0.017170 
#    y 0.000000 1.635910 0.000000 
#    z -0.017170 0.000000 1.718520 
# 
# From -- ./inp_files/241385.got.cif
#   From: 2010.05.17/outbox.cif.g08.bks.cpg/sg12_121_cif.got.tgz:241385.got - 2010.06.03 13:09:07.
