data_PCOD9198768
_publ_section_title
;
Structure prediction by ZEFSAII (Michael W. Deem and Ramdas Pophale) SiO2 
 PCOD9198768
Probable space group: C 2/M
;
_chemical_formula_sum "Si O2"
_cell_formula_units_Z 64
_cell_length_a 32.047488
_cell_length_b 8.990047
_cell_length_c 15.130966
_cell_angle_alpha 90.000000
_cell_angle_beta 131.540777
_cell_angle_gamma 90.000000
_cell_volume 3262.910059
_symmetry_space_group_name_H-M "C 2/M"
_symmetry_group_IT_number 12
_symmetry_cell_setting 'monoclinic'
loop_
_space_group_symop_operation_xyz
x,y,z
-x,y,-z
-x,-y,-z
x,-y,z
1/2+x,1/2+y,z
1/2-x,1/2+y,-z
1/2-x,1/2-y,-z
1/2+x,1/2-y,z
loop_
_atom_site_type_symbol
_atom_site_label
_atom_site_fract_x
_atom_site_fract_y
_atom_site_fract_z
Si Si1 0.217314 0.676222 0.179740
Si Si2 0.909630 0.827029 0.813256
Si Si3 0.465680 0.320618 0.585664
Si Si4 0.084290 0.819706 0.667515
Si Si5 0.205953 0.822514 0.872459
Si Si6 0.102309 0.171300 0.991662
Si Si7 0.490156 0.823701 0.796163
Si Si8 0.791796 0.321729 0.628395
O O1 0.204300 0.500000 0.157785
O O2 0.270599 0.703087 0.193493
O O3 0.164075 0.764078 0.067170
O O4 0.225157 0.714445 0.293803
O O5 0.909187 0.821927 0.918955
O O6 0.853363 0.745837 0.703202
O O7 0.961797 0.745699 0.843030
O O8 0.909771 0.000000 0.787012
O O9 0.463813 0.500000 0.594538
O O10 0.527879 0.278979 0.639166
O O11 0.424541 0.279139 0.447788
O O12 0.456671 0.239659 0.665106
O O13 0.142524 0.765849 0.789105
O O14 0.085934 0.000000 0.671288
O O15 0.205743 0.000000 0.887697
O O16 0.250000 0.750000 0.000000
O O17 0.099436 0.000000 0.958156
O O18 0.053346 0.264589 0.878590
O O19 0.488873 0.000000 0.797523
O O20 0.792909 0.500000 0.620746
O O21 0.750000 0.250000 0.500000
#
# Coordination Sequence:
#
# PCOD9198768 Si02
#       8
#     8   8   8   8   8   8   8   8
#     4   9  20  37  55  80 116 152 189 233 290 347
#     4  10  21  38  57  80 109 145 191 238 281 331
#     4   9  18  36  60  83 107 147 195 236 280 334
#     4   8  17  36  60  82 110 146 190 238 283 333
#     4  10  21  37  57  85 116 150 192 237 286 341
#     4  10  21  37  58  80 108 146 190 234 278 335
#     4  12  24  35  53  84 117 147 181 227 285 346
#     4  10  20  36  58  84 116 155 192 233 285 343
#
# _framework density 19.614391999999999
#
# number of rings (size 3 to 8) (size 9 to 14) (size 15 to 20)
#    0.000    2.250    0.000    3.375    1.750    5.000 
#    0.000    4.375    0.000    0.000    0.000    0.000 
#    0.000    0.000    0.000    0.000    0.000    0.000 
#
# Total GULP energy -178707.575230 kJ/mol
# GULP energy per Si atom -5584.611726 kJ/mol
# Density = 1.956975 g / cm^3
# Si number density = 19.614392 Si / 1000 Ang^3
#
#
#
# Elastic Constant Matrix: (Units=GPa)
#
#
# Indices 1 2 3 4 5 6 
#
# 1 31.9444 14.0278 10.2988 0.0000 8.0258 0.0000
# 2 14.0278 63.8507 26.2164 0.0000 -0.2218 0.0000
# 3 10.2988 26.2164 95.2992 0.0000 16.7789 0.0000
# 4 0.0000 0.0000 0.0000 25.0302 0.0000 3.2618
# 5 8.0258 -0.2218 16.7789 0.0000 23.5154 0.0000
# 6 0.0000 0.0000 0.0000 3.2618 0.0000 22.3505
#
#
#
# Elastic Compliance Matrix: (Units=1/GPa)
#
#
# Indices 1 2 3 4 5 6 
#
# 1 0.038361 -0.008748 0.000664 0.000000 -0.013649 0.000000
# 2 -0.008748 0.020013 -0.005854 0.000000 0.007352 0.000000
# 3 0.000664 -0.005854 0.013818 0.000000 -0.010141 0.000000
# 4 0.000000 0.000000 0.000000 0.040726 0.000000 -0.005943
# 5 -0.013649 0.007352 -0.010141 0.000000 0.054489 0.000000
# 6 0.000000 0.000000 0.000000 -0.005943 0.000000 0.045609
#
#
# Mechanical properties :
#
#
# Convention : Reuss Voigt Hill
#
# Bulk Modulus (GPa) = 22.56590 32.46449 27.51520
# Shear Modulus (GPa) = 19.55695 23.54931 21.55313
#
# Velocity S-wave (km/s) = 3.16107 3.46875 3.31848
# Velocity P-wave (km/s) = 4.98527 5.71229 5.36112
#
# Compressibility (1/GPa) = 0.04431465
#
# Stress axis : x y z
#
# Youngs Moduli (GPa) = 26.06814 49.96825 72.37188
#
# Poissons Ratio (x) = 0.43711 -0.04805
# Poissons Ratio (y) = 0.22804 0.42370
# Poissons Ratio (z) = -0.01731 0.29254
#
# Static dielectric constant tensor:
#      x y z
#    x 1.706820 0.000000 -0.010300 
#    y 0.000000 1.655340 0.000000 
#    z -0.010300 0.000000 1.690370 
# 
# From -- ./inp_files/250101.got.cif
#   From: 2010.05.17/outbox.cif.g08.bks.cpg/sg12_126_cif.got.tgz:250101.got - 2010.06.03 13:09:07.
