data_PCOD9198581
_publ_section_title
;
Structure prediction by ZEFSAII (Michael W. Deem and Ramdas Pophale) SiO2 
 PCOD9198581
Probable space group: C 2/M
;
_chemical_formula_sum "Si O2"
_cell_formula_units_Z 48
_cell_length_a 20.804026
_cell_length_b 8.845152
_cell_length_c 16.873854
_cell_angle_alpha 90.000000
_cell_angle_beta 62.367005
_cell_angle_gamma 90.000000
_cell_volume 2750.867266
_symmetry_space_group_name_H-M "C 2/M"
_symmetry_group_IT_number 12
_symmetry_cell_setting 'monoclinic'
loop_
_space_group_symop_operation_xyz
x,y,z
-x,y,-z
-x,-y,-z
x,-y,z
1/2+x,1/2+y,z
1/2-x,1/2+y,-z
1/2-x,1/2-y,-z
1/2+x,1/2-y,z
loop_
_atom_site_type_symbol
_atom_site_label
_atom_site_fract_x
_atom_site_fract_y
_atom_site_fract_z
Si Si1 0.419953 0.817672 0.576263
Si Si2 0.347055 0.680340 0.769093
Si Si3 0.083662 0.681155 0.944611
Si Si4 0.225097 0.319013 0.431694
Si Si5 0.170244 0.319408 0.056138
Si Si6 0.295704 0.680877 0.226714
O O1 0.500000 0.779659 0.500000
O O2 0.400651 0.739912 0.670336
O O3 0.355812 0.774499 0.551448
O O4 0.415612 0.000000 0.589059
O O5 0.346040 0.500000 0.772596
O O6 0.363700 0.748823 0.845355
O O7 0.267584 0.741187 0.788817
O O8 0.086939 0.500000 0.929542
O O9 0.127889 0.762872 0.849931
O O10 0.123976 0.713951 0.004283
O O11 0.000000 0.725879 0.000000
O O12 0.225435 0.500000 0.439116
O O13 0.250000 0.250000 0.500000
O O14 0.278138 0.279097 0.327972
O O15 0.175821 0.500000 0.061620
O O16 0.250000 0.250000 0.000000
O O17 0.288859 0.500000 0.222540
#
# Coordination Sequence:
#
# PCOD9198581 Si02
#       6
#     8   8   8   8   8   8
#     4   9  19  38  60  81 110 144 183 229 279 328
#     4  11  21  34  56  85 113 145 186 229 276 328
#     4  10  22  39  57  81 112 146 185 227 276 329
#     4   9  19  35  56  82 107 140 180 222 270 324
#     4  11  21  35  58  84 112 144 185 230 272 327
#     4  10  20  36  58  81 109 146 188 228 274 329
#
# _framework density 17.449041999999999
#
# number of rings (size 3 to 8) (size 9 to 14) (size 15 to 20)
#    0.000    2.000    1.667    3.500    0.000    4.667 
#    3.000    0.000    0.000    0.000    0.000    0.000 
#    0.000    0.000    0.000    0.000    0.000    0.000 
#
# Total GULP energy -133982.143657 kJ/mol
# GULP energy per Si atom -5582.589319 kJ/mol
# Density = 1.740933 g / cm^3
# Si number density = 17.449042 Si / 1000 Ang^3
#
#
#
# Elastic Constant Matrix: (Units=GPa)
#
#
# Indices 1 2 3 4 5 6 
#
# 1 114.4604 53.0204 91.8679 0.0000 -14.4610 0.0000
# 2 53.0204 55.7473 61.8784 0.0000 -0.3628 0.0000
# 3 91.8679 61.8784 156.9066 0.0000 -4.6802 0.0000
# 4 0.0000 0.0000 0.0000 35.7104 0.0000 -0.7354
# 5 -14.4610 -0.3628 -4.6802 0.0000 32.4643 0.0000
# 6 0.0000 0.0000 0.0000 -0.7354 0.0000 24.2036
#
#
#
# Elastic Compliance Matrix: (Units=1/GPa)
#
#
# Indices 1 2 3 4 5 6 
#
# 1 0.021358 -0.011833 -0.007591 0.000000 0.008287 0.000000
# 2 -0.011833 0.038529 -0.008447 0.000000 -0.006058 0.000000
# 3 -0.007591 -0.008447 0.014106 0.000000 -0.001442 0.000000
# 4 0.000000 0.000000 0.000000 0.028021 0.000000 0.000851
# 5 0.008287 -0.006058 -0.001442 0.000000 0.034219 0.000000
# 6 0.000000 0.000000 0.000000 0.000851 0.000000 0.041342
#
#
# Mechanical properties :
#
#
# Convention : Reuss Voigt Hill
#
# Bulk Modulus (GPa) = 54.79372 82.29419 68.54395
# Shear Modulus (GPa) = 20.88563 26.49885 23.69224
#
# Velocity S-wave (km/s) = 3.46345 3.90120 3.68883
# Velocity P-wave (km/s) = 6.88943 8.21934 7.58359
#
# Compressibility (1/GPa) = 0.01825027
#
# Stress axis : x y z
#
# Youngs Moduli (GPa) = 46.82159 25.95465 70.89251
#
# Poissons Ratio (x) = 0.30712 0.53815
# Poissons Ratio (y) = 0.55404 0.59882
# Poissons Ratio (z) = 0.35543 0.21924
#
# Static dielectric constant tensor:
#      x y z
#    x 1.577840 0.000000 -0.004840 
#    y 0.000000 1.585910 0.000000 
#    z -0.004840 0.000000 1.591130 
# 
# From -- ./inp_files/229934.got.cif
#   From: 2010.05.17/outbox.cif.g08.bks.cpg/sg12_115_cif.got.tgz:229934.got - 2010.06.03 13:09:07.
