data_PCOD9198158
_publ_section_title
;
Structure prediction by ZEFSAII (Michael W. Deem and Ramdas Pophale) SiO2 
 PCOD9198158
Probable space group: C 2/M
;
_chemical_formula_sum "Si O2"
_cell_formula_units_Z 40
_cell_length_a 9.423508
_cell_length_b 28.730787
_cell_length_c 15.136365
_cell_angle_alpha 90.000000
_cell_angle_beta 150.070589
_cell_angle_gamma 90.000000
_cell_volume 2044.672043
_symmetry_space_group_name_H-M "C 2/M"
_symmetry_group_IT_number 12
_symmetry_cell_setting 'monoclinic'
loop_
_space_group_symop_operation_xyz
x,y,z
-x,y,-z
-x,-y,-z
x,-y,z
1/2+x,1/2+y,z
1/2-x,1/2+y,-z
1/2-x,1/2-y,-z
1/2+x,1/2-y,z
loop_
_atom_site_type_symbol
_atom_site_label
_atom_site_fract_x
_atom_site_fract_y
_atom_site_fract_z
Si Si1 0.668597 0.881618 0.830452
Si Si2 0.965426 0.197368 0.718019
Si Si3 0.126605 0.287973 0.708271
Si Si4 0.690662 0.947200 0.689975
Si Si5 0.264320 0.102649 0.937503
O O1 0.648873 0.828414 0.791557
O O2 0.547526 0.914654 0.688035
O O3 0.586099 0.886680 0.887466
O O4 0.000000 0.894544 0.000000
O O5 0.668890 0.199212 0.502289
O O6 0.870500 0.209457 0.766408
O O7 0.132906 0.238434 0.759572
O O8 0.133305 0.148901 0.819304
O O9 0.500000 0.946313 0.500000
O O10 0.994995 0.928448 0.819884
O O11 0.717768 0.000000 0.737899
O O12 0.500000 0.081724 0.000000
#
# Coordination Sequence:
#
# PCOD9198158 Si02
#       5
#     8   8   8   8   8
#     4  10  20  36  58  85 116 153 195 239 291 348
#     4  10  21  36  55  79 119 159 202 239 287 342
#     4  10  20  36  56  81 112 161 205 245 279 338
#     4  10  21  42  70  89 109 152 200 241 293 360
#     4  11  24  38  56  90 126 154 189 245 301 344
#
# _framework density 19.563040999999998
#
# number of rings (size 3 to 8) (size 9 to 14) (size 15 to 20)
#    0.000    1.800    4.000    1.200    2.800    5.600 
#    0.000    3.000    0.000    2.400    0.000    0.000 
#    0.000    0.000    0.000    0.000    0.000    0.000 
#
# Total GULP energy -111462.051570 kJ/mol
# GULP energy per Si atom -5573.102579 kJ/mol
# Density = 1.951851 g / cm^3
# Si number density = 19.563041 Si / 1000 Ang^3
#
#
#
# Elastic Constant Matrix: (Units=GPa)
#
#
# Indices 1 2 3 4 5 6 
#
# 1 59.1413 -28.0147 3.8761 0.0005 -4.6605 -0.0006
# 2 -28.0147 45.8340 -1.6846 0.0003 -3.0485 -0.0003
# 3 3.8761 -1.6846 23.5235 0.0005 -7.0681 -0.0006
# 4 0.0005 0.0003 0.0005********** 0.000414101.3830
# 5 -4.6605 -3.0485 -7.0681 0.0004 25.4049 -0.0004
# 6 -0.0006 -0.0003 -0.000614101.3830 -0.0004**********
#
#
#
# Elastic Compliance Matrix: (Units=1/GPa)
#
#
# Indices 1 2 3 4 5 6 
#
# 1 0.024824 0.015537 -0.001145 0.000000 0.006100 0.000000
# 2 0.015537 0.031862 0.001884 0.000000 0.007198 0.000000
# 3 -0.001145 0.001884 0.046747 0.000000 0.013022 0.000000
# 4 0.000000 0.000000 0.000000 0.026873 0.000000 0.023821
# 5 0.006100 0.007198 0.013022 0.000000 0.044968 0.000000
# 6 0.000000 0.000000 0.000000 0.023821 0.000000 0.021053
#
#
# Mechanical properties :
#
#
# Convention : Reuss Voigt Hill
#
# Bulk Modulus (GPa) = 7.35377 8.53916 7.94647
# Shear Modulus (GPa) = 23.91165 -5658.76657 -2817.42746
#
# Velocity S-wave (km/s) = 3.49992 -53.84106 -37.99086
# Velocity P-wave (km/s) = 4.48327 62.13511 43.82164
#
# Compressibility (1/GPa) = 0.13598464
#
# Stress axis : x y z
#
# Youngs Moduli (GPa) = 40.28379 31.38522 21.39181
#
# Poissons Ratio (x) = -0.48762 0.02449
# Poissons Ratio (y) = -0.62587 -0.04031
# Poissons Ratio (z) = 0.04613 -0.05914
#
# Static dielectric constant tensor:
#      x y z
#    x 1.672340 0.000000 -0.030910 
#    y 0.000000 1.701090 0.000000 
#    z -0.030910 0.000000 1.766440 
# 
# From -- ./inp_files/40309.got.cif
#   From: 2010.05.17/outbox.cif.g08.bks.cpg/sg12_21_cif.got.tgz:40309.got - 2010.06.03 13:09:07.
