data_PCOD9198779
_publ_section_title
;
Structure prediction by ZEFSAII (Michael W. Deem and Ramdas Pophale) SiO2 
 PCOD9198779
Probable space group: C 2/M
;
_chemical_formula_sum "Si O2"
_cell_formula_units_Z 48
_cell_length_a 28.042438
_cell_length_b 8.399593
_cell_length_c 17.458997
_cell_angle_alpha 90.000000
_cell_angle_beta 143.567179
_cell_angle_gamma 90.000000
_cell_volume 2442.260015
_symmetry_space_group_name_H-M "C 2/M"
_symmetry_group_IT_number 12
_symmetry_cell_setting 'monoclinic'
loop_
_space_group_symop_operation_xyz
x,y,z
-x,y,-z
-x,-y,-z
x,-y,z
1/2+x,1/2+y,z
1/2-x,1/2+y,-z
1/2-x,1/2-y,-z
1/2+x,1/2-y,z
loop_
_atom_site_type_symbol
_atom_site_label
_atom_site_fract_x
_atom_site_fract_y
_atom_site_fract_z
Si Si1 0.840088 0.688828 0.105565
Si Si2 0.095074 0.805734 0.266380
Si Si3 0.090193 0.807382 0.965326
Si Si4 0.017975 0.192484 0.609854
Si Si5 0.364879 0.692227 0.511808
Si Si6 0.806605 0.192418 0.755619
O O1 0.839197 0.500000 0.102874
O O2 0.876732 0.751614 0.073273
O O3 0.898570 0.746242 0.248823
O O4 0.750000 0.750000 0.000000
O O5 0.130978 0.753844 0.394375
O O6 0.146144 0.752222 0.259420
O O7 0.002010 0.756165 0.141760
O O8 0.095714 0.000000 0.266662
O O9 0.089944 0.000000 0.964681
O O10 0.146679 0.753441 0.108054
O O11 0.000000 0.243794 0.500000
O O12 0.945124 0.243919 0.571087
O O13 0.020371 0.000000 0.614133
O O14 0.364420 0.500000 0.511089
O O15 0.284652 0.751544 0.367622
O O16 0.807802 0.000000 0.757188
#
# Coordination Sequence:
#
# PCOD9198779 Si02
#       6
#     8   8   8   8   8   8
#     4  12  26  43  65  91 120 155 198 247 301 358
#     4   9  17  35  60  84 115 159 204 241 291 351
#     4  10  20  39  62  86 119 157 200 247 297 350
#     4  10  22  42  66  91 120 157 196 243 305 363
#     4  10  20  36  58  84 121 160 193 240 298 356
#     4  10  21  34  57  90 120 156 201 247 288 345
#
# _framework density 19.653926999999999
#
# number of rings (size 3 to 8) (size 9 to 14) (size 15 to 20)
#    0.000    1.833    1.667    2.500    2.333    3.667 
#    0.000    0.833    0.000    2.000    0.000    0.000 
#    0.000    0.000    0.000    0.000    0.000    0.000 
#
# Total GULP energy -134121.131425 kJ/mol
# GULP energy per Si atom -5588.380476 kJ/mol
# Density = 1.960919 g / cm^3
# Si number density = 19.653927 Si / 1000 Ang^3
#
#
#
# Elastic Constant Matrix: (Units=GPa)
#
#
# Indices 1 2 3 4 5 6 
#
# 1 72.4179 11.9037 34.8150 0.0000 0.4731 0.0000
# 2 11.9037 10.8007 14.5216 0.0000 -2.1985 0.0000
# 3 34.8150 14.5216 143.1008 0.0000 -0.8192 0.0000
# 4 0.0000 0.0000 0.0000 31.4614 0.0000 3.6557
# 5 0.4731 -2.1985 -0.8192 0.0000 42.8862 0.0000
# 6 0.0000 0.0000 0.0000 3.6557 0.0000 8.9518
#
#
#
# Elastic Compliance Matrix: (Units=1/GPa)
#
#
# Indices 1 2 3 4 5 6 
#
# 1 0.017768 -0.016191 -0.002686 0.000000 -0.001077 0.000000
# 2 -0.016191 0.123181 -0.008525 0.000000 0.006331 0.000000
# 3 -0.002686 -0.008525 0.008505 0.000000 -0.000245 0.000000
# 4 0.000000 0.000000 0.000000 0.033368 0.000000 -0.013627
# 5 -0.001077 0.006331 -0.000245 0.000000 0.023649 0.000000
# 6 0.000000 0.000000 0.000000 -0.013627 0.000000 0.117274
#
#
# Mechanical properties :
#
#
# Convention : Reuss Voigt Hill
#
# Bulk Modulus (GPa) = 10.56512 38.75557 24.66034
# Shear Modulus (GPa) = 12.19215 27.66515 19.92865
#
# Velocity S-wave (km/s) = 2.49337 3.75589 3.18776
# Velocity P-wave (km/s) = 3.69817 6.21053 5.11112
#
# Compressibility (1/GPa) = 0.09465110
#
# Stress axis : x y z
#
# Youngs Moduli (GPa) = 56.27943 8.11814 117.57443
#
# Poissons Ratio (x) = 0.13144 0.31581
# Poissons Ratio (y) = 0.91122 1.00230
# Poissons Ratio (z) = 0.15117 0.06921
#
# Static dielectric constant tensor:
#      x y z
#    x 1.687090 0.000000 -0.000690 
#    y 0.000000 1.682820 0.000000 
#    z -0.000690 0.000000 1.666420 
# 
# From -- ./inp_files/244689.got.cif
#   From: 2010.05.17/outbox.cif.g08.bks.cpg/sg12_123_cif.got.tgz:244689.got - 2010.06.03 13:09:07.
