data_PCOD9198553
_publ_section_title
;
Structure prediction by ZEFSAII (Michael W. Deem and Ramdas Pophale) SiO2 
 PCOD9198553
Probable space group: C 2/M
;
_chemical_formula_sum "Si O2"
_cell_formula_units_Z 52
_cell_length_a 5.153395
_cell_length_b 14.294399
_cell_length_c 34.416514
_cell_angle_alpha 90.000000
_cell_angle_beta 67.461118
_cell_angle_gamma 90.000000
_cell_volume 2341.635874
_symmetry_space_group_name_H-M "C 2/M"
_symmetry_group_IT_number 12
_symmetry_cell_setting 'monoclinic'
loop_
_space_group_symop_operation_xyz
x,y,z
-x,y,-z
-x,-y,-z
x,-y,z
1/2+x,1/2+y,z
1/2-x,1/2+y,-z
1/2-x,1/2-y,-z
1/2+x,1/2-y,z
loop_
_atom_site_type_symbol
_atom_site_label
_atom_site_fract_x
_atom_site_fract_y
_atom_site_fract_z
Si Si1 0.355729 0.887954 0.593873
Si Si2 0.541246 0.304460 0.318331
Si Si3 0.073789 0.188291 0.083769
Si Si4 0.257721 0.386484 0.177231
Si Si5 0.522283 0.385577 0.454234
Si Si6 0.825732 0.000000 0.970491
Si Si7 0.377201 0.612063 0.771324
O O1 0.676137 0.856031 0.580202
O O2 0.149283 0.859543 0.640128
O O3 0.226141 0.856204 0.560158
O O4 0.364937 0.000000 0.592141
O O5 0.345100 0.215046 0.319448
O O6 0.578593 0.351922 0.274485
O O7 0.369588 0.238144 0.074441
O O8 0.105235 0.093091 0.057845
O O9 0.929796 0.160466 0.132859
O O10 0.282618 0.500000 0.172207
O O11 0.386386 0.358624 0.211508
O O12 0.929870 0.361814 0.195029
O O13 0.500000 0.354520 0.500000
O O14 0.515949 0.500000 0.455340
O O15 0.500000 0.000000 0.000000
O O16 0.000000 0.000000 0.000000
O O17 0.383683 0.500000 0.769226
#
# Coordination Sequence:
#
# PCOD9198553 Si02
#       7
#     8   8   8   8   8   4   8
#     4  10  20  36  58  80 109 147 187 232 290 363
#     4  12  25  39  56  81 119 157 198 248 297 358
#     4  12  26  44  73 106 140 185 234 284 346 415
#     4  10  21  41  65  95 133 168 210 268 330 385
#     4   9  17  31  56  87 108 131 180 244 295 344
#     4  12  28  50  74 102 146 188 234 298 346 404
#     4  10  22  39  64  90 123 167 210 258 310 375
#
# _framework density 22.206696999999998
#
# number of rings (size 3 to 8) (size 9 to 14) (size 15 to 20)
#    0.000    1.385    0.769    4.615    0.000    7.385 
#    0.000    6.154    0.000    9.231    0.000    0.000 
#    0.000    0.000    0.000    0.000    0.000    0.000 
#
# Total GULP energy -145603.942471 kJ/mol
# GULP energy per Si atom -5600.151634 kJ/mol
# Density = 2.215615 g / cm^3
# Si number density = 22.206697 Si / 1000 Ang^3
#
#
#
# Elastic Constant Matrix: (Units=GPa)
#
#
# Indices 1 2 3 4 5 6 
#
# 1 70.8319 -14.7019 -3.2320 0.0000 11.8828 0.0001
# 2 -14.7019 75.2797 14.2535 0.0000 7.9681 0.0000
# 3 -3.2320 14.2535 95.8468 0.0000 4.9475 0.0000
# 4 0.0000 0.0000 0.0000 9.8300 0.0000 2.8468
# 5 11.8828 7.9681 4.9475 0.0000 35.6641 0.0000
# 6 0.0001 0.0000 0.0000 2.8468 0.0000 18.5416
#
#
#
# Elastic Compliance Matrix: (Units=1/GPa)
#
#
# Indices 1 2 3 4 5 6 
#
# 1 0.015939 0.003709 0.000305 0.000000 -0.006182 0.000000
# 2 0.003709 0.014814 -0.001857 0.000000 -0.004288 0.000000
# 3 0.000305 -0.001857 0.010781 0.000000 -0.001182 0.000000
# 4 0.000000 0.000000 0.000000 0.106464 0.000000 -0.016346
# 5 -0.006182 -0.004288 -0.001182 0.000000 0.031221 0.000000
# 6 0.000000 0.000000 0.000000 -0.016346 0.000000 0.056443
#
#
# Mechanical properties :
#
#
# Convention : Reuss Voigt Hill
#
# Bulk Modulus (GPa) = 21.81086 26.06639 23.93862
# Shear Modulus (GPa) = 20.27345 29.18305 24.72825
#
# Velocity S-wave (km/s) = 3.02477 3.62906 3.34061
# Velocity P-wave (km/s) = 4.69490 5.41513 5.06783
#
# Compressibility (1/GPa) = 0.04584873
#
# Stress axis : x y z
#
# Youngs Moduli (GPa) = 62.73993 67.50544 92.75822
#
# Poissons Ratio (x) = -0.25040 -0.02828
# Poissons Ratio (y) = -0.23273 0.17221
# Poissons Ratio (z) = -0.01913 0.12533
#
# Static dielectric constant tensor:
#      x y z
#    x 1.773260 0.000000 0.003870 
#    y 0.000000 1.837070 0.000000 
#    z 0.003870 0.000000 1.761920 
# 
# From -- ./inp_files/371470.got.cif
#   From: 2010.05.17/outbox.cif.g08.bks.cpg/sg12_186_cif.got.tgz:371470.got - 2010.06.03 13:09:07.
