data_PCOD9198353
_publ_section_title
;
Structure prediction by ZEFSAII (Michael W. Deem and Ramdas Pophale) SiO2 
 PCOD9198353
Probable space group: C 2/M
;
_chemical_formula_sum "Si O2"
_cell_formula_units_Z 48
_cell_length_a 8.352908
_cell_length_b 11.114601
_cell_length_c 25.159009
_cell_angle_alpha 90.000000
_cell_angle_beta 66.653831
_cell_angle_gamma 90.000000
_cell_volume 2144.509779
_symmetry_space_group_name_H-M "C 2/M"
_symmetry_group_IT_number 12
_symmetry_cell_setting 'monoclinic'
loop_
_space_group_symop_operation_xyz
x,y,z
-x,y,-z
-x,-y,-z
x,-y,z
1/2+x,1/2+y,z
1/2-x,1/2+y,-z
1/2-x,1/2-y,-z
1/2+x,1/2-y,z
loop_
_atom_site_type_symbol
_atom_site_label
_atom_site_fract_x
_atom_site_fract_y
_atom_site_fract_z
Si Si1 0.940867 0.134213 0.594334
Si Si2 0.689850 0.303485 0.881261
Si Si3 0.680000 0.133080 0.444106
Si Si4 0.311116 0.636812 0.955924
Si Si5 0.925904 0.872078 0.722180
Si Si6 0.547019 0.808570 0.795397
O O1 0.831428 0.247208 0.589461
O O2 0.961116 0.144079 0.655331
O O3 0.139942 0.140585 0.546459
O O4 0.870832 0.000000 0.591319
O O5 0.522546 0.363505 0.930487
O O6 0.738741 0.181780 0.907792
O O7 0.617315 0.276958 0.832620
O O8 0.875747 0.365496 0.845606
O O9 0.500000 0.131877 0.500000
O O10 0.689043 0.000000 0.415976
O O11 0.250569 0.500000 0.976014
O O12 0.250000 0.750000 0.000000
O O13 0.717845 0.879217 0.756612
O O14 0.991554 0.766626 0.751108
O O15 0.004075 0.000000 0.729280
#
# Coordination Sequence:
#
# PCOD9198353 Si02
#       6
#     8   8   8   8   8   8
#     4  10  21  36  56  84 117 153 193 238 291 349
#     4   9  21  38  59  87 116 152 192 235 285 338
#     4  10  21  37  57  82 113 151 196 245 295 346
#     4  11  24  42  63  89 121 155 193 239 289 343
#     4  10  20  36  57  81 115 153 189 235 287 341
#     4   9  19  37  58  85 114 148 189 229 284 343
#
# _framework density 22.382739000000001
#
# number of rings (size 3 to 8) (size 9 to 14) (size 15 to 20)
#    0.000    2.167    0.000    2.000    0.000   10.333 
#    0.000    8.333    0.000    0.000    0.000    0.000 
#    0.000    0.000    0.000    0.000    0.000    0.000 
#
# Total GULP energy -133688.925970 kJ/mol
# GULP energy per Si atom -5570.371915 kJ/mol
# Density = 2.233180 g / cm^3
# Si number density = 22.382739 Si / 1000 Ang^3
#
#
#
# Elastic Constant Matrix: (Units=GPa)
#
#
# Indices 1 2 3 4 5 6 
#
# 1 64.0446 22.0534 -4.7236 0.0000 -11.2974 0.0000
# 2 22.0534 175.6834 21.7933 0.0000 16.8862 0.0000
# 3 -4.7236 21.7933 45.2622 0.0000 -11.7086 0.0000
# 4 0.0000 0.0000 0.0000 -437.9081 0.0000 -96.1305
# 5 -11.2974 16.8862 -11.7086 0.0000 35.9528 0.0000
# 6 0.0000 0.0000 0.0000 -96.1305 0.0000 -4.8001
#
#
#
# Elastic Compliance Matrix: (Units=1/GPa)
#
#
# Indices 1 2 3 4 5 6 
#
# 1 0.019392 -0.004259 0.006735 0.000000 0.010287 0.000000
# 2 -0.004259 0.007612 -0.005875 0.000000 -0.006826 0.000000
# 3 0.006735 -0.005875 0.029360 0.000000 0.014437 0.000000
# 4 0.000000 0.000000 0.000000 0.000672 0.000000 -0.013465
# 5 0.010287 -0.006826 0.014437 0.000000 0.038955 0.000000
# 6 0.000000 0.000000 0.000000 -0.013465 0.000000 0.061340
#
#
# Mechanical properties :
#
#
# Convention : Reuss Voigt Hill
#
# Bulk Modulus (GPa) = 20.17490 40.35960 30.26725
# Shear Modulus (GPa) = 27.67797 -64.95994 -18.64098
#
# Velocity S-wave (km/s) = 3.52031 -5.39308 -2.88901
# Velocity P-wave (km/s) = 5.05536 4.55079 1.55675
#
# Compressibility (1/GPa) = 0.04956653
#
# Stress axis : x y z
#
# Youngs Moduli (GPa) = 51.56796 131.37868 34.05996
#
# Poissons Ratio (x) = 0.55948 -0.22940
# Poissons Ratio (y) = 0.21960 0.20011
# Poissons Ratio (z) = -0.34733 0.77188
#
# Static dielectric constant tensor:
#      x y z
#    x 1.832930 0.000000 -0.047880 
#    y 0.000000 1.845890 0.000000 
#    z -0.047880 0.000000 1.891370 
# 
# From -- ./inp_files/332219.got.cif
#   From: 2010.05.17/outbox.cif.g08.bks.cpg/sg12_167_cif.got.tgz:332219.got - 2010.06.03 13:09:07.
