data_PCOD9198493
_publ_section_title
;
Structure prediction by ZEFSAII (Michael W. Deem and Ramdas Pophale) SiO2 
 PCOD9198493
Probable space group: C 2/M
;
_chemical_formula_sum "Si O2"
_cell_formula_units_Z 64
_cell_length_a 9.181844
_cell_length_b 25.799713
_cell_length_c 12.883125
_cell_angle_alpha 90.000000
_cell_angle_beta 78.270959
_cell_angle_gamma 90.000000
_cell_volume 2988.146478
_symmetry_space_group_name_H-M "C 2/M"
_symmetry_group_IT_number 12
_symmetry_cell_setting 'monoclinic'
loop_
_space_group_symop_operation_xyz
x,y,z
-x,y,-z
-x,-y,-z
x,-y,z
1/2+x,1/2+y,z
1/2-x,1/2+y,-z
1/2-x,1/2-y,-z
1/2+x,1/2-y,z
loop_
_atom_site_type_symbol
_atom_site_label
_atom_site_fract_x
_atom_site_fract_y
_atom_site_fract_z
Si Si1 0.151498 0.061316 0.537255
Si Si2 0.338741 0.863413 0.757104
Si Si3 0.671856 0.734792 0.700433
Si Si4 0.913001 0.439784 0.356763
Si Si5 0.071366 0.687551 0.881327
Si Si6 0.406408 0.310054 0.616514
Si Si7 0.902506 0.939705 0.209707
Si Si8 0.211579 0.102392 0.212266
O O1 0.302507 0.081317 0.462702
O O2 0.132302 0.068644 0.662084
O O3 0.000000 0.075590 0.500000
O O4 0.165250 0.000000 0.517391
O O5 0.258147 0.819131 0.701576
O O6 0.447710 0.902215 0.679038
O O7 0.443328 0.834230 0.823913
O O8 0.210795 0.899610 0.826223
O O9 0.649920 0.764329 0.812819
O O10 0.512568 0.723110 0.675854
O O11 0.761777 0.775418 0.617288
O O12 0.956897 0.500000 0.368604
O O13 0.815619 0.435853 0.264574
O O14 0.188539 0.640125 0.872546
O O15 0.000000 0.702131 0.000000
O O16 0.500000 0.319543 0.500000
O O17 0.357690 0.359395 0.690271
O O18 0.075676 0.925174 0.174297
O O19 0.876597 0.000000 0.188493
#
# Coordination Sequence:
#
# PCOD9198493 Si02
#       8
#     8   8   8   8   8   8   8   8
#     4   9  17  30  52  85 120 167 225 252 280 344
#     4  11  23  40  61  92 128 156 206 263 320 378
#     4  11  22  44  62  93 128 159 210 260 312 382
#     4  10  20  36  57  86 129 175 215 256 295 356
#     4  10  24  47  72  91 117 156 207 274 333 382
#     4  11  23  39  61  92 133 174 205 246 305 375
#     4  11  21  36  60  92 133 172 206 263 310 349
#     4  10  21  36  63  93 125 165 218 248 301 387
#
# _framework density 21.417957999999999
#
# number of rings (size 3 to 8) (size 9 to 14) (size 15 to 20)
#    0.000    1.625    3.750    1.125    1.750    1.000 
#    2.250    2.500    0.000   14.250    0.000    0.000 
#    0.000    0.000    0.000    0.000    0.000    0.000 
#
# Total GULP energy -178827.721906 kJ/mol
# GULP energy per Si atom -5588.366310 kJ/mol
# Density = 2.136921 g / cm^3
# Si number density = 21.417958 Si / 1000 Ang^3
#
#
#
# Elastic Constant Matrix: (Units=GPa)
#
#
# Indices 1 2 3 4 5 6 
#
# 1 68.3988 16.6835 -4.2755 0.0000 -10.0065 0.0000
# 2 16.6835 101.3701 5.9135 0.0000 -5.7564 0.0000
# 3 -4.2755 5.9135 56.4307 0.0000 -19.6625 0.0000
# 4 0.0000 0.0000 0.0000 16.6564 0.0000 -2.3276
# 5 -10.0065 -5.7564 -19.6625 0.0000 13.5201 0.0000
# 6 0.0000 0.0000 0.0000 -2.3276 0.0000 46.9159
#
#
#
# Elastic Compliance Matrix: (Units=1/GPa)
#
#
# Indices 1 2 3 4 5 6 
#
# 1 0.021239 -0.002315 0.014161 0.000000 0.035328 0.000000
# 2 -0.002315 0.010384 -0.000649 0.000000 0.001763 0.000000
# 3 0.014161 -0.000649 0.045447 0.000000 0.076299 0.000000
# 4 0.000000 0.000000 0.000000 0.060456 0.000000 0.002999
# 5 0.035328 0.001763 0.076299 0.000000 0.211824 0.000000
# 6 0.000000 0.000000 0.000000 0.002999 0.000000 0.021464
#
#
# Mechanical properties :
#
#
# Convention : Reuss Voigt Hill
#
# Bulk Modulus (GPa) = 10.05396 29.20474 19.62935
# Shear Modulus (GPa) = 13.10361 29.27702 21.19032
#
# Velocity S-wave (km/s) = 2.47615 3.70122 3.14884
# Velocity P-wave (km/s) = 3.58880 5.65072 4.73340
#
# Compressibility (1/GPa) = 0.09946332
#
# Stress axis : x y z
#
# Youngs Moduli (GPa) = 47.08425 96.30280 22.00358
#
# Poissons Ratio (x) = 0.22298 -0.31160
# Poissons Ratio (y) = 0.10902 0.01428
# Poissons Ratio (z) = -0.66678 0.06252
#
# Static dielectric constant tensor:
#      x y z
#    x 1.798840 0.000000 -0.002000 
#    y 0.000000 1.777880 0.000000 
#    z -0.002000 0.000000 1.767960 
# 
# From -- ./inp_files/199754.got.cif
#   From: 2010.05.17/outbox.cif.g08.bks.cpg/sg12_100_cif.got.tgz:199754.got - 2010.06.03 13:09:07.
