data_PCOD9198611
_publ_section_title
;
Structure prediction by ZEFSAII (Michael W. Deem and Ramdas Pophale) SiO2 
 PCOD9198611
Probable space group: C 2/M
;
_chemical_formula_sum "Si O2"
_cell_formula_units_Z 64
_cell_length_a 18.759296
_cell_length_b 8.997360
_cell_length_c 34.222278
_cell_angle_alpha 90.000000
_cell_angle_beta 143.183637
_cell_angle_gamma 90.000000
_cell_volume 3461.387529
_symmetry_space_group_name_H-M "C 2/M"
_symmetry_group_IT_number 12
_symmetry_cell_setting 'monoclinic'
loop_
_space_group_symop_operation_xyz
x,y,z
-x,y,-z
-x,-y,-z
x,-y,z
1/2+x,1/2+y,z
1/2-x,1/2+y,-z
1/2-x,1/2-y,-z
1/2+x,1/2-y,z
loop_
_atom_site_type_symbol
_atom_site_label
_atom_site_fract_x
_atom_site_fract_y
_atom_site_fract_z
Si Si1 0.915047 0.178845 0.385827
Si Si2 0.161343 0.822887 0.991609
Si Si3 0.390651 0.323518 0.875237
Si Si4 0.652452 0.823133 0.725775
Si Si5 0.225667 0.323384 0.101731
Si Si6 0.215944 0.679197 0.361774
Si Si7 0.808299 0.821102 0.487304
Si Si8 0.467721 0.677342 0.252035
O O1 0.875997 0.254765 0.328513
O O2 0.825549 0.219070 0.381588
O O3 0.052145 0.217836 0.454372
O O4 0.909553 0.000000 0.378917
O O5 0.024128 0.788083 0.921215
O O6 0.174947 0.000000 0.997257
O O7 0.250000 0.750000 0.000000
O O8 0.190044 0.760421 0.046987
O O9 0.385322 0.500000 0.882319
O O10 0.289056 0.294836 0.798563
O O11 0.355880 0.232212 0.898421
O O12 0.572288 0.749502 0.724403
O O13 0.632206 0.000000 0.716752
O O14 0.213771 0.500000 0.091295
O O15 0.361104 0.290863 0.174818
O O16 0.203375 0.500000 0.355346
O O17 0.244403 0.723382 0.418949
O O18 0.093486 0.754612 0.295155
O O19 0.750000 0.750000 0.500000
O O20 0.799842 0.000000 0.486762
O O21 0.476091 0.500000 0.260105
#
# Coordination Sequence:
#
# PCOD9198611 Si02
#       8
#     8   8   8   8   8   8   8   8
#     4  10  21  37  56  80 112 146 180 222 273 324
#     4  11  23  38  56  80 112 147 183 225 275 327
#     4   9  20  38  58  80 108 143 181 224 273 322
#     4  10  20  36  58  82 109 142 182 225 269 322
#     4  10  21  37  58  83 110 142 182 226 272 324
#     4  10  21  37  57  81 110 146 185 223 269 326
#     4  10  21  37  57  80 108 143 182 226 273 321
#     4  10  21  37  57  82 112 144 180 225 273 321
#
# _framework density 18.489695999999999
#
# number of rings (size 3 to 8) (size 9 to 14) (size 15 to 20)
#    0.000    2.000    0.000    3.000    0.000   10.500 
#    0.000    3.750    0.000    2.250    0.000    0.000 
#    0.000    0.000    0.000    0.000    0.000    0.000 
#
# Total GULP energy -178769.627120 kJ/mol
# GULP energy per Si atom -5586.550847 kJ/mol
# Density = 1.844761 g / cm^3
# Si number density = 18.489696 Si / 1000 Ang^3
#
#
#
# Elastic Constant Matrix: (Units=GPa)
#
#
# Indices 1 2 3 4 5 6 
#
# 1 50.9035 16.7231 13.9943 0.0000 40.9185 0.0000
# 2 16.7231 24.7256 23.0931 -0.0001 18.4325 0.0001
# 3 13.9943 23.0931 47.6468 0.0000 24.3417 0.0000
# 4 0.0000 -0.0001 0.0000 31.6108 0.0000 -0.9784
# 5 40.9185 18.4325 24.3417 0.0000 30.1792 0.0000
# 6 0.0000 0.0001 0.0000 -0.9784 0.0000 32.7393
#
#
#
# Elastic Compliance Matrix: (Units=1/GPa)
#
#
# Indices 1 2 3 4 5 6 
#
# 1 -0.055162 -0.013409 -0.033495 0.000000 0.109997 0.000000
# 2 -0.013409 0.087221 -0.034711 0.000000 -0.007094 0.000000
# 3 -0.033495 -0.034711 0.023161 0.000000 0.047933 0.000000
# 4 0.000000 0.000000 0.000000 0.031664 0.000000 0.000946
# 5 0.109997 -0.007094 0.047933 0.000000 -0.150333 0.000000
# 6 0.000000 0.000000 0.000000 0.000946 0.000000 0.030573
#
#
# Mechanical properties :
#
#
# Convention : Reuss Voigt Hill
#
# Bulk Modulus (GPa) = -9.25843 25.65522 8.19840
# Shear Modulus (GPa) = 52.99395 23.53688 38.26541
#
# Velocity S-wave (km/s) = 5.35944 3.57174 4.55417
# Velocity P-wave (km/s) = 5.76887 5.56016 5.66548
#
# Compressibility (1/GPa) = -0.10800973
#
# Stress axis : x y z
#
# Youngs Moduli (GPa) = -18.12840 11.46512 43.17582
#
# Poissons Ratio (x) = 0.15374 1.44615
# Poissons Ratio (y) = -0.24309 1.49868
# Poissons Ratio (z) = -0.60720 0.39797
#
# Static dielectric constant tensor:
#      x y z
#    x 1.606080 0.000000 0.020020 
#    y 0.000000 1.613820 0.000000 
#    z 0.020020 0.000000 1.630800 
# 
# From -- ./inp_files/378334.got.cif
#   From: 2010.05.17/outbox.cif.g08.bks.cpg/sg12_190_cif.got.tgz:378334.got - 2010.06.03 13:09:07.
