data_PCOD9198635
_publ_section_title
;
Structure prediction by ZEFSAII (Michael W. Deem and Ramdas Pophale) SiO2 
 PCOD9198635
Probable space group: C 2/M
;
_chemical_formula_sum "Si O2"
_cell_formula_units_Z 36
_cell_length_a 26.784265
_cell_length_b 10.081643
_cell_length_c 11.651913
_cell_angle_alpha 90.000000
_cell_angle_beta 31.829134
_cell_angle_gamma 90.000000
_cell_volume 1659.351643
_symmetry_space_group_name_H-M "C 2/M"
_symmetry_group_IT_number 12
_symmetry_cell_setting 'monoclinic'
loop_
_space_group_symop_operation_xyz
x,y,z
-x,y,-z
-x,-y,-z
x,-y,z
1/2+x,1/2+y,z
1/2-x,1/2+y,-z
1/2-x,1/2-y,-z
1/2+x,1/2-y,z
loop_
_atom_site_type_symbol
_atom_site_label
_atom_site_fract_x
_atom_site_fract_y
_atom_site_fract_z
Si Si1 0.885782 0.851866 0.750138
Si Si2 0.000000 0.263272 0.000000
Si Si3 0.032402 0.846883 0.179370
Si Si4 0.803106 0.645070 0.471765
Si Si5 0.366886 0.843009 0.592706
O O1 0.883018 0.834812 0.893109
O O2 0.843025 0.736398 0.755115
O O3 0.000000 0.853107 0.500000
O O4 0.849613 0.000000 0.792341
O O5 0.086846 0.346856 0.780118
O O6 0.957609 0.179795 0.975538
O O7 0.959123 0.735597 0.366209
O O8 0.997999 0.000000 0.259243
O O9 0.764520 0.500000 0.522888
O O10 0.750000 0.750000 0.500000
O O11 0.798623 0.669574 0.616356
O O12 0.382439 0.000000 0.582514
#
# Coordination Sequence:
#
# PCOD9198635 Si02
#       5
#     8   4   8   8   8
#     4   8  14  25  42  68 101 134 174 221 264 312
#     4  10  20  36  58  82 112 144 180 224 272 318
#     4   9  17  28  46  74 104 138 179 220 264 317
#     4  10  22  38  57  82 112 144 180 223 271 323
#     4   9  17  29  46  71 103 138 176 220 268 317
#
# _framework density 21.695219000000002
#
# number of rings (size 3 to 8) (size 9 to 14) (size 15 to 20)
#    0.000    2.889    0.000    2.667    0.000   10.222 
#    0.000    0.000    0.000    1.333    0.000    0.000 
#    0.000    0.000    0.000    0.000    0.000    0.000 
#
# Total GULP energy -100304.189794 kJ/mol
# GULP energy per Si atom -5572.454989 kJ/mol
# Density = 2.164584 g / cm^3
# Si number density = 21.695219 Si / 1000 Ang^3
#
#
#
# Elastic Constant Matrix: (Units=GPa)
#
#
# Indices 1 2 3 4 5 6 
#
# 1 150.3510 124.7954 31.4330 0.0000 47.4671 0.0000
# 2 124.7954 202.8982 24.0886 0.0000 23.9201 0.0000
# 3 31.4330 24.0886 91.9918 0.0000 16.1571 0.0000
# 4 0.0000 0.0000 0.0000 9.9133 0.0000 5.3675
# 5 47.4671 23.9201 16.1571 0.0000 33.5429 0.0000
# 6 0.0000 0.0000 0.0000 5.3675 0.0000 38.3119
#
#
#
# Elastic Compliance Matrix: (Units=1/GPa)
#
#
# Indices 1 2 3 4 5 6 
#
# 1 0.025905 -0.012626 -0.000752 0.000000 -0.027292 0.000000
# 2 -0.012626 0.011590 -0.000445 0.000000 0.009817 0.000000
# 3 -0.000752 -0.000445 0.012018 0.000000 -0.004408 0.000000
# 4 0.000000 0.000000 0.000000 0.109155 0.000000 -0.015293
# 5 -0.027292 0.009817 -0.004408 0.000000 0.063557 0.000000
# 6 0.000000 0.000000 0.000000 -0.015293 0.000000 0.028244
#
#
# Mechanical properties :
#
#
# Convention : Reuss Voigt Hill
#
# Bulk Modulus (GPa) = 45.73054 89.54167 67.63610
# Shear Modulus (GPa) = 17.51900 34.01520 25.76710
#
# Velocity S-wave (km/s) = 2.84475 3.96392 3.45002
# Velocity P-wave (km/s) = 5.64929 7.89382 6.86392
#
# Compressibility (1/GPa) = 0.02186723
#
# Stress axis : x y z
#
# Youngs Moduli (GPa) = 38.60266 86.28056 83.20815
#
# Poissons Ratio (x) = 1.08941 0.06255
# Poissons Ratio (y) = 0.48741 0.03701
# Poissons Ratio (z) = 0.02902 0.03838
#
# Static dielectric constant tensor:
#      x y z
#    x 1.820540 0.000000 0.007120 
#    y 0.000000 1.742230 0.000000 
#    z 0.007120 0.000000 1.896690 
# 
# From -- ./inp_files/152070.got.cif
#   From: 2010.05.17/outbox.cif.g08.bks.cpg/sg12_77_cif.got.tgz:152070.got - 2010.06.03 13:09:07.
