data_PCOD9198733
_publ_section_title
;
Structure prediction by ZEFSAII (Michael W. Deem and Ramdas Pophale) SiO2 
 PCOD9198733
Probable space group: C 2/M
;
_chemical_formula_sum "Si O2"
_cell_formula_units_Z 40
_cell_length_a 7.521553
_cell_length_b 12.858084
_cell_length_c 19.062144
_cell_angle_alpha 90.000000
_cell_angle_beta 95.774115
_cell_angle_gamma 90.000000
_cell_volume 1834.198861
_symmetry_space_group_name_H-M "C 2/M"
_symmetry_group_IT_number 12
_symmetry_cell_setting 'monoclinic'
loop_
_space_group_symop_operation_xyz
x,y,z
-x,y,-z
-x,-y,-z
x,-y,z
1/2+x,1/2+y,z
1/2-x,1/2+y,-z
1/2-x,1/2-y,-z
1/2+x,1/2-y,z
loop_
_atom_site_type_symbol
_atom_site_label
_atom_site_fract_x
_atom_site_fract_y
_atom_site_fract_z
Si Si1 0.924421 0.617366 0.575599
Si Si2 0.013149 0.875075 0.109363
Si Si3 0.262065 0.713275 0.653930
Si Si4 0.301079 0.124730 0.014119
Si Si5 0.907113 0.122127 0.261426
O O1 0.854374 0.500000 0.584945
O O2 0.589624 0.857014 0.633923
O O3 0.790561 0.711027 0.588196
O O4 0.000000 0.621366 0.500000
O O5 0.346736 0.647586 0.051316
O O6 0.971319 0.844039 0.186766
O O7 0.022387 0.000000 0.111712
O O8 0.201142 0.841997 0.082044
O O9 0.237843 0.796869 0.715577
O O10 0.428833 0.640809 0.678486
O O11 0.314461 0.000000 0.019283
O O12 0.500000 0.159429 0.000000
O O13 0.854930 0.000000 0.258039
#
# Coordination Sequence:
#
# PCOD9198733 Si02
#       5
#     8   8   8   8   8
#     4  10  20  36  58  84 113 145 185 229 274 328
#     4   8  15  28  48  74 107 144 184 236 287 335
#     4  10  21  36  56  83 112 150 184 228 276 337
#     4   8  13  25  46  75 104 137 189 237 281 340
#     4  10  20  37  56  79 114 150 186 231 283 337
#
# _framework density 21.807886
#
# number of rings (size 3 to 8) (size 9 to 14) (size 15 to 20)
#    0.000    2.800    0.000    3.000    0.000    0.000 
#    7.200    0.000    0.000   14.400    0.000    0.000 
#    0.000    0.000    0.000    1.600    0.000    1.600 
#
# Total GULP energy -111535.474650 kJ/mol
# GULP energy per Si atom -5576.773732 kJ/mol
# Density = 2.175825 g / cm^3
# Si number density = 21.807886 Si / 1000 Ang^3
#
#
#
# Elastic Constant Matrix: (Units=GPa)
#
#
# Indices 1 2 3 4 5 6 
#
# 1 61.6416 -2.0303 8.0258 0.0000 -17.7178 0.0000
# 2 -2.0303 77.5482 24.0683 0.0000 -7.2100 0.0000
# 3 8.0258 24.0683 115.3862 0.0000 -25.2816 0.0000
# 4 0.0000 0.0000 0.0000 12.7865 0.0000 -8.9062
# 5 -17.7178 -7.2100 -25.2816 0.0000 27.8650 0.0000
# 6 0.0000 0.0000 0.0000 -8.9062 0.0000 8.2267
#
#
#
# Elastic Compliance Matrix: (Units=1/GPa)
#
#
# Indices 1 2 3 4 5 6 
#
# 1 0.020277 0.001426 0.001495 0.000000 0.014618 0.000000
# 2 0.001426 0.013920 -0.002515 0.000000 0.002227 0.000000
# 3 0.001495 -0.002515 0.011424 0.000000 0.010665 0.000000
# 4 0.000000 0.000000 0.000000 0.317993 0.000000 0.344258
# 5 0.014618 0.002227 0.010665 0.000000 0.055434 0.000000
# 6 0.000000 0.000000 0.000000 0.344258 0.000000 0.494248
#
#
# Mechanical properties :
#
#
# Convention : Reuss Voigt Hill
#
# Bulk Modulus (GPa) = 21.53627 34.96706 28.25166
# Shear Modulus (GPa) = 5.38815 24.74313 15.06564
#
# Velocity S-wave (km/s) = 1.57356 3.37203 2.63122
# Velocity P-wave (km/s) = 3.63295 5.58836 4.71318
#
# Compressibility (1/GPa) = 0.04643330
#
# Stress axis : x y z
#
# Youngs Moduli (GPa) = 49.31715 71.83859 87.53657
#
# Poissons Ratio (x) = -0.10244 -0.13088
# Poissons Ratio (y) = -0.07033 0.22014
# Poissons Ratio (z) = -0.07374 0.18066
#
# Static dielectric constant tensor:
#      x y z
#    x 1.772760 0.000000 -0.041270 
#    y 0.000000 1.808870 0.000000 
#    z -0.041270 0.000000 1.827540 
# 
# From -- ./inp_files/299013.got.cif
#   From: 2010.05.17/outbox.cif.g08.bks.cpg/sg12_150_cif.got.tgz:299013.got - 2010.06.03 13:09:07.
