data_PCOD9198837
_publ_section_title
;
Structure prediction by ZEFSAII (Michael W. Deem and Ramdas Pophale) SiO2 
 PCOD9198837
Probable space group: C 2/M
;
_chemical_formula_sum "Si O2"
_cell_formula_units_Z 48
_cell_length_a 30.065386
_cell_length_b 7.865034
_cell_length_c 19.030445
_cell_angle_alpha 90.000000
_cell_angle_beta 30.771876
_cell_angle_gamma 90.000000
_cell_volume 2302.315540
_symmetry_space_group_name_H-M "C 2/M"
_symmetry_group_IT_number 12
_symmetry_cell_setting 'monoclinic'
loop_
_space_group_symop_operation_xyz
x,y,z
-x,y,-z
-x,-y,-z
x,-y,z
1/2+x,1/2+y,z
1/2-x,1/2+y,-z
1/2-x,1/2-y,-z
1/2+x,1/2-y,z
loop_
_atom_site_type_symbol
_atom_site_label
_atom_site_fract_x
_atom_site_fract_y
_atom_site_fract_z
Si Si1 0.595559 0.698362 0.380965
Si Si2 0.260661 0.796625 0.067523
Si Si3 0.100625 0.298063 0.532455
Si Si4 0.737335 0.703829 0.597165
Si Si5 0.542742 0.291722 0.869242
Si Si6 0.956979 0.798058 0.838540
O O1 0.500000 0.778357 0.500000
O O2 0.589527 0.500000 0.367191
O O3 0.677828 0.768961 0.225539
O O4 0.607170 0.710381 0.448455
O O5 0.261073 0.000000 0.072463
O O6 0.250000 0.750000 0.000000
O O7 0.354622 0.737261 0.968217
O O8 0.109056 0.500000 0.509266
O O9 0.181614 0.232589 0.468374
O O10 0.013253 0.270178 0.696446
O O11 0.736873 0.500000 0.605982
O O12 0.750000 0.750000 0.500000
O O13 0.641529 0.767415 0.743145
O O14 0.541691 0.500000 0.867940
O O15 0.496698 0.234221 0.859196
O O16 0.500000 0.239603 0.000000
O O17 0.968964 0.000000 0.821432
#
# Coordination Sequence:
#
# PCOD9198837 Si02
#       6
#     8   8   8   8   8   8
#     4  10  23  43  65  89 119 156 198 243 301 368
#     4  11  24  42  65  93 125 157 196 247 300 362
#     4  11  23  37  61  92 124 157 203 259 300 352
#     4  10  20  36  58  86 119 157 201 248 297 351
#     4   9  19  35  57  84 117 159 205 248 293 353
#     4  11  22  38  63  88 121 167 206 245 302 361
#
# _framework density 20.848576000000001
#
# number of rings (size 3 to 8) (size 9 to 14) (size 15 to 20)
#    0.000    1.667    1.667    2.500    2.333    3.667 
#    0.000    0.000    0.000    2.500    0.000    0.000 
#    0.000    0.000    0.000    0.000    0.000    0.000 
#
# Total GULP energy -133982.989422 kJ/mol
# GULP energy per Si atom -5582.624559 kJ/mol
# Density = 2.080112 g / cm^3
# Si number density = 20.848576 Si / 1000 Ang^3
#
#
#
# Elastic Constant Matrix: (Units=GPa)
#
#
# Indices 1 2 3 4 5 6 
#
# 1 117.2533 -15.9143 68.5870 0.0039 -11.6478 -0.0021
# 2 -15.9143 28.1333 -9.7945 -0.0011 -3.9291 -0.0046
# 3 68.5870 -9.7945 206.7689 0.0070 -7.1328 -0.0025
# 4 0.0039 -0.0011 0.0070 17.6607 -0.0014 1.5977
# 5 -11.6478 -3.9291 -7.1328 -0.0014 40.3947 -0.0005
# 6 -0.0021 -0.0046 -0.0025 1.5977 -0.0005 16.9994
#
#
#
# Elastic Compliance Matrix: (Units=1/GPa)
#
#
# Indices 1 2 3 4 5 6 
#
# 1 0.011695 0.005866 -0.003487 -0.000001 0.003327 0.000003
# 2 0.005866 0.039686 0.000126 0.000001 0.005574 0.000012
# 3 -0.003487 0.000126 0.006001 -0.000002 0.000067 0.000001
# 4 -0.000001 0.000001 -0.000002 0.057109 0.000001 -0.005367
# 5 0.003327 0.005574 0.000067 0.000001 0.026269 0.000003
# 6 0.000003 0.000012 0.000001 -0.005367 0.000003 0.059330
#
#
# Mechanical properties :
#
#
# Convention : Reuss Voigt Hill
#
# Bulk Modulus (GPa) = 16.02728 48.65686 32.34207
# Shear Modulus (GPa) = 23.16151 35.62945 29.39548
#
# Velocity S-wave (km/s) = 3.33669 4.13845 3.75901
# Velocity P-wave (km/s) = 4.74856 6.79886 5.86402
#
# Compressibility (1/GPa) = 0.06239363
#
# Stress axis : x y z
#
# Youngs Moduli (GPa) = 85.50862 25.19788 166.63534
#
# Poissons Ratio (x) = -0.14782 0.58099
# Poissons Ratio (y) = -0.50161 -0.02105
# Poissons Ratio (z) = 0.29813 -0.00318
#
# Static dielectric constant tensor:
#      x y z
#    x 1.751640 0.000000 0.027710 
#    y 0.000000 1.769650 -0.000070 
#    z 0.027710 -0.000070 2.854020 
# 
# From -- ./inp_files/295356.got.cif
#   From: 2010.05.17/outbox.cif.g08.bks.cpg/sg12_148_cif.got.tgz:295356.got - 2010.06.03 13:09:07.
