data_PCOD9198313
_publ_section_title
;
Structure prediction by ZEFSAII (Michael W. Deem and Ramdas Pophale) SiO2 
 PCOD9198313
Probable space group: C 2/M
;
_chemical_formula_sum "Si O2"
_cell_formula_units_Z 56
_cell_length_a 13.674753
_cell_length_b 24.497196
_cell_length_c 13.328786
_cell_angle_alpha 90.000000
_cell_angle_beta 30.071525
_cell_angle_gamma 90.000000
_cell_volume 2237.351127
_symmetry_space_group_name_H-M "C 2/M"
_symmetry_group_IT_number 12
_symmetry_cell_setting 'monoclinic'
loop_
_space_group_symop_operation_xyz
x,y,z
-x,y,-z
-x,-y,-z
x,-y,z
1/2+x,1/2+y,z
1/2-x,1/2+y,-z
1/2-x,1/2-y,-z
1/2+x,1/2-y,z
loop_
_atom_site_type_symbol
_atom_site_label
_atom_site_fract_x
_atom_site_fract_y
_atom_site_fract_z
Si Si1 0.768170 0.500000 0.328449
Si Si2 0.252905 0.698462 0.926455
Si Si3 0.744635 0.000000 0.897458
Si Si4 0.297532 0.691737 0.504029
Si Si5 0.783268 0.409965 0.921193
Si Si6 0.260128 0.120360 0.717621
Si Si7 0.289796 0.922721 0.489229
Si Si8 0.259991 0.753198 0.719350
O O1 0.697051 0.500000 0.274005
O O2 0.712642 0.450146 0.454295
O O3 0.005702 0.500000 0.106189
O O4 0.473542 0.681762 0.702700
O O5 0.181707 0.729257 0.891318
O O6 0.250000 0.750000 0.000000
O O7 0.176711 0.646169 0.053600
O O8 0.807923 0.948726 0.911405
O O9 0.250000 0.750000 0.500000
O O10 0.205474 0.641804 0.530757
O O11 0.216235 0.702736 0.685008
O O12 0.697246 0.395069 0.887548
O O13 0.984590 0.439356 0.710806
O O14 0.500000 0.120825 0.500000
O O15 0.203534 0.077119 0.679026
O O16 0.196922 0.184045 0.755876
O O17 0.500000 0.756922 0.500000
#
# Coordination Sequence:
#
# PCOD9198313 Si02
#       8
#     4   8   4   8   8   8   8   8
#     4   9  20  37  56  82 113 141 182 240 285 320
#     4  11  21  35  55  81 113 147 182 222 275 334
#     4   9  20  37  56  82 113 141 182 240 285 320
#     4  11  21  35  55  81 113 147 182 222 275 334
#     4  10  20  36  57  80 110 147 186 230 277 326
#     4   9  16  31  54  79 109 143 180 222 268 324
#     4  10  20  36  57  80 110 147 186 230 277 326
#     4   9  18  32  49  75 113 145 174 221 272 325
#
# _framework density 25.029599999999999
#
# number of rings (size 3 to 8) (size 9 to 14) (size 15 to 20)
#    0.000    2.143    2.857    0.857    2.000    0.571 
#    0.000    7.857    0.000    0.857    0.000    2.000 
#    0.000    0.000    0.000    0.000    0.000    0.000 
#
# Total GULP energy -155970.985329 kJ/mol
# GULP energy per Si atom -5570.392333 kJ/mol
# Density = 2.497263 g / cm^3
# Si number density = 25.029600 Si / 1000 Ang^3
#
#
#
# Elastic Constant Matrix: (Units=GPa)
#
#
# Indices 1 2 3 4 5 6 
#
# 1 93.5979 35.5542 49.1091 0.0045 50.9154 -0.0054
# 2 35.5542 145.2141 31.6277 0.0027 34.2080 -0.0029
# 3 49.1091 31.6277 168.0102 0.0020 37.0477 -0.0041
# 4 0.0045 0.0027 0.0020 21.1035 -0.0018 19.0161
# 5 50.9154 34.2080 37.0477 -0.0018 66.1482 0.0029
# 6 -0.0054 -0.0029 -0.0041 19.0161 0.0029 27.9868
#
#
#
# Elastic Compliance Matrix: (Units=1/GPa)
#
#
# Indices 1 2 3 4 5 6 
#
# 1 0.019575 -0.001158 -0.002639 -0.000023 -0.012990 0.000020
# 2 -0.001158 0.007976 -0.000513 -0.000004 -0.002946 0.000004
# 3 -0.002639 -0.000513 0.007203 -0.000002 -0.001737 0.000002
# 4 -0.000023 -0.000004 -0.000002 0.122209 0.000028 -0.083037
# 5 -0.012990 -0.002946 -0.001737 0.000028 0.027613 -0.000025
# 6 0.000020 0.000004 0.000002 -0.083037 -0.000025 0.092152
#
#
# Mechanical properties :
#
#
# Convention : Reuss Voigt Hill
#
# Bulk Modulus (GPa) = 38.26592 71.04489 54.65541
# Shear Modulus (GPa) = 17.00332 42.41644 29.70988
#
# Velocity S-wave (km/s) = 2.60922 4.12108 3.44901
# Velocity P-wave (km/s) = 4.93952 7.14775 6.14366
#
# Compressibility (1/GPa) = 0.02613291
#
# Stress axis : x y z
#
# Youngs Moduli (GPa) = 51.08526 125.38208 138.82679
#
# Poissons Ratio (x) = 0.14517 0.36641
# Poissons Ratio (y) = 0.05915 0.07127
# Poissons Ratio (z) = 0.13483 0.06437
#
# Static dielectric constant tensor:
#      x y z
#    x 1.907750 -0.000010 -0.151970 
#    y -0.000010 1.893290 0.000010 
#    z -0.151970 0.000010 2.035890 
# 
# From -- ./inp_files/149462.got.cif
#   From: 2010.05.17/outbox.cif.g08.bks.cpg/sg12_75_cif.got.tgz:149462.got - 2010.06.03 13:09:07.
