data_PCOD9198722
_publ_section_title
;
Structure prediction by ZEFSAII (Michael W. Deem and Ramdas Pophale) SiO2 
 PCOD9198722
Probable space group: C 2/M
;
_chemical_formula_sum "Si O2"
_cell_formula_units_Z 40
_cell_length_a 17.877452
_cell_length_b 18.535965
_cell_length_c 13.296291
_cell_angle_alpha 90.000000
_cell_angle_beta 151.904313
_cell_angle_gamma 90.000000
_cell_volume 2075.018452
_symmetry_space_group_name_H-M "C 2/M"
_symmetry_group_IT_number 12
_symmetry_cell_setting 'monoclinic'
loop_
_space_group_symop_operation_xyz
x,y,z
-x,y,-z
-x,-y,-z
x,-y,z
1/2+x,1/2+y,z
1/2-x,1/2+y,-z
1/2-x,1/2-y,-z
1/2+x,1/2-y,z
loop_
_atom_site_type_symbol
_atom_site_label
_atom_site_fract_x
_atom_site_fract_y
_atom_site_fract_z
Si Si1 0.864120 0.848229 0.147247
Si Si2 0.524057 0.000000 0.908851
Si Si3 0.584574 0.718779 0.007249
Si Si4 0.609743 0.500000 0.727371
Si Si5 0.411759 0.226285 0.489262
Si Si6 0.993867 0.651647 0.778155
O O1 0.976816 0.791550 0.339764
O O2 0.915568 0.928349 0.237539
O O3 0.879265 0.829044 0.047655
O O4 0.679376 0.842012 0.961795
O O5 0.459197 0.926289 0.782710
O O6 0.500000 0.000000 0.000000
O O7 0.710234 0.000000 0.100703
O O8 0.746350 0.750309 0.245870
O O9 0.500000 0.680042 0.000000
O O10 0.478853 0.785511 0.842713
O O11 0.500000 0.500000 0.500000
O O12 0.500000 0.189189 0.500000
O O13 0.392745 0.173190 0.560816
#
# Coordination Sequence:
#
# PCOD9198722 Si02
#       6
#     8   4   8   4   8   8
#     4  10  20  36  58  84 109 143 191 226 261 339
#     4  10  22  40  56  81 118 140 176 237 272 317
#     4  11  22  36  56  85 113 142 183 236 278 314
#     4  10  22  38  60  80 108 150 186 216 276 330
#     4  11  18  35  62  78 110 147 185 226 272 322
#     4  10  20  36  58  84 109 146 188 220 272 335
#
# _framework density 19.276937
#
# number of rings (size 3 to 8) (size 9 to 14) (size 15 to 20)
#    0.000    1.600    4.000    2.400    2.800    3.200 
#    3.600    2.000    0.000    0.000    0.000    0.000 
#    0.000    0.000    0.000    0.000    0.000    0.000 
#
# Total GULP energy -111622.055257 kJ/mol
# GULP energy per Si atom -5581.102763 kJ/mol
# Density = 1.923306 g / cm^3
# Si number density = 19.276937 Si / 1000 Ang^3
#
#
#
# Elastic Constant Matrix: (Units=GPa)
#
#
# Indices 1 2 3 4 5 6 
#
# 1 117.6954 46.6422 25.8568 0.0000 -38.7353 0.0000
# 2 46.6422 129.7096 25.9441 0.0000 -35.8197 0.0000
# 3 25.8568 25.9441 79.3604 0.0000 -38.5247 0.0000
# 4 0.0000 0.0000 0.0000 12.5596 0.0000 -1.4759
# 5 -38.7353 -35.8197 -38.5247 0.0000 31.8186 0.0000
# 6 0.0000 0.0000 0.0000 -1.4759 0.0000 16.6888
#
#
#
# Elastic Compliance Matrix: (Units=1/GPa)
#
#
# Indices 1 2 3 4 5 6 
#
# 1 0.017802 0.001816 0.012418 0.000000 0.038751 0.000000
# 2 0.001816 0.012669 0.007916 0.000000 0.026057 0.000000
# 3 0.012418 0.007916 0.042769 0.000000 0.075811 0.000000
# 4 0.000000 0.000000 0.000000 0.080456 0.000000 0.007115
# 5 0.038751 0.026057 0.075811 0.000000 0.199725 0.000000
# 6 0.000000 0.000000 0.000000 0.007115 0.000000 0.060550
#
#
# Mechanical properties :
#
#
# Convention : Reuss Voigt Hill
#
# Bulk Modulus (GPa) = 8.50786 58.18351 33.34568
# Shear Modulus (GPa) = 12.22934 27.43488 19.83211
#
# Velocity S-wave (km/s) = 2.52147 3.77662 3.21097
# Velocity P-wave (km/s) = 3.59168 7.01895 5.57520
#
# Compressibility (1/GPa) = 0.11753843
#
# Stress axis : x y z
#
# Youngs Moduli (GPa) = 56.17203 78.93357 23.38157
#
# Poissons Ratio (x) = -0.14335 -0.29034
# Poissons Ratio (y) = -0.10201 -0.18508
# Poissons Ratio (z) = -0.69752 -0.62481
#
# Static dielectric constant tensor:
#      x y z
#    x 1.708550 0.000000 0.034310 
#    y 0.000000 1.656680 0.000000 
#    z 0.034310 0.000000 1.675550 
# 
# From -- ./inp_files/48637.got.cif
#   From: 2010.05.17/outbox.cif.g08.bks.cpg/sg12_25_cif.got.tgz:48637.got - 2010.06.03 13:09:07.
