data_PCOD9198349
_publ_section_title
;
Structure prediction by ZEFSAII (Michael W. Deem and Ramdas Pophale) SiO2 
 PCOD9198349
Probable space group: C 2/M
;
_chemical_formula_sum "Si O2"
_cell_formula_units_Z 48
_cell_length_a 20.665025
_cell_length_b 7.527915
_cell_length_c 14.545231
_cell_angle_alpha 90.000000
_cell_angle_beta 88.819959
_cell_angle_gamma 90.000000
_cell_volume 2262.242457
_symmetry_space_group_name_H-M "C 2/M"
_symmetry_group_IT_number 12
_symmetry_cell_setting 'monoclinic'
loop_
_space_group_symop_operation_xyz
x,y,z
-x,y,-z
-x,-y,-z
x,-y,z
1/2+x,1/2+y,z
1/2-x,1/2+y,-z
1/2-x,1/2-y,-z
1/2+x,1/2-y,z
loop_
_atom_site_type_symbol
_atom_site_label
_atom_site_fract_x
_atom_site_fract_y
_atom_site_fract_z
Si Si1 0.388580 0.281704 0.747887
Si Si2 0.690694 0.710966 0.569323
Si Si3 0.817616 0.711471 0.048319
Si Si4 0.568382 0.282781 0.456654
Si Si5 0.259443 0.793598 0.233591
Si Si6 0.945014 0.795853 0.935871
O O1 0.387805 0.500000 0.748678
O O2 0.417173 0.227470 0.648517
O O3 0.313743 0.220529 0.759291
O O4 0.429287 0.220511 0.835305
O O5 0.684729 0.500000 0.579834
O O6 0.750000 0.750000 0.500000
O O7 0.626077 0.777218 0.521712
O O8 0.707518 0.783864 0.668605
O O9 0.829889 0.500000 0.047467
O O10 0.805162 0.779691 0.152111
O O11 0.750000 0.750000 0.000000
O O12 0.877553 0.794345 0.993010
O O13 0.500000 0.226470 0.500000
O O14 0.569266 0.500000 0.455844
O O15 0.250574 0.000000 0.208796
O O16 0.965390 0.000000 0.918450
O O17 0.000000 0.714204 0.000000
#
# Coordination Sequence:
#
# PCOD9198349 Si02
#       6
#     8   8   8   8   8   8
#     4   9  16  32  54  77 111 150 182 223 285 341
#     4  11  21  34  56  85 112 143 188 236 278 333
#     4  11  22  37  59  84 114 150 194 243 291 346
#     4   9  18  32  53  80 109 143 183 226 274 327
#     4  10  20  36  57  81 113 151 186 230 289 342
#     4  10  21  37  59  86 117 153 192 237 290 350
#
# _framework density 21.217884999999999
#
# number of rings (size 3 to 8) (size 9 to 14) (size 15 to 20)
#    0.000    2.000    3.333    1.000    0.000    3.000 
#    0.000    3.333    0.000    2.000    0.000    0.000 
#    0.000    0.000    0.000    0.000    0.000    0.000 
#
# Total GULP energy -134029.675536 kJ/mol
# GULP energy per Si atom -5584.569814 kJ/mol
# Density = 2.116959 g / cm^3
# Si number density = 21.217885 Si / 1000 Ang^3
#
#
#
# Elastic Constant Matrix: (Units=GPa)
#
#
# Indices 1 2 3 4 5 6 
#
# 1 127.5286 -11.8700 53.9998 0.0000 23.5916 0.0000
# 2 -11.8700 56.8961 -12.8172 0.0000 0.5321 0.0000
# 3 53.9998 -12.8172 165.2564 0.0000 21.2165 0.0000
# 4 0.0000 0.0000 0.0000 13.2814 0.0000 2.5718
# 5 23.5916 0.5321 21.2165 0.0000 36.8282 0.0000
# 6 0.0000 0.0000 0.0000 2.5718 0.0000 12.6738
#
#
#
# Elastic Compliance Matrix: (Units=1/GPa)
#
#
# Indices 1 2 3 4 5 6 
#
# 1 0.009963 0.001562 -0.002497 0.000000 -0.004966 0.000000
# 2 0.001562 0.018178 0.001146 0.000000 -0.001924 0.000000
# 3 -0.002497 0.001146 0.007292 0.000000 -0.002618 0.000000
# 4 0.000000 0.000000 0.000000 0.078373 0.000000 -0.015904
# 5 -0.004966 -0.001924 -0.002618 0.000000 0.031870 0.000000
# 6 0.000000 0.000000 0.000000 -0.015904 0.000000 0.082130
#
#
# Mechanical properties :
#
#
# Convention : Reuss Voigt Hill
#
# Bulk Modulus (GPa) = 27.88846 45.36738 36.62792
# Shear Modulus (GPa) = 20.89128 33.91458 27.40293
#
# Velocity S-wave (km/s) = 3.14125 4.00233 3.59765
# Velocity P-wave (km/s) = 5.13118 6.54112 5.87857
#
# Compressibility (1/GPa) = 0.03585712
#
# Stress axis : x y z
#
# Youngs Moduli (GPa) = 100.37454 55.01127 137.13531
#
# Poissons Ratio (x) = -0.08595 0.34238
# Poissons Ratio (y) = -0.15683 -0.15720
# Poissons Ratio (z) = 0.25060 -0.06306
#
# Static dielectric constant tensor:
#      x y z
#    x 1.732420 0.000000 0.019650 
#    y 0.000000 1.849410 0.000000 
#    z 0.019650 0.000000 1.759470 
# 
# From -- ./inp_files/221540.got.cif
#   From: 2010.05.17/outbox.cif.g08.bks.cpg/sg12_111_cif.got.tgz:221540.got - 2010.06.03 13:09:07.
