data_PCOD9198359
_publ_section_title
;
Structure prediction by ZEFSAII (Michael W. Deem and Ramdas Pophale) SiO2 
 PCOD9198359
Probable space group: C 2/M
;
_chemical_formula_sum "Si O2"
_cell_formula_units_Z 56
_cell_length_a 22.161264
_cell_length_b 17.170704
_cell_length_c 22.255390
_cell_angle_alpha 90.000000
_cell_angle_beta 159.598408
_cell_angle_gamma 90.000000
_cell_volume 2952.180054
_symmetry_space_group_name_H-M "C 2/M"
_symmetry_group_IT_number 12
_symmetry_cell_setting 'monoclinic'
loop_
_space_group_symop_operation_xyz
x,y,z
-x,y,-z
-x,-y,-z
x,-y,z
1/2+x,1/2+y,z
1/2-x,1/2+y,-z
1/2-x,1/2-y,-z
1/2+x,1/2-y,z
loop_
_atom_site_type_symbol
_atom_site_label
_atom_site_fract_x
_atom_site_fract_y
_atom_site_fract_z
Si Si1 0.936609 0.683458 0.820191
Si Si2 0.787670 0.907438 0.175180
Si Si3 0.190643 0.405819 0.869129
Si Si4 0.104875 0.823791 0.041396
Si Si5 0.836945 0.665656 0.588673
Si Si6 0.479053 0.407467 0.236712
Si Si7 0.180429 0.193694 0.686679
O O1 0.880736 0.664204 0.700545
O O2 0.786402 0.667241 0.727731
O O3 0.100781 0.629705 0.988291
O O4 0.990040 0.773342 0.886220
O O5 0.851163 0.878024 0.298514
O O6 0.913381 0.877297 0.239915
O O7 0.777246 0.000000 0.163203
O O8 0.162746 0.500000 0.846536
O O9 0.272061 0.380612 0.881290
O O10 0.014257 0.359053 0.720332
O O11 0.339235 0.382119 0.056409
O O12 0.212143 0.756461 0.175389
O O13 0.000000 0.860478 0.000000
O O14 0.750000 0.750000 0.500000
O O15 0.680259 0.612011 0.419012
O O16 0.464183 0.500000 0.223344
O O17 0.000000 0.230199 0.500000
#
# Coordination Sequence:
#
# PCOD9198359 Si02
#       7
#     8   8   8   8   8   8   8
#     4  10  21  37  58  87 120 161 202 256 303 360
#     4  10  20  36  57  81 119 166 204 244 299 361
#     4  11  24  43  65  90 125 162 202 257 312 368
#     4   9  21  41  63  86 117 158 204 256 314 367
#     4  12  25  36  64  96 121 159 206 250 306 371
#     4  10  22  40  59  86 127 162 198 250 301 360
#     4  10  21  36  56  84 123 154 206 259 302 356
#
# _framework density 18.969033
#
# number of rings (size 3 to 8) (size 9 to 14) (size 15 to 20)
#    0.000    1.714    1.429    3.429    6.000    3.429 
#    0.000    0.000    0.000    0.429    0.000    0.000 
#    0.000    0.000    0.000    0.000    0.000    0.000 
#
# Total GULP energy -156068.153354 kJ/mol
# GULP energy per Si atom -5573.862620 kJ/mol
# Density = 1.892586 g / cm^3
# Si number density = 18.969033 Si / 1000 Ang^3
#
#
#
# Elastic Constant Matrix: (Units=GPa)
#
#
# Indices 1 2 3 4 5 6 
#
# 1 138.3399 40.5656 51.2951 -0.0003 22.5902 -0.0006
# 2 40.5656 44.4567 12.6704 0.0116 4.2538 -0.0001
# 3 51.2951 12.6704 105.7446 0.0157 19.4909 0.0003
# 4 -0.0003 0.0116 0.0157 19.7930 0.0142 6.4309
# 5 22.5902 4.2538 19.4909 0.0142 22.8337 0.0020
# 6 -0.0006 -0.0001 0.0003 6.4309 0.0020 22.0912
#
#
#
# Elastic Compliance Matrix: (Units=1/GPa)
#
#
# Indices 1 2 3 4 5 6 
#
# 1 0.012683 -0.009824 -0.003560 0.000015 -0.007679 -0.000003
# 2 -0.009824 0.031002 0.000384 -0.000023 0.003615 0.000006
# 3 -0.003560 0.000384 0.012462 -0.000006 -0.007188 0.000002
# 4 0.000015 -0.000023 -0.000006 0.055801 -0.000039 -0.016244
# 5 -0.007679 0.003615 -0.007188 -0.000039 0.056854 0.000006
# 6 -0.000003 0.000006 0.000002 -0.016244 0.000006 0.049996
#
#
# Mechanical properties :
#
#
# Convention : Reuss Voigt Hill
#
# Bulk Modulus (GPa) = 33.16859 55.28925 44.22892
# Shear Modulus (GPa) = 19.61967 25.21093 22.41530
#
# Velocity S-wave (km/s) = 3.21954 3.64958 3.44128
# Velocity P-wave (km/s) = 5.59859 6.85344 6.25755
#
# Compressibility (1/GPa) = 0.03014900
#
# Stress axis : x y z
#
# Youngs Moduli (GPa) = 78.84516 32.25578 80.24147
#
# Poissons Ratio (x) = 0.31687 0.28565
# Poissons Ratio (y) = 0.77455 -0.03083
# Poissons Ratio (z) = 0.28068 -0.01239
#
# Static dielectric constant tensor:
#      x y z
#    x 1.750680 0.000020 -0.035210 
#    y 0.000020 1.694440 -0.000040 
#    z -0.035210 -0.000040 1.717160 
# 
# From -- ./inp_files/322716.got.cif
#   From: 2010.05.17/outbox.cif.g08.bks.cpg/sg12_162_cif.got.tgz:322716.got - 2010.06.03 13:09:07.
