data_PCOD9198154
_publ_section_title
;
Structure prediction by ZEFSAII (Michael W. Deem and Ramdas Pophale) SiO2 
 PCOD9198154
Probable space group: C 2/M
;
_chemical_formula_sum "Si O2"
_cell_formula_units_Z 64
_cell_length_a 23.407235
_cell_length_b 8.641808
_cell_length_c 16.788251
_cell_angle_alpha 90.000000
_cell_angle_beta 87.393107
_cell_angle_gamma 90.000000
_cell_volume 3392.426916
_symmetry_space_group_name_H-M "C 2/M"
_symmetry_group_IT_number 12
_symmetry_cell_setting 'monoclinic'
loop_
_space_group_symop_operation_xyz
x,y,z
-x,y,-z
-x,-y,-z
x,-y,z
1/2+x,1/2+y,z
1/2-x,1/2+y,-z
1/2-x,1/2-y,-z
1/2+x,1/2-y,z
loop_
_atom_site_type_symbol
_atom_site_label
_atom_site_fract_x
_atom_site_fract_y
_atom_site_fract_z
Si Si1 0.591495 0.812632 0.772844
Si Si2 0.217875 0.816246 0.761087
Si Si3 0.495073 0.813432 0.091294
Si Si4 0.273840 0.315085 0.916709
Si Si5 0.968870 0.687766 0.383209
Si Si6 0.392841 0.685262 0.833332
Si Si7 0.172232 0.815016 0.323510
Si Si8 0.088669 0.687006 0.451856
O O1 0.654517 0.749225 0.754926
O O2 0.561719 0.762919 0.857363
O O3 0.551412 0.761404 0.701907
O O4 0.593947 0.000000 0.772402
O O5 0.240100 0.759726 0.845626
O O6 0.265008 0.751938 0.696663
O O7 0.217212 0.000000 0.757566
O O8 0.549741 0.763527 0.139713
O O9 0.494092 0.000000 0.088659
O O10 0.500000 0.755934 0.000000
O O11 0.266829 0.500000 0.913454
O O12 0.340804 0.281134 0.897574
O O13 0.250000 0.250000 0.000000
O O14 0.970076 0.500000 0.383029
O O15 0.925012 0.732617 0.456345
O O16 0.032208 0.736573 0.405531
O O17 0.401175 0.500000 0.830092
O O18 0.368736 0.735373 0.748228
O O19 0.143354 0.758755 0.406336
O O20 0.175446 0.000000 0.320202
O O21 0.092386 0.500000 0.448575
#
# Coordination Sequence:
#
# PCOD9198154 Si02
#       8
#     8   8   8   8   8   8   8   8
#     4  10  20  37  56  76 112 152 183 223 277 333
#     4  11  23  38  56  80 106 144 192 232 276 329
#     4  10  22  36  53  81 109 141 182 223 270 326
#     4  10  21  37  57  82 109 140 180 229 280 328
#     4   8  16  31  55  85 114 149 185 222 275 334
#     4   9  20  36  53  76 106 138 175 218 267 323
#     4  10  20  36  56  81 111 143 180 227 284 332
#     4   9  16  31  57  87 114 141 184 231 271 329
#
# _framework density 18.865549999999999
#
# number of rings (size 3 to 8) (size 9 to 14) (size 15 to 20)
#    0.000    2.375    0.000    4.125    1.750    4.750 
#    0.000    3.125    0.000    0.000    0.000    0.000 
#    0.000    0.000    0.000    0.000    0.000    0.000 
#
# Total GULP energy -178597.708850 kJ/mol
# GULP energy per Si atom -5581.178402 kJ/mol
# Density = 1.882261 g / cm^3
# Si number density = 18.865550 Si / 1000 Ang^3
#
#
#
# Elastic Constant Matrix: (Units=GPa)
#
#
# Indices 1 2 3 4 5 6 
#
# 1 78.7227 20.3022 44.0254 0.0000 -15.0805 0.0000
# 2 20.3022 32.7462 21.7418 0.0000 -9.4087 0.0000
# 3 44.0254 21.7418 90.2545 0.0000 -30.1582 0.0000
# 4 0.0000 0.0000 0.0000 20.0916 0.0000 -3.0739
# 5 -15.0805 -9.4087 -30.1582 0.0000 29.5002 0.0000
# 6 0.0000 0.0000 0.0000 -3.0739 0.0000 31.0045
#
#
#
# Elastic Compliance Matrix: (Units=1/GPa)
#
#
# Indices 1 2 3 4 5 6 
#
# 1 0.018580 -0.006578 -0.007603 0.000000 -0.000373 0.000000
# 2 -0.006578 0.038997 -0.004789 0.000000 0.004179 0.000000
# 3 -0.007603 -0.004789 0.021466 0.000000 0.016531 0.000000
# 4 0.000000 0.000000 0.000000 0.050539 0.000000 0.005011
# 5 -0.000373 0.004179 0.016531 0.000000 0.051940 0.000000
# 6 0.000000 0.000000 0.000000 0.005011 0.000000 0.032750
#
#
# Mechanical properties :
#
#
# Convention : Reuss Voigt Hill
#
# Bulk Modulus (GPa) = 24.32973 41.54025 32.93499
# Shear Modulus (GPa) = 18.80324 23.82952 21.31638
#
# Velocity S-wave (km/s) = 3.16048 3.55790 3.36506
# Velocity P-wave (km/s) = 5.12275 6.24060 5.70910
#
# Compressibility (1/GPa) = 0.04110198
#
# Stress axis : x y z
#
# Youngs Moduli (GPa) = 53.82163 25.64322 46.58609
#
# Poissons Ratio (x) = 0.16869 0.35419
# Poissons Ratio (y) = 0.35406 0.22309
# Poissons Ratio (z) = 0.40920 0.12280
#
# Static dielectric constant tensor:
#      x y z
#    x 1.641530 0.000000 -0.012230 
#    y 0.000000 1.640280 0.000000 
#    z -0.012230 0.000000 1.656870 
# 
# From -- ./inp_files/281235.got.cif
#   From: 2010.05.17/outbox.cif.g08.bks.cpg/sg12_141_cif.got.tgz:281235.got - 2010.06.03 13:09:07.
