data_PCOD9198972
_publ_section_title
;
Structure prediction by ZEFSAII (Michael W. Deem and Ramdas Pophale) SiO2 
 PCOD9198972
Probable space group: C 2/M
;
_chemical_formula_sum "Si O2"
_cell_formula_units_Z 48
_cell_length_a 22.402785
_cell_length_b 9.808358
_cell_length_c 12.368240
_cell_angle_alpha 90.000000
_cell_angle_beta 78.624676
_cell_angle_gamma 90.000000
_cell_volume 2664.342965
_symmetry_space_group_name_H-M "C 2/M"
_symmetry_group_IT_number 12
_symmetry_cell_setting 'monoclinic'
loop_
_space_group_symop_operation_xyz
x,y,z
-x,y,-z
-x,-y,-z
x,-y,z
1/2+x,1/2+y,z
1/2-x,1/2+y,-z
1/2-x,1/2-y,-z
1/2+x,1/2-y,z
loop_
_atom_site_type_symbol
_atom_site_label
_atom_site_fract_x
_atom_site_fract_y
_atom_site_fract_z
Si Si1 0.930203 0.660023 0.529480
Si Si2 0.807196 0.654816 0.983129
Si Si3 0.483105 0.661423 0.132442
Si Si4 0.867506 0.345550 0.197110
Si Si5 0.582525 0.841390 0.212887
Si Si6 0.308899 0.837589 0.444607
O O1 0.936326 0.500000 0.495744
O O2 0.910626 0.669353 0.661269
O O3 0.872964 0.709862 0.477967
O O4 0.000000 0.716785 0.500000
O O5 0.787852 0.500000 0.970073
O O6 0.856497 0.690308 0.874649
O O7 0.750000 0.750000 0.000000
O O8 0.837324 0.661524 0.090420
O O9 0.482226 0.500000 0.152230
O O10 0.419402 0.732685 0.181042
O O11 0.531914 0.739261 0.187906
O O12 0.500000 0.683747 0.000000
O O13 0.893392 0.500000 0.200762
O O14 0.820640 0.326439 0.311952
O O15 0.566206 0.000000 0.194064
O O16 0.250000 0.750000 0.500000
O O17 0.300565 0.000000 0.473433
#
# Coordination Sequence:
#
# PCOD9198972 Si02
#       6
#     8   8   8   8   8   8
#     4   9  18  35  59  85 111 146 192 236 278 333
#     4  10  22  36  54  81 111 147 191 232 280 334
#     4  11  22  35  55  87 118 145 180 231 291 338
#     4  10  21  39  60  82 111 151 192 230 277 341
#     4  10  20  36  59  83 110 148 189 230 278 339
#     4  10  22  39  61  87 115 151 194 239 288 340
#
# _framework density 18.015698
#
# number of rings (size 3 to 8) (size 9 to 14) (size 15 to 20)
#    0.000    2.000    1.667    1.500    2.333    5.333 
#    0.000    0.833    0.000    2.000    0.000    0.000 
#    0.000    0.000    0.000    0.000    0.000    0.000 
#
# Total GULP energy -133854.332862 kJ/mol
# GULP energy per Si atom -5577.263869 kJ/mol
# Density = 1.797469 g / cm^3
# Si number density = 18.015698 Si / 1000 Ang^3
#
#
#
# Elastic Constant Matrix: (Units=GPa)
#
#
# Indices 1 2 3 4 5 6 
#
# 1 95.5239 39.4600 35.7629 0.0000 -21.9199 0.0000
# 2 39.4600 46.1652 22.1141 0.0000 -19.1301 0.0000
# 3 35.7629 22.1141 89.3196 0.0000 -21.1041 0.0000
# 4 0.0000 0.0000 0.0000 18.1847 0.0000 -11.5466
# 5 -21.9199 -19.1301 -21.1041 0.0000 22.2907 0.0000
# 6 0.0000 0.0000 0.0000 -11.5466 0.0000 34.5842
#
#
#
# Elastic Compliance Matrix: (Units=1/GPa)
#
#
# Indices 1 2 3 4 5 6 
#
# 1 0.017403 -0.011663 -0.003094 0.000000 0.004175 0.000000
# 2 -0.011663 0.041696 0.000118 0.000000 0.024426 0.000000
# 3 -0.003094 0.000118 0.015085 0.000000 0.011341 0.000000
# 4 0.000000 0.000000 0.000000 0.069786 0.000000 0.023299
# 5 0.004175 0.024426 0.011341 0.000000 0.080666 0.000000
# 6 0.000000 0.000000 0.000000 0.023299 0.000000 0.036694
#
#
# Mechanical properties :
#
#
# Convention : Reuss Voigt Hill
#
# Bulk Modulus (GPa) = 22.26922 47.29808 34.78365
# Shear Modulus (GPa) = 16.36254 23.92338 20.14296
#
# Velocity S-wave (km/s) = 3.01697 3.64801 3.34739
# Velocity P-wave (km/s) = 4.95217 6.63738 5.85571
#
# Compressibility (1/GPa) = 0.04490502
#
# Stress axis : x y z
#
# Youngs Moduli (GPa) = 57.46195 23.98323 66.29162
#
# Poissons Ratio (x) = 0.27972 0.20511
# Poissons Ratio (y) = 0.67019 -0.00782
# Poissons Ratio (z) = 0.17779 -0.00283
#
# Static dielectric constant tensor:
#      x y z
#    x 1.582550 0.000000 0.015790 
#    y 0.000000 1.603250 0.000000 
#    z 0.015790 0.000000 1.618970 
# 
# From -- ./inp_files/172895.got.cif
#   From: 2010.05.17/outbox.cif.g08.bks.cpg/sg12_87_cif.got.tgz:172895.got - 2010.06.03 13:09:07.
