data_PCOD9198580
_publ_section_title
;
Structure prediction by ZEFSAII (Michael W. Deem and Ramdas Pophale) SiO2 
 PCOD9198580
Probable space group: C 2/M
;
_chemical_formula_sum "Si O2"
_cell_formula_units_Z 48
_cell_length_a 19.835009
_cell_length_b 7.453168
_cell_length_c 14.921308
_cell_angle_alpha 90.000000
_cell_angle_beta 100.563645
_cell_angle_gamma 90.000000
_cell_volume 2168.486095
_symmetry_space_group_name_H-M "C 2/M"
_symmetry_group_IT_number 12
_symmetry_cell_setting 'monoclinic'
loop_
_space_group_symop_operation_xyz
x,y,z
-x,y,-z
-x,-y,-z
x,-y,z
1/2+x,1/2+y,z
1/2-x,1/2+y,-z
1/2-x,1/2-y,-z
1/2+x,1/2-y,z
loop_
_atom_site_type_symbol
_atom_site_label
_atom_site_fract_x
_atom_site_fract_y
_atom_site_fract_z
Si Si1 0.960212 0.213191 0.578314
Si Si2 0.219033 0.704042 0.725950
Si Si3 0.808167 0.214658 0.587410
Si Si4 0.065544 0.719211 0.959409
Si Si5 0.426564 0.783483 0.245879
Si Si6 0.706327 0.212613 0.077180
O O1 0.883287 0.284877 0.577594
O O2 0.000000 0.285584 0.500000
O O3 0.008439 0.239460 0.676685
O O4 0.952711 0.000000 0.561412
O O5 0.206264 0.500000 0.691050
O O6 0.272846 0.786587 0.669428
O O7 0.143668 0.784901 0.724505
O O8 0.256786 0.700320 0.830043
O O9 0.750000 0.250000 0.500000
O O10 0.817523 0.000000 0.600602
O O11 0.066560 0.500000 0.956764
O O12 0.067779 0.778792 0.856109
O O13 0.131143 0.776780 0.032518
O O14 0.000000 0.775123 0.000000
O O15 0.420994 0.000000 0.240339
O O16 0.704015 0.000000 0.094208
O O17 0.750000 0.250000 0.000000
#
# Coordination Sequence:
#
# PCOD9198580 Si02
#       6
#     8   8   8   8   8   8
#     4  10  22  39  57  81 115 147 178 226 284 337
#     4  10  21  38  57  82 115 147 187 237 281 326
#     4  10  22  39  60  84 114 147 184 235 283 332
#     4   9  19  35  54  79 113 148 185 229 271 317
#     4  10  20  36  58  81 109 146 186 230 273 324
#     4  11  21  36  59  84 113 151 190 231 279 331
#
# _framework density 22.135258
#
# number of rings (size 3 to 8) (size 9 to 14) (size 15 to 20)
#    0.000    2.000    1.667    1.500    2.333    2.333 
#    0.000    0.000    0.000    2.500    0.000    0.000 
#    0.000    0.000    0.000    0.000    0.000    0.000 
#
# Total GULP energy -134041.071954 kJ/mol
# GULP energy per Si atom -5585.044665 kJ/mol
# Density = 2.208488 g / cm^3
# Si number density = 22.135258 Si / 1000 Ang^3
#
#
#
# Elastic Constant Matrix: (Units=GPa)
#
#
# Indices 1 2 3 4 5 6 
#
# 1 244.5470 1.4930 77.6171 0.0000 -11.7579 0.0000
# 2 1.4930 68.8678 -11.6841 0.0000 -10.6551 0.0000
# 3 77.6171 -11.6841 111.7268 0.0000 -11.1632 0.0000
# 4 0.0000 0.0000 0.0000 13.0085 0.0000 20.3640
# 5 -11.7579 -10.6551 -11.1632 0.0000 43.7441 0.0000
# 6 0.0000 0.0000 0.0000 20.3640 0.0000 -3.4365
#
#
#
# Elastic Compliance Matrix: (Units=1/GPa)
#
#
# Indices 1 2 3 4 5 6 
#
# 1 0.005287 -0.000698 -0.003716 0.000000 0.000303 0.000000
# 2 -0.000698 0.015628 0.002546 0.000000 0.004269 0.000000
# 3 -0.003716 0.002546 0.012068 0.000000 0.002701 0.000000
# 4 0.000000 0.000000 0.000000 0.007481 0.000000 0.044328
# 5 0.000303 0.004269 0.002701 0.000000 0.024671 0.000000
# 6 0.000000 0.000000 0.000000 0.044328 0.000000 -0.028316
#
#
# Mechanical properties :
#
#
# Convention : Reuss Voigt Hill
#
# Bulk Modulus (GPa) = 34.19160 62.22151 48.20655
# Shear Modulus (GPa) = 99.39621 34.51093 66.95357
#
# Velocity S-wave (km/s) = 6.70832 3.95282 5.50574
# Velocity P-wave (km/s) = 8.68805 7.00027 7.88942
#
# Compressibility (1/GPa) = 0.02924695
#
# Stress axis : x y z
#
# Youngs Moduli (GPa) = 189.12781 63.98742 82.86372
#
# Poissons Ratio (x) = 0.04468 0.30792
# Poissons Ratio (y) = 0.13205 -0.21096
# Poissons Ratio (z) = 0.70279 -0.16291
#
# Static dielectric constant tensor:
#      x y z
#    x 1.828520 0.000000 -0.035480 
#    y 0.000000 1.831810 0.000000 
#    z -0.035480 0.000000 1.778750 
# 
# From -- ./inp_files/221693.got.cif
#   From: 2010.05.17/outbox.cif.g08.bks.cpg/sg12_111_cif.got.tgz:221693.got - 2010.06.03 13:09:07.
