data_PCOD9198090
_publ_section_title
;
Structure prediction by ZEFSAII (Michael W. Deem and Ramdas Pophale) SiO2 
 PCOD9198090
Probable space group: C 2/M
;
_chemical_formula_sum "Si O2"
_cell_formula_units_Z 56
_cell_length_a 14.322947
_cell_length_b 13.149598
_cell_length_c 28.238183
_cell_angle_alpha 90.000000
_cell_angle_beta 147.210005
_cell_angle_gamma 90.000000
_cell_volume 2880.244323
_symmetry_space_group_name_H-M "C 2/M"
_symmetry_group_IT_number 12
_symmetry_cell_setting 'monoclinic'
loop_
_space_group_symop_operation_xyz
x,y,z
-x,y,-z
-x,-y,-z
x,-y,z
1/2+x,1/2+y,z
1/2-x,1/2+y,-z
1/2-x,1/2-y,-z
1/2+x,1/2-y,z
loop_
_atom_site_type_symbol
_atom_site_label
_atom_site_fract_x
_atom_site_fract_y
_atom_site_fract_z
Si Si1 0.455172 0.613867 0.855016
Si Si2 0.771493 0.886619 0.109244
Si Si3 0.983205 0.616977 0.769914
Si Si4 0.348761 0.326607 0.969992
Si Si5 0.991457 0.810259 0.284671
Si Si6 0.149622 0.615612 0.602320
Si Si7 0.196700 0.230905 0.706704
O O1 0.389821 0.500000 0.836336
O O2 0.551234 0.615522 0.845553
O O3 0.309167 0.698073 0.790042
O O4 0.596597 0.641593 0.954509
O O5 0.661184 0.795437 0.040452
O O6 0.831389 0.859759 0.187668
O O7 0.699937 0.000000 0.074600
O O8 0.965768 0.500000 0.748326
O O9 0.827071 0.651676 0.737648
O O10 0.163529 0.632454 0.874827
O O11 0.989662 0.696407 0.729104
O O12 0.500000 0.364826 0.000000
O O13 0.950756 0.813413 0.322719
O O14 0.166714 0.866078 0.344633
O O15 0.144315 0.500000 0.618396
O O16 0.132454 0.695339 0.637618
O O17 0.000000 0.628968 0.500000
#
# Coordination Sequence:
#
# PCOD9198090 Si02
#       7
#     8   8   8   8   8   8   8
#     4  11  20  34  58  79 108 155 200 243 291 341
#     4  10  20  36  56  78 112 155 195 243 291 339
#     4  10  22  39  55  80 116 155 197 239 290 341
#     4  11  22  36  52  77 114 152 199 252 292 339
#     4  10  21  38  61  87 120 150 192 239 284 344
#     4  10  21  40  66  93 121 150 186 235 289 350
#     4  11  22  38  62  87 116 154 192 241 290 348
#
# _framework density 19.442795
#
# number of rings (size 3 to 8) (size 9 to 14) (size 15 to 20)
#    0.000    1.571    4.286    3.429    0.000    5.429 
#    0.000    0.000    0.000    6.857    0.000    0.000 
#    0.000    0.000    0.000    0.000    0.000    0.000 
#
# Total GULP energy -156412.818573 kJ/mol
# GULP energy per Si atom -5586.172092 kJ/mol
# Density = 1.939854 g / cm^3
# Si number density = 19.442795 Si / 1000 Ang^3
#
#
#
# Elastic Constant Matrix: (Units=GPa)
#
#
# Indices 1 2 3 4 5 6 
#
# 1 101.8373 0.9043 10.9588 0.0000 -6.2714 0.0000
# 2 0.9043 82.1640 7.1615 0.0000 -2.1154 0.0000
# 3 10.9588 7.1615 51.6382 0.0000 -7.0936 0.0000
# 4 0.0000 0.0000 0.0000 6.5352 0.0000 -1.0679
# 5 -6.2714 -2.1154 -7.0936 0.0000 9.9264 0.0000
# 6 0.0000 0.0000 0.0000 -1.0679 0.0000 0.8135
#
#
#
# Elastic Compliance Matrix: (Units=1/GPa)
#
#
# Indices 1 2 3 4 5 6 
#
# 1 0.010314 0.000155 -0.001453 0.000000 0.005511 0.000000
# 2 0.000155 0.012344 -0.001519 0.000000 0.001643 0.000000
# 3 -0.001453 -0.001519 0.021860 0.000000 0.014379 0.000001
# 4 0.000000 0.000000 0.000000 0.194808 0.000000 0.255739
# 5 0.005511 0.001643 0.014379 0.000000 0.114848 0.000001
# 6 0.000000 0.000000 0.000001 0.255739 0.000001 1.565006
#
#
# Mechanical properties :
#
#
# Convention : Reuss Voigt Hill
#
# Bulk Modulus (GPa) = 25.71829 30.40984 28.06407
# Shear Modulus (GPa) = 2.58028 17.89603 10.23815
#
# Velocity S-wave (km/s) = 1.15325 3.03718 2.29722
# Velocity P-wave (km/s) = 3.87682 5.28903 4.63700
#
# Compressibility (1/GPa) = 0.03888284
#
# Stress axis : x y z
#
# Youngs Moduli (GPa) = 96.95590 81.01243 45.74584
#
# Poissons Ratio (x) = -0.01256 0.06648
# Poissons Ratio (y) = -0.01503 0.06949
# Poissons Ratio (z) = 0.14091 0.12307
#
# Static dielectric constant tensor:
#      x y z
#    x 1.719180 0.000000 0.006000 
#    y 0.000000 1.700660 0.000000 
#    z 0.006000 0.000000 1.671210 
# 
# From -- ./inp_files/269573.got.cif
#   From: 2010.05.17/outbox.cif.g08.bks.cpg/sg12_135_cif.got.tgz:269573.got - 2010.06.03 13:09:07.
