data_PCOD9198376
_publ_section_title
;
Structure prediction by ZEFSAII (Michael W. Deem and Ramdas Pophale) SiO2 
 PCOD9198376
Probable space group: C 2/M
;
_chemical_formula_sum "Si O2"
_cell_formula_units_Z 64
_cell_length_a 20.795978
_cell_length_b 8.157782
_cell_length_c 22.474303
_cell_angle_alpha 90.000000
_cell_angle_beta 120.469059
_cell_angle_gamma 90.000000
_cell_volume 3286.216166
_symmetry_space_group_name_H-M "C 2/M"
_symmetry_group_IT_number 12
_symmetry_cell_setting 'monoclinic'
loop_
_space_group_symop_operation_xyz
x,y,z
-x,y,-z
-x,-y,-z
x,-y,z
1/2+x,1/2+y,z
1/2-x,1/2+y,-z
1/2-x,1/2-y,-z
1/2+x,1/2-y,z
loop_
_atom_site_type_symbol
_atom_site_label
_atom_site_fract_x
_atom_site_fract_y
_atom_site_fract_z
Si Si1 0.454081 0.195226 0.194584
Si Si2 0.889777 0.198109 0.909670
Si Si3 0.269713 0.196881 0.760939
Si Si4 0.876672 0.299469 0.705911
Si Si5 0.478505 0.697581 0.555805
Si Si6 0.395900 0.303001 0.293026
Si Si7 0.166548 0.304207 0.446638
Si Si8 0.448808 0.697470 0.062805
O O1 0.539952 0.255307 0.238787
O O2 0.411309 0.262314 0.231683
O O3 0.424332 0.242595 0.115762
O O4 0.454807 0.000000 0.199731
O O5 0.818011 0.262309 0.841828
O O6 0.965904 0.251462 0.911540
O O7 0.888442 0.000000 0.907747
O O8 0.899692 0.249902 0.982993
O O9 0.316816 0.257938 0.726376
O O10 0.185343 0.259784 0.725441
O O11 0.265798 0.000000 0.753946
O O12 0.876490 0.500000 0.706655
O O13 0.856413 0.245224 0.630060
O O14 0.500000 0.756852 0.500000
O O15 0.483110 0.500000 0.557213
O O16 0.537279 0.758909 0.633195
O O17 0.395211 0.743096 0.536021
O O18 0.395228 0.500000 0.298369
O O19 0.163969 0.500000 0.444899
O O20 0.250000 0.250000 0.500000
O O21 0.449366 0.500000 0.063431
#
# Coordination Sequence:
#
# PCOD9198376 Si02
#       8
#     8   8   8   8   8   8   8   8
#     4  11  20  35  58  84 111 146 189 234 281 327
#     4   9  18  33  53  81 115 147 180 230 284 332
#     4  10  20  36  57  82 112 148 188 231 279 332
#     4   9  19  35  57  82 112 145 183 234 282 324
#     4  10  22  40  62  85 113 154 197 234 282 345
#     4  10  22  38  58  82 113 151 189 229 278 339
#     4  11  23  40  61  87 120 152 188 238 289 338
#     4   9  18  33  54  81 114 148 183 226 284 338
#
# _framework density 19.475285
#
# number of rings (size 3 to 8) (size 9 to 14) (size 15 to 20)
#    0.000    2.125    2.500    1.500    1.750    1.250 
#    0.000    3.125    0.000    0.000    0.000    0.000 
#    0.000    0.000    0.000    0.000    0.000    0.000 
#
# Total GULP energy -178647.892467 kJ/mol
# GULP energy per Si atom -5582.746640 kJ/mol
# Density = 1.943096 g / cm^3
# Si number density = 19.475285 Si / 1000 Ang^3
#
#
#
# Elastic Constant Matrix: (Units=GPa)
#
#
# Indices 1 2 3 4 5 6 
#
# 1 140.1673 8.6230 51.9410 0.0000 -10.1347 0.0000
# 2 8.6230 11.0766 4.5414 0.0000 -0.8187 0.0000
# 3 51.9410 4.5414 96.1765 0.0000 -18.5303 0.0000
# 4 0.0000 0.0000 0.0000 18.7187 0.0000 3.8789
# 5 -10.1347 -0.8187 -18.5303 0.0000 29.4088 0.0000
# 6 0.0000 0.0000 0.0000 3.8789 0.0000 18.3186
#
#
#
# Elastic Compliance Matrix: (Units=1/GPa)
#
#
# Indices 1 2 3 4 5 6 
#
# 1 0.009207 -0.005231 -0.004715 0.000000 0.000057 0.000000
# 2 -0.005231 0.095035 -0.001708 0.000000 -0.000233 0.000000
# 3 -0.004715 -0.001708 0.014457 0.000000 0.007437 0.000000
# 4 0.000000 0.000000 0.000000 0.055874 0.000000 -0.011831
# 5 0.000057 -0.000233 0.007437 0.000000 0.038703 0.000000
# 6 0.000000 0.000000 0.000000 -0.011831 0.000000 0.057095
#
#
# Mechanical properties :
#
#
# Convention : Reuss Voigt Hill
#
# Bulk Modulus (GPa) = 10.48280 41.95902 26.22091
# Shear Modulus (GPa) = 15.36218 25.44355 20.40287
#
# Velocity S-wave (km/s) = 2.81161 3.61841 3.24022
# Velocity P-wave (km/s) = 3.99181 6.24890 5.24325
#
# Compressibility (1/GPa) = 0.09539431
#
# Stress axis : x y z
#
# Youngs Moduli (GPa) = 108.60993 10.52241 69.16952
#
# Poissons Ratio (x) = 0.05504 0.32610
# Poissons Ratio (y) = 0.56809 0.11811
# Poissons Ratio (z) = 0.51205 0.01797
#
# Static dielectric constant tensor:
#      x y z
#    x 1.668090 0.000000 0.002040 
#    y 0.000000 1.687550 0.000000 
#    z 0.002040 0.000000 1.685210 
# 
# From -- ./inp_files/320092.got.cif
#   From: 2010.05.17/outbox.cif.g08.bks.cpg/sg12_161_cif.got.tgz:320092.got - 2010.06.03 13:09:07.
