data_PCOD9198912
_publ_section_title
;
Structure prediction by ZEFSAII (Michael W. Deem and Ramdas Pophale) SiO2 
 PCOD9198912
Probable space group: C 2/M
;
_chemical_formula_sum "Si O2"
_cell_formula_units_Z 64
_cell_length_a 9.344933
_cell_length_b 26.832683
_cell_length_c 18.819710
_cell_angle_alpha 90.000000
_cell_angle_beta 43.661197
_cell_angle_gamma 90.000000
_cell_volume 3257.987140
_symmetry_space_group_name_H-M "C 2/M"
_symmetry_group_IT_number 12
_symmetry_cell_setting 'monoclinic'
loop_
_space_group_symop_operation_xyz
x,y,z
-x,y,-z
-x,-y,-z
x,-y,z
1/2+x,1/2+y,z
1/2-x,1/2+y,-z
1/2-x,1/2-y,-z
1/2+x,1/2-y,z
loop_
_atom_site_type_symbol
_atom_site_label
_atom_site_fract_x
_atom_site_fract_y
_atom_site_fract_z
Si Si1 0.310416 0.877591 0.883491
Si Si2 0.266887 0.944889 0.684503
Si Si3 0.021200 0.888975 0.111979
Si Si4 0.961266 0.726761 0.889722
Si Si5 0.431888 0.619691 0.358207
Si Si6 0.886610 0.195220 0.806669
Si Si7 0.751265 0.943667 0.542537
Si Si8 0.794695 0.442967 0.277964
O O1 0.156794 0.864271 0.873843
O O2 0.402589 0.826973 0.880874
O O3 0.490036 0.914250 0.795464
O O4 0.189477 0.902897 0.992712
O O5 0.098339 0.933221 0.805601
O O6 0.229442 0.902942 0.639610
O O7 0.501245 0.942562 0.626894
O O8 0.232901 0.000000 0.666410
O O9 0.115170 0.851420 0.137016
O O10 0.010714 0.762927 0.805769
O O11 0.160553 0.717680 0.868431
O O12 0.750000 0.750000 0.000000
O O13 0.502555 0.673576 0.304139
O O14 0.334679 0.603681 0.468536
O O15 0.641228 0.586528 0.281474
O O16 0.798732 0.941752 0.608920
O O17 0.810948 0.000000 0.494038
O O18 0.821052 0.500000 0.247299
#
# Coordination Sequence:
#
# PCOD9198912 Si02
#       8
#     8   8   8   8   8   8   8   8
#     4  11  22  39  60  92 124 167 205 255 318 377
#     4  10  20  36  58  89 125 163 214 260 300 367
#     4  10  22  37  58  88 126 161 205 254 315 373
#     4  12  23  39  66  89 120 158 204 262 311 371
#     4  11  22  38  60  92 125 162 207 262 318 366
#     4  11  24  40  62  96 121 154 203 268 317 371
#     4  10  20  37  63  92 122 167 222 261 302 364
#     4  11  22  38  60  94 134 169 210 258 307 377
#
# _framework density 19.644030000000001
#
# number of rings (size 3 to 8) (size 9 to 14) (size 15 to 20)
#    0.000    1.250    3.750    3.000    1.750    2.500 
#    0.000    1.250    0.000    3.000    3.250    0.000 
#    0.000    0.000    0.000    0.000    0.000    0.000 
#
# Total GULP energy -178466.854361 kJ/mol
# GULP energy per Si atom -5577.089199 kJ/mol
# Density = 1.959932 g / cm^3
# Si number density = 19.644030 Si / 1000 Ang^3
#
#
#
# Elastic Constant Matrix: (Units=GPa)
#
#
# Indices 1 2 3 4 5 6 
#
# 1 99.4760 20.1041 10.8211 0.0000 -8.5938 0.0000
# 2 20.1041 61.6307 39.2316 0.0000 -8.6606 0.0000
# 3 10.8211 39.2316 82.4021 0.0000 -1.1255 0.0000
# 4 0.0000 0.0000 0.0000 25.3095 0.0000 -0.3972
# 5 -8.5938 -8.6606 -1.1255 0.0000 22.1139 0.0000
# 6 0.0000 0.0000 0.0000 -0.3972 0.0000 33.1048
#
#
#
# Elastic Compliance Matrix: (Units=1/GPa)
#
#
# Indices 1 2 3 4 5 6 
#
# 1 0.010951 -0.003246 0.000148 0.000000 0.002992 0.000000
# 2 -0.003246 0.025984 -0.011831 0.000000 0.008313 0.000000
# 3 0.000148 -0.011831 0.017699 0.000000 -0.003675 0.000000
# 4 0.000000 0.000000 0.000000 0.039518 0.000000 0.000474
# 5 0.002992 0.008313 -0.003675 0.000000 0.049452 0.000000
# 6 0.000000 0.000000 0.000000 0.000474 0.000000 0.030213
#
#
# Mechanical properties :
#
#
# Convention : Reuss Voigt Hill
#
# Bulk Modulus (GPa) = 40.36219 42.64694 41.50457
# Shear Modulus (GPa) = 23.59232 27.66241 25.62736
#
# Velocity S-wave (km/s) = 3.46929 3.75665 3.61583
# Velocity P-wave (km/s) = 6.05305 6.36974 6.21341
#
# Compressibility (1/GPa) = 0.02477566
#
# Stress axis : x y z
#
# Youngs Moduli (GPa) = 91.31517 38.48525 56.50113
#
# Poissons Ratio (x) = 0.12493 -0.00838
# Poissons Ratio (y) = 0.29643 0.66847
# Poissons Ratio (z) = -0.01354 0.45532
#
# Static dielectric constant tensor:
#      x y z
#    x 1.718450 0.000000 0.006570 
#    y 0.000000 1.660990 0.000000 
#    z 0.006570 0.000000 1.744470 
# 
# From -- ./inp_files/260337.got.cif
#   From: 2010.05.17/outbox.cif.g08.bks.cpg/sg12_131_cif.got.tgz:260337.got - 2010.06.03 13:09:07.
