data_PCOD9198657
_publ_section_title
;
Structure prediction by ZEFSAII (Michael W. Deem and Ramdas Pophale) SiO2 
 PCOD9198657
Probable space group: C 2/M
;
_chemical_formula_sum "Si O2"
_cell_formula_units_Z 64
_cell_length_a 32.221852
_cell_length_b 7.542983
_cell_length_c 12.301431
_cell_angle_alpha 90.000000
_cell_angle_beta 88.265059
_cell_angle_gamma 90.000000
_cell_volume 2988.478451
_symmetry_space_group_name_H-M "C 2/M"
_symmetry_group_IT_number 12
_symmetry_cell_setting 'monoclinic'
loop_
_space_group_symop_operation_xyz
x,y,z
-x,y,-z
-x,-y,-z
x,-y,z
1/2+x,1/2+y,z
1/2-x,1/2+y,-z
1/2-x,1/2-y,-z
1/2+x,1/2-y,z
loop_
_atom_site_type_symbol
_atom_site_label
_atom_site_fract_x
_atom_site_fract_y
_atom_site_fract_z
Si Si1 0.829702 0.296991 0.252482
Si Si2 0.951456 0.786135 0.008238
Si Si3 0.499647 0.213028 0.375580
Si Si4 0.420070 0.287131 0.778203
Si Si5 0.671638 0.282950 0.278407
Si Si6 0.298448 0.289163 0.488055
Si Si7 0.079057 0.703824 0.754439
Si Si8 0.750222 0.287132 0.128303
O O1 0.835174 0.500000 0.212256
O O2 0.814816 0.297944 0.377591
O O3 0.875277 0.211698 0.251832
O O4 0.792433 0.218617 0.182579
O O5 0.931349 0.722846 0.897875
O O6 0.946712 0.000000 0.015693
O O7 0.933644 0.706615 0.119094
O O8 0.000000 0.746413 0.000000
O O9 0.500000 0.278180 0.500000
O O10 0.542291 0.249588 0.307630
O O11 0.459252 0.280784 0.312360
O O12 0.496235 0.000000 0.379367
O O13 0.417633 0.500000 0.784523
O O14 0.374495 0.222679 0.748747
O O15 0.671938 0.500000 0.276260
O O16 0.681321 0.228691 0.400908
O O17 0.708707 0.224125 0.194655
O O18 0.305028 0.500000 0.477487
O O19 0.250000 0.250000 0.500000
O O20 0.083792 0.500000 0.715603
O O21 0.750470 0.500000 0.142580
O O22 0.750000 0.250000 0.000000
#
# Coordination Sequence:
#
# PCOD9198657 Si02
#       8
#     8   8   8   8   8   8   8   8
#     4  10  22  40  59  83 116 152 190 236 285 333
#     4  10  20  36  58  83 110 143 189 239 279 328
#     4  10  22  39  56  81 116 149 185 230 281 334
#     4  10  21  38  59  83 112 148 188 230 281 332
#     4   9  20  38  58  82 114 149 182 229 284 329
#     4  11  21  38  62  86 113 148 191 235 284 339
#     4  10  22  38  58  82 113 152 188 230 285 337
#     4  10  21  39  58  80 115 150 184 231 281 333
#
# _framework density 21.415581
#
# number of rings (size 3 to 8) (size 9 to 14) (size 15 to 20)
#    0.000    2.000    2.500    0.375    3.500    2.000 
#    0.000    1.250    0.000    0.000    0.000    0.000 
#    0.000    0.000    0.000    0.000    0.000    0.000 
#
# Total GULP energy -178702.727023 kJ/mol
# GULP energy per Si atom -5584.460219 kJ/mol
# Density = 2.136684 g / cm^3
# Si number density = 21.415581 Si / 1000 Ang^3
#
#
#
# Elastic Constant Matrix: (Units=GPa)
#
#
# Indices 1 2 3 4 5 6 
#
# 1 215.7043 11.2642 103.7880 0.0000 24.9980 0.0000
# 2 11.2642 52.0884 -1.2353 0.0000 5.5638 0.0000
# 3 103.7880 -1.2353 175.8119 0.0000 24.8686 0.0000
# 4 0.0000 0.0000 0.0000 26.8559 0.0000 -2.3874
# 5 24.9980 5.5638 24.8686 0.0000 43.2049 0.0000
# 6 0.0000 0.0000 0.0000 -2.3874 0.0000 8.9360
#
#
#
# Elastic Compliance Matrix: (Units=1/GPa)
#
#
# Indices 1 2 3 4 5 6 
#
# 1 0.006684 -0.001370 -0.003738 0.000000 -0.001540 0.000000
# 2 -0.001370 0.019793 0.001302 0.000000 -0.002506 0.000000
# 3 -0.003738 0.001302 0.008297 0.000000 -0.002781 0.000000
# 4 0.000000 0.000000 0.000000 0.038142 0.000000 0.010190
# 5 -0.001540 -0.002506 -0.002781 0.000000 0.025960 0.000000
# 6 0.000000 0.000000 0.000000 0.010190 0.000000 0.114630
#
#
# Mechanical properties :
#
#
# Convention : Reuss Voigt Hill
#
# Bulk Modulus (GPa) = 36.81439 74.58205 55.69822
# Shear Modulus (GPa) = 21.72302 37.78522 29.75412
#
# Velocity S-wave (km/s) = 3.18835 4.20501 3.73147
# Velocity P-wave (km/s) = 5.54814 7.64708 6.68056
#
# Compressibility (1/GPa) = 0.02716329
#
# Stress axis : x y z
#
# Youngs Moduli (GPa) = 149.60065 50.52324 120.52557
#
# Poissons Ratio (x) = 0.06920 0.45051
# Poissons Ratio (y) = 0.20491 -0.15694
# Poissons Ratio (z) = 0.55919 -0.06579
#
# Static dielectric constant tensor:
#      x y z
#    x 1.770750 0.000000 0.030420 
#    y 0.000000 1.860020 0.000000 
#    z 0.030420 0.000000 1.706390 
# 
# From -- ./inp_files/187548.got.cif
#   From: 2010.05.17/outbox.cif.g08.bks.cpg/sg12_94_cif.got.tgz:187548.got - 2010.06.03 13:09:07.
