data_PCOD9198108
_publ_section_title
;
Structure prediction by ZEFSAII (Michael W. Deem and Ramdas Pophale) SiO2 
 PCOD9198108
Probable space group: C 2/M
;
_chemical_formula_sum "Si O2"
_cell_formula_units_Z 64
_cell_length_a 20.999238
_cell_length_b 8.649347
_cell_length_c 25.073718
_cell_angle_alpha 90.000000
_cell_angle_beta 51.101358
_cell_angle_gamma 90.000000
_cell_volume 3544.289639
_symmetry_space_group_name_H-M "C 2/M"
_symmetry_group_IT_number 12
_symmetry_cell_setting 'monoclinic'
loop_
_space_group_symop_operation_xyz
x,y,z
-x,y,-z
-x,-y,-z
x,-y,z
1/2+x,1/2+y,z
1/2-x,1/2+y,-z
1/2-x,1/2-y,-z
1/2+x,1/2-y,z
loop_
_atom_site_type_symbol
_atom_site_label
_atom_site_fract_x
_atom_site_fract_y
_atom_site_fract_z
Si Si1 0.103443 0.814708 0.792206
Si Si2 0.981227 0.812952 0.949274
Si Si3 0.055376 0.812766 0.420223
Si Si4 0.546487 0.685447 0.203756
Si Si5 0.006192 0.685315 0.659577
Si Si6 0.158578 0.315407 0.052300
Si Si7 0.305426 0.186685 0.423497
Si Si8 0.258333 0.686084 0.658341
O O1 0.191369 0.742552 0.735699
O O2 0.057165 0.770222 0.870908
O O3 0.040217 0.769425 0.778276
O O4 0.110929 0.000000 0.787496
O O5 0.900035 0.743336 0.964944
O O6 0.973177 0.000000 0.951761
O O7 0.000000 0.766698 0.000000
O O8 0.149240 0.763508 0.379342
O O9 0.000000 0.766735 0.500000
O O10 0.022514 0.744492 0.382543
O O11 0.052829 0.000000 0.418445
O O12 0.552398 0.500000 0.199263
O O13 0.545812 0.745728 0.264230
O O14 0.615785 0.755283 0.129106
O O15 0.002146 0.500000 0.663885
O O16 0.100541 0.734267 0.618571
O O17 0.160320 0.500000 0.051260
O O18 0.250000 0.250000 0.000000
O O19 0.250000 0.250000 0.500000
O O20 0.271090 0.239947 0.384522
O O21 0.302559 0.000000 0.425931
O O22 0.257847 0.500000 0.658284
#
# Coordination Sequence:
#
# PCOD9198108 Si02
#       8
#     8   8   8   8   8   8   8   8
#     4   9  18  33  57  86 112 146 185 230 285 337
#     4   9  19  38  61  86 119 156 196 239 285 340
#     4  10  22  40  59  77 108 155 196 234 288 348
#     4  10  20  37  61  87 116 152 193 236 289 347
#     4  11  22  37  58  85 115 147 187 239 291 344
#     4  11  22  38  61  89 122 158 197 241 289 343
#     4  10  21  35  55  83 110 140 184 232 281 332
#     4  10  20  36  56  79 109 145 185 233 281 335
#
# _framework density 18.057214999999999
#
# number of rings (size 3 to 8) (size 9 to 14) (size 15 to 20)
#    0.000    2.000    1.250    3.375    0.000    5.500 
#    2.250    0.000    0.000    0.000    0.000    0.000 
#    0.000    0.000    0.000    0.000    0.000    0.000 
#
# Total GULP energy -178680.019762 kJ/mol
# GULP energy per Si atom -5583.750618 kJ/mol
# Density = 1.801612 g / cm^3
# Si number density = 18.057215 Si / 1000 Ang^3
#
#
#
# Elastic Constant Matrix: (Units=GPa)
#
#
# Indices 1 2 3 4 5 6 
#
# 1 145.5830 44.8808 102.2296 0.0000 2.1389 0.0002
# 2 44.8808 40.3128 45.3864 -0.0001 -0.8955 -0.0001
# 3 102.2296 45.3864 162.7387 0.0000 1.4189 -0.0001
# 4 0.0000 -0.0001 0.0000 33.7957 0.0000 -1.3570
# 5 2.1389 -0.8955 1.4189 0.0000 39.6654 0.0000
# 6 0.0002 -0.0001 -0.0001 -1.3570 0.0000 27.7603
#
#
#
# Elastic Compliance Matrix: (Units=1/GPa)
#
#
# Indices 1 2 3 4 5 6 
#
# 1 0.013972 -0.008304 -0.006455 0.000000 -0.000710 0.000000
# 2 -0.008304 0.041150 -0.006274 0.000000 0.001601 0.000000
# 3 -0.006455 -0.006274 0.011951 0.000000 -0.000221 0.000000
# 4 0.000000 0.000000 0.000000 0.029648 0.000000 0.001449
# 5 -0.000710 0.001601 -0.000221 0.000000 0.025293 0.000000
# 6 0.000000 0.000000 0.000000 0.001449 0.000000 0.036093
#
#
# Mechanical properties :
#
#
# Convention : Reuss Voigt Hill
#
# Bulk Modulus (GPa) = 39.98739 81.51422 60.75081
# Shear Modulus (GPa) = 23.97980 30.65347 27.31664
#
# Velocity S-wave (km/s) = 3.64811 4.12463 3.89367
# Velocity P-wave (km/s) = 6.31964 8.24158 7.34376
#
# Compressibility (1/GPa) = 0.02500789
#
# Stress axis : x y z
#
# Youngs Moduli (GPa) = 71.57205 24.30146 83.67211
#
# Poissons Ratio (x) = 0.20179 0.54010
# Poissons Ratio (y) = 0.59431 0.52497
# Poissons Ratio (z) = 0.46199 0.15247
#
# Static dielectric constant tensor:
#      x y z
#    x 1.584000 0.000000 0.000690 
#    y 0.000000 1.612470 0.000000 
#    z 0.000690 0.000000 1.601290 
# 
# From -- ./inp_files/345975.got.cif
#   From: 2010.05.17/outbox.cif.g08.bks.cpg/sg12_173_cif.got.tgz:345975.got - 2010.06.03 13:09:07.
