data_PCOD9198294
_publ_section_title
;
Structure prediction by ZEFSAII (Michael W. Deem and Ramdas Pophale) SiO2 
 PCOD9198294
Probable space group: C 2/M
;
_chemical_formula_sum "Si O2"
_cell_formula_units_Z 64
_cell_length_a 20.748030
_cell_length_b 8.872467
_cell_length_c 22.208922
_cell_angle_alpha 90.000000
_cell_angle_beta 61.774601
_cell_angle_gamma 90.000000
_cell_volume 3602.225749
_symmetry_space_group_name_H-M "C 2/M"
_symmetry_group_IT_number 12
_symmetry_cell_setting 'monoclinic'
loop_
_space_group_symop_operation_xyz
x,y,z
-x,y,-z
-x,-y,-z
x,-y,z
1/2+x,1/2+y,z
1/2-x,1/2+y,-z
1/2-x,1/2-y,-z
1/2+x,1/2-y,z
loop_
_atom_site_type_symbol
_atom_site_label
_atom_site_fract_x
_atom_site_fract_y
_atom_site_fract_z
Si Si1 0.672064 0.680076 0.918852
Si Si2 0.028642 0.817721 0.553196
Si Si3 0.069229 0.819302 0.076386
Si Si4 0.828263 0.319390 0.450337
Si Si5 0.591767 0.819334 0.706436
Si Si6 0.049707 0.181340 0.291201
Si Si7 0.330561 0.319355 0.851695
Si Si8 0.909177 0.319812 0.157446
O O1 0.673129 0.500000 0.916092
O O2 0.753250 0.740733 0.893854
O O3 0.641027 0.745533 0.870656
O O4 0.617623 0.723852 0.997220
O O5 0.106236 0.746105 0.537413
O O6 0.000000 0.773495 0.500000
O O7 0.971041 0.774770 0.631455
O O8 0.036248 0.000000 0.550767
O O9 0.116146 0.787899 0.115572
O O10 0.992333 0.734903 0.111501
O O11 0.055695 0.000000 0.080104
O O12 0.826218 0.500000 0.457144
O O13 0.750000 0.250000 0.500000
O O14 0.851035 0.281446 0.371410
O O15 0.515685 0.743255 0.721235
O O16 0.612992 0.776170 0.764615
O O17 0.581410 0.000000 0.709986
O O18 0.126272 0.229092 0.227909
O O19 0.048108 0.000000 0.289108
O O20 0.319281 0.500000 0.854482
O O21 0.905246 0.500000 0.153907
#
# Coordination Sequence:
#
# PCOD9198294 Si02
#       8
#     8   8   8   8   8   8   8   8
#     4  11  24  38  53  78 113 146 178 222 275 323
#     4   9  18  34  56  83 113 144 178 216 264 321
#     4  10  21  38  59  81 106 140 180 225 273 323
#     4  10  20  36  57  82 112 143 180 223 267 315
#     4   9  19  35  56  81 107 140 180 224 266 313
#     4   9  17  32  57  82 105 141 182 219 261 317
#     4  10  20  36  57  80 108 141 182 225 268 319
#     4  11  22  37  58  82 108 141 182 224 270 322
#
# _framework density 17.766791999999999
#
# number of rings (size 3 to 8) (size 9 to 14) (size 15 to 20)
#    0.000    2.125    1.250    1.875    0.000    4.750 
#    2.250    0.000    0.000    0.000    0.000    0.000 
#    0.000    0.000    0.000    0.000    0.000    0.000 
#
# Total GULP energy -178599.029662 kJ/mol
# GULP energy per Si atom -5581.219677 kJ/mol
# Density = 1.772635 g / cm^3
# Si number density = 17.766792 Si / 1000 Ang^3
#
#
#
# Elastic Constant Matrix: (Units=GPa)
#
#
# Indices 1 2 3 4 5 6 
#
# 1 21.5242 9.9268 7.5100 0.0000 5.1259 -0.0002
# 2 9.9268 14.2864 16.3138 -0.0001 1.2646 -0.0004
# 3 7.5100 16.3138 82.7406 0.0000 9.7738 -0.0001
# 4 0.0000 -0.0001 0.0000 22.5680 0.0000 -1.1558
# 5 5.1259 1.2646 9.7738 0.0000 30.1324 0.0000
# 6 -0.0002 -0.0004 -0.0001 -1.1558 0.0000 31.9492
#
#
#
# Elastic Compliance Matrix: (Units=1/GPa)
#
#
# Indices 1 2 3 4 5 6 
#
# 1 0.073418 -0.056737 0.005945 0.000000 -0.012036 0.000000
# 2 -0.056737 0.134305 -0.022674 0.000001 0.011370 0.000002
# 3 0.005945 -0.022674 0.016662 0.000000 -0.005464 0.000000
# 4 0.000000 0.000001 0.000000 0.044393 0.000000 0.001606
# 5 -0.012036 0.011370 -0.005464 0.000000 0.036530 0.000000
# 6 0.000000 0.000002 0.000000 0.001606 0.000000 0.031358
#
#
# Mechanical properties :
#
#
# Convention : Reuss Voigt Hill
#
# Bulk Modulus (GPa) = 12.91099 20.67248 16.79174
# Shear Modulus (GPa) = 9.81516 22.58328 16.19922
#
# Velocity S-wave (km/s) = 2.35296 3.56911 3.02283
# Velocity P-wave (km/s) = 3.82944 5.35214 4.65350
#
# Compressibility (1/GPa) = 0.07745342
#
# Stress axis : x y z
#
# Youngs Moduli (GPa) = 13.62059 7.44574 60.01508
#
# Poissons Ratio (x) = 0.42245 -0.35677
# Poissons Ratio (y) = 0.77279 1.36078
# Poissons Ratio (z) = -0.08097 0.16882
#
# Static dielectric constant tensor:
#      x y z
#    x 1.558490 0.000000 0.008410 
#    y 0.000000 1.594130 0.000000 
#    z 0.008410 0.000000 1.629930 
# 
# From -- ./inp_files/319843.got.cif
#   From: 2010.05.17/outbox.cif.g08.bks.cpg/sg12_160_cif.got.tgz:319843.got - 2010.06.03 13:09:07.
