data_PCOD9198606
_publ_section_title
;
Structure prediction by ZEFSAII (Michael W. Deem and Ramdas Pophale) SiO2 
 PCOD9198606
Probable space group: C 2/M
;
_chemical_formula_sum "Si O2"
_cell_formula_units_Z 48
_cell_length_a 31.015739
_cell_length_b 8.524149
_cell_length_c 9.705055
_cell_angle_alpha 90.000000
_cell_angle_beta 92.175469
_cell_angle_gamma 90.000000
_cell_volume 2564.000117
_symmetry_space_group_name_H-M "C 2/M"
_symmetry_group_IT_number 12
_symmetry_cell_setting 'monoclinic'
loop_
_space_group_symop_operation_xyz
x,y,z
-x,y,-z
-x,-y,-z
x,-y,z
1/2+x,1/2+y,z
1/2-x,1/2+y,-z
1/2-x,1/2-y,-z
1/2+x,1/2-y,z
loop_
_atom_site_type_symbol
_atom_site_label
_atom_site_fract_x
_atom_site_fract_y
_atom_site_fract_z
Si Si1 0.255679 0.812590 0.847378
Si Si2 0.915669 0.812215 0.333278
Si Si3 0.832164 0.309423 0.665733
Si Si4 0.429732 0.188373 0.636363
Si Si5 0.320546 0.812388 0.351627
Si Si6 0.504758 0.310344 0.842424
O O1 0.299471 0.753532 0.778563
O O2 0.215621 0.762810 0.747769
O O3 0.257727 0.000000 0.853026
O O4 0.250000 0.750000 0.000000
O O5 0.934055 0.760023 0.484226
O O6 0.868741 0.735351 0.312369
O O7 0.949538 0.765245 0.219735
O O8 0.910934 0.000000 0.331499
O O9 0.831636 0.500000 0.667091
O O10 0.882145 0.262508 0.684679
O O11 0.816498 0.261197 0.511169
O O12 0.466836 0.243766 0.742742
O O13 0.430246 0.000000 0.623826
O O14 0.316571 0.000000 0.345846
O O15 0.502187 0.500000 0.838426
O O16 0.500000 0.259235 0.000000
#
# Coordination Sequence:
#
# PCOD9198606 Si02
#       6
#     8   8   8   8   8   8
#     4  11  22  37  55  79 112 147 181 218 266 320
#     4  10  20  36  58  82 108 141 180 221 268 319
#     4   8  18  36  57  80 107 139 177 222 267 316
#     4  10  20  36  58  83 108 138 180 225 269 316
#     4  10  20  37  59  83 108 137 179 227 272 317
#     4  10  22  38  54  77 111 147 181 219 266 321
#
# _framework density 18.720748
#
# number of rings (size 3 to 8) (size 9 to 14) (size 15 to 20)
#    0.000    2.167    0.000    4.000    0.000    5.000 
#    0.000   12.500    0.000    0.000    0.000    0.000 
#    0.000    0.000    0.000    0.000    0.000    0.000 
#
# Total GULP energy -134026.072853 kJ/mol
# GULP energy per Si atom -5584.419702 kJ/mol
# Density = 1.867814 g / cm^3
# Si number density = 18.720748 Si / 1000 Ang^3
#
#
#
# Elastic Constant Matrix: (Units=GPa)
#
#
# Indices 1 2 3 4 5 6 
#
# 1 65.5123 10.5842 51.4754 0.0000 -37.7911 0.0000
# 2 10.5842 31.1918 14.6779 0.0000 -12.7045 0.0000
# 3 51.4754 14.6779 80.3926 0.0000 -49.6581 0.0000
# 4 0.0000 0.0000 0.0000 25.5333 0.0000 4.1924
# 5 -37.7911 -12.7045 -49.6581 0.0000 25.0051 0.0000
# 6 0.0000 0.0000 0.0000 4.1924 0.0000 30.2803
#
#
#
# Elastic Compliance Matrix: (Units=1/GPa)
#
#
# Indices 1 2 3 4 5 6 
#
# 1 0.026266 -0.004286 -0.031496 0.000000 -0.025029 0.000000
# 2 -0.004286 0.033118 -0.013631 0.000000 -0.016722 0.000000
# 3 -0.031496 -0.013631 -0.006237 0.000000 -0.066912 0.000000
# 4 0.000000 0.000000 0.000000 0.040076 0.000000 -0.005549
# 5 -0.025029 -0.016722 -0.066912 0.000000 -0.139213 0.000000
# 6 0.000000 0.000000 0.000000 -0.005549 0.000000 0.033793
#
#
# Mechanical properties :
#
#
# Convention : Reuss Voigt Hill
#
# Bulk Modulus (GPa) = -21.89165 36.73020 7.41927
# Shear Modulus (GPa) = 70.02493 22.85436 46.43964
#
# Velocity S-wave (km/s) = 6.12260 3.49779 4.98602
# Velocity P-wave (km/s) = 6.18566 5.99795 6.09253
#
# Compressibility (1/GPa) = -0.04567951
#
# Stress axis : x y z
#
# Youngs Moduli (GPa) = 38.07154 30.19546 -160.34220
#
# Poissons Ratio (x) = 0.12942 -5.05013
# Poissons Ratio (y) = 0.16318 -2.18568
# Poissons Ratio (z) = 1.19910 0.41160
#
# Static dielectric constant tensor:
#      x y z
#    x 1.641420 0.000000 -0.028680 
#    y 0.000000 1.641550 0.000000 
#    z -0.028680 0.000000 1.622230 
# 
# From -- ./inp_files/108675.got.cif
#   From: 2010.05.17/outbox.cif.g08.bks.cpg/sg12_55_cif.got.tgz:108675.got - 2010.06.03 13:09:07.
