data_PCOD9198794
_publ_section_title
;
Structure prediction by ZEFSAII (Michael W. Deem and Ramdas Pophale) SiO2 
 PCOD9198794
Probable space group: C 2/M
;
_chemical_formula_sum "Si O2"
_cell_formula_units_Z 56
_cell_length_a 27.952128
_cell_length_b 13.531084
_cell_length_c 8.226767
_cell_angle_alpha 90.000000
_cell_angle_beta 112.458998
_cell_angle_gamma 90.000000
_cell_volume 2875.547943
_symmetry_space_group_name_H-M "C 2/M"
_symmetry_group_IT_number 12
_symmetry_cell_setting 'monoclinic'
loop_
_space_group_symop_operation_xyz
x,y,z
-x,y,-z
-x,-y,-z
x,-y,z
1/2+x,1/2+y,z
1/2-x,1/2+y,-z
1/2-x,1/2-y,-z
1/2+x,1/2-y,z
loop_
_atom_site_type_symbol
_atom_site_label
_atom_site_fract_x
_atom_site_fract_y
_atom_site_fract_z
Si Si1 0.849974 0.611404 0.944913
Si Si2 0.211633 0.225857 0.303233
Si Si3 0.900818 0.384825 0.478076
Si Si4 0.070816 0.743679 0.795295
Si Si5 0.034921 0.729500 0.192320
Si Si6 0.790142 0.610622 0.210956
Si Si7 0.390952 0.383089 0.890054
O O1 0.854381 0.500000 0.899321
O O2 0.819970 0.676464 0.778370
O O3 0.905255 0.657106 0.059927
O O4 0.816586 0.618118 0.068811
O O5 0.250000 0.250000 0.500000
O O6 0.247685 0.190356 0.201059
O O7 0.165859 0.144362 0.254110
O O8 0.914345 0.500000 0.452731
O O9 0.917556 0.302047 0.366334
O O10 0.927832 0.350214 0.677567
O O11 0.838693 0.380904 0.396753
O O12 0.009985 0.760428 0.738926
O O13 0.101062 0.837194 0.916166
O O14 0.067582 0.821977 0.164958
O O15 0.000000 0.689976 0.000000
O O16 0.767891 0.500000 0.196725
O O17 0.399441 0.500000 0.900176
#
# Coordination Sequence:
#
# PCOD9198794 Si02
#       7
#     8   8   8   8   8   8   8
#     4   9  19  35  54  78 108 141 177 223 278 334
#     4  11  21  34  55  82 112 143 182 228 273 331
#     4  10  20  36  58  85 117 147 180 230 286 339
#     4   9  19  35  58  81 105 140 188 234 276 328
#     4  10  21  36  54  81 113 148 188 226 274 336
#     4   9  18  34  55  77 104 141 181 221 271 324
#     4  10  22  40  58  78 112 154 192 233 278 324
#
# _framework density 19.474547999999999
#
# number of rings (size 3 to 8) (size 9 to 14) (size 15 to 20)
#    0.000    2.286    0.000    3.429    0.000    5.714 
#    0.000   11.429    0.000    4.286    0.000    0.000 
#    0.000    0.000    0.000    0.000    0.000    0.000 
#
# Total GULP energy -155989.592641 kJ/mol
# GULP energy per Si atom -5571.056880 kJ/mol
# Density = 1.943022 g / cm^3
# Si number density = 19.474548 Si / 1000 Ang^3
#
#
#
# Elastic Constant Matrix: (Units=GPa)
#
#
# Indices 1 2 3 4 5 6 
#
# 1 79.5247 37.2125 8.5072 0.0000 3.5291 0.0000
# 2 37.2125 122.5335 33.2523 0.0000 -0.4265 0.0000
# 3 8.5072 33.2523 81.2174 0.0000 13.8821 0.0000
# 4 0.0000 0.0000 0.0000 13.4404 0.0000 -6.1016
# 5 3.5291 -0.4265 13.8821 0.0000 22.2707 0.0000
# 6 0.0000 0.0000 0.0000 -6.1016 0.0000 18.5805
#
#
#
# Elastic Compliance Matrix: (Units=1/GPa)
#
#
# Indices 1 2 3 4 5 6 
#
# 1 0.014840 -0.004765 0.000911 0.000000 -0.003011 0.000000
# 2 -0.004765 0.010872 -0.004608 0.000000 0.003835 0.000000
# 3 0.000911 -0.004608 0.015830 0.000000 -0.010100 0.000000
# 4 0.000000 0.000000 0.000000 0.087437 0.000000 0.028713
# 5 -0.003011 0.003835 -0.010100 0.000000 0.051748 0.000000
# 6 0.000000 0.000000 0.000000 0.028713 0.000000 0.063249
#
#
# Mechanical properties :
#
#
# Convention : Reuss Voigt Hill
#
# Bulk Modulus (GPa) = 40.61824 49.02439 44.82132
# Shear Modulus (GPa) = 18.58005 24.47857 21.52931
#
# Velocity S-wave (km/s) = 3.09215 3.54920 3.32853
# Velocity P-wave (km/s) = 5.80094 6.48259 6.15121
#
# Compressibility (1/GPa) = 0.02461948
#
# Stress axis : x y z
#
# Youngs Moduli (GPa) = 67.38367 91.98165 63.17108
#
# Poissons Ratio (x) = 0.43825 -0.05754
# Poissons Ratio (y) = 0.32105 0.29107
# Poissons Ratio (z) = -0.06138 0.42382
#
# Static dielectric constant tensor:
#      x y z
#    x 1.723190 0.000000 -0.049520 
#    y 0.000000 1.656510 0.000000 
#    z -0.049520 0.000000 1.735940 
# 
# From -- ./inp_files/110563.got.cif
#   From: 2010.05.17/outbox.cif.g08.bks.cpg/sg12_56_cif.got.tgz:110563.got - 2010.06.03 13:09:07.
