data_PCOD9198168
_publ_section_title
;
Structure prediction by ZEFSAII (Michael W. Deem and Ramdas Pophale) SiO2 
 PCOD9198168
Probable space group: C 2/M
;
_chemical_formula_sum "Si O2"
_cell_formula_units_Z 58
_cell_length_a 25.738540
_cell_length_b 7.606179
_cell_length_c 24.851150
_cell_angle_alpha 90.000000
_cell_angle_beta 33.160656
_cell_angle_gamma 90.000000
_cell_volume 2661.185441
_symmetry_space_group_name_H-M "C 2/M"
_symmetry_group_IT_number 12
_symmetry_cell_setting 'monoclinic'
loop_
_space_group_symop_operation_xyz
x,y,z
-x,y,-z
-x,-y,-z
x,-y,z
1/2+x,1/2+y,z
1/2-x,1/2+y,-z
1/2-x,1/2-y,-z
1/2+x,1/2-y,z
loop_
_atom_site_type_symbol
_atom_site_label
_atom_site_fract_x
_atom_site_fract_y
_atom_site_fract_z
Si Si1 0.099092 0.709903 0.890115
Si Si2 0.163190 0.787158 0.716250
Si Si3 0.040849 0.202016 0.306842
Si Si4 0.670954 0.209038 0.023665
Si Si5 0.876416 0.695765 0.525507
Si Si6 0.519053 0.297369 0.755415
Si Si7 0.257652 0.285675 0.833254
Si Si8 0.500000 0.000000 0.500000
O O1 0.097576 0.500000 0.900226
O O2 0.110796 0.739662 0.816829
O O3 0.191426 0.779031 0.842214
O O4 0.000000 0.779766 0.000000
O O5 0.272331 0.726249 0.622510
O O6 0.105582 0.719905 0.714464
O O7 0.164048 0.000000 0.713919
O O8 0.950441 0.206418 0.423579
O O9 0.013381 0.284152 0.273191
O O10 0.133426 0.278692 0.256616
O O11 0.067874 0.000000 0.271032
O O12 0.572708 0.294297 0.126685
O O13 0.656006 0.000000 0.035298
O O14 0.750000 0.250000 0.000000
O O15 0.708319 0.261742 0.932648
O O16 0.864955 0.500000 0.509704
O O17 0.928876 0.651269 0.535778
O O18 0.545692 0.500000 0.720616
O O19 0.259684 0.500000 0.827336
#
# Coordination Sequence:
#
# PCOD9198168 Si02
#       8
#     8   8   8   8   8   8   8   2
#     4  10  21  37  57  82 112 146 186 233 279 333
#     4  10  22  39  59  81 113 152 189 229 292 345
#     4  10  20  36  56  82 111 145 189 235 283 334
#     4  11  20  35  57  83 116 153 193 234 286 344
#     4   9  21  38  58  82 111 147 183 233 290 336
#     4  10  21  38  57  80 116 153 187 236 286 344
#     4   9  19  34  54  79 112 147 182 231 285 336
#     4   8  20  40  62  76 122 148 178 244 288 336
#
# _framework density 21.794796999999999
#
# number of rings (size 3 to 8) (size 9 to 14) (size 15 to 20)
#    0.414    1.793    1.379    1.241    1.931    3.586 
#    0.000    1.724    0.000    0.000    0.000    0.000 
#    0.000    0.000    0.000    0.000    0.000    0.000 
#
# Total GULP energy -161533.525006 kJ/mol
# GULP energy per Si atom -5570.121552 kJ/mol
# Density = 2.174519 g / cm^3
# Si number density = 21.794797 Si / 1000 Ang^3
#
#
#
# Elastic Constant Matrix: (Units=GPa)
#
#
# Indices 1 2 3 4 5 6 
#
# 1 158.3060 8.9231 48.8743 -0.0063 -34.7451 0.0046
# 2 8.9231 44.8223 -3.4982 -0.0103 -2.0225 0.0137
# 3 48.8743 -3.4982 101.3746 0.0000 -29.6911 0.0047
# 4 -0.0063 -0.0103 0.0000 21.3424 0.0012 3.8269
# 5 -34.7451 -2.0225 -29.6911 0.0012 30.1183 -0.0047
# 6 0.0046 0.0137 0.0047 3.8269 -0.0047 -5.3186
#
#
#
# Elastic Compliance Matrix: (Units=1/GPa)
#
#
# Indices 1 2 3 4 5 6 
#
# 1 0.008778 -0.001528 -0.001896 0.000002 0.008155 -0.000004
# 2 -0.001528 0.022855 0.002051 0.000000 0.001794 0.000058
# 3 -0.001896 0.002051 0.014410 -0.000001 0.012155 0.000005
# 4 0.000002 0.000000 -0.000001 0.041501 0.000004 0.029861
# 5 0.008155 0.001794 0.012155 0.000004 0.054713 -0.000023
# 6 -0.000004 0.000058 0.000005 0.029861 -0.000023 -0.166533
#
#
# Mechanical properties :
#
#
# Convention : Reuss Voigt Hill
#
# Bulk Modulus (GPa) = 23.09671 45.90016 34.49843
# Shear Modulus (GPa) = -704.53715 25.90865 -339.31425
#
# Velocity S-wave (km/s) = -17.99892 3.45157 -12.49095
# Velocity P-wave (km/s) = 20.52627 6.08197 13.86249
#
# Compressibility (1/GPa) = 0.04329622
#
# Stress axis : x y z
#
# Youngs Moduli (GPa) = 113.91747 43.75334 69.39854
#
# Poissons Ratio (x) = 0.06684 0.13161
# Poissons Ratio (y) = 0.17402 -0.14231
# Poissons Ratio (z) = 0.21604 -0.08972
#
# Static dielectric constant tensor:
#      x y z
#    x 1.812630 0.000010 -0.020890 
#    y 0.000010 1.907570 -0.000020 
#    z -0.020890 -0.000020 1.755940 
# 
# From -- ./inp_files/351452.got.cif
#   From: 2010.05.17/outbox.cif.g08.bks.cpg/sg12_176_cif.got.tgz:351452.got - 2010.06.03 13:09:07.
