data_PCOD9198944
_publ_section_title
;
Structure prediction by ZEFSAII (Michael W. Deem and Ramdas Pophale) SiO2 
 PCOD9198944
Probable space group: C 2/M
;
_chemical_formula_sum "Si O2"
_cell_formula_units_Z 60
_cell_length_a 12.886905
_cell_length_b 21.640105
_cell_length_c 9.154329
_cell_angle_alpha 90.000000
_cell_angle_beta 104.411422
_cell_angle_gamma 90.000000
_cell_volume 2472.573346
_symmetry_space_group_name_H-M "C 2/M"
_symmetry_group_IT_number 12
_symmetry_cell_setting 'monoclinic'
loop_
_space_group_symop_operation_xyz
x,y,z
-x,y,-z
-x,-y,-z
x,-y,z
1/2+x,1/2+y,z
1/2-x,1/2+y,-z
1/2-x,1/2-y,-z
1/2+x,1/2-y,z
loop_
_atom_site_type_symbol
_atom_site_label
_atom_site_fract_x
_atom_site_fract_y
_atom_site_fract_z
Si Si1 0.768097 0.357030 0.372929
Si Si2 0.975411 0.187565 0.330729
Si Si3 0.778405 0.068569 0.368389
Si Si4 0.229116 0.069354 0.086146
Si Si5 0.500000 0.805931 0.500000
Si Si6 0.740573 0.236398 0.169632
Si Si7 0.535120 0.569305 0.815181
Si Si8 0.381121 0.121460 0.906240
O O1 0.720551 0.377406 0.511342
O O2 0.744105 0.413164 0.256882
O O3 0.894868 0.345808 0.438785
O O4 0.732343 0.294939 0.274651
O O5 0.981908 0.257548 0.628016
O O6 0.850647 0.200687 0.250304
O O7 0.018983 0.135771 0.234572
O O8 0.000000 0.161013 0.500000
O O9 0.876091 0.069009 0.286365
O O10 0.670187 0.078391 0.235873
O O11 0.778572 0.000000 0.435611
O O12 0.264058 0.000000 0.065986
O O13 0.108029 0.074236 0.985664
O O14 0.303806 0.113477 0.018236
O O15 0.640006 0.191186 0.152052
O O16 0.750000 0.250000 0.000000
O O17 0.484767 0.500000 0.792370
O O18 0.500000 0.108654 0.000000
#
# Coordination Sequence:
#
# PCOD9198944 Si02
#       8
#     8   8   8   8   4   8   8   8
#     4  11  21  37  56  82 114 151 188 244 289 335
#     4   9  17  33  55  81 110 143 183 236 288 334
#     4  10  22  38  56  81 117 152 193 238 289 347
#     4  10  20  36  59  81 109 152 198 234 282 344
#     4   8  22  32  48  78 112 140 182 226 280 340
#     4  11  20  39  61  83 118 157 193 241 287 348
#     4   9  17  35  57  82 110 143 187 236 287 348
#     4  11  23  38  59  86 119 156 196 233 291 349
#
# _framework density 24.266217000000001
#
# number of rings (size 3 to 8) (size 9 to 14) (size 15 to 20)
#    0.400    1.600    4.000    1.600    1.867    1.867 
#    0.000    0.667    0.000    0.000    0.000    0.000 
#    0.000    7.467    0.000    0.000    0.000    0.000 
#
# Total GULP energy -167648.885059 kJ/mol
# GULP energy per Si atom -5588.296169 kJ/mol
# Density = 2.421099 g / cm^3
# Si number density = 24.266217 Si / 1000 Ang^3
#
#
#
# Elastic Constant Matrix: (Units=GPa)
#
#
# Indices 1 2 3 4 5 6 
#
# 1 90.5338 34.8517 41.0365 0.0000 9.3733 0.0000
# 2 34.8517 108.3604 39.1595 0.0000 -2.8823 0.0000
# 3 41.0365 39.1595 133.5203 0.0000 5.0662 0.0000
# 4 0.0000 0.0000 0.0000 48.6944 0.0000 -6.4548
# 5 9.3733 -2.8823 5.0662 0.0000 30.7275 0.0000
# 6 0.0000 0.0000 0.0000 -6.4548 0.0000 16.5144
#
#
#
# Elastic Compliance Matrix: (Units=1/GPa)
#
#
# Indices 1 2 3 4 5 6 
#
# 1 0.014292 -0.003554 -0.003192 0.000000 -0.004167 0.000000
# 2 -0.003554 0.011273 -0.002310 0.000000 0.002522 0.000000
# 3 -0.003192 -0.002310 0.009177 0.000000 -0.000756 0.000000
# 4 0.000000 0.000000 0.000000 0.021658 0.000000 0.008465
# 5 -0.004167 0.002522 -0.000756 0.000000 0.034176 0.000000
# 6 0.000000 0.000000 0.000000 0.008465 0.000000 0.063862
#
#
# Mechanical properties :
#
#
# Convention : Reuss Voigt Hill
#
# Bulk Modulus (GPa) = 60.13093 62.50112 61.31602
# Shear Modulus (GPa) = 28.07506 33.67837 30.87672
#
# Velocity S-wave (km/s) = 3.40510 3.72946 3.57096
# Velocity P-wave (km/s) = 6.34769 6.66014 6.50579
#
# Compressibility (1/GPa) = 0.01663038
#
# Stress axis : x y z
#
# Youngs Moduli (GPa) = 69.96902 88.70515 108.97206
#
# Poissons Ratio (x) = 0.31526 0.34785
# Poissons Ratio (y) = 0.24867 0.25169
# Poissons Ratio (z) = 0.22335 0.20488
#
# Static dielectric constant tensor:
#      x y z
#    x 1.942200 0.000000 -0.009910 
#    y 0.000000 1.939080 0.000000 
#    z -0.009910 0.000000 1.923910 
# 
# From -- ./inp_files/79137.got.cif
#   From: 2010.05.17/outbox.cif.g08.bks.cpg/sg12_40_cif.got.tgz:79137.got - 2010.06.03 13:09:07.
