data_PCOD9198145
_publ_section_title
;
Structure prediction by ZEFSAII (Michael W. Deem and Ramdas Pophale) SiO2 
 PCOD9198145
Probable space group: C 2/M
;
_chemical_formula_sum "Si O2"
_cell_formula_units_Z 56
_cell_length_a 20.599282
_cell_length_b 8.305969
_cell_length_c 18.704875
_cell_angle_alpha 90.000000
_cell_angle_beta 130.087397
_cell_angle_gamma 90.000000
_cell_volume 2448.468020
_symmetry_space_group_name_H-M "C 2/M"
_symmetry_group_IT_number 12
_symmetry_cell_setting 'monoclinic'
loop_
_space_group_symop_operation_xyz
x,y,z
-x,y,-z
-x,-y,-z
x,-y,z
1/2+x,1/2+y,z
1/2-x,1/2+y,-z
1/2-x,1/2-y,-z
1/2+x,1/2-y,z
loop_
_atom_site_type_symbol
_atom_site_label
_atom_site_fract_x
_atom_site_fract_y
_atom_site_fract_z
Si Si1 0.367217 0.686164 0.604704
Si Si2 0.172979 0.195105 0.727529
Si Si3 0.954966 0.684493 0.896491
Si Si4 0.968948 0.175938 0.176512
Si Si5 0.708752 0.692415 0.307628
Si Si6 0.513930 0.302998 0.427544
Si Si7 0.780354 0.180234 0.095471
O O1 0.341862 0.500000 0.573844
O O2 0.453896 0.685596 0.713508
O O3 0.302857 0.757025 0.618672
O O4 0.403243 0.758676 0.556333
O O5 0.211152 0.242560 0.678655
O O6 0.076343 0.250396 0.668425
O O7 0.230599 0.257901 0.834333
O O8 0.172617 0.000000 0.731091
O O9 0.931307 0.500000 0.895434
O O10 0.872385 0.763624 0.800425
O O11 0.022948 0.695544 0.880268
O O12 0.000000 0.751360 0.000000
O O13 0.881507 0.177459 0.155964
O O14 0.975679 0.000000 0.145180
O O15 0.712115 0.500000 0.315326
O O16 0.500000 0.261260 0.500000
O O17 0.518357 0.500000 0.426179
O O18 0.745652 0.000000 0.075309
O O19 0.750000 0.250000 0.000000
#
# Coordination Sequence:
#
# PCOD9198145 Si02
#       7
#     8   8   8   8   8   8   8
#     4   8  14  30  52  74 101 134 175 216 258 309
#     4  10  20  36  56  80 114 142 175 231 278 314
#     4  10  21  34  49  72 103 136 177 228 274 314
#     4   9  17  32  51  70  97 137 179 217 262 314
#     4  10  21  35  54  75 104 147 184 217 266 325
#     4   9  16  30  58  88 107 134 179 223 267 326
#     4  10  21  34  50  73 105 144 181 222 269 317
#
# _framework density 22.871444
#
# number of rings (size 3 to 8) (size 9 to 14) (size 15 to 20)
#    0.000    2.571    1.429    1.714    2.000    2.286 
#    0.000    0.714    0.000    0.429    0.000    0.000 
#    0.000    0.000    0.000    0.000    0.000    0.000 
#
# Total GULP energy -155989.422464 kJ/mol
# GULP energy per Si atom -5571.050802 kJ/mol
# Density = 2.281939 g / cm^3
# Si number density = 22.871444 Si / 1000 Ang^3
#
#
#
# Elastic Constant Matrix: (Units=GPa)
#
#
# Indices 1 2 3 4 5 6 
#
# 1 126.0035 1.7343 29.4262 0.0000 -32.8801 0.0000
# 2 1.7343 16.2201 9.1377 0.0000 -3.9719 0.0000
# 3 29.4262 9.1377 83.7352 0.0000 -31.2261 0.0000
# 4 0.0000 0.0000 0.0000 8.8896 0.0000 -4.1321
# 5 -32.8801 -3.9719 -31.2261 0.0000 37.0637 0.0000
# 6 0.0000 0.0000 0.0000 -4.1321 0.0000 24.7729
#
#
#
# Elastic Compliance Matrix: (Units=1/GPa)
#
#
# Indices 1 2 3 4 5 6 
#
# 1 0.010360 0.001337 -0.000446 0.000000 0.008958 0.000000
# 2 0.001337 0.065917 -0.006688 0.000000 0.002616 0.000000
# 3 -0.000446 -0.006688 0.018101 0.000000 0.014138 0.000000
# 4 0.000000 0.000000 0.000000 0.121945 0.000000 0.020340
# 5 0.008958 0.002616 0.014138 0.000000 0.047119 0.000000
# 6 0.000000 0.000000 0.000000 0.020340 0.000000 0.043759
#
#
# Mechanical properties :
#
#
# Convention : Reuss Voigt Hill
#
# Bulk Modulus (GPa) = 12.07957 34.06171 23.07064
# Shear Modulus (GPa) = 14.43464 26.52263 20.47863
#
# Velocity S-wave (km/s) = 2.51494 3.40904 2.99554
# Velocity P-wave (km/s) = 3.70489 5.51547 4.69822
#
# Compressibility (1/GPa) = 0.08278438
#
# Stress axis : x y z
#
# Youngs Moduli (GPa) = 96.52952 15.17059 55.24499
#
# Poissons Ratio (x) = -0.02028 0.02464
# Poissons Ratio (y) = -0.12907 0.36947
# Poissons Ratio (z) = 0.04305 0.10146
#
# Static dielectric constant tensor:
#      x y z
#    x 1.912340 0.000000 -0.011680 
#    y 0.000000 1.837940 0.000000 
#    z -0.011680 0.000000 1.949450 
# 
# From -- ./inp_files/281666.got.cif
#   From: 2010.05.17/outbox.cif.g08.bks.cpg/sg12_141_cif.got.tgz:281666.got - 2010.06.03 13:09:07.
