data_PCOD9198856
_publ_section_title
;
Structure prediction by ZEFSAII (Michael W. Deem and Ramdas Pophale) SiO2 
 PCOD9198856
Probable space group: C 2/M
;
_chemical_formula_sum "Si O2"
_cell_formula_units_Z 40
_cell_length_a 19.510124
_cell_length_b 10.705303
_cell_length_c 28.527078
_cell_angle_alpha 90.000000
_cell_angle_beta 18.036006
_cell_angle_gamma 90.000000
_cell_volume 1844.750829
_symmetry_space_group_name_H-M "C 2/M"
_symmetry_group_IT_number 12
_symmetry_cell_setting 'monoclinic'
loop_
_space_group_symop_operation_xyz
x,y,z
-x,y,-z
-x,-y,-z
x,-y,z
1/2+x,1/2+y,z
1/2-x,1/2+y,-z
1/2-x,1/2-y,-z
1/2+x,1/2-y,z
loop_
_atom_site_type_symbol
_atom_site_label
_atom_site_fract_x
_atom_site_fract_y
_atom_site_fract_z
Si Si1 0.633106 0.855254 0.217947
Si Si2 0.797653 0.642027 0.723926
Si Si3 0.611687 0.769406 0.136299
Si Si4 0.261095 0.635468 0.678757
Si Si5 0.829870 0.137473 0.386933
O O1 0.761735 0.837422 0.182789
O O2 0.740114 0.824673 0.097815
O O3 0.431275 0.755807 0.348537
O O4 0.562819 0.000000 0.263795
O O5 0.736134 0.500000 0.750364
O O6 0.068957 0.648150 0.546894
O O7 0.718136 0.750366 0.741540
O O8 0.415461 0.860715 0.248195
O O9 0.477314 0.649967 0.243549
O O10 0.750000 0.750000 0.000000
O O11 0.500000 0.650357 0.500000
O O12 0.250705 0.500000 0.709454
O O13 0.868845 0.000000 0.382739
#
# Coordination Sequence:
#
# PCOD9198856 Si02
#       5
#     8   8   8   8   8
#     4   9  19  36  58  82 114 154 196 241 288 346
#     4  10  20  36  58  87 118 149 191 246 299 343
#     4  10  22  38  60  85 119 154 196 239 293 348
#     4  11  22  38  62  90 119 155 196 244 292 343
#     4   9  19  32  55  85 113 148 192 240 291 340
#
# _framework density 21.683145
#
# number of rings (size 3 to 8) (size 9 to 14) (size 15 to 20)
#    1.200    1.000    2.000    1.200    0.000    4.400 
#    0.000    1.000    0.000    3.600    0.000    0.000 
#    0.000    0.000    0.000    0.000    0.000    0.000 
#
# Total GULP energy -111396.315504 kJ/mol
# GULP energy per Si atom -5569.815775 kJ/mol
# Density = 2.163379 g / cm^3
# Si number density = 21.683145 Si / 1000 Ang^3
#
#
#
# Elastic Constant Matrix: (Units=GPa)
#
#
# Indices 1 2 3 4 5 6 
#
# 1 121.9027 60.6276 23.2174 -0.0427 11.5148 -0.0021
# 2 60.6276 156.9473 3.6042 -0.0361 -10.7670 -0.0671
# 3 23.2174 3.6042 58.4872 -0.0410 9.4830 0.0210
# 4 -0.0427 -0.0361 -0.0410 -8.0556 0.0021 -1.4322
# 5 11.5148 -10.7670 9.4830 0.0021 34.2034 -0.0208
# 6 -0.0021 -0.0671 0.0210 -1.4322 -0.0208 32.7436
#
#
#
# Elastic Compliance Matrix: (Units=1/GPa)
#
#
# Indices 1 2 3 4 5 6 
#
# 1 0.011658 -0.004723 -0.003622 -0.000021 -0.004407 -0.000010
# 2 -0.004723 0.008458 0.000695 -0.000019 0.004060 0.000018
# 3 -0.003622 0.000695 0.019119 -0.000079 -0.003862 -0.000017
# 4 -0.000021 -0.000019 -0.000079 -0.123179 0.000028 -0.005388
# 5 -0.004407 0.004060 -0.003862 0.000028 0.033069 0.000033
# 6 -0.000010 0.000018 -0.000017 -0.005388 0.000033 0.030305
#
#
# Mechanical properties :
#
#
# Convention : Reuss Voigt Hill
#
# Bulk Modulus (GPa) = 41.77773 56.91507 49.34640
# Shear Modulus (GPa) = 1845.48378 28.43748 936.96063
#
# Velocity S-wave (km/s) = 29.20552 3.62540 20.80992
# Velocity P-wave (km/s) = 34.00871 6.62044 24.49921
#
# Compressibility (1/GPa) = 0.02393620
#
# Stress axis : x y z
#
# Youngs Moduli (GPa) = 85.77622 118.22503 52.30386
#
# Poissons Ratio (x) = 0.55834 0.18946
# Poissons Ratio (y) = 0.40509 -0.03636
# Poissons Ratio (z) = 0.31071 -0.08219
#
# Static dielectric constant tensor:
#      x y z
#    x 1.835020 0.000020 0.055910 
#    y 0.000020 1.778870 0.000040 
#    z 0.055910 0.000040 1.867400 
# 
# From -- ./inp_files/378827.got.cif
#   From: 2010.05.17/outbox.cif.g08.bks.cpg/sg12_190_cif.got.tgz:378827.got - 2010.06.03 13:09:07.
