data_PCOD9198925
_publ_section_title
;
Structure prediction by ZEFSAII (Michael W. Deem and Ramdas Pophale) SiO2 
 PCOD9198925
Probable space group: C 2/M
;
_chemical_formula_sum "Si O2"
_cell_formula_units_Z 32
_cell_length_a 22.020120
_cell_length_b 14.966560
_cell_length_c 10.327884
_cell_angle_alpha 90.000000
_cell_angle_beta 23.031285
_cell_angle_gamma 90.000000
_cell_volume 1331.647474
_symmetry_space_group_name_H-M "C 2/M"
_symmetry_group_IT_number 12
_symmetry_cell_setting 'monoclinic'
loop_
_space_group_symop_operation_xyz
x,y,z
-x,y,-z
-x,-y,-z
x,-y,z
1/2+x,1/2+y,z
1/2-x,1/2+y,-z
1/2-x,1/2-y,-z
1/2+x,1/2-y,z
loop_
_atom_site_type_symbol
_atom_site_label
_atom_site_fract_x
_atom_site_fract_y
_atom_site_fract_z
Si Si1 0.598733 0.830596 0.678530
Si Si2 0.580622 0.672151 0.540401
Si Si3 0.589648 0.157589 0.198143
Si Si4 0.960409 0.000000 0.231389
Si Si5 0.314682 0.000000 0.376585
O O1 0.655910 0.738583 0.502428
O O2 0.491168 0.873192 0.776691
O O3 0.718125 0.907195 0.485616
O O4 0.500000 0.807771 0.000000
O O5 0.453065 0.736226 0.726217
O O6 0.503027 0.588144 0.760400
O O7 0.726414 0.644905 0.165972
O O8 0.500000 0.122368 0.500000
O O9 0.772884 0.000000 0.586074
O O10 0.000000 0.000000 0.000000
O O11 0.500000 0.000000 0.000000
#
# Coordination Sequence:
#
# PCOD9198925 Si02
#       5
#     8   8   8   4   4
#     4   9  20  35  63  87 123 159 208 250 317 355
#     4  10  23  40  64  88 129 162 209 251 315 364
#     4  10  22  41  67  87 124 168 213 252 310 370
#     4  12  26  38  61 100 135 156 205 262 318 368
#     4  10  20  36  58  90 127 154 203 256 307 368
#
# _framework density 24.030384000000002
#
# number of rings (size 3 to 8) (size 9 to 14) (size 15 to 20)
#    1.500    0.500    0.000    4.500    3.500    2.000 
#    0.000    3.125    0.000    0.000    0.000    0.000 
#    0.000    0.000    0.000    0.000    0.000    0.000 
#
# Total GULP energy -89230.110102 kJ/mol
# GULP energy per Si atom -5576.881881 kJ/mol
# Density = 2.397569 g / cm^3
# Si number density = 24.030384 Si / 1000 Ang^3
#
#
#
# Elastic Constant Matrix: (Units=GPa)
#
#
# Indices 1 2 3 4 5 6 
#
# 1 55.0633 -14.5453 0.3622 0.0000 20.6505 0.0000
# 2 -14.5453 89.2674 -6.2174 0.0000 15.0954 0.0000
# 3 0.3622 -6.2174 152.9836 0.0000 26.2076 0.0000
# 4 0.0000 0.0000 0.0000 9.5986 0.0000 -7.0493
# 5 20.6505 15.0954 26.2076 0.0000 36.3594 0.0000
# 6 0.0000 0.0000 0.0000 -7.0493 0.0000 24.2647
#
#
#
# Elastic Compliance Matrix: (Units=1/GPa)
#
#
# Indices 1 2 3 4 5 6 
#
# 1 0.029371 0.009075 0.004338 0.000000 -0.023576 0.000000
# 2 0.009075 0.015177 0.002918 0.000000 -0.013558 0.000000
# 3 0.004338 0.002918 0.008299 0.000000 -0.009657 0.000000
# 4 0.000000 0.000000 0.000000 0.132438 0.000000 0.038476
# 5 -0.023576 -0.013558 -0.009657 0.000000 0.053483 0.000000
# 6 0.000000 0.000000 0.000000 0.038476 0.000000 0.052390
#
#
# Mechanical properties :
#
#
# Convention : Reuss Voigt Hill
#
# Bulk Modulus (GPa) = 11.69472 28.50149 20.09810
# Shear Modulus (GPa) = 17.42157 35.22553 26.32355
#
# Velocity S-wave (km/s) = 2.69547 3.83283 3.31332
# Velocity P-wave (km/s) = 3.81636 5.61015 4.79783
#
# Compressibility (1/GPa) = 0.08550868
#
# Stress axis : x y z
#
# Youngs Moduli (GPa) = 34.04702 65.88965 120.49104
#
# Poissons Ratio (x) = -0.59792 -0.52269
# Poissons Ratio (y) = -0.30896 -0.35159
# Poissons Ratio (z) = -0.14770 -0.19226
#
# Static dielectric constant tensor:
#      x y z
#    x 1.939700 0.000000 -0.033710 
#    y 0.000000 1.988860 0.000000 
#    z -0.033710 0.000000 2.038100 
# 
# From -- ./inp_files/189108.got.cif
#   From: 2010.05.17/outbox.cif.g08.bks.cpg/sg12_95_cif.got.tgz:189108.got - 2010.06.03 13:09:07.
