data_PCOD9198007
_publ_section_title
;
Structure prediction by ZEFSAII (Michael W. Deem and Ramdas Pophale) SiO2 
 PCOD9198007
Probable space group: C 2/M
;
_chemical_formula_sum "Si O2"
_cell_formula_units_Z 48
_cell_length_a 9.319982
_cell_length_b 22.506458
_cell_length_c 23.929393
_cell_angle_alpha 90.000000
_cell_angle_beta 29.911082
_cell_angle_gamma 90.000000
_cell_volume 2502.963046
_symmetry_space_group_name_H-M "C 2/M"
_symmetry_group_IT_number 12
_symmetry_cell_setting 'monoclinic'
loop_
_space_group_symop_operation_xyz
x,y,z
-x,y,-z
-x,-y,-z
x,-y,z
1/2+x,1/2+y,z
1/2-x,1/2+y,-z
1/2-x,1/2-y,-z
1/2+x,1/2-y,z
loop_
_atom_site_type_symbol
_atom_site_label
_atom_site_fract_x
_atom_site_fract_y
_atom_site_fract_z
Si Si1 0.794311 0.432968 0.952435
Si Si2 0.201318 0.708401 0.765949
Si Si3 0.306691 0.126593 0.837708
Si Si4 0.211122 0.686902 0.482159
Si Si5 0.670925 0.151569 0.292435
Si Si6 0.194942 0.357924 0.883368
O O1 0.689993 0.500000 0.993869
O O2 0.899083 0.421023 0.853672
O O3 0.043091 0.416912 0.911108
O O4 0.535577 0.385924 0.049952
O O5 0.471093 0.672987 0.647471
O O6 0.269330 0.777913 0.738383
O O7 0.184663 0.687861 0.835347
O O8 0.919922 0.687927 0.826777
O O9 0.417019 0.124013 0.737218
O O10 0.250000 0.750000 0.500000
O O11 0.000000 0.692427 0.500000
O O12 0.061244 0.646446 0.579740
O O13 0.981296 0.129216 0.207580
O O14 0.000000 0.335469 0.000000
#
# Coordination Sequence:
#
# PCOD9198007 Si02
#       6
#     8   8   8   8   8   8
#     4  10  22  42  59  77 111 148 191 245 293 343
#     4  10  22  36  54  81 122 162 185 220 276 325
#     4  10  20  36  55  83 108 147 194 225 282 339
#     4  10  21  35  56  78 114 161 203 225 255 317
#     4  11  21  36  54  84 123 151 191 229 264 334
#     4  11  21  37  53  86 115 146 194 226 285 349
#
# _framework density 19.177271000000001
#
# number of rings (size 3 to 8) (size 9 to 14) (size 15 to 20)
#    0.000    1.667    3.333    2.000    7.000    1.000 
#    9.000    0.000    0.000    0.000    0.000   32.667 
#    0.000    0.000    0.000    0.000    0.000    0.000 
#
# Total GULP energy -133786.333331 kJ/mol
# GULP energy per Si atom -5574.430555 kJ/mol
# Density = 1.913362 g / cm^3
# Si number density = 19.177271 Si / 1000 Ang^3
#
#
#
# Elastic Constant Matrix: (Units=GPa)
#
#
# Indices 1 2 3 4 5 6 
#
# 1 119.1315 14.0935 51.5938 -0.1172 25.6603 0.1247
# 2 14.0935 30.8054 25.8575 -0.1378 -0.6426 0.1822
# 3 51.5938 25.8575 120.8384 -0.0865 22.5381 0.1995
# 4 -0.1172 -0.1378 -0.0865 5.1042 0.0839 -1.2076
# 5 25.6603 -0.6426 22.5381 0.0839 36.3080 -0.0880
# 6 0.1247 0.1822 0.1995 -1.2076 -0.0880 9.6023
#
#
#
# Elastic Compliance Matrix: (Units=1/GPa)
#
#
# Indices 1 2 3 4 5 6 
#
# 1 0.011401 -0.002707 -0.003140 0.000222 -0.006157 -0.000060
# 2 -0.002707 0.041730 -0.009349 0.000672 0.008453 -0.000400
# 3 -0.003140 -0.009349 0.012705 -0.000038 -0.005833 -0.000104
# 4 0.000222 0.000672 -0.000038 0.201954 -0.000527 0.025378
# 5 -0.006157 0.008453 -0.005833 -0.000527 0.035666 0.000301
# 6 -0.000060 -0.000400 -0.000104 0.025378 0.000301 0.107347
#
#
# Mechanical properties :
#
#
# Convention : Reuss Voigt Hill
#
# Bulk Modulus (GPa) = 28.21460 50.42944 39.32202
# Shear Modulus (GPa) = 11.03734 22.15159 16.59447
#
# Velocity S-wave (km/s) = 2.40165 3.40236 2.94482
# Velocity P-wave (km/s) = 4.73656 6.46438 5.66671
#
# Compressibility (1/GPa) = 0.03544265
#
# Stress axis : x y z
#
# Youngs Moduli (GPa) = 87.71491 23.96383 78.71123
#
# Poissons Ratio (x) = 0.06488 0.24713
# Poissons Ratio (y) = 0.23749 0.73586
# Poissons Ratio (z) = 0.27540 0.22404
#
# Static dielectric constant tensor:
#      x y z
#    x 1.699940 0.000000 0.007190 
#    y 0.000000 1.688880 0.000030 
#    z 0.007190 0.000030 1.707800 
# 
# From -- ./inp_files/123136.got.cif
#   From: 2010.05.17/outbox.cif.g08.bks.cpg/sg12_62_cif.got.tgz:123136.got - 2010.06.03 13:09:07.
