data_PCOD9198057
_publ_section_title
;
Structure prediction by ZEFSAII (Michael W. Deem and Ramdas Pophale) SiO2 
 PCOD9198057
Probable space group: C 2/M
;
_chemical_formula_sum "Si O2"
_cell_formula_units_Z 56
_cell_length_a 15.610340
_cell_length_b 9.940442
_cell_length_c 21.060358
_cell_angle_alpha 90.000000
_cell_angle_beta 127.085358
_cell_angle_gamma 90.000000
_cell_volume 2607.018520
_symmetry_space_group_name_H-M "C 2/M"
_symmetry_group_IT_number 12
_symmetry_cell_setting 'monoclinic'
loop_
_space_group_symop_operation_xyz
x,y,z
-x,y,-z
-x,-y,-z
x,-y,z
1/2+x,1/2+y,z
1/2-x,1/2+y,-z
1/2-x,1/2-y,-z
1/2+x,1/2-y,z
loop_
_atom_site_type_symbol
_atom_site_label
_atom_site_fract_x
_atom_site_fract_y
_atom_site_fract_z
Si Si1 0.734317 0.157814 0.817321
Si Si2 0.288406 0.652351 0.386707
Si Si3 0.068138 0.343035 0.625886
Si Si4 0.126459 0.855793 0.297561
Si Si5 0.611946 0.343891 0.858174
Si Si6 0.120499 0.855766 0.440650
Si Si7 0.020161 0.837124 0.080630
O O1 0.648567 0.171062 0.722000
O O2 0.694887 0.250017 0.858116
O O3 0.855176 0.193857 0.849095
O O4 0.736668 0.000000 0.837472
O O5 0.305701 0.500000 0.372636
O O6 0.380529 0.755707 0.407336
O O7 0.184077 0.717048 0.307425
O O8 0.291627 0.648705 0.464787
O O9 0.057516 0.500000 0.606082
O O10 0.956718 0.271406 0.591069
O O11 0.157019 0.866797 0.384900
O O12 0.999577 0.847134 0.231810
O O13 0.161266 0.000000 0.282427
O O14 0.648672 0.500000 0.879639
O O15 0.567623 0.292634 0.906670
O O16 0.061058 0.000000 0.426816
O O17 0.011561 0.000000 0.077937
O O18 0.000000 0.790663 0.000000
#
# Coordination Sequence:
#
# PCOD9198057 Si02
#       7
#     8   8   8   8   8   8   8
#     4  10  21  38  61  88 118 153 196 242 287 343
#     4  11  23  35  52  78 109 145 189 240 294 341
#     4  11  22  36  55  78 108 146 191 236 285 345
#     4  10  20  36  56  77 108 146 189 234 284 345
#     4  10  20  37  63  89 117 156 197 237 288 347
#     4  10  21  37  54  76 108 145 185 238 292 340
#     4   9  19  37  61  90 123 157 191 229 282 351
#
# _framework density 21.480474999999998
#
# number of rings (size 3 to 8) (size 9 to 14) (size 15 to 20)
#    0.000    1.857    1.429    2.571    0.000    7.429 
#    0.000    0.714    0.000    0.857    0.000    0.000 
#    0.000    0.000    0.000    0.000    0.000    0.000 
#
# Total GULP energy -156177.096586 kJ/mol
# GULP energy per Si atom -5577.753450 kJ/mol
# Density = 2.143158 g / cm^3
# Si number density = 21.480475 Si / 1000 Ang^3
#
#
#
# Elastic Constant Matrix: (Units=GPa)
#
#
# Indices 1 2 3 4 5 6 
#
# 1 41.0595 16.0346 1.1805 0.0000 -23.6974 0.0000
# 2 16.0346 112.2150 15.5349 0.0000 -8.5147 0.0000
# 3 1.1805 15.5349 60.3800 0.0000 -18.6478 0.0000
# 4 0.0000 0.0000 0.0000 10.8404 0.0000 -4.5165
# 5 -23.6974 -8.5147 -18.6478 0.0000 33.2592 0.0000
# 6 0.0000 0.0000 0.0000 -4.5165 0.0000 23.0481
#
#
#
# Elastic Compliance Matrix: (Units=1/GPa)
#
#
# Indices 1 2 3 4 5 6 
#
# 1 0.050580 -0.005906 0.013538 0.000000 0.042117 0.000000
# 2 -0.005906 0.009973 -0.003582 0.000000 -0.003663 0.000000
# 3 0.013538 -0.003582 0.024085 0.000000 0.022233 0.000000
# 4 0.000000 0.000000 0.000000 0.100449 0.000000 0.019684
# 5 0.042117 -0.003663 0.022233 0.000000 0.071604 0.000000
# 6 0.000000 0.000000 0.000000 0.019684 0.000000 0.047245
#
#
# Mechanical properties :
#
#
# Convention : Reuss Voigt Hill
#
# Bulk Modulus (GPa) = 10.78292 31.01715 20.90004
# Shear Modulus (GPa) = 15.30233 25.48982 20.39608
#
# Velocity S-wave (km/s) = 2.67195 3.44852 3.08477
# Velocity P-wave (km/s) = 3.81442 5.50703 4.73694
#
# Compressibility (1/GPa) = 0.09273923
#
# Stress axis : x y z
#
# Youngs Moduli (GPa) = 19.77071 100.26792 41.51937
#
# Poissons Ratio (x) = 0.59217 -0.56209
# Poissons Ratio (y) = 0.11676 0.14871
# Poissons Ratio (z) = -0.26766 0.35914
#
# Static dielectric constant tensor:
#      x y z
#    x 1.835720 0.000000 -0.031080 
#    y 0.000000 1.820820 0.000000 
#    z -0.031080 0.000000 1.801730 
# 
# From -- ./inp_files/314359.got.cif
#   From: 2010.05.17/outbox.cif.g08.bks.cpg/sg12_158_cif.got.tgz:314359.got - 2010.06.03 13:09:07.
