data_PCOD9198638
_publ_section_title
;
Structure prediction by ZEFSAII (Michael W. Deem and Ramdas Pophale) SiO2 
 PCOD9198638
Probable space group: C 2/M
;
_chemical_formula_sum "Si O2"
_cell_formula_units_Z 32
_cell_length_a 14.544968
_cell_length_b 16.479104
_cell_length_c 20.490807
_cell_angle_alpha 90.000000
_cell_angle_beta 19.491771
_cell_angle_gamma 90.000000
_cell_volume 1638.794520
_symmetry_space_group_name_H-M "C 2/M"
_symmetry_group_IT_number 12
_symmetry_cell_setting 'monoclinic'
loop_
_space_group_symop_operation_xyz
x,y,z
-x,y,-z
-x,-y,-z
x,-y,z
1/2+x,1/2+y,z
1/2-x,1/2+y,-z
1/2-x,1/2-y,-z
1/2+x,1/2-y,z
loop_
_atom_site_type_symbol
_atom_site_label
_atom_site_fract_x
_atom_site_fract_y
_atom_site_fract_z
Si Si1 0.246116 0.310344 0.064267
Si Si2 0.994866 0.810425 0.315300
Si Si3 0.317941 0.596599 0.301530
Si Si4 0.839103 0.096633 0.541227
O O1 0.238481 0.249931 0.130863
O O2 0.960917 0.361041 0.256549
O O3 0.250000 0.250000 0.000000
O O4 0.498654 0.369674 0.880889
O O5 0.750000 0.750000 0.500000
O O6 0.908753 0.860977 0.308448
O O7 0.018062 0.869931 0.360931
O O8 0.351701 0.500000 0.284815
O O9 0.000000 0.615460 0.500000
O O10 0.000000 0.115904 0.500000
O O11 0.804892 0.000000 0.558821
#
# Coordination Sequence:
#
# PCOD9198638 Si02
#       4
#     8   8   8   8
#     4   9  19  35  55  81 111 144 182 227 274 326
#     4   9  19  35  55  81 111 144 182 227 274 326
#     4  10  20  36  58  82 112 148 184 227 277 329
#     4  10  20  36  58  82 112 148 184 227 277 329
#
# _framework density 19.526547999999998
#
# number of rings (size 3 to 8) (size 9 to 14) (size 15 to 20)
#    0.000    2.500    0.000    1.500    0.000    9.000 
#    0.000   17.500    0.000   27.000    0.000    0.000 
#    0.000    0.000    0.000    0.000    0.000    0.000 
#
# Total GULP energy -89234.066669 kJ/mol
# GULP energy per Si atom -5577.129167 kJ/mol
# Density = 1.948210 g / cm^3
# Si number density = 19.526548 Si / 1000 Ang^3
#
#
#
# Elastic Constant Matrix: (Units=GPa)
#
#
# Indices 1 2 3 4 5 6 
#
# 1 106.8111 64.9026 66.7765 -0.0131 15.5765 0.1184
# 2 64.9026 93.2819 68.4920 -0.0292 1.9673 -0.2573
# 3 66.7765 68.4920 131.3889 0.0559 19.7083 0.2111
# 4 -0.0131 -0.0292 0.0559 31.2467 -0.1592 21.6103
# 5 15.5765 1.9673 19.7083 -0.1592 29.0272 -0.1359
# 6 0.1184 -0.2573 0.2111 21.6103 -0.1359 13.1076
#
#
#
# Elastic Compliance Matrix: (Units=1/GPa)
#
#
# Indices 1 2 3 4 5 6 
#
# 1 0.018784 -0.010880 -0.002758 -0.001800 -0.007468 0.002551
# 2 -0.010880 0.024486 -0.008745 0.003457 0.010113 -0.004874
# 3 -0.002758 -0.008745 0.014760 -0.001759 -0.007947 0.002433
# 4 -0.001800 0.003457 -0.001759 -0.227660 0.002434 0.375478
# 5 -0.007468 0.010113 -0.007947 0.002434 0.043167 -0.003172
# 6 0.002551 -0.004874 0.002433 0.375478 -0.003172 -0.542944
#
#
# Mechanical properties :
#
#
# Convention : Reuss Voigt Hill
#
# Bulk Modulus (GPa) = 75.39561 81.31380 78.35471
# Shear Modulus (GPa) = -8.06165 23.43035 7.68435
#
# Velocity S-wave (km/s) = -2.03409 3.46775 1.98592
# Velocity P-wave (km/s) = 5.76012 7.60045 6.74336
#
# Compressibility (1/GPa) = 0.01326337
#
# Stress axis : x y z
#
# Youngs Moduli (GPa) = 53.23759 40.84044 67.74890
#
# Poissons Ratio (x) = 0.44435 0.18686
# Poissons Ratio (y) = 0.57923 0.59247
# Poissons Ratio (z) = 0.14683 0.35715
#
# Static dielectric constant tensor:
#      x y z
#    x 1.695450 0.000130 0.008250 
#    y 0.000130 1.689800 0.000000 
#    z 0.008250 0.000000 1.700570 
# 
# From -- ./inp_files/60012.got.cif
#   From: 2010.05.17/outbox.cif.g08.bks.cpg/sg12_31_cif.got.tgz:60012.got - 2010.06.03 13:09:07.
