data_PCOD9198654
_publ_section_title
;
Structure prediction by ZEFSAII (Michael W. Deem and Ramdas Pophale) SiO2 
 PCOD9198654
Probable space group: C 2/M
;
_chemical_formula_sum "Si O2"
_cell_formula_units_Z 64
_cell_length_a 23.629905
_cell_length_b 14.966277
_cell_length_c 28.107786
_cell_angle_alpha 90.000000
_cell_angle_beta 17.350585
_cell_angle_gamma 90.000000
_cell_volume 2964.393131
_symmetry_space_group_name_H-M "C 2/M"
_symmetry_group_IT_number 12
_symmetry_cell_setting 'monoclinic'
loop_
_space_group_symop_operation_xyz
x,y,z
-x,y,-z
-x,-y,-z
x,-y,z
1/2+x,1/2+y,z
1/2-x,1/2+y,-z
1/2-x,1/2-y,-z
1/2+x,1/2-y,z
loop_
_atom_site_type_symbol
_atom_site_label
_atom_site_fract_x
_atom_site_fract_y
_atom_site_fract_z
Si Si1 0.994369 0.103849 0.951053
Si Si2 0.561936 0.856819 0.753902
Si Si3 0.776361 0.858314 0.901487
Si Si4 0.455985 0.360741 0.234868
Si Si5 0.708440 0.896261 0.846678
Si Si6 0.294001 0.856823 0.890490
Si Si7 0.680407 0.853275 0.381204
Si Si8 0.945479 0.152762 0.492650
O O1 0.145170 0.152289 0.795941
O O2 0.052695 0.000000 0.904681
O O3 0.000000 0.138410 0.000000
O O4 0.784806 0.109101 0.096266
O O5 0.560261 0.747818 0.751876
O O6 0.486027 0.886334 0.762886
O O7 0.766190 0.887669 0.608288
O O8 0.404269 0.880521 0.920194
O O9 0.743595 0.890458 0.874705
O O10 0.791087 0.750515 0.888705
O O11 0.967707 0.889761 0.774985
O O12 0.268119 0.394564 0.359072
O O13 0.629340 0.382659 0.060210
O O14 0.872147 0.846309 0.687026
O O15 0.718987 0.000000 0.823362
O O16 0.500000 0.862734 0.000000
O O17 0.500000 0.896198 0.500000
O O18 0.617073 0.753718 0.445625
O O19 0.000000 0.111082 0.500000
#
# Coordination Sequence:
#
# PCOD9198654 Si02
#       8
#     8   8   8   8   8   8   8   8
#     4  10  21  36  54  81 120 156 184 225 280 328
#     4   8  14  30  55  83 109 136 178 230 275 314
#     4   9  16  32  58  81 106 142 183 226 270 327
#     4   7  13  28  51  81 111 137 175 226 275 319
#     4  11  25  41  55  78 114 148 179 227 290 342
#     4   8  15  29  54  82 109 144 184 223 263 322
#     4   9  18  34  56  83 110 145 193 232 267 322
#     4  10  20  36  58  83 108 141 187 230 273 331
#
# _framework density 21.589577999999999
#
# number of rings (size 3 to 8) (size 9 to 14) (size 15 to 20)
#    0.000    3.000    0.000    3.000    0.000    5.000 
#    0.000   13.750    0.000    1.500    0.000    0.000 
#    0.000    0.000    0.000    0.000    0.000    0.000 
#
# Total GULP energy -178402.495156 kJ/mol
# GULP energy per Si atom -5575.077974 kJ/mol
# Density = 2.154044 g / cm^3
# Si number density = 21.589578 Si / 1000 Ang^3
#
#
#
# Elastic Constant Matrix: (Units=GPa)
#
#
# Indices 1 2 3 4 5 6 
#
# 1 227.2790 4.9947 80.8041 -0.0154 -38.4816 -0.0183
# 2 4.9947 65.2677 17.8561 -0.0245 2.5221 0.0396
# 3 80.8041 17.8561 98.1063 -0.1337 -21.6140 0.0923
# 4 -0.0154 -0.0245 -0.1337 -6.0252 0.0295 15.9422
# 5 -38.4816 2.5221 -21.6140 0.0295 45.7613 0.0180
# 6 -0.0183 0.0396 0.0923 15.9422 0.0180 27.7836
#
#
#
# Elastic Compliance Matrix: (Units=1/GPa)
#
#
# Indices 1 2 3 4 5 6 
#
# 1 0.006684 0.000707 -0.004916 0.000060 0.003260 -0.000017
# 2 0.000707 0.016468 -0.004073 -0.000004 -0.002236 -0.000006
# 3 -0.004916 -0.004073 0.015762 -0.000175 0.003535 0.000048
# 4 0.000060 -0.000004 -0.000175 -0.065905 -0.000004 0.037817
# 5 0.003260 -0.002236 0.003535 -0.000004 0.026387 -0.000021
# 6 -0.000017 -0.000006 0.000048 0.037817 -0.000021 0.014293
#
#
# Mechanical properties :
#
#
# Convention : Reuss Voigt Hill
#
# Bulk Modulus (GPa) = 44.73909 66.44032 55.58971
# Shear Modulus (GPa) = 132.62410 32.63713 82.63061
#
# Velocity S-wave (km/s) = 7.84621 3.89229 6.19326
# Velocity P-wave (km/s) = 10.14158 7.14429 8.77190
#
# Compressibility (1/GPa) = 0.02235182
#
# Stress axis : x y z
#
# Youngs Moduli (GPa) = 149.61311 60.72380 63.44556
#
# Poissons Ratio (x) = -0.04295 0.31187
# Poissons Ratio (y) = -0.10583 0.25839
# Poissons Ratio (z) = 0.73544 0.24731
#
# Static dielectric constant tensor:
#      x y z
#    x 1.856220 0.000000 -0.055210 
#    y 0.000000 1.817840 0.000060 
#    z -0.055210 0.000060 1.748830 
# 
# From -- ./inp_files/347882.got.cif
#   From: 2010.05.17/outbox.cif.g08.bks.cpg/sg12_174_cif.got.tgz:347882.got - 2010.06.03 13:09:07.
