data_PCOD9198883
_publ_section_title
;
Structure prediction by ZEFSAII (Michael W. Deem and Ramdas Pophale) SiO2 
 PCOD9198883
Probable space group: C 2/M
;
_chemical_formula_sum "Si O2"
_cell_formula_units_Z 64
_cell_length_a 33.733799
_cell_length_b 13.930946
_cell_length_c 10.436721
_cell_angle_alpha 90.000000
_cell_angle_beta 139.411812
_cell_angle_gamma 90.000000
_cell_volume 3191.066037
_symmetry_space_group_name_H-M "C 2/M"
_symmetry_group_IT_number 12
_symmetry_cell_setting 'monoclinic'
loop_
_space_group_symop_operation_xyz
x,y,z
-x,y,-z
-x,-y,-z
x,-y,z
1/2+x,1/2+y,z
1/2-x,1/2+y,-z
1/2-x,1/2-y,-z
1/2+x,1/2-y,z
loop_
_atom_site_type_symbol
_atom_site_label
_atom_site_fract_x
_atom_site_fract_y
_atom_site_fract_z
Si Si1 0.177381 0.614032 0.955599
Si Si2 0.290893 0.116740 0.457871
Si Si3 0.373839 0.114093 0.899584
Si Si4 0.866340 0.696462 0.414682
Si Si5 0.684176 0.388050 0.638818
Si Si6 0.031621 0.107765 0.937673
Si Si7 0.495414 0.190479 0.833688
Si Si8 0.673507 0.615430 0.316046
O O1 0.164067 0.500000 0.914321
O O2 0.146694 0.665631 0.761169
O O3 0.153252 0.650623 0.033340
O O4 0.250445 0.623498 0.134226
O O5 0.338000 0.149581 0.685407
O O6 0.313522 0.156508 0.378610
O O7 0.224039 0.149704 0.339849
O O8 0.292002 0.000000 0.454469
O O9 0.362995 0.000000 0.872997
O O10 0.445380 0.134289 0.067661
O O11 0.862393 0.811407 0.419560
O O12 0.930032 0.655864 0.625058
O O13 0.665132 0.500000 0.599995
O O14 0.691904 0.363618 0.507235
O O15 0.001044 0.199542 0.799004
O O16 0.027705 0.000000 0.872450
O O17 0.102567 0.138228 0.123665
O O18 0.000000 0.101437 0.000000
O O19 0.500000 0.189609 0.000000
O O20 0.675810 0.500000 0.312501
#
# Coordination Sequence:
#
# PCOD9198883 Si02
#       8
#     8   8   8   8   8   8   8   8
#     4  10  22  42  62  84 115 152 196 242 292 353
#     4  10  20  36  58  88 120 150 189 243 297 342
#     4  10  21  39  61  81 115 161 193 233 295 351
#     4  12  24  36  59  90 118 151 198 246 288 339
#     4  10  20  37  60  84 116 154 190 233 293 355
#     4   9  18  33  54  82 121 155 185 235 291 340
#     4  11  22  36  54  86 120 151 196 239 285 346
#     4   9  17  32  57  86 113 150 193 231 285 353
#
# _framework density 20.055993999999998
#
# number of rings (size 3 to 8) (size 9 to 14) (size 15 to 20)
#    0.000    1.875    2.500    2.250    0.000    4.750 
#    0.000    1.250    0.000    0.750    0.000    1.750 
#    0.000    0.000    0.000    0.000    0.000    0.000 
#
# Total GULP energy -178667.037022 kJ/mol
# GULP energy per Si atom -5583.344907 kJ/mol
# Density = 2.001035 g / cm^3
# Si number density = 20.055994 Si / 1000 Ang^3
#
#
#
# Elastic Constant Matrix: (Units=GPa)
#
#
# Indices 1 2 3 4 5 6 
#
# 1 72.0287 12.7158 32.8570 0.0000 10.9792 0.0000
# 2 12.7158 38.2685 14.9649 0.0000 -7.1243 0.0000
# 3 32.8570 14.9649 66.7563 0.0000 -0.8784 0.0000
# 4 0.0000 0.0000 0.0000 24.4288 0.0000 -26.0254
# 5 10.9792 -7.1243 -0.8784 0.0000 30.4638 0.0000
# 6 0.0000 0.0000 0.0000 -26.0254 0.0000 571.4329
#
#
#
# Elastic Compliance Matrix: (Units=1/GPa)
#
#
# Indices 1 2 3 4 5 6 
#
# 1 0.020126 -0.004797 -0.008944 0.000000 -0.008633 0.000000
# 2 -0.004797 0.031139 -0.004503 0.000000 0.008881 0.000000
# 3 -0.008944 -0.004503 0.020428 0.000000 0.002760 0.000000
# 4 0.000000 0.000000 0.000000 0.043023 0.000000 0.001959
# 5 -0.008633 0.008881 0.002760 0.000000 0.038094 0.000000
# 6 0.000000 0.000000 0.000000 0.001959 0.000000 0.001839
#
#
# Mechanical properties :
#
#
# Convention : Reuss Voigt Hill
#
# Bulk Modulus (GPa) = 28.40465 33.12544 30.76504
# Shear Modulus (GPa) = 24.64607 133.03283 78.83945
#
# Velocity S-wave (km/s) = 3.50932 8.15320 6.27654
# Velocity P-wave (km/s) = 5.53298 10.25599 8.24012
#
# Compressibility (1/GPa) = 0.03520550
#
# Stress axis : x y z
#
# Youngs Moduli (GPa) = 49.68647 32.11374 48.95284
#
# Poissons Ratio (x) = 0.15405 0.43784
# Poissons Ratio (y) = 0.23835 0.22042
# Poissons Ratio (z) = 0.44441 0.14460
#
# Static dielectric constant tensor:
#      x y z
#    x 1.705450 0.000000 0.045820 
#    y 0.000000 1.776580 0.000000 
#    z 0.045820 0.000000 1.728680 
# 
# From -- ./inp_files/112033.got.cif
#   From: 2010.05.17/outbox.cif.g08.bks.cpg/sg12_57_cif.got.tgz:112033.got - 2010.06.03 13:09:07.
