data_PCOD9198574
_publ_section_title
;
Structure prediction by ZEFSAII (Michael W. Deem and Ramdas Pophale) SiO2 
 PCOD9198574
Probable space group: C 2/M
;
_chemical_formula_sum "Si O2"
_cell_formula_units_Z 32
_cell_length_a 28.064406
_cell_length_b 7.692628
_cell_length_c 21.151352
_cell_angle_alpha 90.000000
_cell_angle_beta 19.294050
_cell_angle_gamma 90.000000
_cell_volume 1508.795178
_symmetry_space_group_name_H-M "C 2/M"
_symmetry_group_IT_number 12
_symmetry_cell_setting 'monoclinic'
loop_
_space_group_symop_operation_xyz
x,y,z
-x,y,-z
-x,-y,-z
x,-y,z
1/2+x,1/2+y,z
1/2-x,1/2+y,-z
1/2-x,1/2-y,-z
1/2+x,1/2-y,z
loop_
_atom_site_type_symbol
_atom_site_label
_atom_site_fract_x
_atom_site_fract_y
_atom_site_fract_z
Si Si1 0.161953 0.208946 0.546977
Si Si2 0.661384 0.294180 0.301685
Si Si3 0.332677 0.707381 0.961170
Si Si4 0.165912 0.286732 0.792568
O O1 0.250000 0.250000 0.500000
O O2 0.248363 0.271004 0.377094
O O3 0.997360 0.274886 0.754821
O O4 0.154003 0.000000 0.551774
O O5 0.500000 0.220137 0.500000
O O6 0.646326 0.500000 0.332834
O O7 0.753327 0.225523 0.245427
O O8 0.744864 0.273223 0.131545
O O9 0.339133 0.500000 0.958559
O O10 0.250000 0.750000 0.000000
O O11 0.164775 0.500000 0.793807
O O12 0.000000 0.230810 0.000000
#
# Coordination Sequence:
#
# PCOD9198574 Si02
#       4
#     8   8   8   8
#     4  10  21  37  57  83 113 146 187 234 283 336
#     4  10  20  36  58  81 108 145 188 234 283 335
#     4  11  23  38  57  83 116 152 191 235 283 338
#     4   9  17  31  53  78 104 138 180 224 273 330
#
# _framework density 21.208974999999999
#
# number of rings (size 3 to 8) (size 9 to 14) (size 15 to 20)
#    0.000    2.000    0.000    3.750    0.000    8.500 
#    0.000    1.250    0.000    4.500    0.000    0.000 
#    0.000    0.000    0.000    0.000    0.000    0.000 
#
# Total GULP energy -89437.965235 kJ/mol
# GULP energy per Si atom -5589.872827 kJ/mol
# Density = 2.116070 g / cm^3
# Si number density = 21.208975 Si / 1000 Ang^3
#
#
#
# Elastic Constant Matrix: (Units=GPa)
#
#
# Indices 1 2 3 4 5 6 
#
# 1 228.7927 -16.7631 137.5642 0.0011 -13.0720 0.0000
# 2 -16.7631 29.3899 -6.6519 0.0056 -9.4621 -0.0003
# 3 137.5642 -6.6519 246.1771 0.0070 -15.6159 0.0001
# 4 0.0011 0.0056 0.0070 2.6607 0.0009 6.4751
# 5 -13.0720 -9.4621 -15.6159 0.0009 44.4376 -0.0005
# 6 0.0000 -0.0003 0.0001 6.4751 -0.0005 22.6159
#
#
#
# Elastic Compliance Matrix: (Units=1/GPa)
#
#
# Indices 1 2 3 4 5 6 
#
# 1 0.006936 0.003610 -0.003682 -0.000005 0.001515 0.000002
# 2 0.003610 0.038969 -0.000379 -0.000288 0.009226 0.000083
# 3 -0.003682 -0.000379 0.006173 -0.000047 0.001005 0.000013
# 4 -0.000005 -0.000288 -0.000047 1.239454 -0.000109 -0.354864
# 5 0.001515 0.009226 0.001005 -0.000109 0.025267 0.000032
# 6 0.000002 0.000083 0.000013 -0.354864 0.000032 0.145816
#
#
# Mechanical properties :
#
#
# Convention : Reuss Voigt Hill
#
# Bulk Modulus (GPa) = 19.54032 81.40647 50.47340
# Shear Modulus (GPa) = 3.37706 39.95689 21.66697
#
# Velocity S-wave (km/s) = 1.26322 4.34517 3.19971
# Velocity P-wave (km/s) = 3.37059 7.97749 6.12378
#
# Compressibility (1/GPa) = 0.05117623
#
# Stress axis : x y z
#
# Youngs Moduli (GPa) = 144.18125 25.66133 161.99122
#
# Poissons Ratio (x) = -0.09265 0.59646
# Poissons Ratio (y) = -0.52054 0.06143
# Poissons Ratio (z) = 0.53088 0.00973
#
# Static dielectric constant tensor:
#      x y z
#    x -1.632100 0.000840 0.768990 
#    y 0.000840 1.780370 -0.000200 
#    z 0.768990 -0.000200 1.547030 
# 
# From -- ./inp_files/93941.got.cif
#   From: 2010.05.17/outbox.cif.g08.bks.cpg/sg12_47_cif.got.tgz:93941.got - 2010.06.03 13:09:07.
