data_PCOD9198987
_publ_section_title
;
Structure prediction by ZEFSAII (Michael W. Deem and Ramdas Pophale) SiO2 
 PCOD9198987
Probable space group: C 2/M
;
_chemical_formula_sum "Si O2"
_cell_formula_units_Z 64
_cell_length_a 21.443931
_cell_length_b 12.442372
_cell_length_c 9.402327
_cell_angle_alpha 90.000000
_cell_angle_beta 95.335328
_cell_angle_gamma 90.000000
_cell_volume 2497.797859
_symmetry_space_group_name_H-M "C 2/M"
_symmetry_group_IT_number 12
_symmetry_cell_setting 'monoclinic'
loop_
_space_group_symop_operation_xyz
x,y,z
-x,y,-z
-x,-y,-z
x,-y,z
1/2+x,1/2+y,z
1/2-x,1/2+y,-z
1/2-x,1/2-y,-z
1/2+x,1/2-y,z
loop_
_atom_site_type_symbol
_atom_site_label
_atom_site_fract_x
_atom_site_fract_y
_atom_site_fract_z
Si Si1 0.842610 0.617586 0.116293
Si Si2 0.569727 0.349400 0.490412
Si Si3 0.586394 0.886454 0.425261
Si Si4 0.561729 0.849351 0.097084
Si Si5 0.543906 0.382515 0.176398
Si Si6 0.765163 0.368139 0.586371
Si Si7 0.102679 0.832142 0.789246
Si Si8 0.234156 0.874325 0.909966
O O1 0.839180 0.500000 0.183705
O O2 0.878370 0.610411 0.973297
O O3 0.774937 0.664182 0.056531
O O4 0.883824 0.704146 0.208929
O O5 0.500000 0.391189 0.500000
O O6 0.565488 0.221164 0.495179
O O7 0.583379 0.379050 0.331809
O O8 0.612873 0.378199 0.631685
O O9 0.559033 0.881798 0.259547
O O10 0.660794 0.877688 0.422457
O O11 0.570529 0.000000 0.490423
O O12 0.565019 0.719973 0.093856
O O13 0.500000 0.881868 0.000000
O O14 0.551465 0.500000 0.114689
O O15 0.469564 0.361579 0.193278
O O16 0.744064 0.500000 0.553030
O O17 0.750000 0.250000 0.500000
O O18 0.751399 0.344071 0.750300
O O19 0.158665 0.870344 0.901872
O O20 0.251473 0.000000 0.920419
#
# Coordination Sequence:
#
# PCOD9198987 Si02
#       8
#     8   8   8   8   8   8   8   8
#     4  11  23  40  61  89 122 159 201 251 305 363
#     4   9  21  37  55  87 122 151 197 246 298 357
#     4  10  20  36  59  83 117 157 196 249 303 358
#     4  11  21  40  59  89 118 151 199 251 303 358
#     4  10  22  40  62  87 119 155 198 250 307 362
#     4  10  20  37  61  90 120 160 208 256 310 370
#     4  11  21  39  60  89 119 160 201 245 295 368
#     4  10  21  38  62  86 119 161 203 249 302 367
#
# _framework density 25.622568000000001
#
# number of rings (size 3 to 8) (size 9 to 14) (size 15 to 20)
#    0.000    1.750    2.500    1.875    0.000    4.750 
#    0.000    4.375    0.000    2.250    0.000    0.000 
#    0.000    0.000    0.000    0.000    0.000    0.000 
#
# Total GULP energy -178529.062872 kJ/mol
# GULP energy per Si atom -5579.033215 kJ/mol
# Density = 2.556425 g / cm^3
# Si number density = 25.622568 Si / 1000 Ang^3
#
#
#
# Elastic Constant Matrix: (Units=GPa)
#
#
# Indices 1 2 3 4 5 6 
#
# 1 95.6799 27.5164 10.6017 0.0000 17.8116 0.0000
# 2 27.5164 215.4074 27.1254 0.0000 9.6342 0.0000
# 3 10.6017 27.1254 104.1224 0.0000 20.4542 0.0000
# 4 0.0000 0.0000 0.0000 -4.6696 0.0000 -30.9809
# 5 17.8116 9.6342 20.4542 0.0000 31.2623 0.0000
# 6 0.0000 0.0000 0.0000 -30.9809 0.0000 34.0281
#
#
#
# Elastic Compliance Matrix: (Units=1/GPa)
#
#
# Indices 1 2 3 4 5 6 
#
# 1 0.012029 -0.001290 0.000435 0.000000 -0.006741 0.000000
# 2 -0.001290 0.004954 -0.001152 0.000000 -0.000038 0.000000
# 3 0.000435 -0.001152 0.011290 0.000000 -0.007280 0.000000
# 4 0.000000 0.000000 0.000000 -0.030417 0.000000 -0.027693
# 5 -0.006741 -0.000038 -0.007280 0.000000 0.040603 0.000000
# 6 0.000000 0.000000 0.000000 -0.027693 0.000000 0.004174
#
#
# Mechanical properties :
#
#
# Convention : Reuss Voigt Hill
#
# Bulk Modulus (GPa) = 41.21937 60.63298 50.92617
# Shear Modulus (GPa) = 91.35457 35.45525 63.40491
#
# Velocity S-wave (km/s) = 5.97757 3.72392 4.97990
# Velocity P-wave (km/s) = 7.98523 6.49656 7.27905
#
# Compressibility (1/GPa) = 0.02426044
#
# Stress axis : x y z
#
# Youngs Moduli (GPa) = 83.13161 201.86180 88.57502
#
# Poissons Ratio (x) = 0.26039 -0.03857
# Poissons Ratio (y) = 0.10724 0.10201
# Poissons Ratio (z) = -0.03620 0.23249
#
# Static dielectric constant tensor:
#      x y z
#    x 2.005480 0.000000 0.023570 
#    y 0.000000 2.155710 0.000000 
#    z 0.023570 0.000000 2.036600 
# 
# From -- ./inp_files/175307.got.cif
#   From: 2010.05.17/outbox.cif.g08.bks.cpg/sg12_88_cif.got.tgz:175307.got - 2010.06.03 13:09:07.
