data_PCOD9198731
_publ_section_title
;
Structure prediction by ZEFSAII (Michael W. Deem and Ramdas Pophale) SiO2 
 PCOD9198731
Probable space group: C 2/M
;
_chemical_formula_sum "Si O2"
_cell_formula_units_Z 64
_cell_length_a 28.744677
_cell_length_b 14.517545
_cell_length_c 9.372018
_cell_angle_alpha 90.000000
_cell_angle_beta 61.200370
_cell_angle_gamma 90.000000
_cell_volume 3427.215331
_symmetry_space_group_name_H-M "C 2/M"
_symmetry_group_IT_number 12
_symmetry_cell_setting 'monoclinic'
loop_
_space_group_symop_operation_xyz
x,y,z
-x,y,-z
-x,-y,-z
x,-y,z
1/2+x,1/2+y,z
1/2-x,1/2+y,-z
1/2-x,1/2-y,-z
1/2+x,1/2-y,z
loop_
_atom_site_type_symbol
_atom_site_label
_atom_site_fract_x
_atom_site_fract_y
_atom_site_fract_z
Si Si1 0.656107 0.608832 0.369130
Si Si2 0.973300 0.607459 0.191710
Si Si3 0.430869 0.892430 0.726356
Si Si4 0.240511 0.654270 0.592926
Si Si5 0.223872 0.111081 0.012328
Si Si6 0.288013 0.898080 0.663303
Si Si7 0.675538 0.110557 0.944985
Si Si8 0.102538 0.711129 0.500107
O O1 0.642738 0.500000 0.388519
O O2 0.708388 0.622269 0.391665
O O3 0.674927 0.641409 0.182299
O O4 0.611056 0.679316 0.485946
O O5 0.955730 0.500000 0.208765
O O6 0.925763 0.671348 0.317241
O O7 0.018128 0.614055 0.248011
O O8 0.000000 0.630691 0.000000
O O9 0.428713 0.827683 0.591686
O O10 0.426583 0.000000 0.685633
O O11 0.380399 0.870032 0.900703
O O12 0.250000 0.750000 0.500000
O O13 0.227887 0.592755 0.476119
O O14 0.190712 0.655497 0.773082
O O15 0.277635 0.137531 0.015754
O O16 0.219022 0.000000 0.022748
O O17 0.237796 0.137274 0.830278
O O18 0.338563 0.832612 0.599733
O O19 0.302932 0.000000 0.698341
O O20 0.679031 0.000000 0.918588
#
# Coordination Sequence:
#
# PCOD9198731 Si02
#       8
#     8   8   8   8   8   8   8   8
#     4  10  22  40  56  75 113 157 192 232 280 322
#     4  10  23  40  59  86 121 148 171 221 291 351
#     4  10  20  36  58  84 113 144 176 222 286 342
#     4  11  21  33  48  78 112 153 193 225 271 325
#     4   8  16  32  51  74 106 144 181 219 267 318
#     4  11  20  31  51  80 113 143 183 232 271 323
#     4   9  17  31  51  74 107 147 180 216 270 330
#     4  12  22  35  58  84 108 144 196 234 268 335
#
# _framework density 18.674052
#
# number of rings (size 3 to 8) (size 9 to 14) (size 15 to 20)
#    0.000    1.875    2.500    3.375    1.750    2.500 
#    0.000    0.000    0.000    1.875    0.000    0.000 
#    0.000    0.000    0.000    0.000    0.000    0.000 
#
# Total GULP energy -178539.502463 kJ/mol
# GULP energy per Si atom -5579.359452 kJ/mol
# Density = 1.863155 g / cm^3
# Si number density = 18.674052 Si / 1000 Ang^3
#
#
#
# Elastic Constant Matrix: (Units=GPa)
#
#
# Indices 1 2 3 4 5 6 
#
# 1 31.8841 15.9553 17.2509 0.0000 5.0316 0.0000
# 2 15.9553 100.0736 45.2176 0.0000 -11.9745 0.0000
# 3 17.2509 45.2176 136.1083 0.0000 -4.4046 0.0000
# 4 0.0000 0.0000 0.0000 23.4223 0.0000 -0.4778
# 5 5.0316 -11.9745 -4.4046 0.0000 27.8842 0.0000
# 6 0.0000 0.0000 0.0000 -0.4778 0.0000 16.4228
#
#
#
# Elastic Compliance Matrix: (Units=1/GPa)
#
#
# Indices 1 2 3 4 5 6 
#
# 1 0.037464 -0.005704 -0.003168 0.000000 -0.009710 0.000000
# 2 -0.005704 0.013204 -0.003464 0.000000 0.006152 0.000000
# 3 -0.003168 -0.003464 0.008915 0.000000 0.000492 0.000000
# 4 0.000000 0.000000 0.000000 0.042720 0.000000 0.001243
# 5 -0.009710 0.006152 0.000492 0.000000 0.040334 0.000000
# 6 0.000000 0.000000 0.000000 0.001243 0.000000 0.060927
#
#
# Mechanical properties :
#
#
# Convention : Reuss Voigt Hill
#
# Bulk Modulus (GPa) = 28.64394 47.21263 37.92828
# Shear Modulus (GPa) = 20.84435 26.18867 23.51651
#
# Velocity S-wave (km/s) = 3.34461 3.74894 3.55253
# Velocity P-wave (km/s) = 5.50340 6.63903 6.09771
#
# Compressibility (1/GPa) = 0.03491139
#
# Stress axis : x y z
#
# Youngs Moduli (GPa) = 26.69223 75.73724 112.16469
#
# Poissons Ratio (x) = 0.43198 0.35530
# Poissons Ratio (y) = 0.15224 0.38859
# Poissons Ratio (z) = 0.08455 0.26239
#
# Static dielectric constant tensor:
#      x y z
#    x 1.647770 0.000000 0.012300 
#    y 0.000000 1.772010 0.000000 
#    z 0.012300 0.000000 1.686210 
# 
# From -- ./inp_files/111605.got.cif
#   From: 2010.05.17/outbox.cif.g08.bks.cpg/sg12_56_cif.got.tgz:111605.got - 2010.06.03 13:09:07.
