data_PCOD9198969
_publ_section_title
;
Structure prediction by ZEFSAII (Michael W. Deem and Ramdas Pophale) SiO2 
 PCOD9198969
Probable space group: C 2/M
;
_chemical_formula_sum "Si O2"
_cell_formula_units_Z 48
_cell_length_a 31.980999
_cell_length_b 7.883002
_cell_length_c 18.464181
_cell_angle_alpha 90.000000
_cell_angle_beta 29.962795
_cell_angle_gamma 90.000000
_cell_volume 2324.849775
_symmetry_space_group_name_H-M "C 2/M"
_symmetry_group_IT_number 12
_symmetry_cell_setting 'monoclinic'
loop_
_space_group_symop_operation_xyz
x,y,z
-x,y,-z
-x,-y,-z
x,-y,z
1/2+x,1/2+y,z
1/2-x,1/2+y,-z
1/2-x,1/2-y,-z
1/2+x,1/2-y,z
loop_
_atom_site_type_symbol
_atom_site_label
_atom_site_fract_x
_atom_site_fract_y
_atom_site_fract_z
Si Si1 0.750933 0.297643 0.414429
Si Si2 0.418989 0.703307 0.078587
Si Si3 0.249720 0.297859 0.916321
Si Si4 0.415988 0.292065 0.417247
Si Si5 0.081512 0.203480 0.085045
Si Si6 0.916018 0.207636 0.584623
O O1 0.749956 0.500000 0.410967
O O2 0.750000 0.250000 0.500000
O O3 0.834522 0.236447 0.249346
O O4 0.667526 0.234564 0.498835
O O5 0.428755 0.500000 0.058884
O O6 0.414050 0.769986 0.003841
O O7 0.500000 0.770098 0.000000
O O8 0.252157 0.500000 0.908067
O O9 0.165703 0.239780 0.002606
O O10 0.332816 0.232987 0.750897
O O11 0.250000 0.250000 0.000000
O O12 0.416234 0.500000 0.416417
O O13 0.416021 0.239233 0.500927
O O14 0.499394 0.234023 0.250618
O O15 0.073338 0.000000 0.093280
O O16 0.000000 0.261640 0.500000
O O17 0.915683 0.000000 0.585719
#
# Coordination Sequence:
#
# PCOD9198969 Si02
#       6
#     8   8   8   8   8   8
#     4  11  22  37  58  83 113 149 192 239 285 336
#     4  10  21  38  59  84 116 153 191 232 284 346
#     4  11  22  36  56  82 112 145 184 231 281 334
#     4   9  18  34  56  81 108 142 183 226 276 335
#     4  10  20  36  59  83 110 145 184 228 280 337
#     4   9  17  31  54  80 103 133 177 222 263 318
#
# _framework density 20.646495999999999
#
# number of rings (size 3 to 8) (size 9 to 14) (size 15 to 20)
#    0.000    2.000    0.000    4.000    0.000    7.667 
#    0.000    3.333    0.000   11.000    0.000    0.000 
#    0.000    0.000    0.000    0.000    0.000    0.000 
#
# Total GULP energy -134143.339548 kJ/mol
# GULP energy per Si atom -5589.305815 kJ/mol
# Density = 2.059950 g / cm^3
# Si number density = 20.646496 Si / 1000 Ang^3
#
#
#
# Elastic Constant Matrix: (Units=GPa)
#
#
# Indices 1 2 3 4 5 6 
#
# 1 252.0919 4.2685 154.6918 -0.0011 0.8872 0.0007
# 2 4.2685 21.1082 2.0276 -0.0015 0.1844 0.0038
# 3 154.6918 2.0276 242.9622 -0.0031 -0.5215 0.0016
# 4 -0.0011 -0.0015 -0.0031 25.9615 0.0017 -4.4417
# 5 0.8872 0.1844 -0.5215 0.0017 47.4584 -0.0010
# 6 0.0007 0.0038 0.0016 -4.4417 -0.0010 18.6149
#
#
#
# Elastic Compliance Matrix: (Units=1/GPa)
#
#
# Indices 1 2 3 4 5 6 
#
# 1 0.006530 -0.000920 -0.004150 0.000000 -0.000164 0.000000
# 2 -0.000920 0.047544 0.000189 0.000001 -0.000165 -0.000010
# 3 -0.004150 0.000189 0.006757 0.000001 0.000151 0.000000
# 4 0.000000 0.000001 0.000001 0.040158 -0.000001 0.009582
# 5 -0.000164 -0.000165 0.000151 -0.000001 0.021076 0.000001
# 6 0.000000 -0.000010 0.000000 0.009582 0.000001 0.056007
#
#
# Mechanical properties :
#
#
# Convention : Reuss Voigt Hill
#
# Bulk Modulus (GPa) = 19.58183 93.12646 56.35415
# Shear Modulus (GPa) = 24.40724 42.08526 33.24625
#
# Velocity S-wave (km/s) = 3.44197 4.51973 4.01716
# Velocity P-wave (km/s) = 5.03002 8.51120 6.99076
#
# Compressibility (1/GPa) = 0.05106775
#
# Stress axis : x y z
#
# Youngs Moduli (GPa) = 153.15064 21.03303 147.99785
#
# Poissons Ratio (x) = 0.01936 0.61418
# Poissons Ratio (y) = 0.14095 -0.02795
# Poissons Ratio (z) = 0.63557 -0.00397
#
# Static dielectric constant tensor:
#      x y z
#    x 1.689130 0.000000 -0.004950 
#    y 0.000000 1.768050 0.000000 
#    z -0.004950 0.000000 1.699460 
# 
# From -- ./inp_files/274579.got.cif
#   From: 2010.05.17/outbox.cif.g08.bks.cpg/sg12_138_cif.got.tgz:274579.got - 2010.06.03 13:09:07.
