data_PCOD9198157
_publ_section_title
;
Structure prediction by ZEFSAII (Michael W. Deem and Ramdas Pophale) SiO2 
 PCOD9198157
Probable space group: C 2/M
;
_chemical_formula_sum "Si O2"
_cell_formula_units_Z 48
_cell_length_a 29.849311
_cell_length_b 9.798211
_cell_length_c 18.891845
_cell_angle_alpha 90.000000
_cell_angle_beta 29.534130
_cell_angle_gamma 90.000000
_cell_volume 2723.649576
_symmetry_space_group_name_H-M "C 2/M"
_symmetry_group_IT_number 12
_symmetry_cell_setting 'monoclinic'
loop_
_space_group_symop_operation_xyz
x,y,z
-x,y,-z
-x,-y,-z
x,-y,z
1/2+x,1/2+y,z
1/2-x,1/2+y,-z
1/2-x,1/2-y,-z
1/2+x,1/2-y,z
loop_
_atom_site_type_symbol
_atom_site_label
_atom_site_fract_x
_atom_site_fract_y
_atom_site_fract_z
Si Si1 0.980157 0.656976 0.605411
Si Si2 0.540991 0.661983 0.654405
Si Si3 0.601938 0.840309 0.889740
Si Si4 0.735202 0.152446 0.085332
Si Si5 0.888555 0.162386 0.982667
Si Si6 0.257479 0.662591 0.561191
O O1 0.015482 0.500000 0.562145
O O2 0.871543 0.649636 0.756381
O O3 0.000000 0.712442 0.500000
O O4 0.016815 0.748133 0.619164
O O5 0.531178 0.500000 0.652330
O O6 0.643981 0.686161 0.538722
O O7 0.470480 0.694160 0.815151
O O8 0.607778 0.747850 0.951009
O O9 0.676745 0.803145 0.727392
O O10 0.617397 0.000000 0.886442
O O11 0.500000 0.827742 0.000000
O O12 0.794726 0.193818 0.070818
O O13 0.767802 0.000000 0.022118
O O14 0.750000 0.250000 0.000000
O O15 0.892428 0.000000 0.992277
O O16 0.250576 0.500000 0.554926
O O17 0.250000 0.750000 0.500000
#
# Coordination Sequence:
#
# PCOD9198157 Si02
#       6
#     8   8   8   8   8   8
#     4  10  22  37  55  81 113 148 188 229 271 325
#     4  10  21  38  57  81 112 145 185 229 274 326
#     4  10  22  39  58  83 113 142 179 226 274 328
#     4  10  20  36  56  81 112 147 187 227 269 322
#     4  10  21  36  57  83 111 143 183 228 271 321
#     4  10  22  39  59  84 112 144 182 225 274 331
#
# _framework density 17.623411999999998
#
# number of rings (size 3 to 8) (size 9 to 14) (size 15 to 20)
#    0.000    2.000    1.667    1.000    2.333    3.333 
#    0.000    0.000    0.000    0.000    0.000    0.000 
#    0.000    0.000    0.000    0.000    0.000    0.000 
#
# Total GULP energy -133908.795210 kJ/mol
# GULP energy per Si atom -5579.533134 kJ/mol
# Density = 1.758330 g / cm^3
# Si number density = 17.623412 Si / 1000 Ang^3
#
#
#
# Elastic Constant Matrix: (Units=GPa)
#
#
# Indices 1 2 3 4 5 6 
#
# 1 155.1156 93.8399 86.0136 0.0000 20.3922 -0.0001
# 2 93.8399 75.8172 61.6677 -0.0010 22.1600 0.0004
# 3 86.0136 61.6677 109.3212 -0.0007 14.9413 0.0003
# 4 0.0000 -0.0010 -0.0007 20.9372 0.0004 8.6662
# 5 20.3922 22.1600 14.9413 0.0004 36.3726 -0.0001
# 6 -0.0001 0.0004 0.0003 8.6662 -0.0001 41.1156
#
#
#
# Elastic Compliance Matrix: (Units=1/GPa)
#
#
# Indices 1 2 3 4 5 6 
#
# 1 0.027818 -0.032770 -0.004236 -0.000002 0.006110 0.000001
# 2 -0.032770 0.066744 -0.009344 0.000004 -0.018452 -0.000002
# 3 -0.004236 -0.009344 0.017639 0.000000 0.000822 0.000000
# 4 -0.000002 0.000004 0.000000 0.052327 -0.000002 -0.011029
# 5 0.006110 -0.018452 0.000822 -0.000002 0.034972 0.000001
# 6 0.000001 -0.000002 0.000000 -0.011029 0.000001 0.026646
#
#
# Mechanical properties :
#
#
# Convention : Reuss Voigt Hill
#
# Bulk Modulus (GPa) = 51.28549 91.47738 71.38143
# Shear Modulus (GPa) = 15.36820 26.26728 20.81774
#
# Velocity S-wave (km/s) = 2.95622 3.86486 3.44067
# Velocity P-wave (km/s) = 6.38876 8.48148 7.50839
#
# Compressibility (1/GPa) = 0.01949869
#
# Stress axis : x y z
#
# Youngs Moduli (GPa) = 35.94840 14.98272 56.69231
#
# Poissons Ratio (x) = 0.49099 0.24016
# Poissons Ratio (y) = 1.17804 0.52974
# Poissons Ratio (z) = 0.15229 0.14000
#
# Static dielectric constant tensor:
#      x y z
#    x 1.569720 0.000000 -0.014160 
#    y 0.000000 1.612690 0.000000 
#    z -0.014160 0.000000 1.587720 
# 
# From -- ./inp_files/232812.got.cif
#   From: 2010.05.17/outbox.cif.g08.bks.cpg/sg12_117_cif.got.tgz:232812.got - 2010.06.03 13:09:07.
