data_PCOD9198781
_publ_section_title
;
Structure prediction by ZEFSAII (Michael W. Deem and Ramdas Pophale) SiO2 
 PCOD9198781
Probable space group: C 2/M
;
_chemical_formula_sum "Si O2"
_cell_formula_units_Z 56
_cell_length_a 13.967837
_cell_length_b 24.757312
_cell_length_c 8.865160
_cell_angle_alpha 90.000000
_cell_angle_beta 71.399419
_cell_angle_gamma 90.000000
_cell_volume 2905.493937
_symmetry_space_group_name_H-M "C 2/M"
_symmetry_group_IT_number 12
_symmetry_cell_setting 'monoclinic'
loop_
_space_group_symop_operation_xyz
x,y,z
-x,y,-z
-x,-y,-z
x,-y,z
1/2+x,1/2+y,z
1/2-x,1/2+y,-z
1/2-x,1/2-y,-z
1/2+x,1/2-y,z
loop_
_atom_site_type_symbol
_atom_site_label
_atom_site_fract_x
_atom_site_fract_y
_atom_site_fract_z
Si Si1 0.612122 0.855203 0.505369
Si Si2 0.786453 0.337941 0.259254
Si Si3 0.802850 0.727154 0.761015
Si Si4 0.207138 0.870485 0.998898
Si Si5 0.220710 0.936443 0.701418
Si Si6 0.593097 0.638508 0.565726
Si Si7 0.471271 0.705253 0.846415
O O1 0.500000 0.860051 0.500000
O O2 0.619717 0.851080 0.681822
O O3 0.661138 0.800673 0.411125
O O4 0.680956 0.904532 0.410681
O O5 0.776511 0.275628 0.216554
O O6 0.688350 0.346518 0.414629
O O7 0.771278 0.374669 0.119718
O O8 0.754687 0.679680 0.883007
O O9 0.899686 0.752675 0.796364
O O10 0.207047 0.919564 0.883066
O O11 0.096199 0.849367 0.099946
O O12 0.128268 0.911073 0.652190
O O13 0.228897 0.000000 0.678122
O O14 0.500000 0.628347 0.500000
O O15 0.562943 0.687189 0.693494
O O16 0.500000 0.722903 0.000000
#
# Coordination Sequence:
#
# PCOD9198781 Si02
#       7
#     8   8   8   8   8   8   8
#     4  10  23  38  59  87 115 148 204 244 286 353
#     4  10  20  36  58  84 124 154 185 241 289 346
#     4  10  21  33  54  84 121 160 189 228 288 349
#     4  10  20  38  54  82 116 154 201 235 282 349
#     4  10  23  43  62  81 114 155 196 254 301 335
#     4  11  20  35  60  89 120 155 188 237 284 355
#     4  11  20  33  56  84 126 160 189 222 282 354
#
# _framework density 19.273831000000001
#
# number of rings (size 3 to 8) (size 9 to 14) (size 15 to 20)
#    0.000    1.714    4.286    2.143    2.000    2.857 
#    0.000    6.429    0.000    0.857    0.000    0.000 
#    0.000    0.000    0.000    0.000    0.000    0.000 
#
# Total GULP energy -156443.503321 kJ/mol
# GULP energy per Si atom -5587.267976 kJ/mol
# Density = 1.922996 g / cm^3
# Si number density = 19.273831 Si / 1000 Ang^3
#
#
#
# Elastic Constant Matrix: (Units=GPa)
#
#
# Indices 1 2 3 4 5 6 
#
# 1 101.0223 22.0635 24.0969 0.0000 32.8459 0.0000
# 2 22.0635 79.4869 16.1399 0.0000 12.5371 0.0000
# 3 24.0969 16.1399 84.2919 0.0000 32.8719 0.0000
# 4 0.0000 0.0000 0.0000 11.2711 0.0000 0.3930
# 5 32.8459 12.5371 32.8719 0.0000 39.2646 0.0000
# 6 0.0000 0.0000 0.0000 0.3930 0.0000 14.5556
#
#
#
# Elastic Compliance Matrix: (Units=1/GPa)
#
#
# Indices 1 2 3 4 5 6 
#
# 1 0.013996 -0.002226 0.001060 0.000000 -0.011885 0.000000
# 2 -0.002226 0.013701 -0.001495 0.000000 -0.001261 0.000000
# 3 0.001060 -0.001495 0.017827 0.000000 -0.015333 0.000000
# 4 0.000000 0.000000 0.000000 0.088806 0.000000 -0.002398
# 5 -0.011885 -0.001261 -0.015333 0.000000 0.048650 0.000000
# 6 0.000000 0.000000 0.000000 -0.002398 0.000000 0.068767
#
#
# Mechanical properties :
#
#
# Convention : Reuss Voigt Hill
#
# Bulk Modulus (GPa) = 24.87484 43.26686 34.07085
# Shear Modulus (GPa) = 18.48635 26.51830 22.50232
#
# Velocity S-wave (km/s) = 3.10036 3.71330 3.42059
# Velocity P-wave (km/s) = 5.07448 6.39390 5.77202
#
# Compressibility (1/GPa) = 0.04020127
#
# Stress axis : x y z
#
# Youngs Moduli (GPa) = 71.44757 72.98736 56.09617
#
# Poissons Ratio (x) = 0.16244 -0.05945
# Poissons Ratio (y) = 0.15902 0.08389
# Poissons Ratio (z) = -0.07572 0.10915
#
# Static dielectric constant tensor:
#      x y z
#    x 1.720010 0.000000 0.009820 
#    y 0.000000 1.628540 0.000000 
#    z 0.009820 0.000000 1.730260 
# 
# From -- ./inp_files/65278.got.cif
#   From: 2010.05.17/outbox.cif.g08.bks.cpg/sg12_33_cif.got.tgz:65278.got - 2010.06.03 13:09:07.
