data_PCOD9198953
_publ_section_title
;
Structure prediction by ZEFSAII (Michael W. Deem and Ramdas Pophale) SiO2 
 PCOD9198953
Probable space group: C 2/M
;
_chemical_formula_sum "Si O2"
_cell_formula_units_Z 56
_cell_length_a 16.683159
_cell_length_b 11.909899
_cell_length_c 16.285512
_cell_angle_alpha 90.000000
_cell_angle_beta 63.175423
_cell_angle_gamma 90.000000
_cell_volume 2887.643759
_symmetry_space_group_name_H-M "C 2/M"
_symmetry_group_IT_number 12
_symmetry_cell_setting 'monoclinic'
loop_
_space_group_symop_operation_xyz
x,y,z
-x,y,-z
-x,-y,-z
x,-y,z
1/2+x,1/2+y,z
1/2-x,1/2+y,-z
1/2-x,1/2-y,-z
1/2+x,1/2-y,z
loop_
_atom_site_type_symbol
_atom_site_label
_atom_site_fract_x
_atom_site_fract_y
_atom_site_fract_z
Si Si1 0.050314 0.374210 0.251494
Si Si2 0.112030 0.221680 0.728961
Si Si3 0.269427 0.765948 0.894801
Si Si4 0.273175 0.631627 0.731704
Si Si5 0.414803 0.631127 0.085421
Si Si6 0.251050 0.127122 0.545485
Si Si7 0.092185 0.700899 0.410693
O O1 0.024700 0.500000 0.239310
O O2 0.139358 0.336002 0.161422
O O3 0.074265 0.368915 0.336549
O O4 0.967998 0.290514 0.274851
O O5 0.186473 0.307364 0.731856
O O6 0.075159 0.154184 0.823357
O O7 0.163761 0.139831 0.643279
O O8 0.279719 0.661913 0.825934
O O9 0.180857 0.825381 0.900462
O O10 0.250000 0.750000 0.000000
O O11 0.268963 0.500000 0.721793
O O12 0.356946 0.688188 0.645825
O O13 0.414360 0.500000 0.069034
O O14 0.500000 0.684496 0.000000
O O15 0.250000 0.250000 0.500000
O O16 0.339660 0.136418 0.560816
O O17 0.250814 0.000000 0.506504
O O18 0.000000 0.724633 0.500000
#
# Coordination Sequence:
#
# PCOD9198953 Si02
#       7
#     8   8   8   8   8   8   8
#     4  11  22  37  60  87 114 149 194 243 295 350
#     4  10  21  38  58  83 116 149 190 240 291 349
#     4  10  21  37  56  83 117 149 192 243 293 350
#     4   9  20  37  57  82 114 153 193 237 294 356
#     4  10  20  36  59  82 109 149 190 230 282 346
#     4  11  24  41  63  89 119 158 201 245 295 356
#     4  10  22  39  59  86 117 150 191 242 294 349
#
# _framework density 19.392973999999999
#
# number of rings (size 3 to 8) (size 9 to 14) (size 15 to 20)
#    0.000    1.857    0.000    4.286    0.000    6.571 
#    0.000   10.000    0.000    4.714    0.000    0.000 
#    0.000    0.000    0.000    0.000    0.000    0.000 
#
# Total GULP energy -156167.340012 kJ/mol
# GULP energy per Si atom -5577.405000 kJ/mol
# Density = 1.934883 g / cm^3
# Si number density = 19.392974 Si / 1000 Ang^3
#
#
#
# Elastic Constant Matrix: (Units=GPa)
#
#
# Indices 1 2 3 4 5 6 
#
# 1 98.3147 14.6744 26.5521 0.0000 -11.8660 0.0000
# 2 14.6744 77.5340 19.0854 0.0000 -5.6382 0.0000
# 3 26.5521 19.0854 115.3513 0.0000 -17.0643 0.0000
# 4 0.0000 0.0000 0.0000 10.2284 0.0000 -0.9407
# 5 -11.8660 -5.6382 -17.0643 0.0000 40.2623 0.0000
# 6 0.0000 0.0000 0.0000 -0.9407 0.0000 11.1950
#
#
#
# Elastic Compliance Matrix: (Units=1/GPa)
#
#
# Indices 1 2 3 4 5 6 
#
# 1 0.011202 -0.001463 -0.002004 0.000000 0.002247 0.000000
# 2 -0.001463 0.013674 -0.001820 0.000000 0.000712 0.000000
# 3 -0.002004 -0.001820 0.009929 0.000000 0.003363 0.000000
# 4 0.000000 0.000000 0.000000 0.098529 0.000000 0.008279
# 5 0.002247 0.000712 0.003363 0.000000 0.027024 0.000000
# 6 0.000000 0.000000 0.000000 0.008279 0.000000 0.090021
#
#
# Mechanical properties :
#
#
# Convention : Reuss Voigt Hill
#
# Bulk Modulus (GPa) = 41.27071 45.75821 43.51446
# Shear Modulus (GPa) = 18.58514 27.72968 23.15741
#
# Velocity S-wave (km/s) = 3.09907 3.78548 3.45934
# Velocity P-wave (km/s) = 5.84236 6.53857 6.20025
#
# Compressibility (1/GPa) = 0.02423026
#
# Stress axis : x y z
#
# Youngs Moduli (GPa) = 89.26725 73.12934 100.71406
#
# Poissons Ratio (x) = 0.10702 0.20183
# Poissons Ratio (y) = 0.13064 0.18333
# Poissons Ratio (z) = 0.17889 0.13312
#
# Static dielectric constant tensor:
#      x y z
#    x 1.682200 0.000000 -0.000440 
#    y 0.000000 1.687970 0.000000 
#    z -0.000440 0.000000 1.715130 
# 
# From -- ./inp_files/223744.got.cif
#   From: 2010.05.17/outbox.cif.g08.bks.cpg/sg12_112_cif.got.tgz:223744.got - 2010.06.03 13:09:07.
