data_PCOD9198869
_publ_section_title
;
Structure prediction by ZEFSAII (Michael W. Deem and Ramdas Pophale) SiO2 
 PCOD9198869
Probable space group: C 2/M
;
_chemical_formula_sum "Si O2"
_cell_formula_units_Z 64
_cell_length_a 18.155375
_cell_length_b 14.362262
_cell_length_c 13.202554
_cell_angle_alpha 90.000000
_cell_angle_beta 84.726300
_cell_angle_gamma 90.000000
_cell_volume 3428.023163
_symmetry_space_group_name_H-M "C 2/M"
_symmetry_group_IT_number 12
_symmetry_cell_setting 'monoclinic'
loop_
_space_group_symop_operation_xyz
x,y,z
-x,y,-z
-x,-y,-z
x,-y,z
1/2+x,1/2+y,z
1/2-x,1/2+y,-z
1/2-x,1/2-y,-z
1/2+x,1/2-y,z
loop_
_atom_site_type_symbol
_atom_site_label
_atom_site_fract_x
_atom_site_fract_y
_atom_site_fract_z
Si Si1 0.312332 0.894674 0.292548
Si Si2 0.167056 0.262988 0.055059
Si Si3 0.834364 0.725177 0.480000
Si Si4 0.060735 0.388376 0.411267
Si Si5 0.581548 0.604714 0.443226
Si Si6 0.919555 0.391961 0.087406
Si Si7 0.928814 0.390060 0.815952
Si Si8 0.149451 0.889639 0.222675
O O1 0.343022 0.824837 0.371813
O O2 0.368561 0.896313 0.192878
O O3 0.230661 0.870071 0.261124
O O4 0.308134 0.000000 0.335935
O O5 0.147564 0.341111 0.142461
O O6 0.143133 0.170413 0.120431
O O7 0.250000 0.250000 0.000000
O O8 0.116415 0.307773 0.972494
O O9 0.750000 0.750000 0.500000
O O10 0.862492 0.653640 0.561376
O O11 0.876902 0.820063 0.495196
O O12 0.061120 0.500000 0.415471
O O13 0.045617 0.358784 0.298563
O O14 0.000000 0.354421 0.500000
O O15 0.500000 0.602270 0.500000
O O16 0.613296 0.500000 0.447191
O O17 0.591928 0.629763 0.322263
O O18 0.914989 0.500000 0.045613
O O19 0.003452 0.374209 0.114134
O O20 0.917492 0.500000 0.811559
O O21 0.146224 0.000000 0.200043
#
# Coordination Sequence:
#
# PCOD9198869 Si02
#       8
#     8   8   8   8   8   8   8   8
#     4  10  20  36  58  87 123 161 197 238 297 366
#     4  12  23  36  61  88 118 152 205 253 300 352
#     4  12  22  32  57  89 124 156 198 248 296 354
#     4  10  21  38  59  89 125 158 190 237 304 369
#     4  10  22  41  62  84 117 165 213 249 287 349
#     4  10  21  40  65  92 120 156 199 249 307 371
#     4  10  22  39  61  89 124 157 194 245 304 366
#     4  10  21  39  60  85 120 160 203 246 295 359
#
# _framework density 18.669653
#
# number of rings (size 3 to 8) (size 9 to 14) (size 15 to 20)
#    0.000    1.500    2.500    3.000    0.000    5.000 
#    0.000    0.000    0.000    2.250    0.000    0.000 
#    0.000    0.000    0.000    0.000    0.000    0.000 
#
# Total GULP energy -178353.893565 kJ/mol
# GULP energy per Si atom -5573.559174 kJ/mol
# Density = 1.862716 g / cm^3
# Si number density = 18.669653 Si / 1000 Ang^3
#
#
#
# Elastic Constant Matrix: (Units=GPa)
#
#
# Indices 1 2 3 4 5 6 
#
# 1 92.4198 39.3059 46.8843 0.0000 -15.1384 0.0000
# 2 39.3059 105.3469 66.7223 0.0000 8.1263 0.0000
# 3 46.8843 66.7223 130.2063 0.0000 -7.4198 0.0000
# 4 0.0000 0.0000 0.0000 38.9069 0.0000 6.0102
# 5 -15.1384 8.1263 -7.4198 0.0000 34.5113 0.0000
# 6 0.0000 0.0000 0.0000 6.0102 0.0000 29.4253
#
#
#
# Elastic Compliance Matrix: (Units=1/GPa)
#
#
# Indices 1 2 3 4 5 6 
#
# 1 0.015333 -0.004497 -0.002808 0.000000 0.007181 0.000000
# 2 -0.004497 0.016248 -0.007125 0.000000 -0.007330 0.000000
# 3 -0.002808 -0.007125 0.012521 0.000000 0.003138 0.000000
# 4 0.000000 0.000000 0.000000 0.026540 0.000000 -0.005421
# 5 0.007181 -0.007330 0.003138 0.000000 0.034527 0.000000
# 6 0.000000 0.000000 0.000000 -0.005421 0.000000 0.035092
#
#
# Mechanical properties :
#
#
# Convention : Reuss Voigt Hill
#
# Bulk Modulus (GPa) = 65.59886 70.42199 68.01043
# Shear Modulus (GPa) = 28.70275 32.23941 30.47108
#
# Velocity S-wave (km/s) = 3.92522 4.16003 4.04433
# Velocity P-wave (km/s) = 7.46700 7.80233 7.63651
#
# Compressibility (1/GPa) = 0.01524417
#
# Stress axis : x y z
#
# Youngs Moduli (GPa) = 65.21804 61.54577 79.86676
#
# Poissons Ratio (x) = 0.27675 0.22424
# Poissons Ratio (y) = 0.29326 0.56902
# Poissons Ratio (z) = 0.18311 0.43849
#
# Static dielectric constant tensor:
#      x y z
#    x 1.644210 0.000000 -0.026670 
#    y 0.000000 1.692190 0.000000 
#    z -0.026670 0.000000 1.690310 
# 
# From -- ./inp_files/156615.got.cif
#   From: 2010.05.17/outbox.cif.g08.bks.cpg/sg12_79_cif.got.tgz:156615.got - 2010.06.03 13:09:07.
