data_PCOD9198419
_publ_section_title
;
Structure prediction by ZEFSAII (Michael W. Deem and Ramdas Pophale) SiO2 
 PCOD9198419
Probable space group: C 2/M
;
_chemical_formula_sum "Si O2"
_cell_formula_units_Z 48
_cell_length_a 20.913848
_cell_length_b 8.618273
_cell_length_c 23.790155
_cell_angle_alpha 90.000000
_cell_angle_beta 39.314026
_cell_angle_gamma 90.000000
_cell_volume 2716.728692
_symmetry_space_group_name_H-M "C 2/M"
_symmetry_group_IT_number 12
_symmetry_cell_setting 'monoclinic'
loop_
_space_group_symop_operation_xyz
x,y,z
-x,y,-z
-x,-y,-z
x,-y,z
1/2+x,1/2+y,z
1/2-x,1/2+y,-z
1/2-x,1/2-y,-z
1/2+x,1/2-y,z
loop_
_atom_site_type_symbol
_atom_site_label
_atom_site_fract_x
_atom_site_fract_y
_atom_site_fract_z
Si Si1 0.362519 0.813578 0.928909
Si Si2 0.641273 0.815358 0.555463
Si Si3 0.821117 0.687148 0.270712
Si Si4 0.395284 0.312680 0.543549
Si Si5 0.532963 0.315304 0.733846
Si Si6 0.490971 0.811407 0.069994
O O1 0.432577 0.752636 0.830675
O O2 0.419490 0.764440 0.948074
O O3 0.361497 0.000000 0.928582
O O4 0.250000 0.750000 0.000000
O O5 0.750000 0.750000 0.500000
O O6 0.618532 0.759456 0.508253
O O7 0.559057 0.751514 0.655224
O O8 0.644465 0.000000 0.556235
O O9 0.830345 0.500000 0.270470
O O10 0.703427 0.726974 0.352327
O O11 0.876403 0.763142 0.286369
O O12 0.886032 0.732414 0.171905
O O13 0.500000 0.262843 0.500000
O O14 0.397042 0.500000 0.536607
O O15 0.527358 0.500000 0.735526
O O16 0.493337 0.000000 0.066432
O O17 0.500000 0.754448 0.000000
#
# Coordination Sequence:
#
# PCOD9198419 Si02
#       6
#     8   8   8   8   8   8
#     4  10  20  36  57  83 116 148 182 231 284 337
#     4  12  23  37  59  85 113 147 190 240 284 339
#     4   9  17  32  55  78 108 147 185 230 278 332
#     4  10  21  37  55  81 116 152 188 229 282 342
#     4  11  21  35  58  85 110 146 192 236 283 340
#     4   8  15  30  53  79 104 138 184 226 268 322
#
# _framework density 17.668308
#
# number of rings (size 3 to 8) (size 9 to 14) (size 15 to 20)
#    0.000    2.000    1.667    4.500    0.000    0.333 
#    3.000    0.000    0.000   12.500    0.000    0.000 
#    0.000    0.000    0.000    0.000    0.000    0.000 
#
# Total GULP energy -133948.184672 kJ/mol
# GULP energy per Si atom -5581.174361 kJ/mol
# Density = 1.762809 g / cm^3
# Si number density = 17.668308 Si / 1000 Ang^3
#
#
#
# Elastic Constant Matrix: (Units=GPa)
#
#
# Indices 1 2 3 4 5 6 
#
# 1 124.8229 44.7404 107.6807 -0.0001 -5.4302 0.0001
# 2 44.7404 53.4637 48.9445 -0.0004 -5.5118 0.0005
# 3 107.6807 48.9445 173.1523 -0.0001 -4.5384 0.0001
# 4 -0.0001 -0.0004 -0.0001 26.3128 0.0001 0.2086
# 5 -5.4302 -5.5118 -4.5384 0.0001 38.2168 -0.0001
# 6 0.0001 0.0005 0.0001 0.2086 -0.0001 22.8471
#
#
#
# Elastic Compliance Matrix: (Units=1/GPa)
#
#
# Indices 1 2 3 4 5 6 
#
# 1 0.018988 -0.006795 -0.009873 0.000000 0.000546 0.000000
# 2 -0.006795 0.027968 -0.003611 0.000000 0.002639 -0.000001
# 3 -0.009873 -0.003611 0.012926 0.000000 -0.000389 0.000000
# 4 0.000000 0.000000 0.000000 0.038007 0.000000 -0.000347
# 5 0.000546 0.002639 -0.000389 0.000000 0.026579 0.000000
# 6 0.000000 -0.000001 0.000000 -0.000347 0.000000 0.043772
#
#
# Mechanical properties :
#
#
# Convention : Reuss Voigt Hill
#
# Bulk Modulus (GPa) = 51.74946 83.79666 67.77306
# Shear Modulus (GPa) = 23.22993 27.48023 25.35508
#
# Velocity S-wave (km/s) = 3.62992 3.94806 3.79233
# Velocity P-wave (km/s) = 6.84992 8.26520 7.59062
#
# Compressibility (1/GPa) = 0.01932387
#
# Stress axis : x y z
#
# Youngs Moduli (GPa) = 52.66493 35.75480 77.36439
#
# Poissons Ratio (x) = 0.24295 0.76385
# Poissons Ratio (y) = 0.35785 0.27936
# Poissons Ratio (z) = 0.51998 0.12911
#
# Static dielectric constant tensor:
#      x y z
#    x 1.580270 0.000000 0.000670 
#    y 0.000000 1.596050 0.000000 
#    z 0.000670 0.000000 1.612260 
# 
# From -- ./inp_files/345386.got.cif
#   From: 2010.05.17/outbox.cif.g08.bks.cpg/sg12_173_cif.got.tgz:345386.got - 2010.06.03 13:09:07.
