data_PCOD9198660
_publ_section_title
;
Structure prediction by ZEFSAII (Michael W. Deem and Ramdas Pophale) SiO2 
 PCOD9198660
Probable space group: C 2/M
;
_chemical_formula_sum "Si O2"
_cell_formula_units_Z 64
_cell_length_a 14.608722
_cell_length_b 8.862710
_cell_length_c 24.703064
_cell_angle_alpha 90.000000
_cell_angle_beta 90.851345
_cell_angle_gamma 90.000000
_cell_volume 3198.023441
_symmetry_space_group_name_H-M "C 2/M"
_symmetry_group_IT_number 12
_symmetry_cell_setting 'monoclinic'
loop_
_space_group_symop_operation_xyz
x,y,z
-x,y,-z
-x,-y,-z
x,-y,z
1/2+x,1/2+y,z
1/2-x,1/2+y,-z
1/2-x,1/2-y,-z
1/2+x,1/2-y,z
loop_
_atom_site_type_symbol
_atom_site_label
_atom_site_fract_x
_atom_site_fract_y
_atom_site_fract_z
Si Si1 0.112695 0.673231 0.734763
Si Si2 0.362814 0.680707 0.648863
Si Si3 0.893892 0.672873 0.759356
Si Si4 0.428914 0.320651 0.375243
Si Si5 0.784066 0.680481 0.944521
Si Si6 0.557139 0.183508 0.125547
Si Si7 0.151645 0.316921 0.854164
Si Si8 0.718689 0.180811 0.556229
O O1 0.139609 0.500000 0.722752
O O2 0.120115 0.772094 0.681276
O O3 0.160840 0.724252 0.790685
O O4 0.003857 0.671024 0.748387
O O5 0.361043 0.500000 0.651509
O O6 0.348290 0.741649 0.709212
O O7 0.464975 0.725397 0.630581
O O8 0.289687 0.729911 0.603845
O O9 0.861782 0.500000 0.759323
O O10 0.890472 0.738973 0.819797
O O11 0.424389 0.500000 0.381818
O O12 0.379153 0.239724 0.424306
O O13 0.780573 0.500000 0.948241
O O14 0.886902 0.725636 0.927259
O O15 0.720638 0.737944 0.895181
O O16 0.750000 0.750000 0.000000
O O17 0.451350 0.226638 0.128090
O O18 0.558341 0.000000 0.129483
O O19 0.159026 0.500000 0.857298
O O20 0.750000 0.250000 0.500000
O O21 0.719206 0.000000 0.553091
#
# Coordination Sequence:
#
# PCOD9198660 Si02
#       8
#     8   8   8   8   8   8   8   8
#     4   8  15  30  54  83 112 139 170 212 263 319
#     4   9  20  37  56  80 112 144 171 212 271 322
#     4   8  14  29  55  83 107 135 175 215 254 314
#     4  10  20  36  58  83 111 143 177 215 264 319
#     4  11  23  38  54  76 106 140 183 228 269 317
#     4   8  17  35  57  78 105 142 176 211 263 323
#     4   9  18  36  59  80 105 140 178 216 264 318
#     4  11  24  41  57  77 107 143 186 229 270 318
#
# _framework density 20.012360999999999
#
# number of rings (size 3 to 8) (size 9 to 14) (size 15 to 20)
#    0.000    2.750    0.000    2.625    0.000    4.000 
#    0.000   11.875    0.000    0.000    0.000    0.000 
#    0.000    0.000    0.000    0.000    0.000    0.000 
#
# Total GULP energy -178611.900321 kJ/mol
# GULP energy per Si atom -5581.621885 kJ/mol
# Density = 1.996681 g / cm^3
# Si number density = 20.012361 Si / 1000 Ang^3
#
#
#
# Elastic Constant Matrix: (Units=GPa)
#
#
# Indices 1 2 3 4 5 6 
#
# 1 58.5870 11.5031 21.2969 0.0000 -13.2214 0.0000
# 2 11.5031 28.2094 20.0441 0.0000 -8.1368 0.0000
# 3 21.2969 20.0441 69.8225 0.0000 -24.0492 0.0000
# 4 0.0000 0.0000 0.0000 37.5142 0.0000 2.4518
# 5 -13.2214 -8.1368 -24.0492 0.0000 35.8413 0.0000
# 6 0.0000 0.0000 0.0000 2.4518 0.0000 18.1776
#
#
#
# Elastic Compliance Matrix: (Units=1/GPa)
#
#
# Indices 1 2 3 4 5 6 
#
# 1 0.020137 -0.004608 -0.003409 0.000000 0.004095 0.000000
# 2 -0.004608 0.045697 -0.011348 0.000000 0.001060 0.000000
# 3 -0.003409 -0.011348 0.022499 0.000000 0.011263 0.000000
# 4 0.000000 0.000000 0.000000 0.026894 0.000000 -0.003627
# 5 0.004095 0.001060 0.011263 0.000000 0.037209 0.000000
# 6 0.000000 0.000000 0.000000 -0.003627 0.000000 0.055502
#
#
# Mechanical properties :
#
#
# Convention : Reuss Voigt Hill
#
# Bulk Modulus (GPa) = 20.15991 29.14524 24.65257
# Shear Modulus (GPa) = 18.99691 25.22494 22.11092
#
# Velocity S-wave (km/s) = 3.08435 3.55416 3.32755
# Velocity P-wave (km/s) = 4.77282 5.60696 5.20662
#
# Compressibility (1/GPa) = 0.04960340
#
# Stress axis : x y z
#
# Youngs Moduli (GPa) = 49.66085 21.88319 44.44719
#
# Poissons Ratio (x) = 0.10084 0.15151
# Poissons Ratio (y) = 0.22884 0.50437
# Poissons Ratio (z) = 0.16928 0.24832
#
# Static dielectric constant tensor:
#      x y z
#    x 1.750680 0.000000 -0.013330 
#    y 0.000000 1.675540 0.000000 
#    z -0.013330 0.000000 1.695090 
# 
# From -- ./inp_files/338677.got.cif
#   From: 2010.05.17/outbox.cif.g08.bks.cpg/sg12_170_cif.got.tgz:338677.got - 2010.06.03 13:09:07.
