data_PCOD9198663
_publ_section_title
;
Structure prediction by ZEFSAII (Michael W. Deem and Ramdas Pophale) SiO2 
 PCOD9198663
Probable space group: C 2/M
;
_chemical_formula_sum "Si O2"
_cell_formula_units_Z 40
_cell_length_a 8.843353
_cell_length_b 11.771170
_cell_length_c 17.547950
_cell_angle_alpha 90.000000
_cell_angle_beta 96.333237
_cell_angle_gamma 90.000000
_cell_volume 1815.534134
_symmetry_space_group_name_H-M "C 2/M"
_symmetry_group_IT_number 12
_symmetry_cell_setting 'monoclinic'
loop_
_space_group_symop_operation_xyz
x,y,z
-x,y,-z
-x,-y,-z
x,-y,z
1/2+x,1/2+y,z
1/2-x,1/2+y,-z
1/2-x,1/2-y,-z
1/2+x,1/2-y,z
loop_
_atom_site_type_symbol
_atom_site_label
_atom_site_fract_x
_atom_site_fract_y
_atom_site_fract_z
Si Si1 0.801546 0.125872 0.920137
Si Si2 0.001610 0.130094 0.411403
Si Si3 0.858744 0.375773 0.935400
Si Si4 0.295157 0.791215 0.683954
Si Si5 0.905462 0.376349 0.227902
O O1 0.867932 0.248915 0.900814
O O2 0.643146 0.125190 0.863228
O O3 0.870478 0.000000 0.905535
O O4 0.780485 0.128925 0.010290
O O5 0.830277 0.138057 0.369122
O O6 0.000000 0.163565 0.500000
O O7 0.109936 0.212227 0.368918
O O8 0.055122 0.000000 0.408773
O O9 0.843968 0.500000 0.894114
O O10 0.000000 0.384256 0.000000
O O11 0.196076 0.715324 0.735307
O O12 0.420478 0.857293 0.740154
O O13 0.859729 0.500000 0.254910
#
# Coordination Sequence:
#
# PCOD9198663 Si02
#       5
#     8   8   8   8   8
#     4   9  19  34  51  74 104 140 181 229 282 332
#     4  10  20  36  58  83 111 144 183 225 271 324
#     4   9  18  33  53  75 102 134 181 232 277 330
#     4  10  21  36  56  82 113 146 182 226 274 331
#     4  10  21  37  56  80 113 149 186 229 279 336
#
# _framework density 22.032083
#
# number of rings (size 3 to 8) (size 9 to 14) (size 15 to 20)
#    0.000    2.400    0.000    1.800    2.800    0.400 
#    0.000    5.000    0.000    9.600    0.000    0.000 
#    0.000    0.000    0.000    0.000    0.000    0.000 
#
# Total GULP energy -111467.288069 kJ/mol
# GULP energy per Si atom -5573.364403 kJ/mol
# Density = 2.198194 g / cm^3
# Si number density = 22.032083 Si / 1000 Ang^3
#
#
#
# Elastic Constant Matrix: (Units=GPa)
#
#
# Indices 1 2 3 4 5 6 
#
# 1 46.3464 12.0532 13.6269 0.0000 10.1666 0.0000
# 2 12.0532 168.7649 24.3784 0.0000 3.6238 0.0000
# 3 13.6269 24.3784 92.8409 0.0000 5.6323 0.0000
# 4 0.0000 0.0000 0.0000 24.2038 0.0000 3.4746
# 5 10.1666 3.6238 5.6323 0.0000 30.3878 0.0000
# 6 0.0000 0.0000 0.0000 3.4746 0.0000 30.1327
#
#
#
# Elastic Compliance Matrix: (Units=1/GPa)
#
#
# Indices 1 2 3 4 5 6 
#
# 1 0.024350 -0.001172 -0.002812 0.000000 -0.007486 0.000000
# 2 -0.001172 0.006221 -0.001457 0.000000 -0.000080 0.000000
# 3 -0.002812 -0.001457 0.011630 0.000000 -0.001041 0.000000
# 4 0.000000 0.000000 0.000000 0.042011 0.000000 -0.004844
# 5 -0.007486 -0.000080 -0.001041 0.000000 0.035615 0.000000
# 6 0.000000 0.000000 0.000000 -0.004844 0.000000 0.033745
#
#
# Mechanical properties :
#
#
# Convention : Reuss Voigt Hill
#
# Bulk Modulus (GPa) = 31.92936 45.34102 38.63519
# Shear Modulus (GPa) = 28.58875 34.13779 31.36327
#
# Velocity S-wave (km/s) = 3.60612 3.94059 3.77706
# Velocity P-wave (km/s) = 5.64469 6.42873 6.04942
#
# Compressibility (1/GPa) = 0.03131914
#
# Stress axis : x y z
#
# Youngs Moduli (GPa) = 41.06712 160.73924 85.98801
#
# Poissons Ratio (x) = 0.18841 0.24181
# Poissons Ratio (y) = 0.04814 0.12526
# Poissons Ratio (z) = 0.11549 0.23415
#
# Static dielectric constant tensor:
#      x y z
#    x 1.852110 0.000000 -0.029300 
#    y 0.000000 1.822460 0.000000 
#    z -0.029300 0.000000 1.797320 
# 
# From -- ./inp_files/254612.got.cif
#   From: 2010.05.17/outbox.cif.g08.bks.cpg/sg12_128_cif.got.tgz:254612.got - 2010.06.03 13:09:07.
