data_PCOD9198843
_publ_section_title
;
Structure prediction by ZEFSAII (Michael W. Deem and Ramdas Pophale) SiO2 
 PCOD9198843
Probable space group: C 2/M
;
_chemical_formula_sum "Si O2"
_cell_formula_units_Z 60
_cell_length_a 22.217312
_cell_length_b 8.925460
_cell_length_c 22.921865
_cell_angle_alpha 90.000000
_cell_angle_beta 140.315080
_cell_angle_gamma 90.000000
_cell_volume 2902.534446
_symmetry_space_group_name_H-M "C 2/M"
_symmetry_group_IT_number 12
_symmetry_cell_setting 'monoclinic'
loop_
_space_group_symop_operation_xyz
x,y,z
-x,y,-z
-x,-y,-z
x,-y,z
1/2+x,1/2+y,z
1/2-x,1/2+y,-z
1/2-x,1/2-y,-z
1/2+x,1/2-y,z
loop_
_atom_site_type_symbol
_atom_site_label
_atom_site_fract_x
_atom_site_fract_y
_atom_site_fract_z
Si Si1 0.571939 0.324593 0.001093
Si Si2 0.500000 0.750384 0.500000
Si Si3 0.960302 0.833039 0.340784
Si Si4 0.267144 0.176944 0.214022
Si Si5 0.521023 0.825326 0.277501
Si Si6 0.787319 0.822385 0.586503
Si Si7 0.709158 0.167571 0.643860
Si Si8 0.146195 0.320647 0.936606
O O1 0.547285 0.500000 0.971151
O O2 0.675106 0.317428 0.106955
O O3 0.500000 0.273050 0.000000
O O4 0.590630 0.242109 0.952815
O O5 0.508757 0.667822 0.568622
O O6 0.402302 0.837763 0.429731
O O7 0.852130 0.779805 0.256480
O O8 0.012983 0.713656 0.339947
O O9 0.973301 0.000000 0.326615
O O10 0.246390 0.231521 0.264410
O O11 0.297360 0.000000 0.239236
O O12 0.605705 0.721716 0.319592
O O13 0.423929 0.794648 0.170724
O O14 0.543671 0.000000 0.286399
O O15 0.750000 0.750000 0.500000
O O16 0.728915 0.757969 0.597455
O O17 0.776071 0.000000 0.571647
O O18 0.748322 0.000000 0.668408
O O19 0.158396 0.500000 0.952416
O O20 0.250000 0.250000 0.000000
#
# Coordination Sequence:
#
# PCOD9198843 Si02
#       8
#     8   4   8   8   8   8   8   8
#     4  10  22  39  65  95 126 163 208 262 321 387
#     4  10  20  36  58  86 123 156 193 250 307 364
#     4  11  22  37  59  88 118 155 200 251 308 368
#     4   9  19  37  58  85 118 153 192 243 300 361
#     4  11  25  43  62  88 124 166 212 262 315 376
#     4  11  23  39  61  89 123 164 208 256 306 368
#     4   9  19  34  57  85 115 153 199 241 293 358
#     4  11  25  44  67  95 131 172 220 276 335 398
#
# _framework density 20.671589000000001
#
# number of rings (size 3 to 8) (size 9 to 14) (size 15 to 20)
#    0.000    1.733    0.000    3.600    1.867    8.800 
#    0.000    6.000    0.000    0.000    0.000    0.000 
#    0.000    0.000    0.000    0.000    0.000    0.000 
#
# Total GULP energy -167219.609662 kJ/mol
# GULP energy per Si atom -5573.986989 kJ/mol
# Density = 2.062454 g / cm^3
# Si number density = 20.671589 Si / 1000 Ang^3
#
#
#
# Elastic Constant Matrix: (Units=GPa)
#
#
# Indices 1 2 3 4 5 6 
#
# 1 102.0616 18.6825 12.1779 0.0000 -17.7013 0.0000
# 2 18.6825 62.3405 20.8410 0.0000 -6.8929 0.0000
# 3 12.1779 20.8410 68.6543 0.0000 -8.2623 0.0000
# 4 0.0000 0.0000 0.0000 -70.1051 0.0000 -5.6756
# 5 -17.7013 -6.8929 -8.2623 0.0000 27.5098 0.0000
# 6 0.0000 0.0000 0.0000 -5.6756 0.0000 14.7093
#
#
#
# Elastic Compliance Matrix: (Units=1/GPa)
#
#
# Indices 1 2 3 4 5 6 
#
# 1 0.011465 -0.002551 -0.000465 0.000000 0.006598 0.000000
# 2 -0.002551 0.018654 -0.005027 0.000000 0.001523 0.000000
# 3 -0.000465 -0.005027 0.016586 0.000000 0.003423 0.000000
# 4 0.000000 0.000000 0.000000 -0.013832 0.000000 -0.005337
# 5 0.006598 0.001523 0.003423 0.000000 0.042006 0.000000
# 6 0.000000 0.000000 0.000000 -0.005337 0.000000 0.065925
#
#
# Mechanical properties :
#
#
# Convention : Reuss Voigt Hill
#
# Bulk Modulus (GPa) = 32.65920 37.38435 35.02177
# Shear Modulus (GPa) = 29.92285 6.51313 18.21799
#
# Velocity S-wave (km/s) = 3.80878 1.77697 2.97190
# Velocity P-wave (km/s) = 5.93091 4.72592 5.36237
#
# Compressibility (1/GPa) = 0.03061925
#
# Stress axis : x y z
#
# Youngs Moduli (GPa) = 87.22343 53.60680 60.29111
#
# Poissons Ratio (x) = 0.13674 0.02805
# Poissons Ratio (y) = 0.22248 0.30309
# Poissons Ratio (z) = 0.04058 0.26948
#
# Static dielectric constant tensor:
#      x y z
#    x 1.840170 0.000000 -0.021670 
#    y 0.000000 1.739510 0.000000 
#    z -0.021670 0.000000 1.726060 
# 
# From -- ./inp_files/346522.got.cif
#   From: 2010.05.17/outbox.cif.g08.bks.cpg/sg12_174_cif.got.tgz:346522.got - 2010.06.03 13:09:07.
