data_PCOD9198346
_publ_section_title
;
Structure prediction by ZEFSAII (Michael W. Deem and Ramdas Pophale) SiO2 
 PCOD9198346
Probable space group: C 2/M
;
_chemical_formula_sum "Si O2"
_cell_formula_units_Z 60
_cell_length_a 8.310983
_cell_length_b 21.625161
_cell_length_c 26.167042
_cell_angle_alpha 90.000000
_cell_angle_beta 135.642162
_cell_angle_gamma 90.000000
_cell_volume 3287.978031
_symmetry_space_group_name_H-M "C 2/M"
_symmetry_group_IT_number 12
_symmetry_cell_setting 'monoclinic'
loop_
_space_group_symop_operation_xyz
x,y,z
-x,y,-z
-x,-y,-z
x,-y,z
1/2+x,1/2+y,z
1/2-x,1/2+y,-z
1/2-x,1/2-y,-z
1/2+x,1/2-y,z
loop_
_atom_site_type_symbol
_atom_site_label
_atom_site_fract_x
_atom_site_fract_y
_atom_site_fract_z
Si Si1 0.747431 0.330030 0.668906
Si Si2 0.362229 0.680158 0.188334
Si Si3 0.937603 0.684810 0.169589
Si Si4 0.957516 0.073088 0.549397
Si Si5 0.674371 0.701541 0.353030
Si Si6 0.125662 0.932802 0.082586
Si Si7 0.741170 0.928894 0.082939
Si Si8 0.500000 0.873597 0.500000
O O1 0.661599 0.393223 0.625922
O O2 0.545557 0.309716 0.661490
O O3 0.771893 0.274124 0.635155
O O4 0.977216 0.332460 0.754093
O O5 0.357569 0.744005 0.155066
O O6 0.592249 0.681648 0.276896
O O7 0.320832 0.620444 0.143560
O O8 0.150195 0.682887 0.179206
O O9 0.768847 0.630049 0.116018
O O10 0.712725 0.091315 0.520132
O O11 0.000000 0.091715 0.500000
O O12 0.977572 0.000000 0.556987
O O13 0.881050 0.665512 0.427337
O O14 0.936905 0.929589 0.084230
O O15 0.250747 0.000000 0.116698
O O16 0.000000 0.934718 0.000000
O O17 0.715478 0.000000 0.096833
O O18 0.500000 0.912362 0.000000
#
# Coordination Sequence:
#
# PCOD9198346 Si02
#       8
#     8   8   8   8   8   8   8   4
#     4   9  20  35  55  81 110 141 182 233 276 336
#     4  10  20  37  56  84 117 146 188 235 283 339
#     4  10  20  36  57  81 113 150 181 232 288 331
#     4  10  22  38  55  80 112 149 189 231 284 341
#     4   9  20  34  56  86 108 144 185 232 290 328
#     4  10  21  37  57  83 111 144 188 231 279 338
#     4  10  21  38  59  83 113 148 187 232 277 335
#     4  10  21  38  60  82 111 152 192 240 288 340
#
# _framework density 18.248297000000001
#
# number of rings (size 3 to 8) (size 9 to 14) (size 15 to 20)
#    0.000    2.267    0.000    1.800    2.800    4.800 
#    0.000    8.667    0.000    0.000    0.000    0.000 
#    0.000    0.000    0.000    0.000    0.000    0.000 
#
# Total GULP energy -167128.427236 kJ/mol
# GULP energy per Si atom -5570.947575 kJ/mol
# Density = 1.820676 g / cm^3
# Si number density = 18.248297 Si / 1000 Ang^3
#
#
#
# Elastic Constant Matrix: (Units=GPa)
#
#
# Indices 1 2 3 4 5 6 
#
# 1 48.6382 31.3831 15.8350 0.0005 -14.2478 0.0004
# 2 31.3831 103.5972 72.9027 0.0002 -2.6957 0.0001
# 3 15.8350 72.9027 76.5297 0.0010 -0.6967 0.0006
# 4 0.0005 0.0002 0.0010 18.6940 0.0006 -12.6152
# 5 -14.2478 -2.6957 -0.6967 0.0006 18.4366 0.0005
# 6 0.0004 0.0001 0.0006 -12.6152 0.0005 30.0498
#
#
#
# Elastic Compliance Matrix: (Units=1/GPa)
#
#
# Indices 1 2 3 4 5 6 
#
# 1 0.035509 -0.015432 0.007585 -0.000004 0.025472 -0.000002
# 2 -0.015432 0.036183 -0.031346 0.000003 -0.007820 0.000002
# 3 0.007585 -0.031346 0.041384 -0.000004 0.002842 -0.000002
# 4 -0.000004 0.000003 -0.000004 0.074638 -0.000006 0.031334
# 5 0.025472 -0.007820 0.002842 -0.000006 0.072888 -0.000004
# 6 -0.000002 0.000002 -0.000002 0.031334 -0.000004 0.046432
#
#
# Mechanical properties :
#
#
# Convention : Reuss Voigt Hill
#
# Bulk Modulus (GPa) = 28.82682 52.11186 40.46934
# Shear Modulus (GPa) = 12.59500 20.67903 16.63701
#
# Velocity S-wave (km/s) = 2.63002 3.36996 3.02272
# Velocity P-wave (km/s) = 5.00539 6.61523 5.86580
#
# Compressibility (1/GPa) = 0.03468991
#
# Stress axis : x y z
#
# Youngs Moduli (GPa) = 28.16171 27.63756 24.16418
#
# Poissons Ratio (x) = 0.42650 -0.18329
# Poissons Ratio (y) = 0.43459 0.75745
# Poissons Ratio (z) = -0.21361 0.86633
#
# Static dielectric constant tensor:
#      x y z
#    x 1.632520 0.000000 -0.002540 
#    y 0.000000 1.628150 0.000000 
#    z -0.002540 0.000000 1.648410 
# 
# From -- ./inp_files/356957.got.cif
#   From: 2010.05.17/outbox.cif.g08.bks.cpg/sg12_179_cif.got.tgz:356957.got - 2010.06.03 13:09:07.
