data_PCOD9198098
_publ_section_title
;
Structure prediction by ZEFSAII (Michael W. Deem and Ramdas Pophale) SiO2 
 PCOD9198098
Probable space group: C 2/M
;
_chemical_formula_sum "Si O2"
_cell_formula_units_Z 56
_cell_length_a 21.205222
_cell_length_b 23.692953
_cell_length_c 17.709352
_cell_angle_alpha 90.000000
_cell_angle_beta 160.401547
_cell_angle_gamma 90.000000
_cell_volume 2984.431280
_symmetry_space_group_name_H-M "C 2/M"
_symmetry_group_IT_number 12
_symmetry_cell_setting 'monoclinic'
loop_
_space_group_symop_operation_xyz
x,y,z
-x,y,-z
-x,-y,-z
x,-y,z
1/2+x,1/2+y,z
1/2-x,1/2+y,-z
1/2-x,1/2-y,-z
1/2+x,1/2-y,z
loop_
_atom_site_type_symbol
_atom_site_label
_atom_site_fract_x
_atom_site_fract_y
_atom_site_fract_z
Si Si1 0.942691 0.500000 0.557049
Si Si2 0.977832 0.880019 0.852738
Si Si3 0.872635 0.805457 0.288526
Si Si4 0.150014 0.327000 0.725521
Si Si5 0.825788 0.000000 0.890783
Si Si6 0.951450 0.187648 0.673533
Si Si7 0.438381 0.879990 0.615421
Si Si8 0.974279 0.301395 0.795322
O O1 0.771852 0.500000 0.302760
O O2 0.935624 0.446241 0.602559
O O3 0.141289 0.500000 0.736407
O O4 0.961984 0.863752 0.745470
O O5 0.771766 0.864173 0.650679
O O6 0.141503 0.839040 0.066548
O O7 0.051654 0.943240 0.954726
O O8 0.897958 0.737842 0.317921
O O9 0.000000 0.829016 0.500000
O O10 0.933905 0.823296 0.273345
O O11 0.649550 0.812779 0.046847
O O12 0.000000 0.354296 0.500000
O O13 0.107323 0.356539 0.756049
O O14 0.012671 0.243960 0.789777
O O15 0.734925 0.201977 0.407121
O O16 0.462917 0.852839 0.724020
#
# Coordination Sequence:
#
# PCOD9198098 Si02
#       8
#     4   8   8   8   4   8   8   8
#     4  11  23  37  53  80 115 148 182 222 266 317
#     4  11  22  36  55  75 104 149 189 223 266 314
#     4  11  22  34  54  81 112 144 175 226 286 329
#     4  11  21  32  48  76 109 143 184 223 265 318
#     4  11  23  37  53  80 115 148 182 222 266 317
#     4  10  20  36  56  79 106 142 188 229 270 326
#     4  11  22  36  55  75 104 149 189 223 266 314
#     4  10  20  36  56  79 106 142 188 229 270 326
#
# _framework density 18.764043999999998
#
# number of rings (size 3 to 8) (size 9 to 14) (size 15 to 20)
#    0.000    1.286    4.286    2.571    0.000    3.429 
#    0.000    2.857    0.000    0.000    0.000    2.000 
#    0.000    4.571    0.000    0.000    0.000    0.000 
#
# Total GULP energy -156179.501960 kJ/mol
# GULP energy per Si atom -5577.839356 kJ/mol
# Density = 1.872134 g / cm^3
# Si number density = 18.764044 Si / 1000 Ang^3
#
#
#
# Elastic Constant Matrix: (Units=GPa)
#
#
# Indices 1 2 3 4 5 6 
#
# 1 24.8177 11.8498 10.7164 -0.0001 1.6204 0.0000
# 2 11.8498 69.8279 -5.5463 0.0000 -12.6468 0.0000
# 3 10.7164 -5.5463 117.7677 -0.0003 -3.3830 0.0000
# 4 -0.0001 0.0000 -0.0003 26.3910 -0.0001 -2.6121
# 5 1.6204 -12.6468 -3.3830 -0.0001 25.5339 0.0000
# 6 0.0000 0.0000 0.0000 -2.6121 0.0000 3.5435
#
#
#
# Elastic Compliance Matrix: (Units=1/GPa)
#
#
# Indices 1 2 3 4 5 6 
#
# 1 0.047885 -0.010109 -0.005084 0.000000 -0.008719 0.000000
# 2 -0.010109 0.017977 0.002049 0.000000 0.009817 0.000000
# 3 -0.005084 0.002049 0.009124 0.000000 0.002546 0.000000
# 4 0.000000 0.000000 0.000000 0.040874 0.000000 0.030131
# 5 -0.008719 0.009817 0.002546 0.000000 0.044916 0.000000
# 6 0.000000 0.000000 0.000000 0.030131 0.000000 0.304418
#
#
# Mechanical properties :
#
#
# Convention : Reuss Voigt Hill
#
# Bulk Modulus (GPa) = 20.53526 27.38368 23.95947
# Shear Modulus (GPa) = 9.84804 24.11992 16.98398
#
# Velocity S-wave (km/s) = 2.29341 3.58918 3.01181
# Velocity P-wave (km/s) = 4.24037 5.63930 4.98911
#
# Compressibility (1/GPa) = 0.04869674
#
# Stress axis : x y z
#
# Youngs Moduli (GPa) = 20.88328 55.62624 109.60679
#
# Poissons Ratio (x) = 0.56233 0.55723
# Poissons Ratio (y) = 0.21111 -0.22453
# Poissons Ratio (z) = 0.10617 -0.11395
#
# Static dielectric constant tensor:
#      x y z
#    x 1.678160 0.000000 0.005570 
#    y 0.000000 1.641920 0.000000 
#    z 0.005570 0.000000 1.729850 
# 
# From -- ./inp_files/286378.got.cif
#   From: 2010.05.17/outbox.cif.g08.bks.cpg/sg12_144_cif.got.tgz:286378.got - 2010.06.03 13:09:07.
