data_PCOD9198868
_publ_section_title
;
Structure prediction by ZEFSAII (Michael W. Deem and Ramdas Pophale) SiO2 
 PCOD9198868
Probable space group: C 2/M
;
_chemical_formula_sum "Si O2"
_cell_formula_units_Z 56
_cell_length_a 20.274829
_cell_length_b 7.500050
_cell_length_c 28.582734
_cell_angle_alpha 90.000000
_cell_angle_beta 138.292366
_cell_angle_gamma 90.000000
_cell_volume 2891.759171
_symmetry_space_group_name_H-M "C 2/M"
_symmetry_group_IT_number 12
_symmetry_cell_setting 'monoclinic'
loop_
_space_group_symop_operation_xyz
x,y,z
-x,y,-z
-x,-y,-z
x,-y,z
1/2+x,1/2+y,z
1/2-x,1/2+y,-z
1/2-x,1/2-y,-z
1/2+x,1/2-y,z
loop_
_atom_site_type_symbol
_atom_site_label
_atom_site_fract_x
_atom_site_fract_y
_atom_site_fract_z
Si Si1 0.399186 0.500000 0.874110
Si Si2 0.538452 0.284079 0.787326
Si Si3 0.738984 0.219505 0.251999
Si Si4 0.384095 0.500000 0.978782
Si Si5 0.182140 0.297323 0.323896
Si Si6 0.939016 0.790439 0.306084
Si Si7 0.741305 0.708865 0.941306
Si Si8 0.838663 0.288965 0.582166
O O1 0.344343 0.329119 0.821333
O O2 0.392327 0.500000 0.926939
O O3 0.519216 0.500000 0.935848
O O4 0.526847 0.500000 0.780479
O O5 0.434940 0.205952 0.748968
O O6 0.561900 0.218633 0.747267
O O7 0.631391 0.238211 0.867652
O O8 0.732410 0.273761 0.303353
O O9 0.847272 0.272552 0.288801
O O10 0.726297 0.000000 0.242437
O O11 0.321557 0.325353 0.957514
O O12 0.219176 0.500000 0.348153
O O13 0.184734 0.214861 0.377782
O O14 0.054330 0.769766 0.381206
O O15 0.920810 0.000000 0.292547
O O16 0.753845 0.500000 0.938133
O O17 0.750000 0.750000 0.000000
O O18 0.847893 0.500000 0.592948
O O19 0.750000 0.250000 0.500000
#
# Coordination Sequence:
#
# PCOD9198868 Si02
#       8
#     4   8   8   4   8   8   8   8
#     4  11  26  42  64  82 121 166 206 253 300 378
#     4   9  19  33  55  82 109 144 192 245 299 353
#     4  10  22  40  63  89 118 154 203 256 301 352
#     4  11  26  44  56  88 120 161 208 247 318 372
#     4   9  20  35  56  86 115 150 195 245 299 351
#     4   9  18  36  59  84 112 149 193 239 292 349
#     4  11  23  38  59  86 119 154 198 255 312 369
#     4  10  20  36  58  87 122 157 191 234 292 356
#
# _framework density 19.365376000000001
#
# number of rings (size 3 to 8) (size 9 to 14) (size 15 to 20)
#    0.000    2.143    0.714    1.286    5.000    2.857 
#    0.000    2.143    0.000    4.286    0.000    0.000 
#    0.000    0.000    0.000    0.000    0.000    0.000 
#
# Total GULP energy -156030.929495 kJ/mol
# GULP energy per Si atom -5572.533196 kJ/mol
# Density = 1.932130 g / cm^3
# Si number density = 19.365376 Si / 1000 Ang^3
#
#
#
# Elastic Constant Matrix: (Units=GPa)
#
#
# Indices 1 2 3 4 5 6 
#
# 1 95.9384 -1.5784 26.2090 0.0000 -9.6920 0.0000
# 2 -1.5784 62.8571 -1.4580 0.0000 -6.3426 -0.0003
# 3 26.2090 -1.4580 115.5398 0.0000 -3.9686 0.0000
# 4 0.0000 0.0000 0.0000 26.9940 0.0000 2.6918
# 5 -9.6920 -6.3426 -3.9686 0.0000 8.3582 0.0000
# 6 0.0000 -0.0003 0.0000 2.6918 0.0000 14.8910
#
#
#
# Elastic Compliance Matrix: (Units=1/GPa)
#
#
# Indices 1 2 3 4 5 6 
#
# 1 0.012584 0.001758 -0.002323 0.000000 0.014824 0.000000
# 2 0.001758 0.017526 0.000355 0.000000 0.015507 0.000000
# 3 -0.002323 0.000355 0.009254 0.000000 0.001969 0.000000
# 4 0.000000 0.000000 0.000000 0.037725 0.000000 -0.006819
# 5 0.014824 0.015507 0.001969 0.000000 0.149535 0.000000
# 6 0.000000 0.000000 0.000000 -0.006819 0.000000 0.068387
#
#
# Mechanical properties :
#
#
# Convention : Reuss Voigt Hill
#
# Bulk Modulus (GPa) = 25.67785 35.63117 30.65451
# Shear Modulus (GPa) = 16.21194 26.79281 21.50238
#
# Velocity S-wave (km/s) = 2.89651 3.72364 3.33581
# Velocity P-wave (km/s) = 4.94721 6.07673 5.54082
#
# Compressibility (1/GPa) = 0.03894406
#
# Stress axis : x y z
#
# Youngs Moduli (GPa) = 79.46291 57.05751 108.05942
#
# Poissons Ratio (x) = -0.10030 0.25106
# Poissons Ratio (y) = -0.13969 -0.03837
# Poissons Ratio (z) = 0.18462 -0.02026
#
# Static dielectric constant tensor:
#      x y z
#    x 1.759410 0.000000 0.015070 
#    y 0.000000 1.735970 0.000000 
#    z 0.015070 0.000000 1.672260 
# 
# From -- ./inp_files/363281.got.cif
#   From: 2010.05.17/outbox.cif.g08.bks.cpg/sg12_182_cif.got.tgz:363281.got - 2010.06.03 13:09:07.
