data_PCOD9198533
_publ_section_title
;
Structure prediction by ZEFSAII (Michael W. Deem and Ramdas Pophale) SiO2 
 PCOD9198533
Probable space group: C 2/M
;
_chemical_formula_sum "Si O2"
_cell_formula_units_Z 64
_cell_length_a 10.349928
_cell_length_b 17.733709
_cell_length_c 19.292885
_cell_angle_alpha 90.000000
_cell_angle_beta 97.570123
_cell_angle_gamma 90.000000
_cell_volume 3510.203871
_symmetry_space_group_name_H-M "C 2/M"
_symmetry_group_IT_number 12
_symmetry_cell_setting 'monoclinic'
loop_
_space_group_symop_operation_xyz
x,y,z
-x,y,-z
-x,-y,-z
x,-y,z
1/2+x,1/2+y,z
1/2-x,1/2+y,-z
1/2-x,1/2-y,-z
1/2+x,1/2-y,z
loop_
_atom_site_type_symbol
_atom_site_label
_atom_site_fract_x
_atom_site_fract_y
_atom_site_fract_z
Si Si1 0.375392 0.590393 0.901845
Si Si2 0.946664 0.410268 0.918032
Si Si3 0.720534 0.317135 0.228110
Si Si4 0.074415 0.413786 0.337570
Si Si5 0.507486 0.810099 0.207161
Si Si6 0.768984 0.413066 0.361686
Si Si7 0.331371 0.408518 0.053444
Si Si8 0.644398 0.091886 0.487812
O O1 0.373567 0.500000 0.903064
O O2 0.297367 0.618721 0.831001
O O3 0.527159 0.614919 0.909374
O O4 0.321220 0.616766 0.972579
O O5 0.960657 0.500000 0.902511
O O6 0.009746 0.357713 0.864618
O O7 0.794069 0.387747 0.911345
O O8 0.000000 0.400689 0.000000
O O9 0.607647 0.257704 0.205802
O O10 0.708087 0.355937 0.302443
O O11 0.866479 0.286070 0.226783
O O12 0.111359 0.500000 0.324521
O O13 0.073034 0.364382 0.269233
O O14 0.160178 0.385120 0.408914
O O15 0.923722 0.415272 0.353488
O O16 0.722247 0.500000 0.351258
O O17 0.761260 0.388505 0.441778
O O18 0.331107 0.500000 0.051614
O O19 0.500000 0.117783 0.500000
O O20 0.641422 0.000000 0.486546
#
# Coordination Sequence:
#
# PCOD9198533 Si02
#       8
#     8   8   8   8   8   8   8   8
#     4   9  17  33  57  79  99 129 171 212 259 304
#     4  10  20  36  58  79 101 129 172 221 262 303
#     4  11  23  36  50  72 106 143 171 215 255 304
#     4   8  14  28  51  76 101 131 168 214 260 301
#     4  11  24  37  50  74 106 141 176 212 258 310
#     4   8  14  27  50  78 102 129 170 213 254 300
#     4   8  16  31  54  81 101 123 160 214 261 306
#     4   7  10  20  44  77 104 123 157 213 262 296
#
# _framework density 18.232559999999999
#
# number of rings (size 3 to 8) (size 9 to 14) (size 15 to 20)
#    0.000    3.000    0.000    3.750    1.750    2.500 
#    2.250    1.875    0.000    0.000    0.000    0.000 
#    0.000    3.000    0.000    0.000    0.000    0.000 
#
# Total GULP energy -178175.465840 kJ/mol
# GULP energy per Si atom -5567.983308 kJ/mol
# Density = 1.819106 g / cm^3
# Si number density = 18.232560 Si / 1000 Ang^3
#
#
#
# Elastic Constant Matrix: (Units=GPa)
#
#
# Indices 1 2 3 4 5 6 
#
# 1 39.8814 11.9114 5.2840 0.0000 5.0239 0.0000
# 2 11.9114 34.7761 24.6543 0.0000 5.5497 0.0000
# 3 5.2840 24.6543 88.8826 0.0000 15.0094 0.0000
# 4 0.0000 0.0000 0.0000 -2.9008 0.0000 0.2432
# 5 5.0239 5.5497 15.0094 0.0000 13.5421 0.0000
# 6 0.0000 0.0000 0.0000 0.2432 0.0000 9.8939
#
#
#
# Elastic Compliance Matrix: (Units=1/GPa)
#
#
# Indices 1 2 3 4 5 6 
#
# 1 0.029012 -0.010372 0.002771 0.000000 -0.009583 0.000000
# 2 -0.010372 0.039727 -0.010215 0.000000 -0.001111 0.000000
# 3 0.002771 -0.010215 0.016469 0.000000 -0.015094 0.000000
# 4 0.000000 0.000000 0.000000 -0.344019 0.000000 0.008455
# 5 -0.009583 -0.001111 -0.015094 0.000000 0.094584 0.000000
# 6 0.000000 0.000000 0.000000 0.008455 0.000000 0.100864
#
#
# Mechanical properties :
#
#
# Convention : Reuss Voigt Hill
#
# Bulk Modulus (GPa) = 20.17168 27.47104 23.82136
# Shear Modulus (GPa) = -446.26221 12.21975 -217.02123
#
# Velocity S-wave (km/s) = -15.66182 2.59166 -10.92190
# Velocity P-wave (km/s) = 17.77552 4.90462 12.08126
#
# Compressibility (1/GPa) = 0.04957446
#
# Stress axis : x y z
#
# Youngs Moduli (GPa) = 34.46814 25.17163 60.72168
#
# Poissons Ratio (x) = 0.26108 -0.16823
# Poissons Ratio (y) = 0.35750 0.62030
# Poissons Ratio (z) = -0.09549 0.25714
#
# Static dielectric constant tensor:
#      x y z
#    x 1.634490 0.000000 0.009730 
#    y 0.000000 1.622000 0.000000 
#    z 0.009730 0.000000 1.659730 
# 
# From -- ./inp_files/263927.got.cif
#   From: 2010.05.17/outbox.cif.g08.bks.cpg/sg12_132_cif.got.tgz:263927.got - 2010.06.03 13:09:07.
