data_PCOD9198410
_publ_section_title
;
Structure prediction by ZEFSAII (Michael W. Deem and Ramdas Pophale) SiO2 
 PCOD9198410
Probable space group: C 2/M
;
_chemical_formula_sum "Si O2"
_cell_formula_units_Z 48
_cell_length_a 27.052310
_cell_length_b 8.803688
_cell_length_c 20.602827
_cell_angle_alpha 90.000000
_cell_angle_beta 145.676656
_cell_angle_gamma 90.000000
_cell_volume 2766.744706
_symmetry_space_group_name_H-M "C 2/M"
_symmetry_group_IT_number 12
_symmetry_cell_setting 'monoclinic'
loop_
_space_group_symop_operation_xyz
x,y,z
-x,y,-z
-x,-y,-z
x,-y,z
1/2+x,1/2+y,z
1/2-x,1/2+y,-z
1/2-x,1/2-y,-z
1/2+x,1/2-y,z
loop_
_atom_site_type_symbol
_atom_site_label
_atom_site_fract_x
_atom_site_fract_y
_atom_site_fract_z
Si Si1 0.461612 0.827519 0.366623
Si Si2 0.165908 0.319951 0.594739
Si Si3 0.806063 0.818760 0.000896
Si Si4 0.827271 0.181678 0.540422
Si Si5 0.984876 0.676304 0.236806
Si Si6 0.790363 0.821932 0.226591
O O1 0.561612 0.800189 0.495705
O O2 0.462834 0.822942 0.289826
O O3 0.391070 0.709469 0.315200
O O4 0.435790 0.000000 0.358500
O O5 0.180830 0.500000 0.604174
O O6 0.183284 0.239130 0.545147
O O7 0.218603 0.250806 0.711955
O O8 0.905706 0.762301 0.116313
O O9 0.800425 0.000000 0.998235
O O10 0.750000 0.750000 0.000000
O O11 0.766122 0.759559 0.890169
O O12 0.750000 0.250000 0.500000
O O13 0.920886 0.244747 0.666844
O O14 0.826765 0.000000 0.541768
O O15 0.989487 0.500000 0.221530
O O16 0.771788 0.000000 0.207524
#
# Coordination Sequence:
#
# PCOD9198410 Si02
#       6
#     8   8   8   8   8   8
#     4   9  18  32  51  74 108 148 185 226 277 329
#     4  10  21  37  55  78 110 145 186 233 284 334
#     4  12  23  36  54  78 112 155 197 234 273 327
#     4  11  22  39  63  89 114 143 184 233 287 338
#     4  10  20  36  57  83 114 147 188 235 282 330
#     4  12  23  33  50  77 112 152 191 229 275 332
#
# _framework density 17.348907000000001
#
# number of rings (size 3 to 8) (size 9 to 14) (size 15 to 20)
#    0.000    1.333    1.667    7.000    0.000    5.333 
#    0.000    0.000    0.000    1.000    0.000    7.000 
#    0.000    0.000    0.000    0.000    0.000    0.000 
#
# Total GULP energy -134132.861585 kJ/mol
# GULP energy per Si atom -5588.869233 kJ/mol
# Density = 1.730942 g / cm^3
# Si number density = 17.348907 Si / 1000 Ang^3
#
#
#
# Elastic Constant Matrix: (Units=GPa)
#
#
# Indices 1 2 3 4 5 6 
#
# 1 79.5397 61.9717 67.0775 0.0000 5.1205 0.0000
# 2 61.9717 180.6263 84.9897 0.0000 -3.9249 0.0000
# 3 67.0775 84.9897 133.1127 0.0000 -21.9523 0.0000
# 4 0.0000 0.0000 0.0000 30.7760 0.0000 -0.4076
# 5 5.1205 -3.9249 -21.9523 0.0000 24.2459 0.0000
# 6 0.0000 0.0000 0.0000 -0.4076 0.0000 28.4933
#
#
#
# Elastic Compliance Matrix: (Units=1/GPa)
#
#
# Indices 1 2 3 4 5 6 
#
# 1 0.031246 -0.002889 -0.017711 0.000000 -0.023102 0.000000
# 2 -0.002889 0.008503 -0.004285 0.000000 -0.001893 0.000000
# 3 -0.017711 -0.004285 0.023129 0.000000 0.023988 0.000000
# 4 0.000000 0.000000 0.000000 0.032499 0.000000 0.000465
# 5 -0.023102 -0.001893 0.023988 0.000000 0.067535 0.000000
# 6 0.000000 0.000000 0.000000 0.000465 0.000000 0.035103
#
#
# Mechanical properties :
#
#
# Convention : Reuss Voigt Hill
#
# Bulk Modulus (GPa) = 76.28842 91.26182 83.77512
# Shear Modulus (GPa) = 19.82915 28.65237 24.24076
#
# Velocity S-wave (km/s) = 3.38444 4.06832 3.74204
# Velocity P-wave (km/s) = 7.70332 8.64791 8.18924
#
# Compressibility (1/GPa) = 0.01310815
#
# Stress axis : x y z
#
# Youngs Moduli (GPa) = 32.00380 117.61039 43.23552
#
# Poissons Ratio (x) = 0.33977 0.76573
# Poissons Ratio (y) = 0.09246 0.18527
# Poissons Ratio (z) = 0.56681 0.50399
#
# Static dielectric constant tensor:
#      x y z
#    x 1.578060 0.000000 -0.016430 
#    y 0.000000 1.588030 0.000000 
#    z -0.016430 0.000000 1.595690 
# 
# From -- ./inp_files/327334.got.cif
#   From: 2010.05.17/outbox.cif.g08.bks.cpg/sg12_164_cif.got.tgz:327334.got - 2010.06.03 13:09:07.
