data_PCOD9198750
_publ_section_title
;
Structure prediction by ZEFSAII (Michael W. Deem and Ramdas Pophale) SiO2 
 PCOD9198750
Probable space group: C 2/M
;
_chemical_formula_sum "Si O2"
_cell_formula_units_Z 40
_cell_length_a 21.309775
_cell_length_b 19.007519
_cell_length_c 12.653219
_cell_angle_alpha 90.000000
_cell_angle_beta 24.810602
_cell_angle_gamma 90.000000
_cell_volume 2150.609469
_symmetry_space_group_name_H-M "C 2/M"
_symmetry_group_IT_number 12
_symmetry_cell_setting 'monoclinic'
loop_
_space_group_symop_operation_xyz
x,y,z
-x,y,-z
-x,-y,-z
x,-y,z
1/2+x,1/2+y,z
1/2-x,1/2+y,-z
1/2-x,1/2-y,-z
1/2+x,1/2-y,z
loop_
_atom_site_type_symbol
_atom_site_label
_atom_site_fract_x
_atom_site_fract_y
_atom_site_fract_z
Si Si1 0.450622 0.415925 0.953482
Si Si2 0.950137 0.303489 0.740169
Si Si3 0.240476 0.699580 0.180093
Si Si4 0.478103 0.915682 0.863664
Si Si5 0.740042 0.914936 0.621793
O O1 0.420856 0.500000 0.988341
O O2 0.592837 0.395143 0.663465
O O3 0.500000 0.404288 0.000000
O O4 0.314990 0.367570 0.122472
O O5 0.842961 0.315723 0.803446
O O6 0.107296 0.272618 0.458671
O O7 0.868433 0.254235 0.950483
O O8 0.979078 0.377391 0.751783
O O9 0.332065 0.895310 0.156045
O O10 0.481632 0.000000 0.848735
O O11 0.622255 0.892779 0.711757
O O12 0.737372 0.000000 0.623529
#
# Coordination Sequence:
#
# PCOD9198750 Si02
#       5
#     8   8   8   8   8
#     4  10  20  36  58  84 115 145 181 233 281 327
#     4  10  22  40  58  78 111 150 185 232 273 327
#     4  10  23  40  57  80 111 149 188 224 282 330
#     4   9  17  33  58  84 110 144 185 228 275 325
#     4   8  16  31  53  83 115 143 173 220 280 329
#
# _framework density 18.599378000000002
#
# number of rings (size 3 to 8) (size 9 to 14) (size 15 to 20)
#    0.000    2.600    0.000    2.400    2.800    3.200 
#    3.600    4.000    0.000    3.600    0.000    0.000 
#    0.000    0.000    0.000    0.000    0.000    0.000 
#
# Total GULP energy -111470.162693 kJ/mol
# GULP energy per Si atom -5573.508135 kJ/mol
# Density = 1.855705 g / cm^3
# Si number density = 18.599378 Si / 1000 Ang^3
#
#
#
# Elastic Constant Matrix: (Units=GPa)
#
#
# Indices 1 2 3 4 5 6 
#
# 1 41.6146 38.5111 32.3128 0.0001 8.2642 0.0004
# 2 38.5111 56.2095 37.8706 0.0003 -0.7118 0.0003
# 3 32.3128 37.8706 126.0889 0.0002 -0.6736 0.0006
# 4 0.0001 0.0003 0.0002 29.2532 -0.0002 2.8069
# 5 8.2642 -0.7118 -0.6736 -0.0002 18.2911 -0.0001
# 6 0.0004 0.0003 0.0006 2.8069 -0.0001 36.1450
#
#
#
# Elastic Compliance Matrix: (Units=1/GPa)
#
#
# Indices 1 2 3 4 5 6 
#
# 1 0.094120 -0.060983 -0.006045 0.000000 -0.045121 -0.000001
# 2 -0.060983 0.061824 -0.002781 0.000000 0.029857 0.000000
# 3 -0.006045 -0.002781 0.010331 0.000000 0.003003 0.000000
# 4 0.000000 0.000000 0.000000 0.034441 0.000000 -0.002675
# 5 -0.045121 0.029857 0.003003 0.000000 0.076330 0.000000
# 6 -0.000001 0.000000 0.000000 -0.002675 0.000000 0.027874
#
#
# Mechanical properties :
#
#
# Convention : Reuss Voigt Hill
#
# Bulk Modulus (GPa) = 37.51415 49.03357 43.27386
# Shear Modulus (GPa) = 11.02719 24.41910 17.72315
#
# Velocity S-wave (km/s) = 2.43755 3.62733 3.09024
# Velocity P-wave (km/s) = 5.30430 6.63050 6.00413
#
# Compressibility (1/GPa) = 0.02665660
#
# Stress axis : x y z
#
# Youngs Moduli (GPa) = 10.62477 16.17486 96.79261
#
# Poissons Ratio (x) = 0.98640 0.58510
# Poissons Ratio (y) = 0.64794 0.26919
# Poissons Ratio (z) = 0.06423 0.04498
#
# Static dielectric constant tensor:
#      x y z
#    x 1.615510 0.000000 0.009730 
#    y 0.000000 1.616690 0.000000 
#    z 0.009730 0.000000 1.695850 
# 
# From -- ./inp_files/159400.got.cif
#   From: 2010.05.17/outbox.cif.g08.bks.cpg/sg12_80_cif.got.tgz:159400.got - 2010.06.03 13:09:07.
