data_PCOD9198474
_publ_section_title
;
Structure prediction by ZEFSAII (Michael W. Deem and Ramdas Pophale) SiO2 
 PCOD9198474
Probable space group: C 2/M
;
_chemical_formula_sum "Si O2"
_cell_formula_units_Z 64
_cell_length_a 8.271433
_cell_length_b 31.927962
_cell_length_c 12.276782
_cell_angle_alpha 90.000000
_cell_angle_beta 90.000851
_cell_angle_gamma 90.000000
_cell_volume 3242.175340
_symmetry_space_group_name_H-M "C 2/M"
_symmetry_group_IT_number 12
_symmetry_cell_setting 'monoclinic'
loop_
_space_group_symop_operation_xyz
x,y,z
-x,y,-z
-x,-y,-z
x,-y,z
1/2+x,1/2+y,z
1/2-x,1/2+y,-z
1/2-x,1/2-y,-z
1/2+x,1/2-y,z
loop_
_atom_site_type_symbol
_atom_site_label
_atom_site_fract_x
_atom_site_fract_y
_atom_site_fract_z
Si Si1 0.693229 0.453379 0.765980
Si Si2 0.194945 0.375134 0.375896
Si Si3 0.196845 0.325046 0.999998
Si Si4 0.304760 0.795568 0.235679
Si Si5 0.694193 0.922938 1.000000
Si Si6 0.805066 0.624868 0.375885
Si Si7 0.804732 0.704427 0.764320
Si Si8 0.806764 0.953379 0.765985
O O1 0.751010 0.500000 0.735105
O O2 0.759685 0.416657 0.690060
O O3 0.499996 0.452724 0.758997
O O4 0.742842 0.444103 0.890296
O O5 0.254681 0.376119 0.500007
O O6 0.252083 0.333916 0.310933
O O7 0.000005 0.372926 0.378554
O O8 0.252741 0.303675 0.111606
O O9 0.252726 0.303669 0.888395
O O10 0.242895 0.373954 0.999991
O O11 0.000000 0.323878 0.000000
O O12 0.247936 0.833912 0.310927
O O13 0.250022 0.749997 0.273432
O O14 0.500014 0.796573 0.234507
O O15 0.757159 0.944108 0.890303
O O16 0.500000 0.924584 0.000000
O O17 0.759698 0.583346 0.309923
O O18 0.748982 0.000000 0.735100
#
# Coordination Sequence:
#
# PCOD9198474 Si02
#       8
#     8   8   8   8   8   8   8   8
#     4  11  24  40  59  88 124 156 190 240 300 356
#     4  10  22  41  63  85 113 154 205 253 291 340
#     4   9  17  33  57  83 114 149 185 233 289 341
#     4  10  20  36  57  85 118 151 190 239 294 349
#     4  11  20  37  64  90 118 156 196 238 289 347
#     4  10  22  41  63  85 113 154 205 253 291 340
#     4  10  20  36  57  85 118 151 190 239 294 349
#     4  11  24  40  59  88 124 156 190 240 300 356
#
# _framework density 19.739833000000001
#
# number of rings (size 3 to 8) (size 9 to 14) (size 15 to 20)
#    0.000    1.750    2.500    1.875    0.000    6.000 
#    0.000    2.500    0.000    0.000    0.000    0.000 
#    0.000    0.000    0.000    0.000    0.000    0.000 
#
# Total GULP energy -178800.262281 kJ/mol
# GULP energy per Si atom -5587.508196 kJ/mol
# Density = 1.969490 g / cm^3
# Si number density = 19.739833 Si / 1000 Ang^3
#
#
#
# Elastic Constant Matrix: (Units=GPa)
#
#
# Indices 1 2 3 4 5 6 
#
# 1 7.8806 11.5035 12.6087 0.0000 -0.0029 0.0000
# 2 11.5035 200.2240 94.8712 0.0000 -0.0100 0.0000
# 3 12.6087 94.8712 166.9807 0.0000 -0.0121 0.0000
# 4 0.0000 0.0000 0.0000 -40.5564 0.0000 -0.0397
# 5 -0.0029 -0.0100 -0.0121 0.0000 9.1946 0.0000
# 6 0.0000 0.0000 0.0000 -0.0397 0.0000 29.8875
#
#
#
# Elastic Compliance Matrix: (Units=1/GPa)
#
#
# Indices 1 2 3 4 5 6 
#
# 1 0.147063 -0.004362 -0.008627 0.000000 0.000031 0.000000
# 2 -0.004362 0.006964 -0.003627 0.000000 0.000001 0.000000
# 3 -0.008627 -0.003627 0.008701 0.000000 0.000005 0.000000
# 4 0.000000 0.000000 0.000000 -0.024657 0.000000 -0.000033
# 5 0.000031 0.000001 0.000005 0.000000 0.108759 0.000000
# 6 0.000000 0.000000 0.000000 -0.000033 0.000000 0.033459
#
#
# Mechanical properties :
#
#
# Convention : Reuss Voigt Hill
#
# Bulk Modulus (GPa) = 7.72220 68.11689 37.91955
# Shear Modulus (GPa) = 14.01797 16.77859 15.39828
#
# Velocity S-wave (km/s) = 2.66773 2.91862 2.79599
# Velocity P-wave (km/s) = 3.66190 6.77791 5.44745
#
# Compressibility (1/GPa) = 0.12949678
#
# Stress axis : x y z
#
# Youngs Moduli (GPa) = 6.79980 143.60408 114.93128
#
# Poissons Ratio (x) = 0.62636 0.99147
# Poissons Ratio (y) = 0.02966 0.41686
# Poissons Ratio (z) = 0.05866 0.52086
#
# Static dielectric constant tensor:
#      x y z
#    x 1.686570 0.000000 0.000010 
#    y 0.000000 1.682930 0.000000 
#    z 0.000010 0.000000 1.701850 
# 
# From -- ./inp_files/125769.got.cif
#   From: 2010.05.17/outbox.cif.g08.bks.cpg/sg12_63_cif.got.tgz:125769.got - 2010.06.03 13:09:07.
