data_PCOD9198995
_publ_section_title
;
Structure prediction by ZEFSAII (Michael W. Deem and Ramdas Pophale) SiO2 
 PCOD9198995
Probable space group: C 2/M
;
_chemical_formula_sum "Si O2"
_cell_formula_units_Z 40
_cell_length_a 25.604623
_cell_length_b 7.777260
_cell_length_c 19.618317
_cell_angle_alpha 90.000000
_cell_angle_beta 151.425186
_cell_angle_gamma 90.000000
_cell_volume 1868.583293
_symmetry_space_group_name_H-M "C 2/M"
_symmetry_group_IT_number 12
_symmetry_cell_setting 'monoclinic'
loop_
_space_group_symop_operation_xyz
x,y,z
-x,y,-z
-x,-y,-z
x,-y,z
1/2+x,1/2+y,z
1/2-x,1/2+y,-z
1/2-x,1/2-y,-z
1/2+x,1/2-y,z
loop_
_atom_site_type_symbol
_atom_site_label
_atom_site_fract_x
_atom_site_fract_y
_atom_site_fract_z
Si Si1 0.405006 0.295018 0.341555
Si Si2 0.457348 0.791979 0.626110
Si Si3 0.040535 0.291533 0.215166
Si Si4 0.166915 0.702246 0.106472
Si Si5 0.781390 0.202976 0.687105
O O1 0.500000 0.223883 0.500000
O O2 0.399932 0.500000 0.348074
O O3 0.445075 0.264820 0.310844
O O4 0.284910 0.224085 0.220034
O O5 0.465924 0.734285 0.714027
O O6 0.341999 0.729743 0.462633
O O7 0.454904 0.000000 0.623504
O O8 0.040700 0.500000 0.215159
O O9 0.150039 0.235716 0.302303
O O10 0.936986 0.226730 0.052839
O O11 0.168983 0.500000 0.092101
O O12 0.159523 0.719477 0.179349
O O13 0.775256 0.000000 0.691766
#
# Coordination Sequence:
#
# PCOD9198995 Si02
#       5
#     8   8   8   8   8
#     4  10  20  36  59  84 109 142 186 228 269 326
#     4  10  22  38  57  83 113 146 182 226 277 325
#     4  10  22  39  57  80 113 149 184 223 274 331
#     4  10  21  38  59  82 110 147 186 225 272 327
#     4  11  22  36  57  84 113 145 185 229 272 322
#
# _framework density 21.406590000000001
#
# number of rings (size 3 to 8) (size 9 to 14) (size 15 to 20)
#    0.000    1.800    2.000    1.800    0.000    6.800 
#    0.000    0.000    0.000    0.000    0.000    0.000 
#    0.000    0.000    0.000    0.000    0.000    0.000 
#
# Total GULP energy -111779.372645 kJ/mol
# GULP energy per Si atom -5588.968632 kJ/mol
# Density = 2.135787 g / cm^3
# Si number density = 21.406590 Si / 1000 Ang^3
#
#
#
# Elastic Constant Matrix: (Units=GPa)
#
#
# Indices 1 2 3 4 5 6 
#
# 1 91.1554 -20.6940 -10.1188 0.0000 1.3675 0.0000
# 2 -20.6940 25.4285 6.3273 0.0000 7.9446 0.0000
# 3 -10.1188 6.3273 30.0862 0.0000 -14.8260 0.0000
# 4 0.0000 0.0000 0.0000 6.7487 0.0000 -3.6960
# 5 1.3675 7.9446 -14.8260 0.0000 30.9772 0.0000
# 6 0.0000 0.0000 0.0000 -3.6960 0.0000 30.8295
#
#
#
# Elastic Compliance Matrix: (Units=1/GPa)
#
#
# Indices 1 2 3 4 5 6 
#
# 1 0.013859 0.012356 0.000261 0.000000 -0.003656 0.000000
# 2 0.012356 0.063848 -0.023045 0.000000 -0.027950 0.000000
# 3 0.000261 -0.023045 0.053758 0.000000 0.031628 0.000000
# 4 0.000000 0.000000 0.000000 0.158590 0.000000 0.019013
# 5 -0.003656 -0.027950 0.031628 0.000000 0.054749 0.000000
# 6 0.000000 0.000000 0.000000 0.019013 0.000000 0.034716
#
#
# Mechanical properties :
#
#
# Convention : Reuss Voigt Hill
#
# Bulk Modulus (GPa) = 9.04088 10.85544 9.94816
# Shear Modulus (GPa) = 11.43521 25.12145 18.27833
#
# Velocity S-wave (km/s) = 2.31376 3.42941 2.92527
# Velocity P-wave (km/s) = 3.37203 4.55667 4.00835
#
# Compressibility (1/GPa) = 0.11060871
#
# Stress axis : x y z
#
# Youngs Moduli (GPa) = 72.15452 15.66221 18.60189
#
# Poissons Ratio (x) = -0.19352 -0.00486
# Poissons Ratio (y) = -0.89153 0.42869
# Poissons Ratio (z) = -0.01885 0.36094
#
# Static dielectric constant tensor:
#      x y z
#    x 1.729280 0.000000 0.006120 
#    y 0.000000 1.798430 0.000000 
#    z 0.006120 0.000000 1.781740 
# 
# From -- ./inp_files/162389.got.cif
#   From: 2010.05.17/outbox.cif.g08.bks.cpg/sg12_82_cif.got.tgz:162389.got - 2010.06.03 13:09:07.
