data_PCOD9198706
_publ_section_title
;
Structure prediction by ZEFSAII (Michael W. Deem and Ramdas Pophale) SiO2 
 PCOD9198706
Probable space group: C 2/M
;
_chemical_formula_sum "Si O2"
_cell_formula_units_Z 32
_cell_length_a 8.980965
_cell_length_b 10.101340
_cell_length_c 17.436770
_cell_angle_alpha 90.000000
_cell_angle_beta 110.775909
_cell_angle_gamma 90.000000
_cell_volume 1478.999361
_symmetry_space_group_name_H-M "C 2/M"
_symmetry_group_IT_number 12
_symmetry_cell_setting 'monoclinic'
loop_
_space_group_symop_operation_xyz
x,y,z
-x,y,-z
-x,-y,-z
x,-y,z
1/2+x,1/2+y,z
1/2-x,1/2+y,-z
1/2-x,1/2-y,-z
1/2+x,1/2-y,z
loop_
_atom_site_type_symbol
_atom_site_label
_atom_site_fract_x
_atom_site_fract_y
_atom_site_fract_z
Si Si1 0.185420 0.349347 0.552612
Si Si2 0.757999 0.144903 0.303390
Si Si3 0.951623 0.225396 0.192216
Si Si4 0.632579 0.351620 0.080055
O O1 0.252873 0.500000 0.566143
O O2 0.250000 0.250000 0.500000
O O3 0.209709 0.269699 0.635982
O O4 0.000000 0.361555 0.500000
O O5 0.877914 0.155423 0.253342
O O6 0.575476 0.161987 0.242321
O O7 0.777518 0.000000 0.344230
O O8 0.798202 0.277364 0.118465
O O9 0.056352 0.144308 0.150993
O O10 0.663354 0.500000 0.057190
O O11 0.500000 0.289615 0.000000
#
# Coordination Sequence:
#
# PCOD9198706 Si02
#       4
#     8   8   8   8
#     4  11  25  43  64  91 122 156 197 244 295 353
#     4  11  23  39  61  88 120 158 199 245 297 353
#     4  10  22  37  57  86 120 153 198 248 296 349
#     4  10  20  36  58  83 115 156 199 244 295 350
#
# _framework density 21.636251000000001
#
# number of rings (size 3 to 8) (size 9 to 14) (size 15 to 20)
#    0.000    1.500    0.000    4.500    0.000   12.000 
#    0.000    0.000    0.000   12.000    0.000    0.000 
#    0.000    0.000    0.000    0.000    0.000    0.000 
#
# Total GULP energy -89316.396208 kJ/mol
# GULP energy per Si atom -5582.274763 kJ/mol
# Density = 2.158701 g / cm^3
# Si number density = 21.636251 Si / 1000 Ang^3
#
#
#
# Elastic Constant Matrix: (Units=GPa)
#
#
# Indices 1 2 3 4 5 6 
#
# 1 94.2999 23.1113 5.7464 0.0000 1.6511 0.0000
# 2 23.1113 138.5993 24.6641 0.0000 -0.7871 0.0000
# 3 5.7464 24.6641 71.3636 0.0000 1.0299 0.0000
# 4 0.0000 0.0000 0.0000 19.5121 0.0000 4.6320
# 5 1.6511 -0.7871 1.0299 0.0000 39.0231 0.0000
# 6 0.0000 0.0000 0.0000 4.6320 0.0000 -13.2065
#
#
#
# Elastic Compliance Matrix: (Units=1/GPa)
#
#
# Indices 1 2 3 4 5 6 
#
# 1 0.011071 -0.001802 -0.000261 0.000000 -0.000498 0.000000
# 2 -0.001802 0.007983 -0.002618 0.000000 0.000306 0.000000
# 3 -0.000261 -0.002618 0.014945 0.000000 -0.000436 0.000000
# 4 0.000000 0.000000 0.000000 0.047311 0.000000 0.016594
# 5 -0.000498 0.000306 -0.000436 0.000000 0.025665 0.000000
# 6 0.000000 0.000000 0.000000 0.016594 0.000000 -0.069901
#
#
# Mechanical properties :
#
#
# Convention : Reuss Voigt Hill
#
# Bulk Modulus (GPa) = 40.59282 45.70070 43.14676
# Shear Modulus (GPa) = 91.49109 25.78182 58.63646
#
# Velocity S-wave (km/s) = 6.50982 3.45570 5.21151
# Velocity P-wave (km/s) = 8.67790 6.09021 7.49655
#
# Compressibility (1/GPa) = 0.02463490
#
# Stress axis : x y z
#
# Youngs Moduli (GPa) = 90.32740 125.26182 66.91190
#
# Poissons Ratio (x) = 0.22577 0.01749
# Poissons Ratio (y) = 0.16280 0.17520
# Poissons Ratio (z) = 0.02361 0.32799
#
# Static dielectric constant tensor:
#      x y z
#    x 1.761290 0.000000 0.002290 
#    y 0.000000 1.825170 0.000000 
#    z 0.002290 0.000000 1.811970 
# 
# From -- ./inp_files/193337.got.cif
#   From: 2010.05.17/outbox.cif.g08.bks.cpg/sg12_97_cif.got.tgz:193337.got - 2010.06.03 13:09:07.
