data_PCOD9198667
_publ_section_title
;
Structure prediction by ZEFSAII (Michael W. Deem and Ramdas Pophale) SiO2 
 PCOD9198667
Probable space group: C 2/M
;
_chemical_formula_sum "Si O2"
_cell_formula_units_Z 64
_cell_length_a 19.083602
_cell_length_b 7.785527
_cell_length_c 28.211648
_cell_angle_alpha 90.000000
_cell_angle_beta 135.820404
_cell_angle_gamma 90.000000
_cell_volume 2921.146685
_symmetry_space_group_name_H-M "C 2/M"
_symmetry_group_IT_number 12
_symmetry_cell_setting 'monoclinic'
loop_
_space_group_symop_operation_xyz
x,y,z
-x,y,-z
-x,-y,-z
x,-y,z
1/2+x,1/2+y,z
1/2-x,1/2+y,-z
1/2-x,1/2-y,-z
1/2+x,1/2-y,z
loop_
_atom_site_type_symbol
_atom_site_label
_atom_site_fract_x
_atom_site_fract_y
_atom_site_fract_z
Si Si1 0.823823 0.710632 0.636108
Si Si2 0.906708 0.301673 0.576242
Si Si3 0.390868 0.197353 0.939673
Si Si4 0.894034 0.803348 0.464782
Si Si5 0.029268 0.703604 0.209849
Si Si6 0.675427 0.292743 0.848833
Si Si7 0.879454 0.796592 0.284605
Si Si8 0.335477 0.302587 0.810156
O O1 0.822478 0.500000 0.634341
O O2 0.847877 0.765016 0.594003
O O3 0.714786 0.771178 0.601300
O O4 0.912239 0.764493 0.714436
O O5 0.878309 0.500000 0.553976
O O6 0.891807 0.199445 0.520753
O O7 0.024365 0.293186 0.646779
O O8 0.288690 0.272368 0.912615
O O9 0.367549 0.198945 0.872333
O O10 0.398531 0.000000 0.960612
O O11 0.500000 0.279771 0.000000
O O12 0.000000 0.722611 0.500000
O O13 0.895242 0.000000 0.447229
O O14 0.044176 0.500000 0.213786
O O15 0.082730 0.784815 0.190819
O O16 0.911700 0.740806 0.157809
O O17 0.680923 0.500000 0.849853
O O18 0.639974 0.236858 0.778965
O O19 0.773967 0.762097 0.259428
O O20 0.899199 0.000000 0.294014
O O21 0.325632 0.500000 0.819747
#
# Coordination Sequence:
#
# PCOD9198667 Si02
#       8
#     8   8   8   8   8   8   8   8
#     4   9  20  37  56  80 110 148 191 235 288 348
#     4  11  21  36  57  82 112 144 188 242 295 349
#     4   9  19  39  65  90 119 157 196 233 280 341
#     4  10  22  39  57  78 107 148 195 241 293 354
#     4  11  21  36  58  83 118 157 193 236 291 345
#     4   9  18  34  57  87 117 145 187 237 280 333
#     4  10  20  36  58  83 111 149 193 235 287 349
#     4  11  23  37  56  87 123 153 190 239 288 336
#
# _framework density 21.909203999999999
#
# number of rings (size 3 to 8) (size 9 to 14) (size 15 to 20)
#    0.000    2.000    1.250    3.375    1.750    2.500 
#    0.000    2.500    0.000    0.000    0.000    0.000 
#    0.000    0.000    0.000    0.000    0.000    0.000 
#
# Total GULP energy -178728.088592 kJ/mol
# GULP energy per Si atom -5585.252768 kJ/mol
# Density = 2.185934 g / cm^3
# Si number density = 21.909204 Si / 1000 Ang^3
#
#
#
# Elastic Constant Matrix: (Units=GPa)
#
#
# Indices 1 2 3 4 5 6 
#
# 1 122.9695 -5.5208 27.9660 0.0000 37.7663 0.0000
# 2 -5.5208 49.0503 -5.6546 0.0000 2.9646 0.0000
# 3 27.9660 -5.6546 77.2348 0.0000 43.9223 0.0000
# 4 0.0000 0.0000 0.0000 12.6489 0.0000 -1.0189
# 5 37.7663 2.9646 43.9223 0.0000 37.1575 0.0000
# 6 0.0000 0.0000 0.0000 -1.0189 0.0000 -16.7753
#
#
#
# Elastic Compliance Matrix: (Units=1/GPa)
#
#
# Indices 1 2 3 4 5 6 
#
# 1 0.014506 0.004644 0.011236 0.000000 -0.028396 0.000000
# 2 0.004644 0.023465 0.011548 0.000000 -0.020243 0.000000
# 3 0.011236 0.011548 0.051080 0.000000 -0.072720 0.000000
# 4 0.000000 0.000000 0.000000 0.078674 0.000000 -0.004779
# 5 -0.028396 -0.020243 -0.072720 0.000000 0.143348 0.000000
# 6 0.000000 0.000000 0.000000 -0.004779 0.000000 -0.059321
#
#
# Mechanical properties :
#
#
# Convention : Reuss Voigt Hill
#
# Bulk Modulus (GPa) = 6.94892 31.42619 19.18756
# Shear Modulus (GPa) = 20.41956 22.10382 21.26169
#
# Velocity S-wave (km/s) = 3.05619 3.17974 3.11858
# Velocity P-wave (km/s) = 3.95377 5.27787 4.66306
#
# Compressibility (1/GPa) = 0.14390724
#
# Stress axis : x y z
#
# Youngs Moduli (GPa) = 68.93606 42.61697 19.57728
#
# Poissons Ratio (x) = -0.19792 -0.21996
# Poissons Ratio (y) = -0.32016 -0.22609
# Poissons Ratio (z) = -0.77454 -0.49216
#
# Static dielectric constant tensor:
#      x y z
#    x 1.807270 0.000000 0.038620 
#    y 0.000000 1.826340 0.000000 
#    z 0.038620 0.000000 1.804850 
# 
# From -- ./inp_files/378275.got.cif
#   From: 2010.05.17/outbox.cif.g08.bks.cpg/sg12_190_cif.got.tgz:378275.got - 2010.06.03 13:09:07.
