data_PCOD9198360
_publ_section_title
;
Structure prediction by ZEFSAII (Michael W. Deem and Ramdas Pophale) SiO2 
 PCOD9198360
Probable space group: C 2/M
;
_chemical_formula_sum "Si O2"
_cell_formula_units_Z 64
_cell_length_a 12.200814
_cell_length_b 12.868104
_cell_length_c 21.015016
_cell_angle_alpha 90.000000
_cell_angle_beta 112.757289
_cell_angle_gamma 90.000000
_cell_volume 3042.534397
_symmetry_space_group_name_H-M "C 2/M"
_symmetry_group_IT_number 12
_symmetry_cell_setting 'monoclinic'
loop_
_space_group_symop_operation_xyz
x,y,z
-x,y,-z
-x,-y,-z
x,-y,z
1/2+x,1/2+y,z
1/2-x,1/2+y,-z
1/2-x,1/2-y,-z
1/2+x,1/2-y,z
loop_
_atom_site_type_symbol
_atom_site_label
_atom_site_fract_x
_atom_site_fract_y
_atom_site_fract_z
Si Si1 0.158127 0.886520 0.454490
Si Si2 0.575560 0.163375 0.457497
Si Si3 0.653386 0.613114 0.300904
Si Si4 0.676447 0.712360 0.895458
Si Si5 0.703620 0.382654 0.763356
Si Si6 0.403847 0.830638 0.303056
Si Si7 0.964688 0.311676 0.790167
Si Si8 0.358458 0.619583 0.976093
O O1 0.292347 0.881441 0.511030
O O2 0.091079 0.787811 0.466708
O O3 0.165142 0.872548 0.379417
O O4 0.106230 0.000000 0.455805
O O5 0.500000 0.124183 0.500000
O O6 0.504999 0.146047 0.376901
O O7 0.599360 0.500000 0.276502
O O8 0.783274 0.616772 0.298869
O O9 0.580923 0.705698 0.253483
O O10 0.683906 0.645232 0.832997
O O11 0.553238 0.777565 0.865909
O O12 0.783612 0.795653 0.920049
O O13 0.676722 0.643174 0.958621
O O14 0.667484 0.500000 0.739586
O O15 0.632709 0.292483 0.709283
O O16 0.844786 0.370278 0.781632
O O17 0.452666 0.863229 0.245222
O O18 0.330063 0.500000 0.952842
O O19 0.500000 0.633301 0.000000
#
# Coordination Sequence:
#
# PCOD9198360 Si02
#       8
#     8   8   8   8   8   8   8   8
#     4  10  22  36  55  81 106 142 189 234 288 353
#     4  11  21  37  58  77 114 148 183 242 296 351
#     4  10  20  36  57  82 108 141 189 237 286 344
#     4  10  21  39  60  90 123 157 195 233 282 335
#     4  10  22  38  59  84 115 153 194 238 284 342
#     4  10  21  37  55  83 111 148 190 238 297 344
#     4  10  21  38  58  82 117 151 189 236 287 336
#     4  10  21  38  63  92 124 158 195 236 277 328
#
# _framework density 21.035095999999999
#
# number of rings (size 3 to 8) (size 9 to 14) (size 15 to 20)
#    0.000    1.875    2.500    1.125    0.000    5.000 
#    0.000    8.750    0.000    4.125    0.000    0.000 
#    0.000    0.000    0.000    0.000    0.000    0.000 
#
# Total GULP energy -178794.416719 kJ/mol
# GULP energy per Si atom -5587.325522 kJ/mol
# Density = 2.098722 g / cm^3
# Si number density = 21.035096 Si / 1000 Ang^3
#
#
#
# Elastic Constant Matrix: (Units=GPa)
#
#
# Indices 1 2 3 4 5 6 
#
# 1 86.3527 6.0766 -11.2618 0.0000 0.4114 0.0000
# 2 6.0766 103.3404 4.6126 0.0000 -3.7836 0.0000
# 3 -11.2618 4.6126 38.0959 0.0000 4.5295 0.0000
# 4 0.0000 0.0000 0.0000 9.2104 0.0000 -9.1682
# 5 0.4114 -3.7836 4.5295 0.0000 29.5490 0.0000
# 6 0.0000 0.0000 0.0000 -9.1682 0.0000 -10.2669
#
#
#
# Elastic Compliance Matrix: (Units=1/GPa)
#
#
# Indices 1 2 3 4 5 6 
#
# 1 0.012145 -0.000916 0.003805 0.000000 -0.000870 0.000000
# 2 -0.000916 0.009860 -0.001646 0.000000 0.001528 0.000000
# 3 0.003805 -0.001646 0.028117 0.000000 -0.004574 0.000000
# 4 0.000000 0.000000 0.000000 0.057480 0.000000 -0.051329
# 5 -0.000870 0.001528 -0.004574 0.000000 0.034751 0.000000
# 6 0.000000 0.000000 0.000000 -0.051329 0.000000 -0.051565
#
#
# Mechanical properties :
#
#
# Convention : Reuss Voigt Hill
#
# Bulk Modulus (GPa) = 19.00860 25.18264 22.09562
# Shear Modulus (GPa) = 47.24147 20.92262 34.08205
#
# Velocity S-wave (km/s) = 4.74417 3.15723 4.02960
# Velocity P-wave (km/s) = 6.25026 5.02877 5.67249
#
# Compressibility (1/GPa) = 0.05260776
#
# Stress axis : x y z
#
# Youngs Moduli (GPa) = 82.33719 101.41974 35.56520
#
# Poissons Ratio (x) = 0.09288 -0.13531
# Poissons Ratio (y) = 0.07541 0.05855
# Poissons Ratio (z) = -0.31326 0.16696
#
# Static dielectric constant tensor:
#      x y z
#    x 1.745540 0.000000 0.002900 
#    y 0.000000 1.775280 0.000000 
#    z 0.002900 0.000000 1.727810 
# 
# From -- ./inp_files/305460.got.cif
#   From: 2010.05.17/outbox.cif.g08.bks.cpg/sg12_153_cif.got.tgz:305460.got - 2010.06.03 13:09:07.
