data_PCOD9198499
_publ_section_title
;
Structure prediction by ZEFSAII (Michael W. Deem and Ramdas Pophale) SiO2 
 PCOD9198499
Probable space group: C 2/M
;
_chemical_formula_sum "Si O2"
_cell_formula_units_Z 52
_cell_length_a 25.884909
_cell_length_b 11.572702
_cell_length_c 9.780527
_cell_angle_alpha 90.000000
_cell_angle_beta 69.309985
_cell_angle_gamma 90.000000
_cell_volume 2740.880294
_symmetry_space_group_name_H-M "C 2/M"
_symmetry_group_IT_number 12
_symmetry_cell_setting 'monoclinic'
loop_
_space_group_symop_operation_xyz
x,y,z
-x,y,-z
-x,-y,-z
x,-y,z
1/2+x,1/2+y,z
1/2-x,1/2+y,-z
1/2-x,1/2-y,-z
1/2+x,1/2-y,z
loop_
_atom_site_type_symbol
_atom_site_label
_atom_site_fract_x
_atom_site_fract_y
_atom_site_fract_z
Si Si1 0.954106 0.000000 0.211294
Si Si2 0.093874 0.760813 0.832613
Si Si3 0.922205 0.000000 0.781276
Si Si4 0.813106 0.227193 0.475288
Si Si5 0.477573 0.137326 0.319435
Si Si6 0.634023 0.500000 0.462168
Si Si7 0.382542 0.864393 0.611194
Si Si8 0.404959 0.754201 0.859741
O O1 0.941100 0.881972 0.139627
O O2 0.909826 0.000000 0.374188
O O3 0.013616 0.000000 0.230168
O O4 0.150380 0.781621 0.696804
O O5 0.059700 0.668070 0.776494
O O6 0.103301 0.713853 0.975505
O O7 0.903324 0.000000 0.639782
O O8 0.898001 0.117409 0.862307
O O9 0.750000 0.250000 0.500000
O O10 0.828370 0.113355 0.550263
O O11 0.836705 0.331650 0.544009
O O12 0.440258 0.175252 0.484453
O O13 0.533347 0.207692 0.243239
O O14 0.488469 0.000000 0.320003
O O15 0.370406 0.808815 0.768873
O O16 0.387716 0.000000 0.623964
#
# Coordination Sequence:
#
# PCOD9198499 Si02
#       8
#     4   8   4   8   8   4   8   8
#     4  10  20  36  57  87 124 157 189 222 282 351
#     4  10  22  37  56  87 115 151 193 235 282 342
#     4  12  22  32  59  89 127 155 180 233 286 345
#     4  10  22  42  66  82 106 146 197 247 289 339
#     4  10  21  36  55  81 116 160 196 224 269 339
#     4  10  21  38  62  92 112 145 198 240 284 343
#     4  10  22  39  58  83 115 150 196 236 282 341
#     4  12  22  34  56  84 125 151 184 231 287 340
#
# _framework density 18.972007000000001
#
# number of rings (size 3 to 8) (size 9 to 14) (size 15 to 20)
#    0.000    1.538    3.077    2.077    1.077    4.923 
#    0.000    0.769    0.000    0.000    0.000    0.000 
#    0.000    0.000    0.000    0.000    0.000    0.000 
#
# Total GULP energy -145063.296585 kJ/mol
# GULP energy per Si atom -5579.357561 kJ/mol
# Density = 1.892883 g / cm^3
# Si number density = 18.972007 Si / 1000 Ang^3
#
#
#
# Elastic Constant Matrix: (Units=GPa)
#
#
# Indices 1 2 3 4 5 6 
#
# 1 95.0384 5.4303 36.5673 0.0000 7.0536 0.0000
# 2 5.4303 51.5392 18.4767 0.0000 3.1239 0.0000
# 3 36.5673 18.4767 128.8309 0.0000 30.2451 0.0000
# 4 0.0000 0.0000 0.0000 10.2739 0.0000 5.6580
# 5 7.0536 3.1239 30.2451 0.0000 18.1001 0.0000
# 6 0.0000 0.0000 0.0000 5.6580 0.0000 12.4679
#
#
#
# Elastic Compliance Matrix: (Units=1/GPa)
#
#
# Indices 1 2 3 4 5 6 
#
# 1 0.011842 -0.000004 -0.003747 0.000000 0.001648 0.000000
# 2 -0.000004 0.020511 -0.003472 0.000000 0.002263 0.000000
# 3 -0.003747 -0.003472 0.014547 0.000000 -0.022248 0.000000
# 4 0.000000 0.000000 0.000000 0.129764 0.000000 -0.058887
# 5 0.001648 0.002263 -0.022248 0.000000 0.091392 0.000000
# 6 0.000000 0.000000 0.000000 -0.058887 0.000000 0.106929
#
#
# Mechanical properties :
#
#
# Convention : Reuss Voigt Hill
#
# Bulk Modulus (GPa) = 30.81405 44.03968 37.42686
# Shear Modulus (GPa) = 12.49227 22.49733 17.49480
#
# Velocity S-wave (km/s) = 2.56883 3.44731 3.03997
# Velocity P-wave (km/s) = 5.00756 6.25369 5.66499
#
# Compressibility (1/GPa) = 0.03245273
#
# Stress axis : x y z
#
# Youngs Moduli (GPa) = 84.44605 48.75536 68.74395
#
# Poissons Ratio (x) = 0.00020 0.25762
# Poissons Ratio (y) = 0.00035 0.23865
# Poissons Ratio (z) = 0.31646 0.16926
#
# Static dielectric constant tensor:
#      x y z
#    x 1.660790 0.000000 0.027700 
#    y 0.000000 1.688060 0.000000 
#    z 0.027700 0.000000 1.675330 
# 
# From -- ./inp_files/102605.got.cif
#   From: 2010.05.17/outbox.cif.g08.bks.cpg/sg12_52_cif.got.tgz:102605.got - 2010.06.03 13:09:07.
