data_PCOD9198109
_publ_section_title
;
Structure prediction by ZEFSAII (Michael W. Deem and Ramdas Pophale) SiO2 
 PCOD9198109
Probable space group: C 2/M
;
_chemical_formula_sum "Si O2"
_cell_formula_units_Z 56
_cell_length_a 10.153943
_cell_length_b 25.546400
_cell_length_c 20.212351
_cell_angle_alpha 90.000000
_cell_angle_beta 40.470010
_cell_angle_gamma 90.000000
_cell_volume 3402.979851
_symmetry_space_group_name_H-M "C 2/M"
_symmetry_group_IT_number 12
_symmetry_cell_setting 'monoclinic'
loop_
_space_group_symop_operation_xyz
x,y,z
-x,y,-z
-x,-y,-z
x,-y,z
1/2+x,1/2+y,z
1/2-x,1/2+y,-z
1/2-x,1/2-y,-z
1/2+x,1/2-y,z
loop_
_atom_site_type_symbol
_atom_site_label
_atom_site_fract_x
_atom_site_fract_y
_atom_site_fract_z
Si Si1 0.512711 0.246084 0.072945
Si Si2 0.478444 0.440568 0.087446
Si Si3 0.472837 0.189525 0.435478
Si Si4 0.441888 0.061994 0.946909
Si Si5 0.105681 0.650330 0.789232
Si Si6 0.294616 0.842734 0.784110
Si Si7 0.993762 0.187035 0.426699
O O1 0.429302 0.198375 0.147676
O O2 0.375337 0.297422 0.140138
O O3 0.500000 0.235536 0.000000
O O4 0.750000 0.250000 0.000000
O O5 0.418524 0.500000 0.126917
O O6 0.319635 0.397803 0.170648
O O7 0.500000 0.436863 0.000000
O O8 0.701011 0.430046 0.031210
O O9 0.500000 0.169831 0.500000
O O10 0.594616 0.164316 0.328400
O O11 0.234271 0.184231 0.512308
O O12 0.541686 0.250649 0.407969
O O13 0.550282 0.097982 0.850828
O O14 0.483604 0.000000 0.920557
O O15 0.500000 0.075629 0.000000
O O16 0.337583 0.655129 0.677274
O O17 0.957120 0.658087 0.782466
O O18 0.000000 0.169403 0.500000
#
# Coordination Sequence:
#
# PCOD9198109 Si02
#       7
#     8   8   8   8   8   8   8
#     4  12  24  35  51  82 121 150 181 229 290 345
#     4  10  20  37  61  85 112 151 196 231 274 342
#     4  10  22  36  56  80 112 146 194 242 282 341
#     4  10  22  40  60  87 118 151 193 238 280 338
#     4  12  22  36  60  84 114 157 192 232 290 346
#     4  12  22  37  58  84 116 152 192 241 286 340
#     4  10  20  36  56  79 109 150 195 235 282 341
#
# _framework density 16.456166
#
# number of rings (size 3 to 8) (size 9 to 14) (size 15 to 20)
#    0.000    1.143    5.714    1.714    0.000    2.286 
#    0.000    0.000    0.000    1.714    0.000    0.000 
#    0.000    0.000    0.000    0.000    0.000    0.000 
#
# Total GULP energy -156283.409600 kJ/mol
# GULP energy per Si atom -5581.550343 kJ/mol
# Density = 1.641871 g / cm^3
# Si number density = 16.456166 Si / 1000 Ang^3
#
#
#
# Elastic Constant Matrix: (Units=GPa)
#
#
# Indices 1 2 3 4 5 6 
#
# 1 123.4719 30.7076 49.9461 0.0000 18.2560 0.0000
# 2 30.7076 81.2313 67.0404 0.0001 4.4403 -0.0002
# 3 49.9461 67.0404 131.9627 0.0004 15.6133 -0.0005
# 4 0.0000 0.0001 0.0004 10.2890 -0.0001 -0.6791
# 5 18.2560 4.4403 15.6133 -0.0001 27.3335 0.0000
# 6 0.0000 -0.0002 -0.0005 -0.6791 0.0000 38.4858
#
#
#
# Elastic Compliance Matrix: (Units=1/GPa)
#
#
# Indices 1 2 3 4 5 6 
#
# 1 0.010253 -0.001543 -0.002484 0.000000 -0.005178 0.000000
# 2 -0.001543 0.021648 -0.010853 0.000000 0.003713 0.000000
# 3 -0.002484 -0.010853 0.014615 0.000000 -0.004926 0.000000
# 4 0.000000 0.000000 0.000000 0.097304 0.000000 0.001717
# 5 -0.005178 0.003713 -0.004926 0.000000 0.042254 0.000000
# 6 0.000000 0.000000 0.000000 0.001717 0.000000 0.026014
#
#
# Mechanical properties :
#
#
# Convention : Reuss Voigt Hill
#
# Bulk Modulus (GPa) = 59.68155 70.22824 64.95490
# Shear Modulus (GPa) = 20.20749 27.81980 24.01364
#
# Velocity S-wave (km/s) = 3.50803 4.11608 3.82416
# Velocity P-wave (km/s) = 7.26320 8.08443 7.68479
#
# Compressibility (1/GPa) = 0.01675560
#
# Stress axis : x y z
#
# Youngs Moduli (GPa) = 97.52989 46.19418 68.42468
#
# Poissons Ratio (x) = 0.07126 0.16999
# Poissons Ratio (y) = 0.15045 0.74262
# Poissons Ratio (z) = 0.24230 0.50135
#
# Static dielectric constant tensor:
#      x y z
#    x 1.573460 0.000000 -0.007630 
#    y 0.000000 1.549110 0.000000 
#    z -0.007630 0.000000 1.532290 
# 
# From -- ./inp_files/198392.got.cif
#   From: 2010.05.17/outbox.cif.g08.bks.cpg/sg12_100_cif.got.tgz:198392.got - 2010.06.03 13:09:07.
