data_PCOD9198951
_publ_section_title
;
Structure prediction by ZEFSAII (Michael W. Deem and Ramdas Pophale) SiO2 
 PCOD9198951
Probable space group: C 2/M
;
_chemical_formula_sum "Si O2"
_cell_formula_units_Z 56
_cell_length_a 10.425613
_cell_length_b 14.457242
_cell_length_c 15.997032
_cell_angle_alpha 90.000000
_cell_angle_beta 81.732942
_cell_angle_gamma 90.000000
_cell_volume 2386.107110
_symmetry_space_group_name_H-M "C 2/M"
_symmetry_group_IT_number 12
_symmetry_cell_setting 'monoclinic'
loop_
_space_group_symop_operation_xyz
x,y,z
-x,y,-z
-x,-y,-z
x,-y,z
1/2+x,1/2+y,z
1/2-x,1/2+y,-z
1/2-x,1/2-y,-z
1/2+x,1/2-y,z
loop_
_atom_site_type_symbol
_atom_site_label
_atom_site_fract_x
_atom_site_fract_y
_atom_site_fract_z
Si Si1 0.679734 0.610353 0.697590
Si Si2 0.734001 0.105966 0.661065
Si Si3 0.358840 0.387307 0.982304
Si Si4 0.913294 0.886777 0.792770
Si Si5 0.142728 0.828586 0.512726
Si Si6 0.041482 0.386853 0.265789
Si Si7 0.084387 0.612791 0.072478
O O1 0.683671 0.500000 0.709184
O O2 0.561408 0.644638 0.766124
O O3 0.644526 0.628831 0.604609
O O4 0.822981 0.645042 0.707000
O O5 0.826859 0.145834 0.723510
O O6 0.806345 0.106411 0.566374
O O7 0.588743 0.146547 0.675180
O O8 0.715113 0.000000 0.688400
O O9 0.358079 0.500000 0.986465
O O10 0.350987 0.360063 0.886220
O O11 0.500000 0.357598 0.000000
O O12 0.233028 0.356960 0.044979
O O13 0.917163 0.000000 0.791703
O O14 0.250000 0.750000 0.500000
O O15 0.000000 0.796840 0.500000
O O16 0.046174 0.500000 0.269371
O O17 0.034982 0.360028 0.168728
O O18 0.082678 0.500000 0.072545
O O19 0.000000 0.641351 0.000000
#
# Coordination Sequence:
#
# PCOD9198951 Si02
#       7
#     8   8   8   8   8   8   8
#     4  10  20  36  59  82 111 147 186 230 273 322
#     4  10  20  36  59  82 109 145 187 227 268 323
#     4   9  15  22  37  65 105 146 176 211 264 317
#     4   9  16  28  48  75 105 143 187 225 263 316
#     4  12  27  43  60  82 110 140 178 228 283 339
#     4   9  18  30  48  79 113 149 187 223 266 319
#     4   9  15  24  39  65 109 154 182 210 260 319
#
# _framework density 23.469190000000001
#
# number of rings (size 3 to 8) (size 9 to 14) (size 15 to 20)
#    0.000    2.286    1.429    2.143    2.000    7.429 
#    0.000    2.143    0.000    0.000    0.000    0.000 
#    0.000   22.857    0.000    0.000    0.000    0.000 
#
# Total GULP energy -156526.969258 kJ/mol
# GULP energy per Si atom -5590.248902 kJ/mol
# Density = 2.341577 g / cm^3
# Si number density = 23.469190 Si / 1000 Ang^3
#
#
#
# Elastic Constant Matrix: (Units=GPa)
#
#
# Indices 1 2 3 4 5 6 
#
# 1 165.4848 11.2459 25.7304 0.0000 -1.7823 0.0000
# 2 11.2459 65.3073 -9.5596 0.0000 -1.9724 0.0000
# 3 25.7304 -9.5596 85.0848 0.0000 -3.0376 0.0000
# 4 0.0000 0.0000 0.0000 -11.1791 0.0000 -9.1595
# 5 -1.7823 -1.9724 -3.0376 0.0000 45.4848 0.0000
# 6 0.0000 0.0000 0.0000 -9.1595 0.0000 2.7408
#
#
#
# Elastic Compliance Matrix: (Units=1/GPa)
#
#
# Indices 1 2 3 4 5 6 
#
# 1 0.006469 -0.001422 -0.002114 0.000000 0.000051 0.000000
# 2 -0.001422 0.015909 0.002245 0.000000 0.000784 0.000000
# 3 -0.002114 0.002245 0.012675 0.000000 0.000861 0.000000
# 4 0.000000 0.000000 0.000000 -0.023930 0.000000 -0.079970
# 5 0.000051 0.000784 0.000861 0.000000 0.022079 0.000000
# 6 0.000000 0.000000 0.000000 -0.079970 0.000000 0.097603
#
#
# Mechanical properties :
#
#
# Convention : Reuss Voigt Hill
#
# Bulk Modulus (GPa) = 30.79534 41.19002 35.99268
# Shear Modulus (GPa) = 34.67135 26.63999 30.65567
#
# Velocity S-wave (km/s) = 3.84775 3.37279 3.61807
# Velocity P-wave (km/s) = 5.73501 5.72332 5.72917
#
# Compressibility (1/GPa) = 0.03247245
#
# Stress axis : x y z
#
# Youngs Moduli (GPa) = 154.58966 62.85581 78.89330
#
# Poissons Ratio (x) = 0.08937 0.16679
# Poissons Ratio (y) = 0.21980 -0.17715
# Poissons Ratio (z) = 0.32683 -0.14114
#
# Static dielectric constant tensor:
#      x y z
#    x 1.867240 0.000000 0.025310 
#    y 0.000000 2.008690 0.000000 
#    z 0.025310 0.000000 1.812610 
# 
# From -- ./inp_files/197539.got.cif
#   From: 2010.05.17/outbox.cif.g08.bks.cpg/sg12_99_cif.got.tgz:197539.got - 2010.06.03 13:09:07.
