data_PCOD9198460
_publ_section_title
;
Structure prediction by ZEFSAII (Michael W. Deem and Ramdas Pophale) SiO2 
 PCOD9198460
Probable space group: C 2/M
;
_chemical_formula_sum "Si O2"
_cell_formula_units_Z 64
_cell_length_a 12.932644
_cell_length_b 29.612206
_cell_length_c 8.781409
_cell_angle_alpha 90.000000
_cell_angle_beta 87.992087
_cell_angle_gamma 90.000000
_cell_volume 3360.899686
_symmetry_space_group_name_H-M "C 2/M"
_symmetry_group_IT_number 12
_symmetry_cell_setting 'monoclinic'
loop_
_space_group_symop_operation_xyz
x,y,z
-x,y,-z
-x,-y,-z
x,-y,z
1/2+x,1/2+y,z
1/2-x,1/2+y,-z
1/2-x,1/2-y,-z
1/2+x,1/2-y,z
loop_
_atom_site_type_symbol
_atom_site_label
_atom_site_fract_x
_atom_site_fract_y
_atom_site_fract_z
Si Si1 0.908222 0.813240 0.322829
Si Si2 0.759696 0.450953 0.807759
Si Si3 0.612449 0.414311 0.556086
Si Si4 0.862192 0.784439 0.657700
Si Si5 0.622151 0.121570 0.017461
Si Si6 0.897102 0.951566 0.908507
Si Si7 0.217381 0.880739 0.257672
Si Si8 0.726637 0.211890 0.125515
O O1 0.914652 0.865139 0.373900
O O2 0.865910 0.786775 0.474383
O O3 0.833116 0.808580 0.184347
O O4 0.022115 0.794526 0.289935
O O5 0.808800 0.500000 0.774905
O O6 0.673907 0.441226 0.682639
O O7 0.839164 0.411176 0.846899
O O8 0.694767 0.454065 0.966236
O O9 0.500000 0.432113 0.500000
O O10 0.699482 0.404514 0.421791
O O11 0.795559 0.827365 0.717653
O O12 0.825260 0.737979 0.730782
O O13 0.657097 0.171923 0.062916
O O14 0.500000 0.117957 0.000000
O O15 0.683536 0.111060 0.855313
O O16 0.878463 0.905087 0.822765
O O17 0.897339 0.000000 0.820498
O O18 0.000000 0.949455 0.000000
O O19 0.750000 0.250000 0.000000
#
# Coordination Sequence:
#
# PCOD9198460 Si02
#       8
#     8   8   8   8   8   8   8   8
#     4  10  21  39  58  84 123 162 194 235 302 363
#     4  10  22  40  63  89 119 159 200 244 301 359
#     4  11  19  36  64  94 126 156 189 237 302 366
#     4  10  21  37  59  86 117 164 197 231 297 367
#     4  11  25  44  60  85 120 158 208 258 297 345
#     4   9  18  31  51  83 120 155 190 232 289 354
#     4  10  20  36  57  84 121 152 195 241 296 350
#     4  12  24  37  59  89 119 154 203 258 292 348
#
# _framework density 19.04252
#
# number of rings (size 3 to 8) (size 9 to 14) (size 15 to 20)
#    0.000    1.625    5.000    1.125    1.750    1.000 
#    0.000    0.625    0.000    0.750    0.000    0.000 
#    0.000    0.000    0.000    0.000    0.000    0.000 
#
# Total GULP energy -178328.925839 kJ/mol
# GULP energy per Si atom -5572.778932 kJ/mol
# Density = 1.899918 g / cm^3
# Si number density = 19.042520 Si / 1000 Ang^3
#
#
#
# Elastic Constant Matrix: (Units=GPa)
#
#
# Indices 1 2 3 4 5 6 
#
# 1 102.1050 20.1676 26.8308 0.0000 11.4741 0.0000
# 2 20.1676 75.4694 19.9158 0.0000 8.9308 0.0000
# 3 26.8308 19.9158 52.0583 0.0000 3.2557 0.0000
# 4 0.0000 0.0000 0.0000 42.3393 0.0000 13.4138
# 5 11.4741 8.9308 3.2557 0.0000 30.9257 0.0000
# 6 0.0000 0.0000 0.0000 13.4138 0.0000 19.5995
#
#
#
# Elastic Compliance Matrix: (Units=1/GPa)
#
#
# Indices 1 2 3 4 5 6 
#
# 1 0.011861 -0.001341 -0.005385 0.000000 -0.003447 0.000000
# 2 -0.001341 0.015320 -0.004957 0.000000 -0.003405 0.000000
# 3 -0.005385 -0.004957 0.023823 0.000000 0.000921 0.000000
# 4 0.000000 0.000000 0.000000 0.030158 0.000000 -0.020640
# 5 -0.003447 -0.003405 0.000921 0.000000 0.034501 0.000000
# 6 0.000000 0.000000 0.000000 -0.020640 0.000000 0.065147
#
#
# Mechanical properties :
#
#
# Convention : Reuss Voigt Hill
#
# Bulk Modulus (GPa) = 36.18035 40.38456 38.28245
# Shear Modulus (GPa) = 23.43160 29.42079 26.42620
#
# Velocity S-wave (km/s) = 3.51164 3.93492 3.72929
# Velocity P-wave (km/s) = 5.95677 6.47290 6.22019
#
# Compressibility (1/GPa) = 0.02763932
#
# Stress axis : x y z
#
# Youngs Moduli (GPa) = 84.31035 65.27546 41.97587
#
# Poissons Ratio (x) = 0.08752 0.22603
# Poissons Ratio (y) = 0.11304 0.20807
# Poissons Ratio (z) = 0.45398 0.32356
#
# Static dielectric constant tensor:
#      x y z
#    x 1.679550 0.000000 -0.031880 
#    y 0.000000 1.700070 0.000000 
#    z -0.031880 0.000000 1.720260 
# 
# From -- ./inp_files/54739.got.cif
#   From: 2010.05.17/outbox.cif.g08.bks.cpg/sg12_28_cif.got.tgz:54739.got - 2010.06.03 13:09:07.
