data_PCOD9198832
_publ_section_title
;
Structure prediction by ZEFSAII (Michael W. Deem and Ramdas Pophale) SiO2 
 PCOD9198832
Probable space group: C 2/M
;
_chemical_formula_sum "Si O2"
_cell_formula_units_Z 40
_cell_length_a 23.565108
_cell_length_b 11.243042
_cell_length_c 22.280871
_cell_angle_alpha 90.000000
_cell_angle_beta 160.397060
_cell_angle_gamma 90.000000
_cell_volume 1980.513642
_symmetry_space_group_name_H-M "C 2/M"
_symmetry_group_IT_number 12
_symmetry_cell_setting 'monoclinic'
loop_
_space_group_symop_operation_xyz
x,y,z
-x,y,-z
-x,-y,-z
x,-y,z
1/2+x,1/2+y,z
1/2-x,1/2+y,-z
1/2-x,1/2-y,-z
1/2+x,1/2-y,z
loop_
_atom_site_type_symbol
_atom_site_label
_atom_site_fract_x
_atom_site_fract_y
_atom_site_fract_z
Si Si1 0.254263 0.860294 0.390010
Si Si2 0.943480 0.709880 0.121351
Si Si3 0.797433 0.632704 0.293681
Si Si4 0.145502 0.371386 0.094633
Si Si5 0.895625 0.635759 0.206708
O O1 0.228859 0.850912 0.293124
O O2 0.442642 0.817888 0.595106
O O3 0.109962 0.789956 0.280736
O O4 0.247179 0.000000 0.398513
O O5 0.944633 0.641292 0.185307
O O6 0.930510 0.634336 0.047794
O O7 0.774045 0.789856 0.954050
O O8 0.741858 0.500000 0.216822
O O9 0.745153 0.748132 0.204179
O O10 0.000000 0.629176 0.500000
O O11 0.236910 0.500000 0.192143
O O12 0.000000 0.370074 0.000000
O O13 0.865105 0.500000 0.194865
#
# Coordination Sequence:
#
# PCOD9198832 Si02
#       5
#     8   8   8   8   8
#     4  10  20  36  58  86 117 152 199 253 305 358
#     4  11  21  38  61  84 117 161 201 242 306 362
#     4  10  21  38  61  89 121 159 205 255 304 358
#     4  11  23  39  59  87 124 162 201 246 302 365
#     4  10  22  38  59  87 118 151 200 259 304 357
#
# _framework density 20.196781999999999
#
# number of rings (size 3 to 8) (size 9 to 14) (size 15 to 20)
#    0.000    1.600    2.000    3.000    0.000    4.000 
#    0.000    0.000    0.000    6.000    0.000    0.000 
#    0.000    0.000    0.000    0.000    0.000    0.000 
#
# Total GULP energy -111670.736103 kJ/mol
# GULP energy per Si atom -5583.536805 kJ/mol
# Density = 2.015081 g / cm^3
# Si number density = 20.196782 Si / 1000 Ang^3
#
#
#
# Elastic Constant Matrix: (Units=GPa)
#
#
# Indices 1 2 3 4 5 6 
#
# 1 85.7133 3.3472 -2.0321 0.0004 -8.0908 0.0023
# 2 3.3472 110.4602 38.5494 0.0005 -1.4323 0.0042
# 3 -2.0321 38.5494 60.3147 0.0011 0.0663 0.0045
# 4 0.0004 0.0005 0.0011 29.7350 0.0006 -17.3418
# 5 -8.0908 -1.4323 0.0663 0.0006 35.9721 0.0023
# 6 0.0023 0.0042 0.0045 -17.3418 0.0023 17.8323
#
#
#
# Elastic Compliance Matrix: (Units=1/GPa)
#
#
# Indices 1 2 3 4 5 6 
#
# 1 0.011960 -0.000602 0.000785 -0.000003 0.002665 -0.000005
# 2 -0.000602 0.011691 -0.007492 -0.000001 0.000344 -0.000002
# 3 0.000785 -0.007492 0.021395 -0.000007 -0.000161 -0.000010
# 4 -0.000003 -0.000001 -0.000007 0.077699 -0.000007 0.075562
# 5 0.002665 0.000344 -0.000161 -0.000007 0.028413 -0.000011
# 6 -0.000005 -0.000002 -0.000010 0.075562 -0.000011 0.129562
#
#
# Mechanical properties :
#
#
# Convention : Reuss Voigt Hill
#
# Bulk Modulus (GPa) = 32.86574 37.35747 35.11160
# Shear Modulus (GPa) = 16.36760 31.14944 23.75852
#
# Velocity S-wave (km/s) = 2.84985 3.93147 3.43352
# Velocity P-wave (km/s) = 5.20931 6.25664 5.75684
#
# Compressibility (1/GPa) = 0.03042683
#
# Stress axis : x y z
#
# Youngs Moduli (GPa) = 83.60903 85.53935 46.73982
#
# Poissons Ratio (x) = 0.05147 -0.03667
# Poissons Ratio (y) = 0.05031 0.35020
# Poissons Ratio (z) = -0.06560 0.64090
#
# Static dielectric constant tensor:
#      x y z
#    x 1.718050 0.000000 -0.021160 
#    y 0.000000 1.719970 0.000000 
#    z -0.021160 0.000000 1.706860 
# 
# From -- ./inp_files/83384.got.cif
#   From: 2010.05.17/outbox.cif.g08.bks.cpg/sg12_42_cif.got.tgz:83384.got - 2010.06.03 13:09:07.
