data_PCOD9198357
_publ_section_title
;
Structure prediction by ZEFSAII (Michael W. Deem and Ramdas Pophale) SiO2 
 PCOD9198357
Probable space group: C 2/M
;
_chemical_formula_sum "Si O2"
_cell_formula_units_Z 64
_cell_length_a 12.639800
_cell_length_b 14.474051
_cell_length_c 22.127602
_cell_angle_alpha 90.000000
_cell_angle_beta 39.953854
_cell_angle_gamma 90.000000
_cell_volume 2599.650443
_symmetry_space_group_name_H-M "C 2/M"
_symmetry_group_IT_number 12
_symmetry_cell_setting 'monoclinic'
loop_
_space_group_symop_operation_xyz
x,y,z
-x,y,-z
-x,-y,-z
x,-y,z
1/2+x,1/2+y,z
1/2-x,1/2+y,-z
1/2-x,1/2-y,-z
1/2+x,1/2-y,z
loop_
_atom_site_type_symbol
_atom_site_label
_atom_site_fract_x
_atom_site_fract_y
_atom_site_fract_z
Si Si1 0.553049 0.644630 0.910478
Si Si2 0.883441 0.388751 0.686432
Si Si3 0.119899 0.641107 0.900187
Si Si4 0.250425 0.398718 0.375368
Si Si5 0.034720 0.114892 0.608038
Si Si6 0.547146 0.343302 0.170093
Si Si7 0.675530 0.840734 0.750492
Si Si8 0.218484 0.607654 0.595895
O O1 0.731390 0.624012 0.800727
O O2 0.558159 0.754315 0.916456
O O3 0.427954 0.624398 0.910031
O O4 0.500000 0.607050 0.000000
O O5 0.891003 0.500000 0.675784
O O6 0.865310 0.352986 0.624716
O O7 0.051117 0.352697 0.641551
O O8 0.293218 0.652300 0.858588
O O9 0.111459 0.602899 0.836170
O O10 0.000000 0.595661 0.000000
O O11 0.187082 0.500000 0.419629
O O12 0.325578 0.359003 0.403715
O O13 0.413598 0.405240 0.262296
O O14 0.115889 0.140322 0.508548
O O15 0.865184 0.170763 0.690802
O O16 0.005644 0.000000 0.625543
O O17 0.450368 0.244269 0.207496
O O18 0.705553 0.885603 0.672986
O O19 0.216812 0.500000 0.580337
#
# Coordination Sequence:
#
# PCOD9198357 Si02
#       8
#     8   8   8   8   8   8   8   8
#     4   9  19  32  53  79 107 148 192 238 286 345
#     4   9  18  33  54  83 115 149 191 242 294 339
#     4  10  21  36  56  82 110 151 196 235 288 347
#     4   9  18  36  62  83 111 154 197 237 282 344
#     4  10  20  37  63  88 114 156 200 236 288 351
#     4  10  20  36  57  81 117 148 191 238 295 341
#     4  11  21  35  60  83 118 152 187 244 289 344
#     4  10  21  36  58  87 118 154 195 240 293 353
#
# _framework density 24.618694000000001
#
# number of rings (size 3 to 8) (size 9 to 14) (size 15 to 20)
#    0.000    2.250    1.250    1.500    0.000    7.250 
#    0.000    3.125    8.250    3.375    0.000    0.000 
#    0.000    0.000    0.000    0.000    0.000    0.000 
#
# Total GULP energy -178279.529696 kJ/mol
# GULP energy per Si atom -5571.235303 kJ/mol
# Density = 2.456266 g / cm^3
# Si number density = 24.618694 Si / 1000 Ang^3
#
#
#
# Elastic Constant Matrix: (Units=GPa)
#
#
# Indices 1 2 3 4 5 6 
#
# 1 147.6625 4.3413 49.9949 -0.0001 26.3783 0.0000
# 2 4.3413 76.6215 8.8186 -0.0001 -3.1918 0.0000
# 3 49.9949 8.8186 89.2561 -0.0002 16.4461 -0.0001
# 4 -0.0001 -0.0001 -0.0002 16.7486 0.0001 8.7721
# 5 26.3783 -3.1918 16.4461 0.0001 39.0169 0.0000
# 6 0.0000 0.0000 -0.0001 8.7721 0.0000 -3.9356
#
#
#
# Elastic Compliance Matrix: (Units=1/GPa)
#
#
# Indices 1 2 3 4 5 6 
#
# 1 0.008974 -0.000203 -0.004213 0.000000 -0.004308 0.000000
# 2 -0.000203 0.013319 -0.001549 0.000000 0.001880 0.000000
# 3 -0.004213 -0.001549 0.014328 0.000000 -0.003318 0.000000
# 4 0.000000 0.000000 0.000000 0.027547 0.000000 0.061401
# 5 -0.004308 0.001880 -0.003318 0.000000 0.030095 0.000000
# 6 0.000000 0.000000 0.000000 0.061401 0.000000 -0.117233
#
#
# Mechanical properties :
#
#
# Convention : Reuss Voigt Hill
#
# Bulk Modulus (GPa) = 40.49855 48.87219 44.68537
# Shear Modulus (GPa) = -1778.89166 27.05836 -875.91665
#
# Velocity S-wave (km/s) = -26.90997 3.31886 -18.88295
# Velocity P-wave (km/s) = 30.80653 5.88058 21.38295
#
# Compressibility (1/GPa) = 0.02469225
#
# Stress axis : x y z
#
# Youngs Moduli (GPa) = 111.43180 75.07956 69.79458
#
# Poissons Ratio (x) = 0.01525 0.29403
# Poissons Ratio (y) = 0.02263 0.10808
# Poissons Ratio (z) = 0.46944 0.11626
#
# Static dielectric constant tensor:
#      x y z
#    x 2.051890 0.000000 -0.015810 
#    y 0.000000 2.047360 0.000000 
#    z -0.015810 0.000000 2.039380 
# 
# From -- ./inp_files/306776.got.cif
#   From: 2010.05.17/outbox.cif.g08.bks.cpg/sg12_154_cif.got.tgz:306776.got - 2010.06.03 13:09:07.
