data_PCOD9198236
_publ_section_title
;
Structure prediction by ZEFSAII (Michael W. Deem and Ramdas Pophale) SiO2 
 PCOD9198236
Probable space group: C 2/M
;
_chemical_formula_sum "Si O2"
_cell_formula_units_Z 40
_cell_length_a 7.249576
_cell_length_b 15.422391
_cell_length_c 16.726568
_cell_angle_alpha 90.000000
_cell_angle_beta 98.106260
_cell_angle_gamma 90.000000
_cell_volume 1851.441414
_symmetry_space_group_name_H-M "C 2/M"
_symmetry_group_IT_number 12
_symmetry_cell_setting 'monoclinic'
loop_
_space_group_symop_operation_xyz
x,y,z
-x,y,-z
-x,-y,-z
x,-y,z
1/2+x,1/2+y,z
1/2-x,1/2+y,-z
1/2-x,1/2-y,-z
1/2+x,1/2-y,z
loop_
_atom_site_type_symbol
_atom_site_label
_atom_site_fract_x
_atom_site_fract_y
_atom_site_fract_z
Si Si1 0.895865 0.903217 0.290044
Si Si2 0.969352 0.105491 0.870100
Si Si3 0.200777 0.394478 0.985389
Si Si4 0.629196 0.839373 0.400568
Si Si5 0.285790 0.361694 0.574137
O O1 0.983946 0.862547 0.215657
O O2 0.059321 0.908669 0.365349
O O3 0.725810 0.855341 0.322264
O O4 0.829284 0.000000 0.265689
O O5 0.144181 0.124485 0.938248
O O6 0.952659 0.000000 0.864142
O O7 0.784842 0.136185 0.905710
O O8 0.188720 0.500000 0.980230
O O9 0.000000 0.360909 0.000000
O O10 0.642084 0.737614 0.420665
O O11 0.745494 0.885120 0.479467
O O12 0.415355 0.866825 0.395508
#
# Coordination Sequence:
#
# PCOD9198236 Si02
#       5
#     8   8   8   8   8
#     4  11  22  34  52  83 118 139 167 229 285 311
#     4   8  16  28  42  70 107 136 166 209 262 314
#     4   8  13  25  46  67  95 139 177 202 245 315
#     4  10  20  36  57  76 100 142 188 221 260 321
#     4  10  20  36  57  76 100 142 188 221 260 321
#
# _framework density 21.604789
#
# number of rings (size 3 to 8) (size 9 to 14) (size 15 to 20)
#    0.000    2.600    2.000    1.800    0.000    4.000 
#    0.000    6.000    0.000    0.000    0.000    5.600 
#    0.000    0.000    0.000    0.000    0.000    0.000 
#
# Total GULP energy -111582.700850 kJ/mol
# GULP energy per Si atom -5579.135042 kJ/mol
# Density = 2.155562 g / cm^3
# Si number density = 21.604789 Si / 1000 Ang^3
#
#
#
# Elastic Constant Matrix: (Units=GPa)
#
#
# Indices 1 2 3 4 5 6 
#
# 1 110.3201 -5.4579 49.8991 0.0000 -46.1072 0.0000
# 2 -5.4579 19.8318 6.8194 0.0000 -4.6291 0.0000
# 3 49.8991 6.8194 113.5226 0.0000 -50.2931 0.0000
# 4 0.0000 0.0000 0.0000 17.7528 0.0000 -12.4705
# 5 -46.1072 -4.6291 -50.2931 0.0000 36.3648 0.0000
# 6 0.0000 0.0000 0.0000 -12.4705 0.0000 -5.5024
#
#
#
# Elastic Compliance Matrix: (Units=1/GPa)
#
#
# Indices 1 2 3 4 5 6 
#
# 1 0.024407 0.014203 0.007564 0.000000 0.043215 0.000000
# 2 0.014203 0.060244 0.003908 0.000000 0.031083 0.000000
# 3 0.007564 0.003908 0.025093 0.000000 0.044792 0.000000
# 4 0.000000 0.000000 0.000000 0.021732 0.000000 -0.049252
# 5 0.043215 0.031083 0.044792 0.000000 0.148197 0.000000
# 6 0.000000 0.000000 0.000000 -0.049252 0.000000 -0.070114
#
#
# Mechanical properties :
#
#
# Convention : Reuss Voigt Hill
#
# Bulk Modulus (GPa) = 6.20748 38.46619 22.33684
# Shear Modulus (GPa) = 23.59530 22.55062 23.07296
#
# Velocity S-wave (km/s) = 3.30833 3.23426 3.27150
# Velocity P-wave (km/s) = 4.18005 5.63830 4.96302
#
# Compressibility (1/GPa) = 0.16109598
#
# Stress axis : x y z
#
# Youngs Moduli (GPa) = 40.97129 16.59904 39.85137
#
# Poissons Ratio (x) = -0.23576 -0.30142
# Poissons Ratio (y) = -0.58193 -0.15575
# Poissons Ratio (z) = -0.30990 -0.06487
#
# Static dielectric constant tensor:
#      x y z
#    x 1.772690 0.000000 -0.026710 
#    y 0.000000 1.828220 0.000000 
#    z -0.026710 0.000000 1.807310 
# 
# From -- ./inp_files/195009.got.cif
#   From: 2010.05.17/outbox.cif.g08.bks.cpg/sg12_98_cif.got.tgz:195009.got - 2010.06.03 13:09:07.
