data_PCOD9198943
_publ_section_title
;
Structure prediction by ZEFSAII (Michael W. Deem and Ramdas Pophale) SiO2 
 PCOD9198943
Probable space group: C 2/M
;
_chemical_formula_sum "Si O2"
_cell_formula_units_Z 56
_cell_length_a 33.438491
_cell_length_b 9.016801
_cell_length_c 14.143092
_cell_angle_alpha 90.000000
_cell_angle_beta 46.922095
_cell_angle_gamma 90.000000
_cell_volume 3114.724044
_symmetry_space_group_name_H-M "C 2/M"
_symmetry_group_IT_number 12
_symmetry_cell_setting 'monoclinic'
loop_
_space_group_symop_operation_xyz
x,y,z
-x,y,-z
-x,-y,-z
x,-y,z
1/2+x,1/2+y,z
1/2-x,1/2+y,-z
1/2-x,1/2-y,-z
1/2+x,1/2-y,z
loop_
_atom_site_type_symbol
_atom_site_label
_atom_site_fract_x
_atom_site_fract_y
_atom_site_fract_z
Si Si1 0.412308 0.328003 0.163216
Si Si2 0.864190 0.322868 0.533233
Si Si3 0.690805 0.676186 0.986249
Si Si4 0.301708 0.672807 0.464386
Si Si5 0.592668 0.823784 0.030889
Si Si6 0.692646 0.676056 0.206221
Si Si7 0.470164 0.176659 0.241751
O O1 0.424128 0.500000 0.122645
O O2 0.353221 0.319979 0.309862
O O3 0.410341 0.232194 0.071942
O O4 0.454639 0.264017 0.171623
O O5 0.858540 0.500000 0.546688
O O6 0.821062 0.256091 0.527712
O O7 0.851377 0.251172 0.654503
O O8 0.924237 0.287406 0.394018
O O9 0.695841 0.500000 0.963454
O O10 0.640870 0.740892 0.007382
O O11 0.747927 0.754285 0.867755
O O12 0.681774 0.703571 0.112775
O O13 0.290400 0.500000 0.502886
O O14 0.250000 0.750000 0.500000
O O15 0.602040 0.000000 0.018682
O O16 0.532330 0.792161 0.170600
O O17 0.694017 0.500000 0.219482
O O18 0.465996 0.000000 0.228648
#
# Coordination Sequence:
#
# PCOD9198943 Si02
#       7
#     8   8   8   8   8   8   8
#     4  10  21  35  53  79 111 148 188 229 275 324
#     4  10  20  36  59  81 108 146 184 226 276 329
#     4  10  22  39  59  84 112 142 182 229 276 331
#     4  10  21  35  51  76 111 146 185 228 272 328
#     4  11  22  36  57  82 112 148 188 231 274 325
#     4  10  21  39  61  84 111 143 180 226 281 336
#     4   9  20  38  56  80 112 149 190 227 270 326
#
# _framework density 17.979120999999999
#
# number of rings (size 3 to 8) (size 9 to 14) (size 15 to 20)
#    0.000    2.000    0.000    3.000    2.000    6.857 
#    0.000    0.714    0.000    4.286    0.000    0.000 
#    0.000    0.000    0.000    0.000    0.000    0.000 
#
# Total GULP energy -156410.562168 kJ/mol
# GULP energy per Si atom -5586.091506 kJ/mol
# Density = 1.793820 g / cm^3
# Si number density = 17.979121 Si / 1000 Ang^3
#
#
#
# Elastic Constant Matrix: (Units=GPa)
#
#
# Indices 1 2 3 4 5 6 
#
# 1 68.8051 33.2037 31.8728 0.0000 -10.7711 0.0000
# 2 33.2037 69.7792 43.2204 0.0000 3.2996 0.0000
# 3 31.8728 43.2204 69.6215 0.0000 11.5686 0.0000
# 4 0.0000 0.0000 0.0000 31.8530 0.0000 3.0863
# 5 -10.7711 3.2996 11.5686 0.0000 16.5297 0.0000
# 6 0.0000 0.0000 0.0000 3.0863 0.0000 30.3085
#
#
#
# Elastic Compliance Matrix: (Units=1/GPa)
#
#
# Indices 1 2 3 4 5 6 
#
# 1 0.028948 -0.006317 -0.014343 0.000000 0.030162 0.000000
# 2 -0.006317 0.025235 -0.012734 0.000000 -0.000242 0.000000
# 3 -0.014343 -0.012734 0.033908 0.000000 -0.030535 0.000000
# 4 0.000000 0.000000 0.000000 0.031707 0.000000 -0.003229
# 5 0.030162 -0.000242 -0.030535 0.000000 0.101570 0.000000
# 6 0.000000 0.000000 0.000000 -0.003229 0.000000 0.033323
#
#
# Mechanical properties :
#
#
# Convention : Reuss Voigt Hill
#
# Bulk Modulus (GPa) = 46.93803 47.19995 47.06899
# Shear Modulus (GPa) = 15.21701 22.39884 18.80792
#
# Velocity S-wave (km/s) = 2.91240 3.53345 3.23785
# Velocity P-wave (km/s) = 6.12153 6.55414 6.34152
#
# Compressibility (1/GPa) = 0.02130469
#
# Stress axis : x y z
#
# Youngs Moduli (GPa) = 34.54480 39.62683 29.49134
#
# Poissons Ratio (x) = 0.25033 0.42298
# Poissons Ratio (y) = 0.21823 0.37553
# Poissons Ratio (z) = 0.49546 0.50460
#
# Static dielectric constant tensor:
#      x y z
#    x 1.573710 0.000000 -0.007770 
#    y 0.000000 1.598820 0.000000 
#    z -0.007770 0.000000 1.627200 
# 
# From -- ./inp_files/248915.got.cif
#   From: 2010.05.17/outbox.cif.g08.bks.cpg/sg12_125_cif.got.tgz:248915.got - 2010.06.03 13:09:07.
