data_PCOD9198860
_publ_section_title
;
Structure prediction by ZEFSAII (Michael W. Deem and Ramdas Pophale) SiO2 
 PCOD9198860
Probable space group: C 2/M
;
_chemical_formula_sum "Si O2"
_cell_formula_units_Z 60
_cell_length_a 24.775911
_cell_length_b 12.845275
_cell_length_c 21.144834
_cell_angle_alpha 90.000000
_cell_angle_beta 22.035098
_cell_angle_gamma 90.000000
_cell_volume 2524.704903
_symmetry_space_group_name_H-M "C 2/M"
_symmetry_group_IT_number 12
_symmetry_cell_setting 'monoclinic'
loop_
_space_group_symop_operation_xyz
x,y,z
-x,y,-z
-x,-y,-z
x,-y,z
1/2+x,1/2+y,z
1/2-x,1/2+y,-z
1/2-x,1/2-y,-z
1/2+x,1/2-y,z
loop_
_atom_site_type_symbol
_atom_site_label
_atom_site_fract_x
_atom_site_fract_y
_atom_site_fract_z
Si Si1 0.564132 0.844790 0.521969
Si Si2 0.175616 0.385380 0.896541
Si Si3 0.760039 0.844389 0.137356
Si Si4 0.317852 0.612419 0.928185
Si Si5 0.626830 0.883045 0.710721
Si Si6 0.841126 0.116971 0.588372
Si Si7 0.493324 0.188969 0.736611
Si Si8 0.724737 0.500000 0.779819
O O1 0.405116 0.882277 0.674520
O O2 0.571404 0.722561 0.495947
O O3 0.566596 0.857078 0.595148
O O4 0.690353 0.909189 0.353325
O O5 0.225126 0.500000 0.866600
O O6 0.236464 0.279542 0.860064
O O7 0.220511 0.382948 0.774536
O O8 0.007223 0.379321 0.095421
O O9 0.807946 0.874479 0.014986
O O10 0.844809 0.907972 0.098212
O O11 0.372786 0.500000 0.851406
O O12 0.152439 0.626379 0.086079
O O13 0.423116 0.702174 0.791574
O O14 0.766452 0.868106 0.601394
O O15 0.593343 0.807266 0.689068
O O16 0.631019 0.000000 0.678728
O O17 0.907324 0.000000 0.519567
#
# Coordination Sequence:
#
# PCOD9198860 Si02
#       8
#     8   8   8   8   8   8   8   4
#     4  11  24  36  56  87 119 154 191 233 290 354
#     4  10  20  36  60  88 114 142 192 248 295 341
#     4  11  20  36  61  90 115 153 192 239 303 347
#     4  10  20  36  58  87 119 150 190 243 296 351
#     4  10  20  37  61  82 108 150 193 239 285 336
#     4  10  22  39  58  81 112 151 194 241 286 341
#     4  10  22  36  56  86 115 153 193 236 288 350
#     4  12  23  38  62  87 122 159 195 238 288 363
#
# _framework density 23.765153000000002
#
# number of rings (size 3 to 8) (size 9 to 14) (size 15 to 20)
#    0.000    1.600    3.333    2.000    3.733    3.200 
#    0.000    1.333    1.467    0.800    0.000    0.000 
#    0.000    0.000    0.000    0.000    0.000    0.000 
#
# Total GULP energy -167202.064448 kJ/mol
# GULP energy per Si atom -5573.402148 kJ/mol
# Density = 2.371106 g / cm^3
# Si number density = 23.765153 Si / 1000 Ang^3
#
#
#
# Elastic Constant Matrix: (Units=GPa)
#
#
# Indices 1 2 3 4 5 6 
#
# 1 67.9624 10.8317 17.4327 -0.0008 22.2227 0.0009
# 2 10.8317 161.8142 4.2335 -0.0009 -7.9003 0.0010
# 3 17.4327 4.2335 54.6428 -0.0004 15.9144 0.0002
# 4 -0.0008 -0.0009 -0.0004 21.0226 0.0003 -1.4290
# 5 22.2227 -7.9003 15.9144 0.0003 28.2001 -0.0006
# 6 0.0009 0.0010 0.0002 -1.4290 -0.0006 0.9436
#
#
#
# Elastic Compliance Matrix: (Units=1/GPa)
#
#
# Indices 1 2 3 4 5 6 
#
# 1 0.020713 -0.002115 -0.001816 -0.000001 -0.015890 -0.000028
# 2 -0.002115 0.006547 -0.001020 0.000000 0.004076 -0.000002
# 3 -0.001816 -0.001020 0.022289 0.000000 -0.011433 -0.000010
# 4 -0.000001 0.000000 0.000000 0.053027 0.000002 0.080307
# 5 -0.015890 0.004076 -0.011433 0.000002 0.055577 0.000050
# 6 -0.000028 -0.000002 -0.000010 0.080307 0.000050 1.181404
#
#
# Mechanical properties :
#
#
# Convention : Reuss Voigt Hill
#
# Bulk Modulus (GPa) = 25.22253 38.82390 32.02322
# Shear Modulus (GPa) = 3.66926 26.82804 15.24865
#
# Velocity S-wave (km/s) = 1.24391 3.36353 2.53581
# Velocity P-wave (km/s) = 3.56362 5.60860 4.69871
#
# Compressibility (1/GPa) = 0.03964710
#
# Stress axis : x y z
#
# Youngs Moduli (GPa) = 48.27962 152.73744 44.86542
#
# Poissons Ratio (x) = 0.32300 0.08149
# Poissons Ratio (y) = 0.10210 0.04575
# Poissons Ratio (z) = 0.08769 0.15575
#
# Static dielectric constant tensor:
#      x y z
#    x 1.920630 0.000000 -0.013690 
#    y 0.000000 1.939480 0.000000 
#    z -0.013690 0.000000 1.871690 
# 
# From -- ./inp_files/325265.got.cif
#   From: 2010.05.17/outbox.cif.g08.bks.cpg/sg12_163_cif.got.tgz:325265.got - 2010.06.03 13:09:07.
