data_PCOD9198584
_publ_section_title
;
Structure prediction by ZEFSAII (Michael W. Deem and Ramdas Pophale) SiO2 
 PCOD9198584
Probable space group: C 2/M
;
_chemical_formula_sum "Si O2"
_cell_formula_units_Z 64
_cell_length_a 14.964673
_cell_length_b 8.343474
_cell_length_c 29.982612
_cell_angle_alpha 90.000000
_cell_angle_beta 60.891360
_cell_angle_gamma 90.000000
_cell_volume 3270.735236
_symmetry_space_group_name_H-M "C 2/M"
_symmetry_group_IT_number 12
_symmetry_cell_setting 'monoclinic'
loop_
_space_group_symop_operation_xyz
x,y,z
-x,y,-z
-x,-y,-z
x,-y,z
1/2+x,1/2+y,z
1/2-x,1/2+y,-z
1/2-x,1/2-y,-z
1/2+x,1/2-y,z
loop_
_atom_site_type_symbol
_atom_site_label
_atom_site_fract_x
_atom_site_fract_y
_atom_site_fract_z
Si Si1 0.102181 0.687933 0.266420
Si Si2 0.973764 0.185299 0.806634
Si Si3 0.430368 0.804428 0.377520
Si Si4 0.743097 0.693976 0.362308
Si Si5 0.309688 0.188762 0.246400
Si Si6 0.392558 0.193803 0.003976
Si Si7 0.479124 0.807228 0.554661
Si Si8 0.329337 0.808236 0.919336
O O1 0.121182 0.500000 0.269128
O O2 0.046691 0.713176 0.232973
O O3 0.209819 0.777273 0.241521
O O4 0.027202 0.746765 0.323986
O O5 0.893589 0.231539 0.864063
O O6 0.089163 0.221458 0.793866
O O7 0.963115 0.000000 0.797405
O O8 0.327653 0.753525 0.377682
O O9 0.444737 0.750059 0.424768
O O10 0.430834 0.000000 0.376759
O O11 0.736893 0.500000 0.364083
O O12 0.780013 0.741662 0.303940
O O13 0.633862 0.763671 0.401481
O O14 0.331704 0.000000 0.241995
O O15 0.289671 0.257789 0.052367
O O16 0.390275 0.000000 0.006511
O O17 0.500000 0.246542 0.000000
O O18 0.377805 0.240521 0.955538
O O19 0.500000 0.743713 0.500000
O O20 0.487743 0.000000 0.550901
O O21 0.335926 0.000000 0.914476
#
# Coordination Sequence:
#
# PCOD9198584 Si02
#       8
#     8   8   8   8   8   8   8   8
#     4  11  21  38  61  85 115 154 196 245 302 359
#     4  12  25  40  59  87 124 162 203 252 301 355
#     4   9  18  35  57  80 110 147 184 232 292 350
#     4  10  20  36  58  81 109 147 189 235 288 350
#     4  11  22  38  59  87 117 153 199 245 297 360
#     4   9  19  38  64  90 119 158 203 247 296 352
#     4  10  21  37  57  83 114 148 189 238 292 353
#     4  10  21  38  60  88 123 160 199 250 302 352
#
# _framework density 19.567466
#
# number of rings (size 3 to 8) (size 9 to 14) (size 15 to 20)
#    0.000    1.750    2.500    2.250    0.000    3.000 
#    0.000    4.375    0.000    0.000    0.000    0.000 
#    0.000    0.000    0.000    0.000    0.000    0.000 
#
# Total GULP energy -178742.094934 kJ/mol
# GULP energy per Si atom -5585.690467 kJ/mol
# Density = 1.952293 g / cm^3
# Si number density = 19.567466 Si / 1000 Ang^3
#
#
#
# Elastic Constant Matrix: (Units=GPa)
#
#
# Indices 1 2 3 4 5 6 
#
# 1 79.2535 -4.0631 -19.6517 0.0000 -10.2994 0.0000
# 2 -4.0631 17.3409 2.4072 0.0000 1.8001 0.0000
# 3 -19.6517 2.4072 39.0075 0.0000 -1.4917 0.0000
# 4 0.0000 0.0000 0.0000 23.1158 0.0000 -7.7003
# 5 -10.2994 1.8001 -1.4917 0.0000 17.1462 0.0000
# 6 0.0000 0.0000 0.0000 -7.7003 0.0000 25.5035
#
#
#
# Elastic Compliance Matrix: (Units=1/GPa)
#
#
# Indices 1 2 3 4 5 6 
#
# 1 0.016116 0.001544 0.008416 0.000000 0.010251 0.000000
# 2 0.001544 0.059031 -0.003077 0.000000 -0.005538 0.000000
# 3 0.008416 -0.003077 0.030372 0.000000 0.008021 0.000000
# 4 0.000000 0.000000 0.000000 0.048098 0.000000 0.014522
# 5 0.010251 -0.005538 0.008021 0.000000 0.065759 0.000000
# 6 0.000000 0.000000 0.000000 0.014522 0.000000 0.043595
#
#
# Mechanical properties :
#
#
# Convention : Reuss Voigt Hill
#
# Bulk Modulus (GPa) = 8.38333 10.33184 9.35759
# Shear Modulus (GPa) = 17.30303 23.61374 20.45838
#
# Velocity S-wave (km/s) = 2.97690 3.47765 3.23697
# Velocity P-wave (km/s) = 4.01367 4.62785 4.33166
#
# Compressibility (1/GPa) = 0.11928429
#
# Stress axis : x y z
#
# Youngs Moduli (GPa) = 62.05103 16.94032 32.92459
#
# Poissons Ratio (x) = -0.02615 -0.27708
# Poissons Ratio (y) = -0.09579 0.10130
# Poissons Ratio (z) = -0.52220 0.05212
#
# Static dielectric constant tensor:
#      x y z
#    x 1.675560 0.000000 0.017690 
#    y 0.000000 1.667620 0.000000 
#    z 0.017690 0.000000 1.655950 
# 
# From -- ./inp_files/375467.got.cif
#   From: 2010.05.17/outbox.cif.g08.bks.cpg/sg12_188_cif.got.tgz:375467.got - 2010.06.03 13:09:07.
