data_PCOD9198686
_publ_section_title
;
Structure prediction by ZEFSAII (Michael W. Deem and Ramdas Pophale) SiO2 
 PCOD9198686
Probable space group: C 2/M
;
_chemical_formula_sum "Si O2"
_cell_formula_units_Z 64
_cell_length_a 8.821481
_cell_length_b 28.637707
_cell_length_c 14.661260
_cell_angle_alpha 90.000000
_cell_angle_beta 120.186131
_cell_angle_gamma 90.000000
_cell_volume 3201.577790
_symmetry_space_group_name_H-M "C 2/M"
_symmetry_group_IT_number 12
_symmetry_cell_setting 'monoclinic'
loop_
_space_group_symop_operation_xyz
x,y,z
-x,y,-z
-x,-y,-z
x,-y,z
1/2+x,1/2+y,z
1/2-x,1/2+y,-z
1/2-x,1/2-y,-z
1/2+x,1/2-y,z
loop_
_atom_site_type_symbol
_atom_site_label
_atom_site_fract_x
_atom_site_fract_y
_atom_site_fract_z
Si Si1 0.070778 0.657208 0.120627
Si Si2 0.105688 0.053952 0.118562
Si Si3 0.168380 0.054616 0.609441
Si Si4 0.958355 0.391293 0.268089
Si Si5 0.751402 0.228306 0.306045
Si Si6 0.096211 0.681603 0.441629
Si Si7 0.601236 0.318048 0.338678
Si Si8 0.604103 0.407952 0.785339
O O1 0.155478 0.702633 0.193304
O O2 0.207271 0.615306 0.142242
O O3 0.960009 0.636741 0.172250
O O4 0.000000 0.669683 0.000000
O O5 0.285967 0.077471 0.206907
O O6 0.967606 0.060070 0.157454
O O7 0.145036 0.000000 0.109904
O O8 0.000000 0.074717 0.000000
O O9 0.355787 0.081291 0.662134
O O10 0.109464 0.062769 0.694943
O O11 0.000000 0.071811 0.500000
O O12 0.195374 0.000000 0.595983
O O13 0.968135 0.356141 0.356962
O O14 0.678437 0.208384 0.380119
O O15 0.696701 0.282288 0.297794
O O16 0.950386 0.211957 0.346420
O O17 0.266463 0.662607 0.545227
O O18 0.000000 0.706093 0.500000
O O19 0.515872 0.361969 0.263622
#
# Coordination Sequence:
#
# PCOD9198686 Si02
#       8
#     8   8   8   8   8   8   8   8
#     4   9  19  38  60  81 111 151 198 244 285 336
#     4  11  23  39  59  85 118 152 190 241 295 341
#     4  10  20  36  58  83 113 150 192 238 289 347
#     4  10  21  36  58  88 116 150 193 237 287 345
#     4  10  22  36  56  85 116 152 193 236 282 338
#     4  11  21  35  57  82 115 151 185 226 275 337
#     4  11  21  37  56  81 115 150 188 231 285 340
#     4  10  21  37  58  81 110 150 193 237 287 347
#
# _framework density 19.990144000000001
#
# number of rings (size 3 to 8) (size 9 to 14) (size 15 to 20)
#    0.000    1.750    0.000    5.250    0.000    1.000 
#    0.000    3.125    0.000    9.750    0.000    0.000 
#    0.000    0.000    0.000    0.000    0.000    0.000 
#
# Total GULP energy -178268.199111 kJ/mol
# GULP energy per Si atom -5570.881222 kJ/mol
# Density = 1.994465 g / cm^3
# Si number density = 19.990144 Si / 1000 Ang^3
#
#
#
# Elastic Constant Matrix: (Units=GPa)
#
#
# Indices 1 2 3 4 5 6 
#
# 1 74.9848 13.7177 47.5857 0.0000 -6.1999 0.0000
# 2 13.7177 44.5534 7.8340 0.0000 3.6979 0.0000
# 3 47.5857 7.8340 107.3254 0.0000 -14.8847 0.0000
# 4 0.0000 0.0000 0.0000 16.7093 0.0000 -1.4121
# 5 -6.1999 3.6979 -14.8847 0.0000 21.8967 0.0000
# 6 0.0000 0.0000 0.0000 -1.4121 0.0000 30.0070
#
#
#
# Elastic Compliance Matrix: (Units=1/GPa)
#
#
# Indices 1 2 3 4 5 6 
#
# 1 0.019427 -0.004603 -0.008178 0.000000 0.000719 0.000000
# 2 -0.004603 0.024440 -0.000548 0.000000 -0.005803 0.000000
# 3 -0.008178 -0.000548 0.013994 0.000000 0.007290 0.000000
# 4 0.000000 0.000000 0.000000 0.060086 0.000000 0.002828
# 5 0.000719 -0.005803 0.007290 0.000000 0.051808 0.000000
# 6 0.000000 0.000000 0.000000 0.002828 0.000000 0.033459
#
#
# Mechanical properties :
#
#
# Convention : Reuss Voigt Hill
#
# Bulk Modulus (GPa) = 32.04718 40.57093 36.30905
# Shear Modulus (GPa) = 20.80960 24.23770 22.52365
#
# Velocity S-wave (km/s) = 3.22994 3.48585 3.36033
# Velocity P-wave (km/s) = 5.47506 6.04492 5.76704
#
# Compressibility (1/GPa) = 0.03120400
#
# Stress axis : x y z
#
# Youngs Moduli (GPa) = 51.47378 40.91607 71.45711
#
# Poissons Ratio (x) = 0.18835 0.58437
# Poissons Ratio (y) = 0.23695 0.03915
# Poissons Ratio (z) = 0.42095 0.02241
#
# Static dielectric constant tensor:
#      x y z
#    x 1.750620 0.000000 0.040180 
#    y 0.000000 1.729550 0.000000 
#    z 0.040180 0.000000 1.713480 
# 
# From -- ./inp_files/201312.got.cif
#   From: 2010.05.17/outbox.cif.g08.bks.cpg/sg12_101_cif.got.tgz:201312.got - 2010.06.03 13:09:07.
