data_PCOD9198875
_publ_section_title
;
Structure prediction by ZEFSAII (Michael W. Deem and Ramdas Pophale) SiO2 
 PCOD9198875
Probable space group: C 2/M
;
_chemical_formula_sum "Si O2"
_cell_formula_units_Z 48
_cell_length_a 8.216731
_cell_length_b 30.772521
_cell_length_c 8.626054
_cell_angle_alpha 90.000000
_cell_angle_beta 87.037370
_cell_angle_gamma 90.000000
_cell_volume 2178.178551
_symmetry_space_group_name_H-M "C 2/M"
_symmetry_group_IT_number 12
_symmetry_cell_setting 'monoclinic'
loop_
_space_group_symop_operation_xyz
x,y,z
-x,y,-z
-x,-y,-z
x,-y,z
1/2+x,1/2+y,z
1/2-x,1/2+y,-z
1/2-x,1/2-y,-z
1/2+x,1/2-y,z
loop_
_atom_site_type_symbol
_atom_site_label
_atom_site_fract_x
_atom_site_fract_y
_atom_site_fract_z
Si Si1 0.826134 0.396184 0.421350
Si Si2 0.380783 0.630538 0.133934
Si Si3 0.109814 0.181889 0.360924
Si Si4 0.747352 0.952894 0.316664
Si Si5 0.588600 0.952392 0.832935
Si Si6 0.809962 0.703143 0.051916
O O1 0.712292 0.354889 0.445552
O O2 0.745558 0.438153 0.506490
O O3 0.000000 0.387774 0.500000
O O4 0.827284 0.409709 0.239815
O O5 0.482213 0.658943 0.251457
O O6 0.302458 0.589132 0.219441
O O7 0.500000 0.611226 0.000000
O O8 0.268601 0.664268 0.045389
O O9 0.244388 0.201358 0.234057
O O10 0.000000 0.205712 0.500000
O O11 0.557436 0.957047 0.283049
O O12 0.823723 0.000000 0.281707
O O13 0.672632 0.000000 0.839757
O O14 0.500000 0.944753 0.000000
O O15 0.750000 0.750000 0.000000
O O16 0.000000 0.700749 0.000000
#
# Coordination Sequence:
#
# PCOD9198875 Si02
#       6
#     8   8   8   8   8   8
#     4  10  21  36  61  89 128 179 237 281 344 392
#     4  10  23  41  64  94 139 177 225 280 343 405
#     4  11  23  42  69 101 139 181 221 285 337 414
#     4  10  20  36  58  87 134 182 233 286 339 395
#     4   9  19  32  52  84 124 171 237 296 335 398
#     4  11  26  49  78 106 137 175 220 278 349 420
#
# _framework density 22.036760000000001
#
# number of rings (size 3 to 8) (size 9 to 14) (size 15 to 20)
#    0.000    1.833    1.667    2.000    9.333    2.333 
#    0.000    5.833    0.000    0.000    0.000    0.000 
#    0.000    0.000    0.000    0.000    0.000    0.000 
#
# Total GULP energy -133688.201908 kJ/mol
# GULP energy per Si atom -5570.341746 kJ/mol
# Density = 2.198660 g / cm^3
# Si number density = 22.036760 Si / 1000 Ang^3
#
#
#
# Elastic Constant Matrix: (Units=GPa)
#
#
# Indices 1 2 3 4 5 6 
#
# 1 83.3581 29.3288 31.1920 0.0000 -17.4295 0.0000
# 2 29.3288 77.8490 28.5280 0.0000 -12.1600 0.0000
# 3 31.1920 28.5280 107.5895 0.0000 -24.5859 0.0000
# 4 0.0000 0.0000 0.0000 49.8443 0.0000 -3.6035
# 5 -17.4295 -12.1600 -24.5859 0.0000 35.7619 0.0000
# 6 0.0000 0.0000 0.0000 -3.6035 0.0000 1.7888
#
#
#
# Elastic Compliance Matrix: (Units=1/GPa)
#
#
# Indices 1 2 3 4 5 6 
#
# 1 0.015265 -0.004218 -0.002295 0.000000 0.004428 0.000000
# 2 -0.004218 0.015610 -0.002578 0.000000 0.001480 0.000000
# 3 -0.002295 -0.002578 0.012087 0.000000 0.006314 0.000000
# 4 0.000000 0.000000 0.000000 0.023482 0.000000 0.047306
# 5 0.004428 0.001480 0.006314 0.000000 0.034965 0.000000
# 6 0.000000 0.000000 0.000000 0.047306 0.000000 0.654341
#
#
# Mechanical properties :
#
#
# Convention : Reuss Voigt Hill
#
# Bulk Modulus (GPa) = 40.35734 49.65489 45.00611
# Shear Modulus (GPa) = 6.39228 29.46217 17.92722
#
# Velocity S-wave (km/s) = 1.70500 3.66041 2.85531
# Velocity P-wave (km/s) = 4.71481 6.35975 5.59803
#
# Compressibility (1/GPa) = 0.02477864
#
# Stress axis : x y z
#
# Youngs Moduli (GPa) = 65.50807 64.05954 82.73688
#
# Poissons Ratio (x) = 0.27022 0.18991
# Poissons Ratio (y) = 0.27633 0.21331
# Poissons Ratio (z) = 0.15037 0.16515
#
# Static dielectric constant tensor:
#      x y z
#    x 1.892870 0.000000 -0.082260 
#    y 0.000000 1.947480 0.000000 
#    z -0.082260 0.000000 1.916980 
# 
# From -- ./inp_files/42202.got.cif
#   From: 2010.05.17/outbox.cif.g08.bks.cpg/sg12_22_cif.got.tgz:42202.got - 2010.06.03 13:09:07.
