data_PCOD9198486
_publ_section_title
;
Structure prediction by ZEFSAII (Michael W. Deem and Ramdas Pophale) SiO2 
 PCOD9198486
Probable space group: C 2/M
;
_chemical_formula_sum "Si O2"
_cell_formula_units_Z 50
_cell_length_a 24.351220
_cell_length_b 9.069766
_cell_length_c 15.823730
_cell_angle_alpha 90.000000
_cell_angle_beta 125.835900
_cell_angle_gamma 90.000000
_cell_volume 2833.246182
_symmetry_space_group_name_H-M "C 2/M"
_symmetry_group_IT_number 12
_symmetry_cell_setting 'monoclinic'
loop_
_space_group_symop_operation_xyz
x,y,z
-x,y,-z
-x,-y,-z
x,-y,z
1/2+x,1/2+y,z
1/2-x,1/2+y,-z
1/2-x,1/2-y,-z
1/2+x,1/2-y,z
loop_
_atom_site_type_symbol
_atom_site_label
_atom_site_fract_x
_atom_site_fract_y
_atom_site_fract_z
Si Si1 0.500000 0.500000 0.000000
Si Si2 0.402272 0.662989 0.786482
Si Si3 0.768646 0.324873 0.104942
Si Si4 0.083042 0.325676 0.686037
Si Si5 0.556576 0.823893 0.346219
Si Si6 0.131725 0.826245 0.564012
Si Si7 0.281511 0.174665 0.772682
O O1 0.459630 0.625992 0.907234
O O2 0.376388 0.500000 0.735932
O O3 0.431836 0.747273 0.732822
O O4 0.342107 0.753765 0.775132
O O5 0.756270 0.500000 0.090398
O O6 0.847818 0.301355 0.199218
O O7 0.726856 0.253380 0.144238
O O8 0.750000 0.250000 0.000000
O O9 0.079846 0.500000 0.661488
O O10 0.089158 0.234037 0.605542
O O11 0.017300 0.288389 0.681431
O O12 0.610299 0.762358 0.462062
O O13 0.562057 0.000000 0.343566
O O14 0.210199 0.803561 0.659795
O O15 0.119842 0.000000 0.541665
O O16 0.291279 0.000000 0.793000
#
# Coordination Sequence:
#
# PCOD9198486 Si02
#       7
#     2   8   8   8   8   8   8
#     4   8  24  44  62  84 114 148 196 240 304 348
#     4  10  22  42  62  84 116 149 199 242 298 353
#     4  10  20  36  57  86 117 154 202 252 304 354
#     4   9  20  37  55  81 122 161 198 244 297 356
#     4  11  22  37  59  88 120 160 202 244 291 360
#     4  10  21  36  58  89 122 158 198 243 301 350
#     4  10  21  39  61  86 119 156 197 247 301 360
#
# _framework density 17.647601000000002
#
# number of rings (size 3 to 8) (size 9 to 14) (size 15 to 20)
#    0.480    1.600    0.000    2.880    0.000    7.680 
#    0.000    3.200    0.000    0.000    0.000    0.000 
#    0.000    0.000    0.000    0.000    0.000    0.000 
#
# Total GULP energy -139259.653567 kJ/mol
# GULP energy per Si atom -5570.386143 kJ/mol
# Density = 1.760743 g / cm^3
# Si number density = 17.647601 Si / 1000 Ang^3
#
#
#
# Elastic Constant Matrix: (Units=GPa)
#
#
# Indices 1 2 3 4 5 6 
#
# 1 121.5054 74.8676 71.0328 0.0000 -19.6477 0.0000
# 2 74.8676 106.2878 74.8686 0.0000 -9.1269 0.0000
# 3 71.0328 74.8686 103.5216 0.0000 -14.7822 0.0000
# 4 0.0000 0.0000 0.0000 32.0882 0.0000 -7.8808
# 5 -19.6477 -9.1269 -14.7822 0.0000 11.4325 0.0000
# 6 0.0000 0.0000 0.0000 -7.8808 0.0000 26.3140
#
#
#
# Elastic Compliance Matrix: (Units=1/GPa)
#
#
# Indices 1 2 3 4 5 6 
#
# 1 0.019631 -0.009494 -0.003518 0.000000 0.021609 0.000000
# 2 -0.009494 0.023867 -0.012701 0.000000 -0.013685 0.000000
# 3 -0.003518 -0.012701 0.023239 0.000000 0.013862 0.000000
# 4 0.000000 0.000000 0.000000 0.033638 0.000000 0.010074
# 5 0.021609 -0.013685 0.013862 0.000000 0.131606 0.000000
# 6 0.000000 0.000000 0.000000 0.010074 0.000000 0.041020
#
#
# Mechanical properties :
#
#
# Convention : Reuss Voigt Hill
#
# Bulk Modulus (GPa) = 65.31297 85.87250 75.59274
# Shear Modulus (GPa) = 15.17311 21.33666 18.25489
#
# Velocity S-wave (km/s) = 2.93539 3.48090 3.21972
# Velocity P-wave (km/s) = 6.96983 8.05734 7.53324
#
# Compressibility (1/GPa) = 0.01531090
#
# Stress axis : x y z
#
# Youngs Moduli (GPa) = 50.93981 41.89868 43.03182
#
# Poissons Ratio (x) = 0.39779 0.15139
# Poissons Ratio (y) = 0.48362 0.54653
# Poissons Ratio (z) = 0.17922 0.53214
#
# Static dielectric constant tensor:
#      x y z
#    x 1.583290 0.000000 0.014370 
#    y 0.000000 1.593120 0.000000 
#    z 0.014370 0.000000 1.576020 
# 
# From -- ./inp_files/238005.got.cif
#   From: 2010.05.17/outbox.cif.g08.bks.cpg/sg12_120_cif.got.tgz:238005.got - 2010.06.03 13:09:07.
