data_PCOD9198182
_publ_section_title
;
Structure prediction by ZEFSAII (Michael W. Deem and Ramdas Pophale) SiO2 
 PCOD9198182
Probable space group: C 2/M
;
_chemical_formula_sum "Si O2"
_cell_formula_units_Z 56
_cell_length_a 20.359899
_cell_length_b 18.677311
_cell_length_c 8.121478
_cell_angle_alpha 90.000000
_cell_angle_beta 52.361976
_cell_angle_gamma 90.000000
_cell_volume 2445.608367
_symmetry_space_group_name_H-M "C 2/M"
_symmetry_group_IT_number 12
_symmetry_cell_setting 'monoclinic'
loop_
_space_group_symop_operation_xyz
x,y,z
-x,y,-z
-x,-y,-z
x,-y,z
1/2+x,1/2+y,z
1/2-x,1/2+y,-z
1/2-x,1/2-y,-z
1/2+x,1/2-y,z
loop_
_atom_site_type_symbol
_atom_site_label
_atom_site_fract_x
_atom_site_fract_y
_atom_site_fract_z
Si Si1 0.632313 0.187675 0.540782
Si Si2 0.652915 0.816429 0.866314
Si Si3 0.025643 0.582056 0.205718
Si Si4 0.598725 0.646195 0.644532
Si Si5 0.301509 0.372701 0.815197
Si Si6 0.407070 0.337321 0.975329
Si Si7 0.668953 0.075650 0.241616
O O1 0.681600 0.183359 0.635301
O O2 0.550614 0.136999 0.675701
O O3 0.608252 0.270741 0.567812
O O4 0.682437 0.148325 0.321236
O O5 0.733938 0.814638 0.854994
O O6 0.595701 0.748252 0.991197
O O7 0.594663 0.885351 0.977987
O O8 0.002706 0.500000 0.204612
O O9 0.079572 0.581657 0.291448
O O10 0.647151 0.604916 0.425793
O O11 0.626065 0.635612 0.794266
O O12 0.500046 0.634451 0.805311
O O13 0.359327 0.351237 0.878786
O O14 0.237740 0.427396 0.995339
O O15 0.671599 0.000000 0.332095
#
# Coordination Sequence:
#
# PCOD9198182 Si02
#       7
#     8   8   8   8   8   8   8
#     4  11  21  34  58  85 125 163 200 245 288 352
#     4  10  22  35  54  89 122 160 203 245 292 351
#     4  10  20  36  56  82 123 173 211 238 282 349
#     4  10  23  37  62  94 120 155 202 246 301 365
#     4  11  24  38  63  85 123 162 197 245 309 359
#     4  10  21  40  59  89 126 152 195 254 300 356
#     4  10  24  40  56  86 123 161 208 255 296 353
#
# _framework density 22.898187
#
# number of rings (size 3 to 8) (size 9 to 14) (size 15 to 20)
#    0.000    1.714    1.429    2.143    8.000    5.143 
#    0.000    0.000    0.000    1.714    0.000    2.000 
#    0.000    0.000    0.000    0.000    0.000    0.000 
#
# Total GULP energy -156168.426762 kJ/mol
# GULP energy per Si atom -5577.443813 kJ/mol
# Density = 2.284607 g / cm^3
# Si number density = 22.898187 Si / 1000 Ang^3
#
#
#
# Elastic Constant Matrix: (Units=GPa)
#
#
# Indices 1 2 3 4 5 6 
#
# 1 97.7790 11.6559 43.0912 0.0000 16.3328 0.0000
# 2 11.6559 27.0356 16.9957 0.0000 5.9784 0.0000
# 3 43.0912 16.9957 167.4325 0.0000 3.0564 0.0000
# 4 0.0000 0.0000 0.0000 -58.9780 0.0000 24.5222
# 5 16.3328 5.9784 3.0564 0.0000 35.4659 0.0000
# 6 0.0000 0.0000 0.0000 24.5222 0.0000 -2.0295
#
#
#
# Elastic Compliance Matrix: (Units=1/GPa)
#
#
# Indices 1 2 3 4 5 6 
#
# 1 0.012671 -0.002489 -0.002914 0.000000 -0.005164 0.000000
# 2 -0.002489 0.041467 -0.003467 0.000000 -0.005545 0.000000
# 3 -0.002914 -0.003467 0.007050 0.000000 0.001319 0.000000
# 4 0.000000 0.000000 0.000000 0.004214 0.000000 0.050914
# 5 -0.005164 -0.005545 0.001319 0.000000 0.031395 0.000000
# 6 0.000000 0.000000 0.000000 0.050914 0.000000 0.122451
#
#
# Mechanical properties :
#
#
# Convention : Reuss Voigt Hill
#
# Bulk Modulus (GPa) = 23.01622 48.41474 35.71548
# Shear Modulus (GPa) = 19.88291 9.59197 14.73744
#
# Velocity S-wave (km/s) = 2.94992 2.04892 2.53969
# Velocity P-wave (km/s) = 4.65576 5.17560 4.92254
#
# Compressibility (1/GPa) = 0.04344763
#
# Stress axis : x y z
#
# Youngs Moduli (GPa) = 78.92200 24.11545 141.83506
#
# Poissons Ratio (x) = 0.06002 0.41332
# Poissons Ratio (y) = 0.19642 0.49181
# Poissons Ratio (z) = 0.22999 0.08362
#
# Static dielectric constant tensor:
#      x y z
#    x 1.881500 0.000000 0.021610 
#    y 0.000000 1.835890 0.000000 
#    z 0.021610 0.000000 1.934650 
# 
# From -- ./inp_files/89510.got.cif
#   From: 2010.05.17/outbox.cif.g08.bks.cpg/sg12_45_cif.got.tgz:89510.got - 2010.06.03 13:09:07.
