data_PCOD9198973
_publ_section_title
;
Structure prediction by ZEFSAII (Michael W. Deem and Ramdas Pophale) SiO2 
 PCOD9198973
Probable space group: C 2/M
;
_chemical_formula_sum "Si O2"
_cell_formula_units_Z 48
_cell_length_a 18.708549
_cell_length_b 15.416762
_cell_length_c 18.164636
_cell_angle_alpha 90.000000
_cell_angle_beta 31.117220
_cell_angle_gamma 90.000000
_cell_volume 2707.538390
_symmetry_space_group_name_H-M "C 2/M"
_symmetry_group_IT_number 12
_symmetry_cell_setting 'monoclinic'
loop_
_space_group_symop_operation_xyz
x,y,z
-x,y,-z
-x,-y,-z
x,-y,z
1/2+x,1/2+y,z
1/2-x,1/2+y,-z
1/2-x,1/2-y,-z
1/2+x,1/2-y,z
loop_
_atom_site_type_symbol
_atom_site_label
_atom_site_fract_x
_atom_site_fract_y
_atom_site_fract_z
Si Si1 0.113957 0.747299 0.793119
Si Si2 0.814149 0.898637 0.883060
Si Si3 0.327144 0.838073 0.406411
Si Si4 0.894687 0.904214 0.302701
Si Si5 0.293510 0.750492 0.125058
Si Si6 0.374587 0.102720 0.806237
O O1 0.145504 0.673515 0.704518
O O2 0.148548 0.837722 0.722254
O O3 0.196029 0.738758 0.796585
O O4 0.951112 0.750771 0.955971
O O5 0.778633 0.832362 0.850067
O O6 0.960911 0.873928 0.789534
O O7 0.820077 0.000000 0.855254
O O8 0.702048 0.890909 0.047136
O O9 0.250000 0.750000 0.500000
O O10 0.217487 0.906407 0.533452
O O11 0.472616 0.857949 0.317279
O O12 0.917101 0.000000 0.252155
O O13 0.213508 0.663235 0.171082
O O14 0.379383 0.000000 0.782336
#
# Coordination Sequence:
#
# PCOD9198973 Si02
#       6
#     8   8   8   8   8   8
#     4  10  21  34  56  84 114 148 187 230 295 346
#     4  10  20  36  59  83 110 149 196 239 277 333
#     4  10  20  37  57  80 110 151 191 231 275 334
#     4  10  20  37  58  82 111 146 188 234 283 342
#     4  11  20  36  57  84 119 148 181 242 291 341
#     4  11  21  35  59  87 113 149 197 237 278 337
#
# _framework density 17.728282
#
# number of rings (size 3 to 8) (size 9 to 14) (size 15 to 20)
#    0.000    1.667    3.333    3.000    0.000    0.667 
#    0.000   12.500    0.000    7.000    0.000    0.000 
#    0.000    0.000    0.000    0.000    0.000    0.000 
#
# Total GULP energy -133808.537669 kJ/mol
# GULP energy per Si atom -5575.355736 kJ/mol
# Density = 1.768793 g / cm^3
# Si number density = 17.728282 Si / 1000 Ang^3
#
#
#
# Elastic Constant Matrix: (Units=GPa)
#
#
# Indices 1 2 3 4 5 6 
#
# 1 77.8679 32.0659 24.6946 -0.0001 6.5443 0.0000
# 2 32.0659 64.3021 5.7933 0.0000 0.5634 0.0000
# 3 24.6946 5.7933 84.9757 0.0007 -7.9787 -0.0003
# 4 -0.0001 0.0000 0.0007 19.8696 -0.0002 1.1963
# 5 6.5443 0.5634 -7.9787 -0.0002 27.5760 0.0000
# 6 0.0000 0.0000 -0.0003 1.1963 0.0000 3.4899
#
#
#
# Elastic Compliance Matrix: (Units=1/GPa)
#
#
# Indices 1 2 3 4 5 6 
#
# 1 0.018638 -0.008760 -0.005363 0.000000 -0.005796 -0.000001
# 2 -0.008760 0.019776 0.001393 0.000000 0.002078 0.000000
# 3 -0.005363 0.001393 0.013721 -0.000001 0.005214 0.000001
# 4 0.000000 0.000000 -0.000001 0.051389 0.000000 -0.017615
# 5 -0.005796 0.002078 0.005214 0.000000 0.039105 0.000000
# 6 -0.000001 0.000000 0.000001 -0.017615 0.000000 0.292577
#
#
# Mechanical properties :
#
#
# Convention : Reuss Voigt Hill
#
# Bulk Modulus (GPa) = 37.48999 39.13928 38.31463
# Shear Modulus (GPa) = 10.64828 21.15991 15.90410
#
# Velocity S-wave (km/s) = 2.45345 3.45855 2.99842
# Velocity P-wave (km/s) = 5.40544 6.17042 5.80055
#
# Compressibility (1/GPa) = 0.02667379
#
# Stress axis : x y z
#
# Youngs Moduli (GPa) = 53.65487 50.56533 72.87937
#
# Poissons Ratio (x) = 0.44296 0.39087
# Poissons Ratio (y) = 0.47003 -0.10149
# Poissons Ratio (z) = 0.28776 -0.07042
#
# Static dielectric constant tensor:
#      x y z
#    x 1.578070 0.000000 -0.005840 
#    y 0.000000 1.670220 0.000000 
#    z -0.005840 0.000000 1.629270 
# 
# From -- ./inp_files/88140.got.cif
#   From: 2010.05.17/outbox.cif.g08.bks.cpg/sg12_45_cif.got.tgz:88140.got - 2010.06.03 13:09:07.
