data_PCOD9198323
_publ_section_title
;
Structure prediction by ZEFSAII (Michael W. Deem and Ramdas Pophale) SiO2 
 PCOD9198323
Probable space group: C 2/M
;
_chemical_formula_sum "Si O2"
_cell_formula_units_Z 48
_cell_length_a 14.548182
_cell_length_b 23.851706
_cell_length_c 9.745658
_cell_angle_alpha 90.000000
_cell_angle_beta 46.978869
_cell_angle_gamma 90.000000
_cell_volume 2472.392328
_symmetry_space_group_name_H-M "C 2/M"
_symmetry_group_IT_number 12
_symmetry_cell_setting 'monoclinic'
loop_
_space_group_symop_operation_xyz
x,y,z
-x,y,-z
-x,-y,-z
x,-y,z
1/2+x,1/2+y,z
1/2-x,1/2+y,-z
1/2-x,1/2-y,-z
1/2+x,1/2-y,z
loop_
_atom_site_type_symbol
_atom_site_label
_atom_site_fract_x
_atom_site_fract_y
_atom_site_fract_z
Si Si1 0.883211 0.567445 0.526025
Si Si2 0.139287 0.132154 0.331348
Si Si3 0.133774 0.788854 0.580831
Si Si4 0.364458 0.369016 0.172902
Si Si5 0.359867 0.292333 0.922742
Si Si6 0.876366 0.432414 0.212352
O O1 0.881683 0.500000 0.530770
O O2 0.754101 0.591071 0.718849
O O3 0.891878 0.584247 0.356581
O O4 0.000000 0.587017 0.500000
O O5 0.142231 0.189475 0.417634
O O6 0.150074 0.152743 0.164470
O O7 0.253175 0.094583 0.269021
O O8 0.000000 0.107264 0.500000
O O9 0.250000 0.750000 0.500000
O O10 0.135938 0.844294 0.673687
O O11 0.995700 0.764644 0.753163
O O12 0.500000 0.395268 0.000000
O O13 0.353773 0.315534 0.082983
O O14 0.250000 0.250000 0.000000
O O15 0.865236 0.500000 0.219436
O O16 0.000000 0.416256 0.000000
#
# Coordination Sequence:
#
# PCOD9198323 Si02
#       6
#     8   8   8   8   8   8
#     4  10  22  40  61  87 118 152 193 241 291 346
#     4  10  21  38  59  84 116 153 191 237 288 342
#     4  10  20  36  57  80 113 153 192 237 285 338
#     4  10  21  38  59  84 116 153 191 237 288 342
#     4  10  22  36  55  86 117 147 192 239 283 342
#     4  10  22  40  61  87 118 152 193 241 291 346
#
# _framework density 19.414394999999999
#
# number of rings (size 3 to 8) (size 9 to 14) (size 15 to 20)
#    0.000    2.000    1.667    1.000    2.333    3.333 
#    0.000    0.000    0.000    0.000    0.000    0.000 
#    0.000    0.000    0.000    0.000    0.000    0.000 
#
# Total GULP energy -133941.726893 kJ/mol
# GULP energy per Si atom -5580.905287 kJ/mol
# Density = 1.937021 g / cm^3
# Si number density = 19.414395 Si / 1000 Ang^3
#
#
#
# Elastic Constant Matrix: (Units=GPa)
#
#
# Indices 1 2 3 4 5 6 
#
# 1 143.2093 30.4647 59.9475 0.0000 -39.0744 0.0000
# 2 30.4647 14.9837 29.3678 0.0000 -18.4067 0.0000
# 3 59.9475 29.3678 103.2110 0.0000 -32.5173 0.0000
# 4 0.0000 0.0000 0.0000 15.8093 0.0000 -9.8593
# 5 -39.0744 -18.4067 -32.5173 0.0000 48.6581 0.0000
# 6 0.0000 0.0000 0.0000 -9.8593 0.0000 40.1409
#
#
#
# Elastic Compliance Matrix: (Units=1/GPa)
#
#
# Indices 1 2 3 4 5 6 
#
# 1 0.012321 -0.023824 -0.000126 0.000000 0.000798 0.000000
# 2 -0.023824 0.270995 -0.046870 0.000000 0.052060 0.000000
# 3 -0.000126 -0.046870 0.022143 0.000000 -0.003034 0.000000
# 4 0.000000 0.000000 0.000000 0.074696 0.000000 0.018347
# 5 0.000798 0.052060 -0.003034 0.000000 0.038858 0.000000
# 6 0.000000 0.000000 0.000000 0.018347 0.000000 0.029419
#
#
# Mechanical properties :
#
#
# Convention : Reuss Voigt Hill
#
# Bulk Modulus (GPa) = 6.10430 55.66265 30.88348
# Shear Modulus (GPa) = 7.75581 30.36324 19.05952
#
# Velocity S-wave (km/s) = 2.00089 3.95898 3.13664
# Velocity P-wave (km/s) = 2.91361 7.04493 5.39074
#
# Compressibility (1/GPa) = 0.16381886
#
# Stress axis : x y z
#
# Youngs Moduli (GPa) = 81.15949 3.69011 45.16169
#
# Poissons Ratio (x) = 0.08791 0.00570
# Poissons Ratio (y) = 1.93356 2.11671
# Poissons Ratio (z) = 0.01025 0.17295
#
# Static dielectric constant tensor:
#      x y z
#    x 1.678460 0.000000 -0.011450 
#    y 0.000000 1.642770 0.000000 
#    z -0.011450 0.000000 1.677160 
# 
# From -- ./inp_files/52447.got.cif
#   From: 2010.05.17/outbox.cif.g08.bks.cpg/sg12_27_cif.got.tgz:52447.got - 2010.06.03 13:09:07.
