data_PCOD9198844
_publ_section_title
;
Structure prediction by ZEFSAII (Michael W. Deem and Ramdas Pophale) SiO2 
 PCOD9198844
Probable space group: C 2/M
;
_chemical_formula_sum "Si O2"
_cell_formula_units_Z 64
_cell_length_a 26.413896
_cell_length_b 14.065554
_cell_length_c 9.443196
_cell_angle_alpha 90.000000
_cell_angle_beta 71.613483
_cell_angle_gamma 90.000000
_cell_volume 3329.291033
_symmetry_space_group_name_H-M "C 2/M"
_symmetry_group_IT_number 12
_symmetry_cell_setting 'monoclinic'
loop_
_space_group_symop_operation_xyz
x,y,z
-x,y,-z
-x,-y,-z
x,-y,z
1/2+x,1/2+y,z
1/2-x,1/2+y,-z
1/2-x,1/2-y,-z
1/2+x,1/2-y,z
loop_
_atom_site_type_symbol
_atom_site_label
_atom_site_fract_x
_atom_site_fract_y
_atom_site_fract_z
Si Si1 0.184311 0.611670 0.215688
Si Si2 0.474868 0.213679 0.166870
Si Si3 0.635194 0.886248 0.790675
Si Si4 0.734684 0.115013 0.893307
Si Si5 0.938634 0.388447 0.706797
Si Si6 0.945244 0.216970 0.493727
Si Si7 0.657589 0.612365 0.373830
Si Si8 0.191803 0.725079 0.499011
O O1 0.191736 0.500000 0.244726
O O2 0.124589 0.618550 0.202145
O O3 0.189751 0.675424 0.348492
O O4 0.227689 0.642807 0.061922
O O5 0.425059 0.151934 0.152094
O O6 0.521279 0.154338 0.210243
O O7 0.450251 0.276284 0.318576
O O8 0.500000 0.257361 0.000000
O O9 0.681362 0.851525 0.858665
O O10 0.659589 0.846949 0.623924
O O11 0.633547 0.000000 0.797800
O O12 0.791160 0.135424 0.769536
O O13 0.731151 0.000000 0.894246
O O14 0.950471 0.500000 0.673630
O O15 0.942704 0.324254 0.560892
O O16 0.898659 0.159266 0.613966
O O17 0.000000 0.173820 0.500000
O O18 0.654388 0.500000 0.390984
O O19 0.666637 0.670191 0.510510
O O20 0.250000 0.750000 0.500000
#
# Coordination Sequence:
#
# PCOD9198844 Si02
#       8
#     8   8   8   8   8   8   8   8
#     4  10  20  37  60  88 124 155 188 230 286 351
#     4  11  22  35  56  87 125 157 190 235 286 351
#     4  11  21  36  57  85 124 158 193 232 282 351
#     4   9  20  36  58  88 119 156 190 233 286 343
#     4  10  20  36  58  86 123 161 193 227 277 352
#     4  10  22  40  59  86 109 149 201 244 297 347
#     4  11  22  41  63  83 112 148 200 251 290 341
#     4  12  23  38  58  91 114 155 198 234 295 346
#
# _framework density 19.223312
#
# number of rings (size 3 to 8) (size 9 to 14) (size 15 to 20)
#    0.000    1.500    3.750    1.500    0.000    7.000 
#    0.000    0.000    0.000    0.375    0.000    0.000 
#    0.000    0.000    0.000    0.000    0.000    0.000 
#
# Total GULP energy -178162.308735 kJ/mol
# GULP energy per Si atom -5567.572148 kJ/mol
# Density = 1.917956 g / cm^3
# Si number density = 19.223312 Si / 1000 Ang^3
#
#
#
# Elastic Constant Matrix: (Units=GPa)
#
#
# Indices 1 2 3 4 5 6 
#
# 1 123.4535 21.8578 30.4038 0.0000 -10.7565 0.0000
# 2 21.8578 57.3948 20.7512 0.0000 -0.3630 0.0000
# 3 30.4038 20.7512 113.6764 0.0000 -0.2820 0.0000
# 4 0.0000 0.0000 0.0000 15.2948 0.0000 -5.9464
# 5 -10.7565 -0.3630 -0.2820 0.0000 19.5429 0.0000
# 6 0.0000 0.0000 0.0000 -5.9464 0.0000 19.9491
#
#
#
# Elastic Compliance Matrix: (Units=1/GPa)
#
#
# Indices 1 2 3 4 5 6 
#
# 1 0.009558 -0.002878 -0.002018 0.000000 0.005178 0.000000
# 2 -0.002878 0.019522 -0.002797 0.000000 -0.001262 0.000000
# 3 -0.002018 -0.002797 0.009845 0.000000 -0.001021 0.000000
# 4 0.000000 0.000000 0.000000 0.073952 0.000000 0.022044
# 5 0.005178 -0.001262 -0.001021 0.000000 0.053981 0.000000
# 6 0.000000 0.000000 0.000000 0.022044 0.000000 0.056698
#
#
# Mechanical properties :
#
#
# Convention : Reuss Voigt Hill
#
# Bulk Modulus (GPa) = 42.48248 48.95002 45.71625
# Shear Modulus (GPa) = 20.26022 25.72482 22.99252
#
# Velocity S-wave (km/s) = 3.24997 3.66212 3.46218
# Velocity P-wave (km/s) = 6.01918 6.58792 6.30996
#
# Compressibility (1/GPa) = 0.02353911
#
# Stress axis : x y z
#
# Youngs Moduli (GPa) = 104.62551 51.22321 101.57659
#
# Poissons Ratio (x) = 0.14740 0.20500
# Poissons Ratio (y) = 0.30106 0.28414
# Poissons Ratio (z) = 0.21116 0.14328
#
# Static dielectric constant tensor:
#      x y z
#    x 2.427600 0.000000 -0.577930 
#    y 0.000000 1.682170 0.000000 
#    z -0.577930 0.000000 2.272550 
# 
# From -- ./inp_files/104493.got.cif
#   From: 2010.05.17/outbox.cif.g08.bks.cpg/sg12_53_cif.got.tgz:104493.got - 2010.06.03 13:09:07.
