data_PCOD9198424
_publ_section_title
;
Structure prediction by ZEFSAII (Michael W. Deem and Ramdas Pophale) SiO2 
 PCOD9198424
Probable space group: C 2/M
;
_chemical_formula_sum "Si O2"
_cell_formula_units_Z 56
_cell_length_a 30.807635
_cell_length_b 8.642667
_cell_length_c 14.436432
_cell_angle_alpha 90.000000
_cell_angle_beta 48.335620
_cell_angle_gamma 90.000000
_cell_volume 2871.551513
_symmetry_space_group_name_H-M "C 2/M"
_symmetry_group_IT_number 12
_symmetry_cell_setting 'monoclinic'
loop_
_space_group_symop_operation_xyz
x,y,z
-x,y,-z
-x,-y,-z
x,-y,z
1/2+x,1/2+y,z
1/2-x,1/2+y,-z
1/2-x,1/2-y,-z
1/2+x,1/2-y,z
loop_
_atom_site_type_symbol
_atom_site_label
_atom_site_fract_x
_atom_site_fract_y
_atom_site_fract_z
Si Si1 0.687331 0.817513 0.621480
Si Si2 0.630168 0.680592 0.531206
Si Si3 0.809001 0.817338 0.875512
Si Si4 0.484252 0.310643 0.416901
Si Si5 0.155156 0.816131 0.866724
Si Si6 0.713853 0.178741 0.278938
Si Si7 0.084132 0.815594 0.136682
O O1 0.750000 0.750000 0.500000
O O2 0.639083 0.769780 0.614047
O O3 0.666005 0.757608 0.751503
O O4 0.694034 0.000000 0.614546
O O5 0.621677 0.500000 0.562880
O O6 0.578694 0.732179 0.535029
O O7 0.689777 0.710132 0.391748
O O8 0.819068 0.723675 0.767521
O O9 0.860818 0.799104 0.873897
O O10 0.803048 0.000000 0.863154
O O11 0.750000 0.750000 0.000000
O O12 0.500000 0.260261 0.500000
O O13 0.486422 0.500000 0.416882
O O14 0.530168 0.256189 0.273608
O O15 0.217236 0.800007 0.830882
O O16 0.146009 0.000000 0.866375
O O17 0.104606 0.755040 0.006938
O O18 0.704108 0.000000 0.319044
O O19 0.074048 0.000000 0.138171
#
# Coordination Sequence:
#
# PCOD9198424 Si02
#       7
#     8   8   8   8   8   8   8
#     4  12  24  39  60  87 120 156 195 245 300 358
#     4  11  22  37  61  90 116 152 198 245 297 352
#     4  11  20  32  52  81 117 153 192 239 296 357
#     4   9  18  35  61  91 119 151 199 248 288 342
#     4  10  20  36  57  83 116 154 194 240 294 351
#     4  11  21  34  53  82 118 155 191 239 293 353
#     4   9  18  35  57  82 116 155 195 247 296 341
#
# _framework density 19.501652
#
# number of rings (size 3 to 8) (size 9 to 14) (size 15 to 20)
#    0.000    1.571    2.857    3.429    0.000    2.857 
#    0.000    0.714    0.000   15.429    0.000    0.000 
#    0.000    0.000    0.000    0.000    0.000    0.000 
#
# Total GULP energy -156186.091106 kJ/mol
# GULP energy per Si atom -5578.074682 kJ/mol
# Density = 1.945727 g / cm^3
# Si number density = 19.501652 Si / 1000 Ang^3
#
#
#
# Elastic Constant Matrix: (Units=GPa)
#
#
# Indices 1 2 3 4 5 6 
#
# 1 78.9344 27.2710 50.4587 0.0000 15.5661 0.0000
# 2 27.2710 41.0082 24.8772 0.0000 5.5983 0.0000
# 3 50.4587 24.8772 129.2771 0.0000 21.9528 0.0000
# 4 0.0000 0.0000 0.0000 20.0347 0.0000 6.8203
# 5 15.5661 5.5983 21.9528 0.0000 35.4339 0.0000
# 6 0.0000 0.0000 0.0000 6.8203 0.0000 22.1235
#
#
#
# Elastic Compliance Matrix: (Units=1/GPa)
#
#
# Indices 1 2 3 4 5 6 
#
# 1 0.020219 -0.009649 -0.005348 0.000000 -0.004044 0.000000
# 2 -0.009649 0.032259 -0.002566 0.000000 0.000732 0.000000
# 3 -0.005348 -0.002566 0.011007 0.000000 -0.004064 0.000000
# 4 0.000000 0.000000 0.000000 0.055766 0.000000 -0.017192
# 5 -0.004044 0.000732 -0.004064 0.000000 0.032401 0.000000
# 6 0.000000 0.000000 0.000000 -0.017192 0.000000 0.050501
#
#
# Mechanical properties :
#
#
# Convention : Reuss Voigt Hill
#
# Bulk Modulus (GPa) = 35.26329 50.49262 42.87796
# Shear Modulus (GPa) = 20.26503 25.29259 22.77881
#
# Velocity S-wave (km/s) = 3.22707 3.60522 3.42138
# Velocity P-wave (km/s) = 5.65745 6.57859 6.13533
#
# Compressibility (1/GPa) = 0.02835810
#
# Stress axis : x y z
#
# Youngs Moduli (GPa) = 49.45899 30.99931 90.85423
#
# Poissons Ratio (x) = 0.29912 0.48590
# Poissons Ratio (y) = 0.47724 0.23310
# Poissons Ratio (z) = 0.26451 0.07953
#
# Static dielectric constant tensor:
#      x y z
#    x 1.686390 0.000000 0.013570 
#    y 0.000000 1.671050 0.000000 
#    z 0.013570 0.000000 1.719360 
# 
# From -- ./inp_files/248905.got.cif
#   From: 2010.05.17/outbox.cif.g08.bks.cpg/sg12_125_cif.got.tgz:248905.got - 2010.06.03 13:09:07.
