data_PCOD9198942
_publ_section_title
;
Structure prediction by ZEFSAII (Michael W. Deem and Ramdas Pophale) SiO2 
 PCOD9198942
Probable space group: C 2/M
;
_chemical_formula_sum "Si O2"
_cell_formula_units_Z 64
_cell_length_a 15.343659
_cell_length_b 24.756046
_cell_length_c 12.719984
_cell_angle_alpha 90.000000
_cell_angle_beta 137.305674
_cell_angle_gamma 90.000000
_cell_volume 3276.288449
_symmetry_space_group_name_H-M "C 2/M"
_symmetry_group_IT_number 12
_symmetry_cell_setting 'monoclinic'
loop_
_space_group_symop_operation_xyz
x,y,z
-x,y,-z
-x,-y,-z
x,-y,z
1/2+x,1/2+y,z
1/2-x,1/2+y,-z
1/2-x,1/2-y,-z
1/2+x,1/2-y,z
loop_
_atom_site_type_symbol
_atom_site_label
_atom_site_fract_x
_atom_site_fract_y
_atom_site_fract_z
Si Si1 0.897655 0.308130 0.817661
Si Si2 0.375076 0.726558 0.320077
Si Si3 0.375637 0.358155 0.136084
Si Si4 0.271549 0.159715 0.190792
Si Si5 0.647558 0.060002 0.598468
Si Si6 0.395714 0.690737 0.771226
Si Si7 0.474761 0.436754 0.601465
Si Si8 0.273704 0.126060 0.531238
O O1 0.756054 0.293181 0.739037
O O2 0.941855 0.252106 0.802815
O O3 0.871154 0.352806 0.705823
O O4 0.000000 0.321900 0.000000
O O5 0.500000 0.714289 0.500000
O O6 0.381218 0.692058 0.219866
O O7 0.370211 0.790776 0.292925
O O8 0.495629 0.351308 0.163986
O O9 0.404473 0.411345 0.228760
O O10 0.254098 0.352642 0.953233
O O11 0.298304 0.104085 0.273383
O O12 0.151350 0.182784 0.151607
O O13 0.500000 0.056066 0.500000
O O14 0.665924 0.084673 0.498798
O O15 0.705930 0.000000 0.656471
O O16 0.280001 0.676128 0.587650
O O17 0.500000 0.430739 0.500000
O O18 0.457403 0.500000 0.610111
O O19 0.348884 0.402660 0.522874
#
# Coordination Sequence:
#
# PCOD9198942 Si02
#       8
#     8   8   8   8   8   8   8   8
#     4  11  22  36  56  85 120 152 189 238 293 347
#     4  11  22  37  57  86 120 155 192 231 284 355
#     4  11  20  34  57  84 116 147 185 239 293 339
#     4  10  21  35  54  82 115 148 187 237 291 344
#     4  10  22  39  56  75 104 145 195 242 282 339
#     4   9  19  35  52  79 115 151 184 222 282 354
#     4  10  21  38  60  84 111 148 195 242 291 351
#     4  10  20  36  59  81 107 150 192 235 288 349
#
# _framework density 19.534299000000001
#
# number of rings (size 3 to 8) (size 9 to 14) (size 15 to 20)
#    0.000    1.750    0.000    6.000    0.000    4.500 
#    0.000    0.000    0.000    7.500    0.000    0.000 
#    0.000    0.000    0.000    0.000    0.000    0.000 
#
# Total GULP energy -178570.154407 kJ/mol
# GULP energy per Si atom -5580.317325 kJ/mol
# Density = 1.948984 g / cm^3
# Si number density = 19.534299 Si / 1000 Ang^3
#
#
#
# Elastic Constant Matrix: (Units=GPa)
#
#
# Indices 1 2 3 4 5 6 
#
# 1 47.3010 19.1665 31.2037 0.0000 -15.5505 0.0000
# 2 19.1665 130.4118 62.3681 0.0000 -27.5896 0.0000
# 3 31.2037 62.3681 130.6558 0.0000 -26.3617 0.0000
# 4 0.0000 0.0000 0.0000 -4.3886 0.0000 2.7939
# 5 -15.5505 -27.5896 -26.3617 0.0000 28.6823 0.0000
# 6 0.0000 0.0000 0.0000 2.7939 0.0000 24.8022
#
#
#
# Elastic Compliance Matrix: (Units=1/GPa)
#
#
# Indices 1 2 3 4 5 6 
#
# 1 0.027661 0.000508 -0.004572 0.000000 0.011284 0.000000
# 2 0.000508 0.010998 -0.003905 0.000000 0.007265 0.000000
# 3 -0.004572 -0.003905 0.011481 0.000000 0.004316 0.000000
# 4 0.000000 0.000000 0.000000 -0.212616 0.000000 0.023951
# 5 0.011284 0.007265 0.004316 0.000000 0.051938 0.000000
# 6 0.000000 0.000000 0.000000 0.023951 0.000000 0.037621
#
#
# Mechanical properties :
#
#
# Convention : Reuss Voigt Hill
#
# Bulk Modulus (GPa) = 29.23858 59.31616 44.27737
# Shear Modulus (GPa) = -109.70191 22.86119 -43.42036
#
# Velocity S-wave (km/s) = -7.50203 3.42469 -4.71975
# Velocity P-wave (km/s) = 7.74857 6.78742 2.64304
#
# Compressibility (1/GPa) = 0.03420139
#
# Stress axis : x y z
#
# Youngs Moduli (GPa) = 36.15210 90.92522 87.10204
#
# Poissons Ratio (x) = -0.04623 0.39824
# Poissons Ratio (y) = -0.01838 0.34017
# Poissons Ratio (z) = 0.16529 0.35510
#
# Static dielectric constant tensor:
#      x y z
#    x 1.907190 0.000000 0.183470 
#    y 0.000000 1.704260 0.000000 
#    z 0.183470 0.000000 1.859420 
# 
# From -- ./inp_files/149796.got.cif
#   From: 2010.05.17/outbox.cif.g08.bks.cpg/sg12_75_cif.got.tgz:149796.got - 2010.06.03 13:09:07.
