data_PCOD9198052
_publ_section_title
;
Structure prediction by ZEFSAII (Michael W. Deem and Ramdas Pophale) SiO2 
 PCOD9198052
Probable space group: C 2/M
;
_chemical_formula_sum "Si O2"
_cell_formula_units_Z 56
_cell_length_a 19.401873
_cell_length_b 8.685733
_cell_length_c 29.554348
_cell_angle_alpha 90.000000
_cell_angle_beta 34.063225
_cell_angle_gamma 90.000000
_cell_volume 2789.605690
_symmetry_space_group_name_H-M "C 2/M"
_symmetry_group_IT_number 12
_symmetry_cell_setting 'monoclinic'
loop_
_space_group_symop_operation_xyz
x,y,z
-x,y,-z
-x,-y,-z
x,-y,z
1/2+x,1/2+y,z
1/2-x,1/2+y,-z
1/2-x,1/2-y,-z
1/2+x,1/2-y,z
loop_
_atom_site_type_symbol
_atom_site_label
_atom_site_fract_x
_atom_site_fract_y
_atom_site_fract_z
Si Si1 0.607352 0.822810 0.983657
Si Si2 0.698670 0.312445 0.397271
Si Si3 0.105352 0.815284 0.274044
Si Si4 0.019192 0.315548 0.749374
Si Si5 0.658434 0.326682 0.085692
Si Si6 0.014342 0.812796 0.419554
Si Si7 0.871307 0.818580 0.126989
O O1 0.503669 0.744924 0.072035
O O2 0.568048 0.000000 0.000194
O O3 0.745144 0.832211 0.925628
O O4 0.618610 0.727043 0.931476
O O5 0.700327 0.500000 0.396083
O O6 0.838809 0.261546 0.326950
O O7 0.629940 0.264742 0.388239
O O8 0.609045 0.264125 0.487074
O O9 0.026900 0.765368 0.360737
O O10 0.244949 0.762576 0.209486
O O11 0.051374 0.746798 0.256844
O O12 0.104576 0.000000 0.270404
O O13 0.015212 0.500000 0.749443
O O14 0.955270 0.262999 0.830997
O O15 0.624895 0.500000 0.090096
O O16 0.750000 0.250000 0.000000
O O17 0.014988 0.000000 0.419298
O O18 0.863310 0.000000 0.137855
#
# Coordination Sequence:
#
# PCOD9198052 Si02
#       7
#     8   8   8   8   8   8   8
#     4  10  20  36  56  77 105 143 186 230 278 338
#     4   8  16  34  58  85 113 147 191 239 287 340
#     4  11  21  34  55  85 119 154 193 236 289 350
#     4  11  22  36  58  86 118 151 190 239 293 349
#     4  11  24  40  59  81 112 151 193 236 285 343
#     4   8  16  33  58  84 113 148 191 239 285 340
#     4  11  21  33  54  80 108 143 183 234 285 331
#
# _framework density 20.074521000000001
#
# number of rings (size 3 to 8) (size 9 to 14) (size 15 to 20)
#    0.000    2.000    1.429    4.714    0.000    3.429 
#    0.000    2.857    0.000    5.143    0.000    8.000 
#    0.000    0.000    0.000    0.000    0.000    0.000 
#
# Total GULP energy -156003.297234 kJ/mol
# GULP energy per Si atom -5571.546330 kJ/mol
# Density = 2.002883 g / cm^3
# Si number density = 20.074521 Si / 1000 Ang^3
#
#
#
# Elastic Constant Matrix: (Units=GPa)
#
#
# Indices 1 2 3 4 5 6 
#
# 1 30.4348 13.2809 50.0817 -0.0001 -0.8102 -0.0004
# 2 13.2809 63.7780 32.1175 -0.0001 -3.0776 -0.0006
# 3 50.0817 32.1175 151.7738 0.0000 -2.2288 0.0000
# 4 -0.0001 -0.0001 0.0000 24.8653 0.0000 -2.2228
# 5 -0.8102 -3.0776 -2.2288 0.0000 36.9865 0.0000
# 6 -0.0004 -0.0006 0.0000 -2.2228 0.0000 19.6539
#
#
#
# Elastic Compliance Matrix: (Units=1/GPa)
#
#
# Indices 1 2 3 4 5 6 
#
# 1 0.072555 -0.003420 -0.023219 0.000000 -0.000095 0.000001
# 2 -0.003420 0.017768 -0.002613 0.000000 0.001246 0.000000
# 3 -0.023219 -0.002613 0.014806 0.000000 0.000166 0.000000
# 4 0.000000 0.000000 0.000000 0.040627 0.000000 0.004595
# 5 -0.000095 0.001246 0.000166 0.000000 0.027149 0.000000
# 6 0.000001 0.000000 0.000000 0.004595 0.000000 0.051400
#
#
# Mechanical properties :
#
#
# Convention : Reuss Voigt Hill
#
# Bulk Modulus (GPa) = 21.44833 48.54964 34.99899
# Shear Modulus (GPa) = 16.75883 26.33491 21.54687
#
# Velocity S-wave (km/s) = 2.89248 3.62589 3.27975
# Velocity P-wave (km/s) = 4.67577 6.46271 5.64045
#
# Compressibility (1/GPa) = 0.04662367
#
# Stress axis : x y z
#
# Youngs Moduli (GPa) = 13.78267 56.28220 67.54104
#
# Poissons Ratio (x) = 0.19251 1.56823
# Poissons Ratio (y) = 0.04714 0.17648
# Poissons Ratio (z) = 0.32002 0.14706
#
# Static dielectric constant tensor:
#      x y z
#    x 1.866210 0.000000 -0.017050 
#    y 0.000000 1.700610 0.000000 
#    z -0.017050 0.000000 1.745910 
# 
# From -- ./inp_files/380618.got.cif
#   From: 2010.05.17/outbox.cif.g08.bks.cpg/sg12_191_cif.got.tgz:380618.got - 2010.06.03 13:09:07.
