data_PCOD9198918
_publ_section_title
;
Structure prediction by ZEFSAII (Michael W. Deem and Ramdas Pophale) SiO2 
 PCOD9198918
Probable space group: C 2/M
;
_chemical_formula_sum "Si O2"
_cell_formula_units_Z 64
_cell_length_a 15.507595
_cell_length_b 27.513662
_cell_length_c 9.309885
_cell_angle_alpha 90.000000
_cell_angle_beta 132.946498
_cell_angle_gamma 90.000000
_cell_volume 2907.652120
_symmetry_space_group_name_H-M "C 2/M"
_symmetry_group_IT_number 12
_symmetry_cell_setting 'monoclinic'
loop_
_space_group_symop_operation_xyz
x,y,z
-x,y,-z
-x,-y,-z
x,-y,z
1/2+x,1/2+y,z
1/2-x,1/2+y,-z
1/2-x,1/2-y,-z
1/2+x,1/2-y,z
loop_
_atom_site_type_symbol
_atom_site_label
_atom_site_fract_x
_atom_site_fract_y
_atom_site_fract_z
Si Si1 0.929513 0.557053 0.734844
Si Si2 0.397716 0.621652 0.772802
Si Si3 0.874538 0.237082 0.712895
Si Si4 0.070288 0.279218 0.719443
Si Si5 0.724342 0.205579 0.145815
Si Si6 0.794351 0.892941 0.372080
Si Si7 0.300881 0.943228 0.312974
Si Si8 0.811616 0.442062 0.992487
O O1 0.916068 0.500000 0.760397
O O2 0.822449 0.586909 0.680086
O O3 0.914868 0.558692 0.544991
O O4 0.060090 0.574644 0.919148
O O5 0.385390 0.679730 0.751337
O O6 0.398553 0.604505 0.606812
O O7 0.287073 0.594731 0.715947
O O8 0.500000 0.609477 0.000000
O O9 0.750000 0.250000 0.500000
O O10 0.864618 0.263572 0.855559
O O11 0.972600 0.255628 0.712889
O O12 0.163788 0.238804 0.770047
O O13 0.000000 0.299682 0.500000
O O14 0.153159 0.310704 0.921368
O O15 0.771204 0.161576 0.294263
O O16 0.794550 0.922632 0.224472
O O17 0.260297 0.000000 0.276905
O O18 0.308153 0.930125 0.155530
O O19 0.813582 0.500000 0.984457
#
# Coordination Sequence:
#
# PCOD9198918 Si02
#       8
#     8   8   8   8   8   8   8   8
#     4   9  18  35  61  90 126 170 209 250 319 397
#     4  11  24  43  67  88 118 168 215 262 323 383
#     4  12  23  45  69  94 127 167 215 273 328 392
#     4  11  23  42  66  90 126 172 210 260 326 390
#     4  11  25  43  64  94 129 167 214 268 324 387
#     4  11  22  38  58  91 123 157 209 262 309 378
#     4   9  20  39  63  93 127 165 216 267 310 378
#     4  10  20  36  58  89 131 171 204 255 329 391
#
# _framework density 22.010887
#
# number of rings (size 3 to 8) (size 9 to 14) (size 15 to 20)
#    0.000    1.500    2.500    2.250    0.000    8.250 
#    0.000    1.875    0.000    1.500    0.000    0.000 
#    0.000    0.000    0.000    0.000    0.000    0.000 
#
# Total GULP energy -178626.125810 kJ/mol
# GULP energy per Si atom -5582.066432 kJ/mol
# Density = 2.196079 g / cm^3
# Si number density = 22.010887 Si / 1000 Ang^3
#
#
#
# Elastic Constant Matrix: (Units=GPa)
#
#
# Indices 1 2 3 4 5 6 
#
# 1 78.4399 9.8970 17.8731 0.0000 -12.4894 0.0000
# 2 9.8970 11.0110 3.5853 0.0000 -7.2908 0.0000
# 3 17.8731 3.5853 207.5786 0.0000 -26.4455 0.0000
# 4 0.0000 0.0000 0.0000 19.8858 0.0000 -3.7399
# 5 -12.4894 -7.2908 -26.4455 0.0000 35.4157 0.0000
# 6 0.0000 0.0000 0.0000 -3.7399 0.0000 19.0614
#
#
#
# Elastic Compliance Matrix: (Units=1/GPa)
#
#
# Indices 1 2 3 4 5 6 
#
# 1 0.014736 -0.011505 -0.000784 0.000000 0.002243 0.000000
# 2 -0.011505 0.114338 0.001655 0.000000 0.020716 0.000000
# 3 -0.000784 0.001655 0.005376 0.000000 0.004078 0.000000
# 4 0.000000 0.000000 0.000000 0.052214 0.000000 0.010244
# 5 0.002243 0.020716 0.004078 0.000000 0.036337 0.000000
# 6 0.000000 0.000000 0.000000 0.010244 0.000000 0.054472
#
#
# Mechanical properties :
#
#
# Convention : Reuss Voigt Hill
#
# Bulk Modulus (GPa) = 8.83540 39.97113 24.40326
# Shear Modulus (GPa) = 14.86025 32.58419 23.72222
#
# Velocity S-wave (km/s) = 2.60115 3.85173 3.28647
# Velocity P-wave (km/s) = 3.61166 6.16281 5.05096
#
# Compressibility (1/GPa) = 0.11318112
#
# Stress axis : x y z
#
# Youngs Moduli (GPa) = 67.86095 8.74603 186.01198
#
# Poissons Ratio (x) = 0.10062 0.14591
# Poissons Ratio (y) = 0.78073 -0.30786
# Poissons Ratio (z) = 0.05323 -0.01448
#
# Static dielectric constant tensor:
#      x y z
#    x 1.840820 0.000000 -0.031830 
#    y 0.000000 1.787500 0.000000 
#    z -0.031830 0.000000 1.907890 
# 
# From -- ./inp_files/68624.got.cif
#   From: 2010.05.17/outbox.cif.g08.bks.cpg/sg12_35_cif.got.tgz:68624.got - 2010.06.03 13:09:07.
