data_PCOD9198023
_publ_section_title
;
Structure prediction by ZEFSAII (Michael W. Deem and Ramdas Pophale) SiO2 
 PCOD9198023
Probable space group: C 2/M
;
_chemical_formula_sum "Si O2"
_cell_formula_units_Z 48
_cell_length_a 8.881387
_cell_length_b 19.260278
_cell_length_c 16.868477
_cell_angle_alpha 90.000000
_cell_angle_beta 129.454673
_cell_angle_gamma 90.000000
_cell_volume 2227.964497
_symmetry_space_group_name_H-M "C 2/M"
_symmetry_group_IT_number 12
_symmetry_cell_setting 'monoclinic'
loop_
_space_group_symop_operation_xyz
x,y,z
-x,y,-z
-x,-y,-z
x,-y,z
1/2+x,1/2+y,z
1/2-x,1/2+y,-z
1/2-x,1/2-y,-z
1/2+x,1/2-y,z
loop_
_atom_site_type_symbol
_atom_site_label
_atom_site_fract_x
_atom_site_fract_y
_atom_site_fract_z
Si Si1 0.773953 0.714767 0.717443
Si Si2 0.387436 0.808056 0.585951
Si Si3 0.049471 0.158824 0.783831
Si Si4 0.825493 0.326671 0.003950
Si Si5 0.278103 0.417969 0.895135
Si Si6 0.173325 0.418261 0.673426
O O1 0.591367 0.767069 0.656077
O O2 0.793837 0.677382 0.640186
O O3 0.711053 0.668185 0.770056
O O4 0.958643 0.766568 0.779755
O O5 0.250000 0.750000 0.500000
O O6 0.470349 0.880996 0.582138
O O7 0.161093 0.132226 0.898291
O O8 0.864276 0.114101 0.695005
O O9 0.750000 0.250000 0.000000
O O10 0.856130 0.370127 0.094015
O O11 0.000000 0.318668 0.000000
O O12 0.247455 0.500000 0.897976
O O13 0.225256 0.404307 0.785077
O O14 0.500000 0.402289 0.000000
O O15 0.162790 0.500000 0.658829
#
# Coordination Sequence:
#
# PCOD9198023 Si02
#       6
#     8   8   8   8   8   8
#     4   9  20  35  60  87 122 154 201 257 325 376
#     4  10  20  37  66  94 122 153 207 258 323 386
#     4  10  20  36  55  85 123 167 207 260 316 368
#     4  12  25  33  55  88 132 165 223 273 311 360
#     4  10  21  40  60  83 124 178 221 259 312 375
#     4  10  22  40  63  89 127 173 216 260 316 385
#
# _framework density 21.544329000000001
#
# number of rings (size 3 to 8) (size 9 to 14) (size 15 to 20)
#    0.000    1.833    1.667    2.000    9.333    0.333 
#    0.000    0.833    0.000   20.000    0.000    0.000 
#    0.000    0.000    0.000    0.000    0.000    0.167 
#
# Total GULP energy -133782.347846 kJ/mol
# GULP energy per Si atom -5574.264494 kJ/mol
# Density = 2.149529 g / cm^3
# Si number density = 21.544329 Si / 1000 Ang^3
#
#
#
# Elastic Constant Matrix: (Units=GPa)
#
#
# Indices 1 2 3 4 5 6 
#
# 1 168.1053 48.8268 32.2787 0.0000 -8.5364 0.0000
# 2 48.8268 85.6567 26.1979 0.0000 2.0449 0.0000
# 3 32.2787 26.1979 61.1362 0.0000 5.8529 0.0000
# 4 0.0000 0.0000 0.0000 30.7876 0.0000 1.7391
# 5 -8.5364 2.0449 5.8529 0.0000 27.9840 0.0000
# 6 0.0000 0.0000 0.0000 1.7391 0.0000 20.7407
#
#
#
# Elastic Compliance Matrix: (Units=1/GPa)
#
#
# Indices 1 2 3 4 5 6 
#
# 1 0.007700 -0.003601 -0.002830 0.000000 0.003204 0.000000
# 2 -0.003601 0.015120 -0.004457 0.000000 -0.001271 0.000000
# 3 -0.002830 -0.004457 0.020217 0.000000 -0.004766 0.000000
# 4 0.000000 0.000000 0.000000 0.032635 0.000000 -0.002736
# 5 0.003204 -0.001271 -0.004766 0.000000 0.037802 0.000000
# 6 0.000000 0.000000 0.000000 -0.002736 0.000000 0.048444
#
#
# Mechanical properties :
#
#
# Convention : Reuss Voigt Hill
#
# Bulk Modulus (GPa) = 47.02725 58.83388 52.93056
# Shear Modulus (GPa) = 26.20822 29.74210 27.97516
#
# Velocity S-wave (km/s) = 3.49159 3.71955 3.60737
# Velocity P-wave (km/s) = 6.17499 6.76863 6.47861
#
# Compressibility (1/GPa) = 0.02126427
#
# Stress axis : x y z
#
# Youngs Moduli (GPa) = 129.86253 66.13614 49.46377
#
# Poissons Ratio (x) = 0.23813 0.13996
# Poissons Ratio (y) = 0.46758 0.22044
# Poissons Ratio (z) = 0.36745 0.29474
#
# Static dielectric constant tensor:
#      x y z
#    x 1.791580 0.000000 0.000870 
#    y 0.000000 1.852880 0.000000 
#    z 0.000870 0.000000 1.928740 
# 
# From -- ./inp_files/258289.got.cif
#   From: 2010.05.17/outbox.cif.g08.bks.cpg/sg12_130_cif.got.tgz:258289.got - 2010.06.03 13:09:07.
