data_PCOD9198640
_publ_section_title
;
Structure prediction by ZEFSAII (Michael W. Deem and Ramdas Pophale) SiO2 
 PCOD9198640
Probable space group: C 2/M
;
_chemical_formula_sum "Si O2"
_cell_formula_units_Z 56
_cell_length_a 18.472185
_cell_length_b 8.735327
_cell_length_c 29.654039
_cell_angle_alpha 90.000000
_cell_angle_beta 38.930170
_cell_angle_gamma 90.000000
_cell_volume 3006.759181
_symmetry_space_group_name_H-M "C 2/M"
_symmetry_group_IT_number 12
_symmetry_cell_setting 'monoclinic'
loop_
_space_group_symop_operation_xyz
x,y,z
-x,y,-z
-x,-y,-z
x,-y,z
1/2+x,1/2+y,z
1/2-x,1/2+y,-z
1/2-x,1/2-y,-z
1/2+x,1/2-y,z
loop_
_atom_site_type_symbol
_atom_site_label
_atom_site_fract_x
_atom_site_fract_y
_atom_site_fract_z
Si Si1 0.224396 0.315529 0.654537
Si Si2 0.953782 0.686442 0.070975
Si Si3 0.376705 0.184173 0.930263
Si Si4 0.690623 0.315472 0.214959
Si Si5 0.388348 0.180991 0.652588
Si Si6 0.417103 0.323421 0.495978
Si Si7 0.971794 0.183404 0.790876
O O1 0.221053 0.500000 0.657056
O O2 0.298125 0.259339 0.661804
O O3 0.295310 0.269449 0.575099
O O4 0.097838 0.246965 0.718337
O O5 0.953201 0.500000 0.070241
O O6 0.822839 0.734410 0.143803
O O7 0.038853 0.732416 0.069920
O O8 0.000000 0.738782 0.000000
O O9 0.427030 0.244413 0.858931
O O10 0.372136 0.000000 0.931907
O O11 0.250000 0.250000 0.000000
O O12 0.689877 0.500000 0.221101
O O13 0.637561 0.240390 0.285031
O O14 0.615951 0.279112 0.207027
O O15 0.515842 0.227246 0.573741
O O16 0.374083 0.000000 0.656743
O O17 0.500000 0.322069 0.500000
O O18 0.407885 0.500000 0.485554
O O19 0.976182 0.000000 0.793433
#
# Coordination Sequence:
#
# PCOD9198640 Si02
#       7
#     8   8   8   8   8   8   8
#     4  10  20  36  58  82 112 150 188 229 282 343
#     4   9  18  35  59  83 106 140 185 225 269 329
#     4  11  22  37  60  86 114 149 187 232 285 339
#     4  10  21  38  58  79 110 151 190 231 284 343
#     4  11  21  33  55  85 114 144 186 239 285 332
#     4   8  16  32  54  79 108 145 187 229 279 340
#     4  11  23  38  58  84 113 147 190 239 286 335
#
# _framework density 18.624704000000001
#
# number of rings (size 3 to 8) (size 9 to 14) (size 15 to 20)
#    0.000    2.000    0.000    5.143    0.000    7.714 
#    0.000    1.429    0.000    3.000    0.000    0.000 
#    0.000    0.000    0.000    0.000    0.000    0.000 
#
# Total GULP energy -156378.366068 kJ/mol
# GULP energy per Si atom -5584.941645 kJ/mol
# Density = 1.858231 g / cm^3
# Si number density = 18.624704 Si / 1000 Ang^3
#
#
#
# Elastic Constant Matrix: (Units=GPa)
#
#
# Indices 1 2 3 4 5 6 
#
# 1 132.5177 53.2597 104.0217 0.0001 -0.7156 0.0001
# 2 53.2597 53.1179 56.5096 0.0004 1.9666 -0.0001
# 3 104.0217 56.5096 206.1644 0.0000 -3.5844 0.0000
# 4 0.0001 0.0004 0.0000 23.7298 0.0000 -4.5975
# 5 -0.7156 1.9666 -3.5844 0.0000 32.7774 0.0000
# 6 0.0001 -0.0001 0.0000 -4.5975 0.0000 23.6855
#
#
#
# Elastic Compliance Matrix: (Units=1/GPa)
#
#
# Indices 1 2 3 4 5 6 
#
# 1 0.015690 -0.010351 -0.005072 0.000000 0.000409 0.000000
# 2 -0.010351 0.033593 -0.004032 0.000000 -0.002682 0.000000
# 3 -0.005072 -0.004032 0.008533 0.000000 0.001064 0.000000
# 4 0.000000 0.000000 0.000000 0.043788 0.000000 0.008500
# 5 0.000409 -0.002682 0.001064 0.000000 0.030795 0.000000
# 6 0.000000 0.000000 0.000000 0.008500 0.000000 0.043870
#
#
# Mechanical properties :
#
#
# Convention : Reuss Voigt Hill
#
# Bulk Modulus (GPa) = 52.89176 91.04246 71.96711
# Shear Modulus (GPa) = 22.57524 27.90579 25.24052
#
# Velocity S-wave (km/s) = 3.48532 3.87502 3.68532
# Velocity P-wave (km/s) = 6.68259 8.30721 7.53879
#
# Compressibility (1/GPa) = 0.01890654
#
# Stress axis : x y z
#
# Youngs Moduli (GPa) = 63.73498 29.76787 117.18717
#
# Poissons Ratio (x) = 0.30813 0.59440
# Poissons Ratio (y) = 0.65972 0.47249
# Poissons Ratio (z) = 0.32328 0.12002
#
# Static dielectric constant tensor:
#      x y z
#    x 1.618810 0.000000 -0.008790 
#    y 0.000000 1.625560 0.000000 
#    z -0.008790 0.000000 1.635600 
# 
# From -- ./inp_files/342566.got.cif
#   From: 2010.05.17/outbox.cif.g08.bks.cpg/sg12_172_cif.got.tgz:342566.got - 2010.06.03 13:09:07.
