data_PCOD9198070
_publ_section_title
;
Structure prediction by ZEFSAII (Michael W. Deem and Ramdas Pophale) SiO2 
 PCOD9198070
Probable space group: C 2/M
;
_chemical_formula_sum "Si O2"
_cell_formula_units_Z 56
_cell_length_a 21.275215
_cell_length_b 7.484792
_cell_length_c 30.219262
_cell_angle_alpha 90.000000
_cell_angle_beta 148.852525
_cell_angle_gamma 90.000000
_cell_volume 2489.039999
_symmetry_space_group_name_H-M "C 2/M"
_symmetry_group_IT_number 12
_symmetry_cell_setting 'monoclinic'
loop_
_space_group_symop_operation_xyz
x,y,z
-x,y,-z
-x,-y,-z
x,-y,z
1/2+x,1/2+y,z
1/2-x,1/2+y,-z
1/2-x,1/2-y,-z
1/2+x,1/2-y,z
loop_
_atom_site_type_symbol
_atom_site_label
_atom_site_fract_x
_atom_site_fract_y
_atom_site_fract_z
Si Si1 0.413627 0.785062 0.407974
Si Si2 0.141664 0.714041 0.219365
Si Si3 0.015401 0.717987 0.795444
Si Si4 0.522529 0.795116 0.062414
Si Si5 0.722064 0.712483 0.034848
Si Si6 0.428213 0.205445 0.573445
Si Si7 0.332357 0.217278 0.609134
O O1 0.500000 0.719276 0.500000
O O2 0.270563 0.747813 0.320509
O O3 0.468181 0.714080 0.394571
O O4 0.426733 0.000000 0.415758
O O5 0.129167 0.500000 0.209106
O O6 0.035004 0.780032 0.187576
O O7 0.119515 0.783751 0.156158
O O8 0.017198 0.500000 0.797614
O O9 0.918068 0.771915 0.700454
O O10 0.151793 0.774154 0.866860
O O11 0.561275 0.000000 0.077414
O O12 0.500000 0.714393 0.000000
O O13 0.396365 0.794653 0.014026
O O14 0.708622 0.500000 0.031875
O O15 0.750000 0.750000 0.000000
O O16 0.390612 0.282511 0.598061
O O17 0.304089 0.212055 0.470323
O O18 0.461559 0.000000 0.602498
O O19 0.175869 0.500000 0.396752
#
# Coordination Sequence:
#
# PCOD9198070 Si02
#       7
#     8   8   8   8   8   8   8
#     4  10  21  35  51  75 109 144 178 222 277 334
#     4  10  20  36  56  78 107 144 186 231 279 337
#     4   9  18  33  54  79 105 135 178 227 273 325
#     4  10  22  41  61  84 119 157 193 242 300 350
#     4  11  21  37  61  86 115 149 190 237 288 347
#     4   9  18  32  48  70 104 136 167 216 270 316
#     4   9  17  31  52  74  97 133 175 216 263 318
#
# _framework density 22.498632000000001
#
# number of rings (size 3 to 8) (size 9 to 14) (size 15 to 20)
#    0.000    2.286    1.429    1.286    0.000    2.857 
#    0.000    2.857    0.000    0.000    0.000    0.000 
#    0.000    0.000    0.000    0.000    0.000    0.000 
#
# Total GULP energy -156255.458061 kJ/mol
# GULP energy per Si atom -5580.552074 kJ/mol
# Density = 2.244742 g / cm^3
# Si number density = 22.498632 Si / 1000 Ang^3
#
#
#
# Elastic Constant Matrix: (Units=GPa)
#
#
# Indices 1 2 3 4 5 6 
#
# 1 69.7235 -6.2185 32.3043 -0.0001 1.6140 0.0005
# 2 -6.2185 70.6655 -12.2125 -0.0003 -3.9725 0.0006
# 3 32.3043 -12.2125 110.3301 0.0001 -16.1808 0.0000
# 4 -0.0001 -0.0003 0.0001 15.4161 0.0000 7.6761
# 5 1.6140 -3.9725 -16.1808 0.0000 38.3366 -0.0001
# 6 0.0005 0.0006 0.0000 7.6761 -0.0001 4.9066
#
#
#
# Elastic Compliance Matrix: (Units=1/GPa)
#
#
# Indices 1 2 3 4 5 6 
#
# 1 0.016919 0.000402 -0.005338 0.000005 -0.002924 -0.000010
# 2 0.000402 0.014632 0.001835 0.000006 0.002274 -0.000011
# 3 -0.005338 0.001835 0.011609 -0.000001 0.005315 0.000002
# 4 0.000005 0.000006 -0.000001 0.293491 -0.000001 -0.459149
# 5 -0.002924 0.002274 0.005315 -0.000001 0.028687 0.000002
# 6 -0.000010 -0.000011 0.000002 -0.459149 0.000002 0.922116
#
#
# Mechanical properties :
#
#
# Convention : Reuss Voigt Hill
#
# Bulk Modulus (GPa) = 27.05747 30.94064 28.99905
# Shear Modulus (GPa) = 3.82856 27.52158 15.67507
#
# Velocity S-wave (km/s) = 1.30590 3.50130 2.64239
# Velocity P-wave (km/s) = 3.78500 5.48886 4.71454
#
# Compressibility (1/GPa) = 0.03695837
#
# Stress axis : x y z
#
# Youngs Moduli (GPa) = 59.10451 68.34537 86.13750
#
# Poissons Ratio (x) = -0.02747 0.45982
# Poissons Ratio (y) = -0.02376 -0.15809
# Poissons Ratio (z) = 0.31551 -0.12544
#
# Static dielectric constant tensor:
#      x y z
#    x 1.835580 0.000000 -0.024900 
#    y 0.000000 1.814340 0.000000 
#    z -0.024900 0.000000 1.845390 
# 
# From -- ./inp_files/329482.got.cif
#   From: 2010.05.17/outbox.cif.g08.bks.cpg/sg12_165_cif.got.tgz:329482.got - 2010.06.03 13:09:07.
