data_PCOD9198080
_publ_section_title
;
Structure prediction by ZEFSAII (Michael W. Deem and Ramdas Pophale) SiO2 
 PCOD9198080
Probable space group: C 2/M
;
_chemical_formula_sum "Si O2"
_cell_formula_units_Z 48
_cell_length_a 10.626983
_cell_length_b 28.496838
_cell_length_c 9.618873
_cell_angle_alpha 90.000000
_cell_angle_beta 124.389128
_cell_angle_gamma 90.000000
_cell_volume 2403.814534
_symmetry_space_group_name_H-M "C 2/M"
_symmetry_group_IT_number 12
_symmetry_cell_setting 'monoclinic'
loop_
_space_group_symop_operation_xyz
x,y,z
-x,y,-z
-x,-y,-z
x,-y,z
1/2+x,1/2+y,z
1/2-x,1/2+y,-z
1/2-x,1/2-y,-z
1/2+x,1/2-y,z
loop_
_atom_site_type_symbol
_atom_site_label
_atom_site_fract_x
_atom_site_fract_y
_atom_site_fract_z
Si Si1 0.334866 0.286510 0.452669
Si Si2 0.552636 0.655298 0.234939
Si Si3 0.500000 0.727613 0.000000
Si Si4 0.751171 0.053486 0.298705
Si Si5 0.500000 0.114879 0.000000
Si Si6 0.557097 0.554097 0.305865
Si Si7 0.287238 0.192186 0.923943
O O1 0.500000 0.268698 0.500000
O O2 0.250000 0.250000 0.500000
O O3 0.373279 0.331817 0.571055
O O4 0.236739 0.300047 0.257395
O O5 0.608999 0.692713 0.156048
O O6 0.569593 0.600152 0.217101
O O7 0.377788 0.673132 0.134467
O O8 0.610514 0.761637 0.978359
O O9 0.813929 0.058126 0.494262
O O10 0.897075 0.060464 0.288537
O O11 0.701318 0.000000 0.249593
O O12 0.614160 0.085779 0.166226
O O13 0.397287 0.149317 0.027231
O O14 0.561225 0.500000 0.253914
#
# Coordination Sequence:
#
# PCOD9198080 Si02
#       7
#     8   8   4   8   4   8   8
#     4  10  20  36  56  78 109 153 194 230 275 337
#     4  11  20  35  55  72 110 142 182 226 280 323
#     4  11  22  34  50  74 106 140 184 221 276 324
#     4   9  17  29  48  76 106 132 169 221 276 335
#     4  11  17  28  47  78 109 134 173 205 284 328
#     4   9  18  33  52  75 102 140 181 220 276 338
#     4  10  21  33  49  77 109 142 175 225 274 335
#
# _framework density 19.968263
#
# number of rings (size 3 to 8) (size 9 to 14) (size 15 to 20)
#    0.000    2.000    3.333    2.750    4.667    0.000 
#    0.000    0.417    0.000    0.000    0.000    0.000 
#    0.000    3.333    0.000    0.000    0.000    0.000 
#
# Total GULP energy -133645.415627 kJ/mol
# GULP energy per Si atom -5568.558984 kJ/mol
# Density = 1.992281 g / cm^3
# Si number density = 19.968263 Si / 1000 Ang^3
#
#
#
# Elastic Constant Matrix: (Units=GPa)
#
#
# Indices 1 2 3 4 5 6 
#
# 1 36.7269 20.5197 5.7122 0.0000 9.6702 0.0000
# 2 20.5197 170.9656 44.9043 0.0000 15.8012 0.0000
# 3 5.7122 44.9043 73.3978 0.0000 15.3982 0.0000
# 4 0.0000 0.0000 0.0000 37.6628 0.0000 6.7909
# 5 9.6702 15.8012 15.3982 0.0000 24.6193 0.0000
# 6 0.0000 0.0000 0.0000 6.7909 0.0000 11.6189
#
#
#
# Elastic Compliance Matrix: (Units=1/GPa)
#
#
# Indices 1 2 3 4 5 6 
#
# 1 0.031804 -0.003257 0.001956 0.000000 -0.011626 0.000000
# 2 -0.003257 0.007396 -0.004079 0.000000 -0.000917 0.000000
# 3 0.001956 -0.004079 0.017933 0.000000 -0.009366 0.000000
# 4 0.000000 0.000000 0.000000 0.029679 0.000000 -0.017346
# 5 -0.011626 -0.000917 -0.009366 0.000000 0.051632 0.000000
# 6 0.000000 0.000000 0.000000 -0.017346 0.000000 0.096205
#
#
# Mechanical properties :
#
#
# Convention : Reuss Voigt Hill
#
# Bulk Modulus (GPa) = 21.56377 47.04032 34.30204
# Shear Modulus (GPa) = 19.16695 28.77713 23.97204
#
# Velocity S-wave (km/s) = 3.10154 3.80036 3.46859
# Velocity P-wave (km/s) = 4.86297 6.54719 5.76690
#
# Compressibility (1/GPa) = 0.04637409
#
# Stress axis : x y z
#
# Youngs Moduli (GPa) = 31.44224 135.20655 55.76396
#
# Poissons Ratio (x) = 0.44030 -0.10908
# Poissons Ratio (y) = 0.10239 0.22747
# Poissons Ratio (z) = -0.06151 0.55153
#
# Static dielectric constant tensor:
#      x y z
#    x 1.784570 0.000000 -0.030020 
#    y 0.000000 1.769530 0.000000 
#    z -0.030020 0.000000 1.730720 
# 
# From -- ./inp_files/136789.got.cif
#   From: 2010.05.17/outbox.cif.g08.bks.cpg/sg12_69_cif.got.tgz:136789.got - 2010.06.03 13:09:07.
