data_PCOD9198891
_publ_section_title
;
Structure prediction by ZEFSAII (Michael W. Deem and Ramdas Pophale) SiO2 
 PCOD9198891
Probable space group: C 2/M
;
_chemical_formula_sum "Si O2"
_cell_formula_units_Z 48
_cell_length_a 24.123166
_cell_length_b 9.422863
_cell_length_c 10.995351
_cell_angle_alpha 90.000000
_cell_angle_beta 81.887596
_cell_angle_gamma 90.000000
_cell_volume 2474.334788
_symmetry_space_group_name_H-M "C 2/M"
_symmetry_group_IT_number 12
_symmetry_cell_setting 'monoclinic'
loop_
_space_group_symop_operation_xyz
x,y,z
-x,y,-z
-x,-y,-z
x,-y,z
1/2+x,1/2+y,z
1/2-x,1/2+y,-z
1/2-x,1/2-y,-z
1/2+x,1/2-y,z
loop_
_atom_site_type_symbol
_atom_site_label
_atom_site_fract_x
_atom_site_fract_y
_atom_site_fract_z
Si Si1 0.956464 0.669210 0.120546
Si Si2 0.231991 0.666594 0.124041
Si Si3 0.192965 0.836675 0.525369
Si Si4 0.480135 0.830362 0.645448
Si Si5 0.134327 0.835855 0.282882
Si Si6 0.350984 0.666058 0.214618
O O1 0.949288 0.500000 0.111639
O O2 0.896656 0.745510 0.127237
O O3 0.979168 0.697842 0.251115
O O4 0.000000 0.712644 0.000000
O O5 0.221836 0.500000 0.106664
O O6 0.177227 0.743028 0.191614
O O7 0.286672 0.680008 0.192586
O O8 0.250000 0.750000 0.000000
O O9 0.250000 0.750000 0.500000
O O10 0.160956 0.835014 0.408912
O O11 0.152007 0.784652 0.644474
O O12 0.207407 0.000000 0.551131
O O13 0.500000 0.798182 0.500000
O O14 0.425343 0.738696 0.690600
O O15 0.468228 0.000000 0.651562
O O16 0.131058 0.000000 0.242162
O O17 0.366428 0.500000 0.202582
#
# Coordination Sequence:
#
# PCOD9198891 Si02
#       6
#     8   8   8   8   8   8
#     4  10  23  41  61  88 118 156 204 252 304 361
#     4  11  24  41  61  88 124 162 203 249 303 364
#     4  10  20  36  58  88 122 154 194 241 295 357
#     4  10  22  41  63  88 121 164 209 253 307 366
#     4  11  23  38  62  94 124 158 202 250 307 366
#     4  10  22  40  62  89 120 156 198 247 302 357
#
# _framework density 19.399153999999999
#
# number of rings (size 3 to 8) (size 9 to 14) (size 15 to 20)
#    0.000    1.667    1.667    2.000    2.333    4.000 
#    0.000    0.000    0.000    0.000    0.000    0.000 
#    0.000    0.000    0.000    0.000    0.000    0.000 
#
# Total GULP energy -133961.150220 kJ/mol
# GULP energy per Si atom -5581.714592 kJ/mol
# Density = 1.935500 g / cm^3
# Si number density = 19.399154 Si / 1000 Ang^3
#
#
#
# Elastic Constant Matrix: (Units=GPa)
#
#
# Indices 1 2 3 4 5 6 
#
# 1 76.2634 59.5131 19.8925 0.0000 -30.1086 0.0000
# 2 59.5131 86.4892 51.9377 0.0000 -23.6133 0.0000
# 3 19.8925 51.9377 108.7207 0.0000 -26.5156 0.0000
# 4 0.0000 0.0000 0.0000 29.4773 0.0000 -9.6711
# 5 -30.1086 -23.6133 -26.5156 0.0000 39.0660 0.0000
# 6 0.0000 0.0000 0.0000 -9.6711 0.0000 36.6967
#
#
#
# Elastic Compliance Matrix: (Units=1/GPa)
#
#
# Indices 1 2 3 4 5 6 
#
# 1 0.042881 -0.030702 0.012410 0.000000 0.022914 0.000000
# 2 -0.030702 0.039224 -0.015709 0.000000 -0.010617 0.000000
# 3 0.012410 -0.015709 0.017315 0.000000 0.011821 0.000000
# 4 0.000000 0.000000 0.000000 0.037135 0.000000 0.009787
# 5 0.022914 -0.010617 0.011821 0.000000 0.044864 0.000000
# 6 0.000000 0.000000 0.000000 0.009787 0.000000 0.029830
#
#
# Mechanical properties :
#
#
# Convention : Reuss Voigt Hill
#
# Bulk Modulus (GPa) = 31.83226 59.35111 45.59169
# Shear Modulus (GPa) = 17.25779 30.38999 23.82389
#
# Velocity S-wave (km/s) = 2.98588 3.96228 3.50821
# Velocity P-wave (km/s) = 5.32278 7.18289 6.32163
#
# Compressibility (1/GPa) = 0.03141467
#
# Stress axis : x y z
#
# Youngs Moduli (GPa) = 23.32045 25.49487 57.75342
#
# Poissons Ratio (x) = 0.78275 -0.71669
# Poissons Ratio (y) = 0.71599 0.90728
# Poissons Ratio (z) = -0.28940 0.40051
#
# Static dielectric constant tensor:
#      x y z
#    x 1.703220 0.000000 0.027170 
#    y 0.000000 1.652300 0.000000 
#    z 0.027170 0.000000 1.803950 
# 
# From -- ./inp_files/172953.got.cif
#   From: 2010.05.17/outbox.cif.g08.bks.cpg/sg12_87_cif.got.tgz:172953.got - 2010.06.03 13:09:07.
