data_PCOD9198651
_publ_section_title
;
Structure prediction by ZEFSAII (Michael W. Deem and Ramdas Pophale) SiO2 
 PCOD9198651
Probable space group: C 2/M
;
_chemical_formula_sum "Si O2"
_cell_formula_units_Z 58
_cell_length_a 19.313388
_cell_length_b 7.915462
_cell_length_c 21.220743
_cell_angle_alpha 90.000000
_cell_angle_beta 63.895262
_cell_angle_gamma 90.000000
_cell_volume 2913.180516
_symmetry_space_group_name_H-M "C 2/M"
_symmetry_group_IT_number 12
_symmetry_cell_setting 'monoclinic'
loop_
_space_group_symop_operation_xyz
x,y,z
-x,y,-z
-x,-y,-z
x,-y,z
1/2+x,1/2+y,z
1/2-x,1/2+y,-z
1/2-x,1/2-y,-z
1/2+x,1/2-y,z
loop_
_atom_site_type_symbol
_atom_site_label
_atom_site_fract_x
_atom_site_fract_y
_atom_site_fract_z
Si Si1 0.470915 0.194012 0.704809
Si Si2 0.500000 0.500000 0.500000
Si Si3 0.321095 0.310925 0.821950
Si Si4 0.084633 0.694692 0.407120
Si Si5 0.665014 0.188226 0.049397
Si Si6 0.918429 0.798482 0.229936
Si Si7 0.495139 0.694874 0.931161
Si Si8 0.255686 0.703458 0.720919
O O1 0.402877 0.315117 0.754395
O O2 0.475210 0.219281 0.628042
O O3 0.541028 0.223803 0.724076
O O4 0.444978 0.000000 0.722525
O O5 0.564415 0.347841 0.461059
O O6 0.299876 0.500000 0.851975
O O7 0.334987 0.194296 0.875405
O O8 0.262531 0.249415 0.792304
O O9 0.077902 0.500000 0.432250
O O10 0.171180 0.718025 0.344487
O O11 0.594449 0.298162 0.052642
O O12 0.652343 0.000000 0.030320
O O13 0.750000 0.250000 0.000000
O O14 0.828045 0.758945 0.268017
O O15 0.957304 0.733680 0.148355
O O16 0.931180 0.000000 0.226230
O O17 0.521336 0.500000 0.926473
O O18 0.500000 0.770546 0.000000
O O19 0.262743 0.500000 0.715185
#
# Coordination Sequence:
#
# PCOD9198651 Si02
#       8
#     8   2   8   8   8   8   8   8
#     4  10  20  36  60  91 122 157 206 255 301 359
#     4  12  22  40  72 102 136 172 202 246 308 366
#     4  10  20  36  58  82 115 149 198 256 311 364
#     4  10  22  40  66 101 133 168 210 253 302 367
#     4  12  25  39  57  79 110 153 199 256 316 375
#     4  11  22  35  60  89 122 167 209 264 320 368
#     4  10  23  42  58  81 118 158 207 259 319 386
#     4  10  21  38  60  91 127 162 205 262 310 362
#
# _framework density 19.909510999999998
#
# number of rings (size 3 to 8) (size 9 to 14) (size 15 to 20)
#    0.000    1.517    2.069    3.103    3.862    2.483 
#    0.000    0.000    0.000    0.828    0.000    0.000 
#    0.000    0.000    0.000    0.000    0.000    0.000 
#
# Total GULP energy -161449.427798 kJ/mol
# GULP energy per Si atom -5567.221648 kJ/mol
# Density = 1.986420 g / cm^3
# Si number density = 19.909511 Si / 1000 Ang^3
#
#
#
# Elastic Constant Matrix: (Units=GPa)
#
#
# Indices 1 2 3 4 5 6 
#
# 1 98.1836 -3.8482 15.8368 -0.0001 -5.5313 -0.0001
# 2 -3.8482 86.0320 18.7792 0.0001 2.0729 0.0000
# 3 15.8368 18.7792 49.3678 -0.0001 -14.2708 -0.0004
# 4 -0.0001 0.0001 -0.0001 17.0348 -0.0001 -12.5350
# 5 -5.5313 2.0729 -14.2708 -0.0001 16.0561 -0.0001
# 6 -0.0001 0.0000 -0.0004 -12.5350 -0.0001 -12.8232
#
#
#
# Elastic Compliance Matrix: (Units=1/GPa)
#
#
# Indices 1 2 3 4 5 6 
#
# 1 0.010885 0.001361 -0.004005 0.000000 0.000014 0.000000
# 2 0.001361 0.013652 -0.008080 0.000000 -0.008475 0.000000
# 3 -0.004005 -0.008080 0.032994 0.000000 0.028989 -0.000001
# 4 0.000000 0.000000 0.000000 0.034143 0.000000 -0.033376
# 5 0.000014 -0.008475 0.028989 0.000000 0.089146 -0.000002
# 6 0.000000 0.000000 -0.000001 -0.033376 -0.000002 -0.045358
#
#
# Mechanical properties :
#
#
# Convention : Reuss Voigt Hill
#
# Bulk Modulus (GPa) = 27.71364 32.79100 30.25232
# Shear Modulus (GPa) = 29.59623 17.57460 23.58542
#
# Velocity S-wave (km/s) = 3.85975 2.97429 3.44558
# Velocity P-wave (km/s) = 5.81494 5.31987 5.57290
#
# Compressibility (1/GPa) = 0.03608331
#
# Stress axis : x y z
#
# Youngs Moduli (GPa) = 91.86785 73.24776 30.30821
#
# Poissons Ratio (x) = -0.09968 0.12140
# Poissons Ratio (y) = -0.12502 0.24488
# Poissons Ratio (z) = 0.36797 0.59182
#
# Static dielectric constant tensor:
#      x y z
#    x 1.696170 0.000000 -0.008990 
#    y 0.000000 1.672410 0.000000 
#    z -0.008990 0.000000 2.011510 
# 
# From -- ./inp_files/313924.got.cif
#   From: 2010.05.17/outbox.cif.g08.bks.cpg/sg12_157_cif.got.tgz:313924.got - 2010.06.03 13:09:07.
