data_PCOD9198758
_publ_section_title
;
Structure prediction by ZEFSAII (Michael W. Deem and Ramdas Pophale) SiO2 
 PCOD9198758
Probable space group: C 2/M
;
_chemical_formula_sum "Si O2"
_cell_formula_units_Z 64
_cell_length_a 14.728107
_cell_length_b 8.311686
_cell_length_c 26.367638
_cell_angle_alpha 90.000000
_cell_angle_beta 104.016952
_cell_angle_gamma 90.000000
_cell_volume 3131.694197
_symmetry_space_group_name_H-M "C 2/M"
_symmetry_group_IT_number 12
_symmetry_cell_setting 'monoclinic'
loop_
_space_group_symop_operation_xyz
x,y,z
-x,y,-z
-x,-y,-z
x,-y,z
1/2+x,1/2+y,z
1/2-x,1/2+y,-z
1/2-x,1/2-y,-z
1/2+x,1/2-y,z
loop_
_atom_site_type_symbol
_atom_site_label
_atom_site_fract_x
_atom_site_fract_y
_atom_site_fract_z
Si Si1 0.271427 0.816201 0.384391
Si Si2 0.837968 0.316048 0.543015
Si Si3 0.395895 0.694603 0.999739
Si Si4 0.715231 0.694500 0.916791
Si Si5 0.531304 0.310753 0.595065
Si Si6 0.688589 0.808474 0.274526
Si Si7 0.491457 0.694774 0.289834
Si Si8 0.189643 0.195538 0.799226
O O1 0.200028 0.703610 0.404852
O O2 0.378250 0.781365 0.413364
O O3 0.257202 0.777871 0.323605
O O4 0.245768 0.000000 0.392038
O O5 0.854822 0.500000 0.532371
O O6 0.750000 0.250000 0.500000
O O7 0.935151 0.221860 0.552682
O O8 0.396662 0.500000 0.999554
O O9 0.358889 0.747595 0.050213
O O10 0.500000 0.751002 0.000000
O O11 0.317222 0.751683 0.949634
O O12 0.713648 0.500000 0.915851
O O13 0.693277 0.754270 0.857313
O O14 0.553052 0.500000 0.597402
O O15 0.516225 0.259469 0.651886
O O16 0.584594 0.761713 0.276526
O O17 0.719961 0.761231 0.222264
O O18 0.702026 0.000000 0.281404
O O19 0.496635 0.500000 0.290059
O O20 0.401439 0.745758 0.245058
O O21 0.186358 0.000000 0.800932
#
# Coordination Sequence:
#
# PCOD9198758 Si02
#       8
#     8   8   8   8   8   8   8   8
#     4  12  24  40  63  91 121 157 200 242 291 353
#     4  12  26  45  67  93 123 157 197 248 301 353
#     4   9  18  33  54  80 109 145 189 240 294 346
#     4   9  18  34  55  78 109 150 191 235 289 346
#     4  11  22  40  65  92 121 156 196 243 295 353
#     4  11  21  36  57  83 114 152 196 241 289 346
#     4  10  20  36  58  84 115 152 192 234 288 351
#     4   9  19  36  55  79 115 154 190 233 289 350
#
# _framework density 20.436222999999998
#
# number of rings (size 3 to 8) (size 9 to 14) (size 15 to 20)
#    0.000    1.625    2.500    3.000    0.000    2.250 
#    0.000    5.625    0.000    0.000    0.000    0.000 
#    0.000    0.000    0.000    0.000    0.000    0.000 
#
# Total GULP energy -178809.407667 kJ/mol
# GULP energy per Si atom -5587.793990 kJ/mol
# Density = 2.038971 g / cm^3
# Si number density = 20.436223 Si / 1000 Ang^3
#
#
#
# Elastic Constant Matrix: (Units=GPa)
#
#
# Indices 1 2 3 4 5 6 
#
# 1 96.7757 2.2579 -1.9322 0.0000 7.3520 0.0000
# 2 2.2579 28.5086 1.6520 0.0000 -0.5631 0.0000
# 3 -1.9322 1.6520 59.3680 0.0000 -0.2389 0.0000
# 4 0.0000 0.0000 0.0000 22.0210 0.0000 5.3477
# 5 7.3520 -0.5631 -0.2389 0.0000 16.3321 0.0000
# 6 0.0000 0.0000 0.0000 5.3477 0.0000 26.7507
#
#
#
# Elastic Compliance Matrix: (Units=1/GPa)
#
#
# Indices 1 2 3 4 5 6 
#
# 1 0.010732 -0.000967 0.000357 0.000000 -0.004859 0.000000
# 2 -0.000967 0.035244 -0.001006 0.000000 0.001636 0.000000
# 3 0.000357 -0.001006 0.016884 0.000000 0.000052 0.000000
# 4 0.000000 0.000000 0.000000 0.047728 0.000000 -0.009541
# 5 -0.004859 0.001636 0.000052 0.000000 0.063473 0.000000
# 6 0.000000 0.000000 0.000000 -0.009541 0.000000 0.039290
#
#
# Mechanical properties :
#
#
# Convention : Reuss Voigt Hill
#
# Bulk Modulus (GPa) = 16.77036 20.95640 18.86338
# Shear Modulus (GPa) = 21.14533 25.19909 23.17221
#
# Velocity S-wave (km/s) = 3.22016 3.51531 3.37097
# Velocity P-wave (km/s) = 4.69574 5.17236 4.93980
#
# Compressibility (1/GPa) = 0.05962901
#
# Stress axis : x y z
#
# Youngs Moduli (GPa) = 93.17927 28.37339 59.22809
#
# Poissons Ratio (x) = 0.02743 -0.02112
# Poissons Ratio (y) = 0.09007 0.05956
# Poissons Ratio (z) = -0.03323 0.02853
#
# Static dielectric constant tensor:
#      x y z
#    x 1.720990 0.000000 -0.019200 
#    y 0.000000 1.707530 0.000000 
#    z -0.019200 0.000000 1.754040 
# 
# From -- ./inp_files/359949.got.cif
#   From: 2010.05.17/outbox.cif.g08.bks.cpg/sg12_180_cif.got.tgz:359949.got - 2010.06.03 13:09:07.
