data_PCOD9198061
_publ_section_title
;
Structure prediction by ZEFSAII (Michael W. Deem and Ramdas Pophale) SiO2 
 PCOD9198061
Probable space group: C 2/M
;
_chemical_formula_sum "Si O2"
_cell_formula_units_Z 64
_cell_length_a 22.441375
_cell_length_b 7.971529
_cell_length_c 22.329617
_cell_angle_alpha 90.000000
_cell_angle_beta 127.870477
_cell_angle_gamma 90.000000
_cell_volume 3153.332503
_symmetry_space_group_name_H-M "C 2/M"
_symmetry_group_IT_number 12
_symmetry_cell_setting 'monoclinic'
loop_
_space_group_symop_operation_xyz
x,y,z
-x,y,-z
-x,-y,-z
x,-y,z
1/2+x,1/2+y,z
1/2-x,1/2+y,-z
1/2-x,1/2-y,-z
1/2+x,1/2-y,z
loop_
_atom_site_type_symbol
_atom_site_label
_atom_site_fract_x
_atom_site_fract_y
_atom_site_fract_z
Si Si1 0.968705 0.704407 0.073713
Si Si2 0.698426 0.804458 0.593687
Si Si3 0.066986 0.803464 0.441585
Si Si4 0.381243 0.795607 0.907042
Si Si5 0.419881 0.803616 0.295972
Si Si6 0.997543 0.702871 0.774118
Si Si7 0.234814 0.194962 0.747249
Si Si8 0.153374 0.798974 0.376754
O O1 0.966304 0.500000 0.073450
O O2 0.968610 0.762272 0.142081
O O3 0.048435 0.749881 0.092196
O O4 0.903434 0.760972 0.987719
O O5 0.618120 0.720360 0.531280
O O6 0.725484 0.785371 0.678211
O O7 0.765369 0.731820 0.593064
O O8 0.688643 0.000000 0.574100
O O9 0.119344 0.737526 0.418783
O O10 0.986319 0.716749 0.385937
O O11 0.053344 0.000000 0.423574
O O12 0.303145 0.737969 0.830105
O O13 0.378930 0.000000 0.907555
O O14 0.455947 0.741209 0.255661
O O15 0.344322 0.710613 0.267531
O O16 0.402050 0.000000 0.278996
O O17 0.997814 0.500000 0.773782
O O18 0.911094 0.758174 0.711610
O O19 0.250715 0.000000 0.743744
O O20 0.160344 0.000000 0.385083
#
# Coordination Sequence:
#
# PCOD9198061 Si02
#       8
#     8   8   8   8   8   8   8   8
#     4   8  13  26  49  79 107 130 160 204 252 299
#     4  11  22  35  52  77 106 136 166 205 257 310
#     4  10  20  36  56  78 102 132 170 211 249 297
#     4   8  15  27  48  77 107 132 161 205 253 295
#     4  10  21  37  53  72 100 136 172 213 260 303
#     4   9  17  30  53  78 101 133 175 213 249 297
#     4  11  22  36  53  74  99 134 177 217 252 296
#     4   9  19  33  51  77 110 138 162 200 254 305
#
# _framework density 20.295988999999999
#
# number of rings (size 3 to 8) (size 9 to 14) (size 15 to 20)
#    0.000    2.500    0.000    3.375    0.000    3.500 
#    0.000    3.125    0.000    1.500    0.000    6.125 
#    0.000    0.000    0.000    0.000    0.000    0.000 
#
# Total GULP energy -178601.065088 kJ/mol
# GULP energy per Si atom -5581.283284 kJ/mol
# Density = 2.024979 g / cm^3
# Si number density = 20.295989 Si / 1000 Ang^3
#
#
#
# Elastic Constant Matrix: (Units=GPa)
#
#
# Indices 1 2 3 4 5 6 
#
# 1 37.5547 -4.4966 29.0235 0.0000 16.3784 0.0000
# 2 -4.4966 24.9202 -3.2989 0.0000 -0.7570 0.0000
# 3 29.0235 -3.2989 146.0622 0.0000 14.9917 0.0000
# 4 0.0000 0.0000 0.0000 15.7593 0.0000 -2.4442
# 5 16.3784 -0.7570 14.9917 0.0000 19.4183 0.0000
# 6 0.0000 0.0000 0.0000 -2.4442 0.0000 5.1083
#
#
#
# Elastic Compliance Matrix: (Units=1/GPa)
#
#
# Indices 1 2 3 4 5 6 
#
# 1 0.047071 0.006686 -0.005598 0.000000 -0.035120 0.000000
# 2 0.006686 0.041214 0.000018 0.000000 -0.004046 0.000000
# 3 -0.005598 0.000018 0.008118 0.000000 -0.001545 0.000000
# 4 0.000000 0.000000 0.000000 0.068541 0.000000 0.032795
# 5 -0.035120 -0.004046 -0.001545 0.000000 0.082155 0.000000
# 6 0.000000 0.000000 0.000000 0.032795 0.000000 0.211453
#
#
# Mechanical properties :
#
#
# Convention : Reuss Voigt Hill
#
# Bulk Modulus (GPa) = 10.14058 27.88814 19.01436
# Shear Modulus (GPa) = 10.22052 20.54443 15.38248
#
# Velocity S-wave (km/s) = 2.24648 3.18503 2.75600
# Velocity P-wave (km/s) = 3.42580 5.22459 4.41772
#
# Compressibility (1/GPa) = 0.09861368
#
# Stress axis : x y z
#
# Youngs Moduli (GPa) = 21.24448 24.26370 123.18802
#
# Poissons Ratio (x) = -0.16222 0.68956
# Poissons Ratio (y) = -0.14203 -0.00217
# Poissons Ratio (z) = 0.11892 -0.00043
#
# Static dielectric constant tensor:
#      x y z
#    x 1.714410 0.000000 -0.020470 
#    y 0.000000 1.711710 0.000000 
#    z -0.020470 0.000000 1.733070 
# 
# From -- ./inp_files/346180.got.cif
#   From: 2010.05.17/outbox.cif.g08.bks.cpg/sg12_174_cif.got.tgz:346180.got - 2010.06.03 13:09:07.
