data_PCOD9198504
_publ_section_title
;
Structure prediction by ZEFSAII (Michael W. Deem and Ramdas Pophale) SiO2 
 PCOD9198504
Probable space group: C 2/M
;
_chemical_formula_sum "Si O2"
_cell_formula_units_Z 64
_cell_length_a 13.435161
_cell_length_b 29.059897
_cell_length_c 8.868529
_cell_angle_alpha 90.000000
_cell_angle_beta 66.243442
_cell_angle_gamma 90.000000
_cell_volume 3169.097271
_symmetry_space_group_name_H-M "C 2/M"
_symmetry_group_IT_number 12
_symmetry_cell_setting 'monoclinic'
loop_
_space_group_symop_operation_xyz
x,y,z
-x,y,-z
-x,-y,-z
x,-y,z
1/2+x,1/2+y,z
1/2-x,1/2+y,-z
1/2-x,1/2-y,-z
1/2+x,1/2-y,z
loop_
_atom_site_type_symbol
_atom_site_label
_atom_site_fract_x
_atom_site_fract_y
_atom_site_fract_z
Si Si1 0.882393 0.644283 0.015053
Si Si2 0.310600 0.190277 0.341500
Si Si3 0.945340 0.862740 0.871583
Si Si4 0.075670 0.950257 0.309378
Si Si5 0.385253 0.103579 0.485394
Si Si6 0.622476 0.707233 0.675862
Si Si7 0.331543 0.947195 0.212385
Si Si8 0.738855 0.145936 0.185574
O O1 0.803778 0.671283 0.177239
O O2 0.873059 0.590142 0.064884
O O3 0.867913 0.655548 0.848281
O O4 0.000000 0.659417 0.000000
O O5 0.370353 0.152495 0.409165
O O6 0.374836 0.238182 0.308338
O O7 0.189471 0.196459 0.482934
O O8 0.964089 0.907163 0.760598
O O9 0.006842 0.818548 0.762307
O O10 0.819765 0.864024 0.997362
O O11 0.000000 0.868375 0.000000
O O12 0.200542 0.944157 0.283417
O O13 0.000000 0.952209 0.500000
O O14 0.068762 0.000000 0.233239
O O15 0.500000 0.098035 0.500000
O O16 0.367804 0.067913 0.359016
O O17 0.292668 0.106852 0.673373
O O18 0.701537 0.686015 0.757933
O O19 0.363334 0.000000 0.162239
#
# Coordination Sequence:
#
# PCOD9198504 Si02
#       8
#     8   8   8   8   8   8   8   8
#     4  11  22  37  60  85 117 159 198 250 312 359
#     4   9  20  39  61  84 119 156 202 241 293 361
#     4  10  21  35  59  88 123 154 186 244 303 353
#     4  10  22  38  60  88 118 156 199 240 292 360
#     4  10  21  40  64  83 115 161 203 253 301 357
#     4   9  20  38  60  87 120 154 201 243 289 365
#     4  10  22  41  62  87 119 156 204 251 296 363
#     4  10  20  36  57  88 120 151 194 248 308 355
#
# _framework density 20.195025000000001
#
# number of rings (size 3 to 8) (size 9 to 14) (size 15 to 20)
#    0.000    2.125    1.250    1.500    7.000    2.750 
#    0.000    5.625    0.000    0.000    0.000    0.000 
#    0.000    0.000    0.000    0.000    0.000    0.000 
#
# Total GULP energy -178299.163410 kJ/mol
# GULP energy per Si atom -5571.848857 kJ/mol
# Density = 2.014906 g / cm^3
# Si number density = 20.195025 Si / 1000 Ang^3
#
#
#
# Elastic Constant Matrix: (Units=GPa)
#
#
# Indices 1 2 3 4 5 6 
#
# 1 26.7452 -5.2046 -2.3411 0.0000 -6.6043 0.0000
# 2 -5.2046 90.2180 28.4665 0.0000 -6.1300 0.0000
# 3 -2.3411 28.4665 75.2224 0.0000 -3.6077 0.0000
# 4 0.0000 0.0000 0.0000 20.3027 0.0000 -13.4640
# 5 -6.6043 -6.1300 -3.6077 0.0000 26.4949 0.0000
# 6 0.0000 0.0000 0.0000 -13.4640 0.0000 22.3437
#
#
#
# Elastic Compliance Matrix: (Units=1/GPa)
#
#
# Indices 1 2 3 4 5 6 
#
# 1 0.040702 0.002867 0.000705 0.000000 0.010905 0.000000
# 2 0.002867 0.012927 -0.004656 0.000000 0.003072 0.000000
# 3 0.000705 -0.004656 0.015133 0.000000 0.001159 0.000000
# 4 0.000000 0.000000 0.000000 0.082038 0.000000 0.049435
# 5 0.010905 0.003072 0.001159 0.000000 0.041330 0.000000
# 6 0.000000 0.000000 0.000000 0.049435 0.000000 0.074544
#
#
# Mechanical properties :
#
#
# Convention : Reuss Voigt Hill
#
# Bulk Modulus (GPa) = 15.01620 26.00303 20.50961
# Shear Modulus (GPa) = 17.17969 25.24591 21.21280
#
# Velocity S-wave (km/s) = 2.91982 3.53952 3.24450
# Velocity P-wave (km/s) = 4.33807 5.44134 4.92072
#
# Compressibility (1/GPa) = 0.06659476
#
# Stress axis : x y z
#
# Youngs Moduli (GPa) = 24.56867 77.35562 66.07955
#
# Poissons Ratio (x) = -0.22175 -0.04658
# Poissons Ratio (y) = -0.07043 0.30764
# Poissons Ratio (z) = -0.01732 0.36013
#
# Static dielectric constant tensor:
#      x y z
#    x 1.858540 0.000000 -0.061760 
#    y 0.000000 1.704480 0.000000 
#    z -0.061760 0.000000 1.767500 
# 
# From -- ./inp_files/68209.got.cif
#   From: 2010.05.17/outbox.cif.g08.bks.cpg/sg12_35_cif.got.tgz:68209.got - 2010.06.03 13:09:07.
