data_PCOD9198006
_publ_section_title
;
Structure prediction by ZEFSAII (Michael W. Deem and Ramdas Pophale) SiO2 
 PCOD9198006
Probable space group: C 2/M
;
_chemical_formula_sum "Si O2"
_cell_formula_units_Z 56
_cell_length_a 8.904133
_cell_length_b 30.655169
_cell_length_c 14.698340
_cell_angle_alpha 90.000000
_cell_angle_beta 42.900975
_cell_angle_gamma 90.000000
_cell_volume 2731.119230
_symmetry_space_group_name_H-M "C 2/M"
_symmetry_group_IT_number 12
_symmetry_cell_setting 'monoclinic'
loop_
_space_group_symop_operation_xyz
x,y,z
-x,y,-z
-x,-y,-z
x,-y,z
1/2+x,1/2+y,z
1/2-x,1/2+y,-z
1/2-x,1/2-y,-z
1/2+x,1/2-y,z
loop_
_atom_site_type_symbol
_atom_site_label
_atom_site_fract_x
_atom_site_fract_y
_atom_site_fract_z
Si Si1 0.522303 0.272939 0.592559
Si Si2 0.033670 0.866773 0.848162
Si Si3 0.293736 0.950819 0.717969
Si Si4 0.430636 0.631344 0.679785
Si Si5 0.703847 0.450885 0.539085
Si Si6 0.238422 0.216963 0.854157
Si Si7 0.547783 0.164484 0.086356
O O1 0.500000 0.260025 0.500000
O O2 0.750000 0.250000 0.500000
O O3 0.528684 0.324858 0.594726
O O4 0.350175 0.253535 0.741894
O O5 0.008262 0.866009 0.750551
O O6 0.148680 0.912083 0.823391
O O7 0.177647 0.826149 0.821415
O O8 0.780318 0.861087 0.991627
O O9 0.244103 0.951084 0.631011
O O10 0.555356 0.942041 0.610516
O O11 0.247517 0.000000 0.771824
O O12 0.470713 0.586858 0.402927
O O13 0.166746 0.636942 0.789839
O O14 0.634087 0.500000 0.545214
O O15 0.402845 0.203860 0.864362
O O16 0.000000 0.230009 0.000000
O O17 0.500000 0.174566 0.000000
#
# Coordination Sequence:
#
# PCOD9198006 Si02
#       7
#     8   8   8   8   8   8   8
#     4  12  26  41  59  92 127 162 207 259 315 359
#     4   9  18  33  59  86 112 152 207 255 297 359
#     4   8  14  27  51  85 117 147 196 254 301 350
#     4  10  20  36  55  82 122 161 190 250 312 365
#     4   8  15  29  53  83 113 155 201 240 295 367
#     4  10  22  41  64  88 117 166 216 256 297 371
#     4   9  19  37  59  85 115 157 209 249 305 366
#
# _framework density 20.504415000000002
#
# number of rings (size 3 to 8) (size 9 to 14) (size 15 to 20)
#    0.000    2.571    0.000    2.571    2.000    1.714 
#    0.000    6.429    0.000    9.429    0.000    0.000 
#    0.000    0.000    0.000    0.000    0.000    0.000 
#
# Total GULP energy -156125.742527 kJ/mol
# GULP energy per Si atom -5575.919376 kJ/mol
# Density = 2.045775 g / cm^3
# Si number density = 20.504415 Si / 1000 Ang^3
#
#
#
# Elastic Constant Matrix: (Units=GPa)
#
#
# Indices 1 2 3 4 5 6 
#
# 1 83.6180 63.5670 32.9105 0.0000 -7.0810 0.0000
# 2 63.5670 133.0287 58.1367 0.0000 -28.2249 0.0000
# 3 32.9105 58.1367 74.7687 0.0000 -4.7161 0.0000
# 4 0.0000 0.0000 0.0000 32.8626 0.0000 -1.9587
# 5 -7.0810 -28.2249 -4.7161 0.0000 25.4972 0.0000
# 6 0.0000 0.0000 0.0000 -1.9587 0.0000 19.8998
#
#
#
# Elastic Compliance Matrix: (Units=1/GPa)
#
#
# Indices 1 2 3 4 5 6 
#
# 1 0.019612 -0.010160 -0.001111 0.000000 -0.006006 0.000000
# 2 -0.010160 0.020915 -0.010632 0.000000 0.018364 0.000000
# 3 -0.001111 -0.010632 0.021621 0.000000 -0.008079 0.000000
# 4 0.000000 0.000000 0.000000 0.030609 0.000000 0.003013
# 5 -0.006006 0.018364 -0.008079 0.000000 0.056387 0.000000
# 6 0.000000 0.000000 0.000000 0.003013 0.000000 0.050548
#
#
# Mechanical properties :
#
#
# Convention : Reuss Voigt Hill
#
# Bulk Modulus (GPa) = 54.52241 66.73821 60.63031
# Shear Modulus (GPa) = 20.03111 24.77200 22.40156
#
# Velocity S-wave (km/s) = 3.12896 3.47959 3.30892
# Velocity P-wave (km/s) = 6.30096 6.98300 6.65073
#
# Compressibility (1/GPa) = 0.01834108
#
# Stress axis : x y z
#
# Youngs Moduli (GPa) = 50.99035 47.81298 46.25111
#
# Poissons Ratio (x) = 0.48578 0.05140
# Poissons Ratio (y) = 0.51806 0.49174
# Poissons Ratio (z) = 0.05666 0.50835
#
# Static dielectric constant tensor:
#      x y z
#    x 1.715920 0.000000 0.011890 
#    y 0.000000 1.730130 0.000000 
#    z 0.011890 0.000000 1.723280 
# 
# From -- ./inp_files/200848.got.cif
#   From: 2010.05.17/outbox.cif.g08.bks.cpg/sg12_101_cif.got.tgz:200848.got - 2010.06.03 13:09:07.
