data_PCOD9198934
_publ_section_title
;
Structure prediction by ZEFSAII (Michael W. Deem and Ramdas Pophale) SiO2 
 PCOD9198934
Probable space group: C 2/M
;
_chemical_formula_sum "Si O2"
_cell_formula_units_Z 56
_cell_length_a 10.612016
_cell_length_b 26.535662
_cell_length_c 18.143257
_cell_angle_alpha 90.000000
_cell_angle_beta 151.772968
_cell_angle_gamma 90.000000
_cell_volume 2416.425802
_symmetry_space_group_name_H-M "C 2/M"
_symmetry_group_IT_number 12
_symmetry_cell_setting 'monoclinic'
loop_
_space_group_symop_operation_xyz
x,y,z
-x,y,-z
-x,-y,-z
x,-y,z
1/2+x,1/2+y,z
1/2-x,1/2+y,-z
1/2-x,1/2-y,-z
1/2+x,1/2-y,z
loop_
_atom_site_type_symbol
_atom_site_label
_atom_site_fract_x
_atom_site_fract_y
_atom_site_fract_z
Si Si1 0.152937 0.805712 0.244966
Si Si2 0.186578 0.800674 0.663682
Si Si3 0.761218 0.059656 0.823688
Si Si4 0.380390 0.596714 0.111568
Si Si5 0.458800 0.441765 0.648468
Si Si6 0.610080 0.088109 0.243326
Si Si7 0.710693 0.838511 0.519120
O O1 0.125203 0.746236 0.220361
O O2 0.425469 0.820375 0.341634
O O3 0.237466 0.819986 0.371526
O O4 0.904034 0.843086 0.108383
O O5 0.335563 0.852329 0.722695
O O6 0.000000 0.784053 0.500000
O O7 0.964996 0.815524 0.609111
O O8 0.491448 0.070798 0.729357
O O9 0.849376 0.077576 0.788422
O O10 0.782899 0.000000 0.832470
O O11 0.000000 0.080261 0.000000
O O12 0.378126 0.577796 0.194646
O O13 0.127794 0.576921 0.936828
O O14 0.379222 0.500000 0.616848
O O15 0.633509 0.436014 0.664019
O O16 0.233203 0.398943 0.529120
#
# Coordination Sequence:
#
# PCOD9198934 Si02
#       7
#     8   8   8   8   8   8   8
#     4  10  20  36  59  79 109 147 180 232 281 327
#     4  11  22  35  60  79 105 151 191 222 278 335
#     4   9  18  34  54  78 111 147 179 216 269 329
#     4  10  21  35  56  85 115 143 183 229 280 330
#     4  10  20  37  61  83 111 150 185 225 279 330
#     4  10  22  36  54  86 115 142 186 234 268 332
#     4   9  20  37  54  85 109 136 191 234 262 326
#
# _framework density 23.174724000000001
#
# number of rings (size 3 to 8) (size 9 to 14) (size 15 to 20)
#    0.000    2.143    1.429    1.714    2.000    2.857 
#    0.000    6.429    0.000    5.571    0.000    0.000 
#    0.000    0.000    0.000    0.000    0.000    0.000 
#
# Total GULP energy -156242.029488 kJ/mol
# GULP energy per Si atom -5580.072482 kJ/mol
# Density = 2.312198 g / cm^3
# Si number density = 23.174724 Si / 1000 Ang^3
#
#
#
# Elastic Constant Matrix: (Units=GPa)
#
#
# Indices 1 2 3 4 5 6 
#
# 1 84.0275 12.4119 -3.4996 0.0050 5.6684 0.0029
# 2 12.4119 144.9249 -17.9430 -0.0013 3.2989 0.0004
# 3 -3.4996 -17.9430 33.9534 0.0194 -3.0434 0.0157
# 4 0.0050 -0.0013 0.0194 16.1439 0.0043 -5.1175
# 5 5.6684 3.2989 -3.0434 0.0043 20.9044 0.0030
# 6 0.0029 0.0004 0.0157 -5.1175 0.0030 18.4064
#
#
#
# Elastic Compliance Matrix: (Units=1/GPa)
#
#
# Indices 1 2 3 4 5 6 
#
# 1 0.012267 -0.000918 0.000501 -0.000005 -0.003109 -0.000003
# 2 -0.000918 0.007459 0.003814 -0.000005 -0.000373 -0.000005
# 3 0.000501 0.003814 0.031869 -0.000053 0.003902 -0.000043
# 4 -0.000005 -0.000005 -0.000053 0.067930 -0.000022 0.018886
# 5 -0.003109 -0.000373 0.003902 -0.000022 0.049307 -0.000017
# 6 -0.000003 -0.000005 -0.000043 0.018886 -0.000017 0.059580
#
#
# Mechanical properties :
#
#
# Convention : Reuss Voigt Hill
#
# Bulk Modulus (GPa) = 17.12648 27.20495 22.16571
# Shear Modulus (GPa) = 20.73987 29.22003 24.97995
#
# Velocity S-wave (km/s) = 2.99479 3.55471 3.28669
# Velocity P-wave (km/s) = 4.40052 5.34906 4.89781
#
# Compressibility (1/GPa) = 0.05838913
#
# Stress axis : x y z
#
# Youngs Moduli (GPa) = 81.51954 134.05852 31.37836
#
# Poissons Ratio (x) = 0.12305 -0.01571
# Poissons Ratio (y) = 0.07482 -0.11968
# Poissons Ratio (z) = -0.04081 -0.51130
#
# Static dielectric constant tensor:
#      x y z
#    x 1.993080 0.000000 0.088690 
#    y 0.000000 1.902780 0.000000 
#    z 0.088690 0.000000 1.973740 
# 
# From -- ./inp_files/259812.got.cif
#   From: 2010.05.17/outbox.cif.g08.bks.cpg/sg12_130_cif.got.tgz:259812.got - 2010.06.03 13:09:07.
