data_PCOD9198442
_publ_section_title
;
Structure prediction by ZEFSAII (Michael W. Deem and Ramdas Pophale) SiO2 
 PCOD9198442
Probable space group: C 2/M
;
_chemical_formula_sum "Si O2"
_cell_formula_units_Z 48
_cell_length_a 13.897233
_cell_length_b 13.804791
_cell_length_c 15.670750
_cell_angle_alpha 90.000000
_cell_angle_beta 39.477355
_cell_angle_gamma 90.000000
_cell_volume 1911.393810
_symmetry_space_group_name_H-M "C 2/M"
_symmetry_group_IT_number 12
_symmetry_cell_setting 'monoclinic'
loop_
_space_group_symop_operation_xyz
x,y,z
-x,y,-z
-x,-y,-z
x,-y,z
1/2+x,1/2+y,z
1/2-x,1/2+y,-z
1/2-x,1/2-y,-z
1/2+x,1/2-y,z
loop_
_atom_site_type_symbol
_atom_site_label
_atom_site_fract_x
_atom_site_fract_y
_atom_site_fract_z
Si Si1 0.843294 0.616083 0.291282
Si Si2 0.338608 0.390653 0.426890
Si Si3 0.435947 0.610943 0.176595
Si Si4 0.093368 0.300994 0.020023
Si Si5 0.133939 0.184127 0.278292
Si Si6 0.594622 0.895705 0.346423
O O1 0.823629 0.500000 0.298598
O O2 0.785270 0.648096 0.423659
O O3 0.737499 0.665400 0.290712
O O4 0.015380 0.643721 0.151136
O O5 0.291871 0.500000 0.437140
O O6 0.382121 0.349440 0.305521
O O7 0.495215 0.388531 0.371342
O O8 0.493356 0.500000 0.142662
O O9 0.554872 0.687400 0.058261
O O10 0.276637 0.607222 0.235611
O O11 0.263608 0.322971 0.876880
O O12 0.000000 0.333321 0.000000
O O13 0.064902 0.291548 0.327303
O O14 0.500000 0.896408 0.500000
O O15 0.560813 0.000000 0.327013
#
# Coordination Sequence:
#
# PCOD9198442 Si02
#       6
#     8   8   8   8   8   8
#     4  10  20  36  57  84 115 152 197 237 282 340
#     4  10  22  38  61  87 115 153 192 239 289 338
#     4  10  21  39  61  85 116 151 193 238 288 343
#     4  10  21  36  55  87 115 151 194 232 290 337
#     4  11  21  36  58  87 118 151 194 234 285 342
#     4  10  20  36  59  87 116 147 194 243 283 333
#
# _framework density 25.112563999999999
#
# number of rings (size 3 to 8) (size 9 to 14) (size 15 to 20)
#    0.000    1.833    3.333    2.000    0.000    7.333 
#    0.000    0.000    0.000    0.000    0.000    0.000 
#    0.000    0.000    0.000    0.000    0.000    0.000 
#
# Total GULP energy -134214.797667 kJ/mol
# GULP energy per Si atom -5592.283236 kJ/mol
# Density = 2.505541 g / cm^3
# Si number density = 25.112564 Si / 1000 Ang^3
#
#
#
# Elastic Constant Matrix: (Units=GPa)
#
#
# Indices 1 2 3 4 5 6 
#
# 1 49.8444 2.8670 6.1805 0.0000 -3.9271 0.0000
# 2 2.8670 101.5254 20.5506 0.0000 -7.4203 0.0000
# 3 6.1805 20.5506 145.2926 0.0000 12.7295 0.0000
# 4 0.0000 0.0000 0.0000 13.3695 0.0000 13.8289
# 5 -3.9271 -7.4203 12.7295 0.0000 28.9525 0.0000
# 6 0.0000 0.0000 0.0000 13.8289 0.0000 9.8569
#
#
#
# Elastic Compliance Matrix: (Units=1/GPa)
#
#
# Indices 1 2 3 4 5 6 
#
# 1 0.020466 -0.000110 -0.001140 0.000000 0.003249 0.000000
# 2 -0.000110 0.010465 -0.001778 0.000000 0.003449 0.000000
# 3 -0.001140 -0.001778 0.007526 0.000000 -0.003919 0.000000
# 4 0.000000 0.000000 0.000000 -0.165778 0.000000 0.232583
# 5 0.003249 0.003449 -0.003919 0.000000 0.037587 0.000000
# 6 0.000000 0.000000 0.000000 0.232583 0.000000 -0.224856
#
#
# Mechanical properties :
#
#
# Convention : Reuss Voigt Hill
#
# Bulk Modulus (GPa) = 30.86189 39.53985 35.20087
# Shear Modulus (GPa) = -16.79346 28.24007 5.72331
#
# Velocity S-wave (km/s) = -2.58878 3.35705 1.51129
# Velocity P-wave (km/s) = 1.83858 5.55028 4.13437
#
# Compressibility (1/GPa) = 0.03240243
#
# Stress axis : x y z
#
# Youngs Moduli (GPa) = 48.86142 95.55905 132.87370
#
# Poissons Ratio (x) = 0.01049 0.15144
# Poissons Ratio (y) = 0.00536 0.23620
# Poissons Ratio (z) = 0.05569 0.16987
#
# Static dielectric constant tensor:
#      x y z
#    x 1.984040 0.000000 0.020820 
#    y 0.000000 1.986240 0.000000 
#    z 0.020820 0.000000 1.951320 
# 
# From -- ./inp_files/225103.got.cif
#   From: 2010.05.17/outbox.cif.g08.bks.cpg/sg12_113_cif.got.tgz:225103.got - 2010.06.03 13:09:07.
