data_PCOD9198245
_publ_section_title
;
Structure prediction by ZEFSAII (Michael W. Deem and Ramdas Pophale) SiO2 
 PCOD9198245
Probable space group: C 2/M
;
_chemical_formula_sum "Si O2"
_cell_formula_units_Z 64
_cell_length_a 28.802958
_cell_length_b 8.828491
_cell_length_c 14.613307
_cell_angle_alpha 90.000000
_cell_angle_beta 104.702578
_cell_angle_gamma 90.000000
_cell_volume 3594.294516
_symmetry_space_group_name_H-M "C 2/M"
_symmetry_group_IT_number 12
_symmetry_cell_setting 'monoclinic'
loop_
_space_group_symop_operation_xyz
x,y,z
-x,y,-z
-x,-y,-z
x,-y,z
1/2+x,1/2+y,z
1/2-x,1/2+y,-z
1/2-x,1/2-y,-z
1/2+x,1/2-y,z
loop_
_atom_site_type_symbol
_atom_site_label
_atom_site_fract_x
_atom_site_fract_y
_atom_site_fract_z
Si Si1 0.934251 0.317797 0.289452
Si Si2 0.163219 0.317630 0.113309
Si Si3 0.045085 0.682012 0.363028
Si Si4 0.302827 0.318355 0.527681
Si Si5 0.876821 0.181079 0.724798
Si Si6 0.265327 0.319088 0.105171
Si Si7 0.889695 0.181874 0.445738
Si Si8 0.360585 0.181520 0.106542
O O1 0.932376 0.500000 0.298819
O O2 0.902532 0.244545 0.353178
O O3 0.910565 0.280108 0.179844
O O4 0.989599 0.271764 0.326986
O O5 0.157969 0.500000 0.117960
O O6 0.135450 0.236596 0.180311
O O7 0.220352 0.282108 0.147582
O O8 0.145426 0.271561 0.002512
O O9 0.047444 0.500000 0.370448
O O10 0.076208 0.739705 0.293017
O O11 0.070531 0.753777 0.464277
O O12 0.298644 0.500000 0.523075
O O13 0.250000 0.250000 0.500000
O O14 0.332932 0.277875 0.634109
O O15 0.337750 0.272377 0.460968
O O16 0.882560 0.000000 0.723791
O O17 0.268131 0.500000 0.100194
O O18 0.317765 0.251680 0.145968
O O19 0.250000 0.250000 0.000000
O O20 0.891675 0.000000 0.447646
O O21 0.354461 0.000000 0.104149
#
# Coordination Sequence:
#
# PCOD9198245 Si02
#       8
#     8   8   8   8   8   8   8   8
#     4  10  21  36  55  79 105 136 174 216 263 312
#     4   9  18  33  53  75 101 138 178 212 252 305
#     4  10  20  36  57  78 101 133 175 217 259 313
#     4   9  20  36  52  75 106 137 168 205 251 301
#     4  10  21  36  54  77 104 135 173 215 260 310
#     4   9  17  30  49  73 101 134 172 211 253 303
#     4  10  21  36  54  79 109 138 171 212 259 312
#     4   9  19  35  52  75 108 139 173 219 263 305
#
# _framework density 17.805997999999999
#
# number of rings (size 3 to 8) (size 9 to 14) (size 15 to 20)
#    0.000    2.500    0.000    3.375    0.000    9.500 
#    0.000    5.625    0.000    3.750    0.000    0.000 
#    0.000    0.000    0.000    0.000    0.000    0.000 
#
# Total GULP energy -178437.397871 kJ/mol
# GULP energy per Si atom -5576.168683 kJ/mol
# Density = 1.776547 g / cm^3
# Si number density = 17.805998 Si / 1000 Ang^3
#
#
#
# Elastic Constant Matrix: (Units=GPa)
#
#
# Indices 1 2 3 4 5 6 
#
# 1 126.1350 31.0646 64.6972 0.0000 7.5759 0.0000
# 2 31.0646 17.2309 22.0393 0.0000 -0.0361 0.0000
# 3 64.6972 22.0393 79.9255 0.0000 -11.7356 0.0000
# 4 0.0000 0.0000 0.0000 23.1221 0.0000 -5.6460
# 5 7.5759 -0.0361 -11.7356 0.0000 25.1289 0.0000
# 6 0.0000 0.0000 0.0000 -5.6460 0.0000 28.0645
#
#
#
# Elastic Compliance Matrix: (Units=1/GPa)
#
#
# Indices 1 2 3 4 5 6 
#
# 1 0.019904 -0.020227 -0.012260 0.000000 -0.011756 0.000000
# 2 -0.020227 0.113873 -0.015146 0.000000 -0.000812 0.000000
# 3 -0.012260 -0.015146 0.029151 0.000000 0.017288 0.000000
# 4 0.000000 0.000000 0.000000 0.045483 0.000000 0.009150
# 5 -0.011756 -0.000812 0.017288 0.000000 0.051412 0.000000
# 6 0.000000 0.000000 0.000000 0.009150 0.000000 0.037473
#
#
# Mechanical properties :
#
#
# Convention : Reuss Voigt Hill
#
# Bulk Modulus (GPa) = 14.77959 50.98817 32.88388
# Shear Modulus (GPa) = 12.04480 22.29578 17.17029
#
# Velocity S-wave (km/s) = 2.60368 3.54241 3.10868
# Velocity P-wave (km/s) = 4.16620 6.74011 5.60296
#
# Compressibility (1/GPa) = 0.06766086
#
# Stress axis : x y z
#
# Youngs Moduli (GPa) = 50.24074 8.78171 34.30409
#
# Poissons Ratio (x) = 0.17763 0.42058
# Poissons Ratio (y) = 1.01622 0.51958
# Poissons Ratio (z) = 0.61597 0.13301
#
# Static dielectric constant tensor:
#      x y z
#    x 1.608180 0.000000 0.004870 
#    y 0.000000 1.597070 0.000000 
#    z 0.004870 0.000000 1.604050 
# 
# From -- ./inp_files/244092.got.cif
#   From: 2010.05.17/outbox.cif.g08.bks.cpg/sg12_123_cif.got.tgz:244092.got - 2010.06.03 13:09:07.
