data_PCOD9198396
_publ_section_title
;
Structure prediction by ZEFSAII (Michael W. Deem and Ramdas Pophale) SiO2 
 PCOD9198396
Probable space group: C 2/M
;
_chemical_formula_sum "Si O2"
_cell_formula_units_Z 58
_cell_length_a 17.572683
_cell_length_b 14.160165
_cell_length_c 26.222425
_cell_angle_alpha 90.000000
_cell_angle_beta 26.312928
_cell_angle_gamma 90.000000
_cell_volume 2892.350828
_symmetry_space_group_name_H-M "C 2/M"
_symmetry_group_IT_number 12
_symmetry_cell_setting 'monoclinic'
loop_
_space_group_symop_operation_xyz
x,y,z
-x,y,-z
-x,-y,-z
x,-y,z
1/2+x,1/2+y,z
1/2-x,1/2+y,-z
1/2-x,1/2-y,-z
1/2+x,1/2-y,z
loop_
_atom_site_type_symbol
_atom_site_label
_atom_site_fract_x
_atom_site_fract_y
_atom_site_fract_z
Si Si1 0.663932 0.154933 0.472420
Si Si2 0.992202 0.695939 0.165667
Si Si3 0.668652 0.642314 0.423970
Si Si4 0.527694 0.611551 0.204491
Si Si5 0.598578 0.895155 0.622161
Si Si6 0.000000 0.500000 0.500000
Si Si7 0.390403 0.805481 0.018121
Si Si8 0.776207 0.611626 0.888407
O O1 0.626867 0.253300 0.468182
O O2 0.861117 0.125578 0.340765
O O3 0.636391 0.164008 0.549333
O O4 0.542965 0.080798 0.517211
O O5 0.818154 0.652135 0.292291
O O6 0.002281 0.807239 0.176062
O O7 0.143294 0.641412 0.105367
O O8 0.015402 0.681111 0.092273
O O9 0.500000 0.600479 0.500000
O O10 0.753394 0.601017 0.424161
O O11 0.531584 0.500000 0.186585
O O12 0.705335 0.642923 0.124530
O O13 0.428693 0.869711 0.755960
O O14 0.573037 0.000000 0.616929
O O15 0.361747 0.692136 0.039854
O O16 0.500000 0.839598 0.000000
O O17 0.731505 0.500000 0.914014
#
# Coordination Sequence:
#
# PCOD9198396 Si02
#       8
#     8   8   8   8   8   2   8   8
#     4  11  21  37  57  88 120 148 186 240 295 338
#     4   9  21  38  57  79 111 146 186 239 282 329
#     4  10  21  35  57  86 114 149 194 230 283 351
#     4  10  20  38  60  81 109 153 191 225 282 346
#     4  10  20  36  57  82 117 154 183 230 292 341
#     4  12  20  36  60  88 122 142 188 244 284 336
#     4  11  24  39  54  83 116 144 190 243 280 328
#     4   9  19  38  60  80 105 149 190 227 285 344
#
# _framework density 20.052892
#
# number of rings (size 3 to 8) (size 9 to 14) (size 15 to 20)
#    0.000    1.931    2.069    2.897    0.000    5.241 
#    0.000    0.000    0.000    0.000    0.000    0.000 
#    0.000    0.000    0.000    0.000    0.000    0.000 
#
# Total GULP energy -161460.559598 kJ/mol
# GULP energy per Si atom -5567.605503 kJ/mol
# Density = 2.000725 g / cm^3
# Si number density = 20.052892 Si / 1000 Ang^3
#
#
#
# Elastic Constant Matrix: (Units=GPa)
#
#
# Indices 1 2 3 4 5 6 
#
# 1 118.7209 3.7204 48.2538 -0.0011 15.3470 -0.0004
# 2 3.7204 84.3016 5.5594 0.0003 6.2827 0.0017
# 3 48.2538 5.5594 45.3841 -0.0003 13.7322 0.0016
# 4 -0.0011 0.0003 -0.0003 -7.7797 0.0007 16.2171
# 5 15.3470 6.2827 13.7322 0.0007 20.5554 -0.0029
# 6 -0.0004 0.0017 0.0016 16.2171 -0.0029 25.9571
#
#
#
# Elastic Compliance Matrix: (Units=1/GPa)
#
#
# Indices 1 2 3 4 5 6 
#
# 1 0.014856 0.000433 -0.015607 0.000000 -0.000798 0.000001
# 2 0.000433 0.012159 -0.000912 -0.000001 -0.003430 -0.000001
# 3 -0.015607 -0.000912 0.044030 -0.000005 -0.017483 -0.000002
# 4 0.000000 -0.000001 -0.000005 -0.055830 0.000010 0.034880
# 5 -0.000798 -0.003430 -0.017483 0.000010 0.061973 0.000002
# 6 0.000001 -0.000001 -0.000002 0.034880 0.000002 0.016733
#
#
# Mechanical properties :
#
#
# Convention : Reuss Voigt Hill
#
# Bulk Modulus (GPa) = 25.72487 40.38600 33.05543
# Shear Modulus (GPa) = 35.95805 20.47142 28.21473
#
# Velocity S-wave (km/s) = 4.23917 3.19857 3.75509
# Velocity P-wave (km/s) = 6.06771 5.81589 5.94313
#
# Compressibility (1/GPa) = 0.03887289
#
# Stress axis : x y z
#
# Youngs Moduli (GPa) = 67.31203 82.24460 22.71178
#
# Poissons Ratio (x) = -0.03562 0.35447
# Poissons Ratio (y) = -0.02915 0.02071
# Poissons Ratio (z) = 1.05056 0.07500
#
# Static dielectric constant tensor:
#      x y z
#    x 1.713220 0.000000 -0.004170 
#    y 0.000000 1.731630 0.000000 
#    z -0.004170 0.000000 1.754250 
# 
# From -- ./inp_files/343805.got.cif
#   From: 2010.05.17/outbox.cif.g08.bks.cpg/sg12_172_cif.got.tgz:343805.got - 2010.06.03 13:09:07.
