data_PCOD9198593
_publ_section_title
;
Structure prediction by ZEFSAII (Michael W. Deem and Ramdas Pophale) SiO2 
 PCOD9198593
Probable space group: C 2/M
;
_chemical_formula_sum "Si O2"
_cell_formula_units_Z 48
_cell_length_a 31.288469
_cell_length_b 8.933566
_cell_length_c 18.319858
_cell_angle_alpha 90.000000
_cell_angle_beta 148.630724
_cell_angle_gamma 90.000000
_cell_volume 2665.601739
_symmetry_space_group_name_H-M "C 2/M"
_symmetry_group_IT_number 12
_symmetry_cell_setting 'monoclinic'
loop_
_space_group_symop_operation_xyz
x,y,z
-x,y,-z
-x,-y,-z
x,-y,z
1/2+x,1/2+y,z
1/2-x,1/2+y,-z
1/2-x,1/2-y,-z
1/2+x,1/2-y,z
loop_
_atom_site_type_symbol
_atom_site_label
_atom_site_fract_x
_atom_site_fract_y
_atom_site_fract_z
Si Si1 0.167488 0.822658 0.908611
Si Si2 0.247856 0.679724 0.416362
Si Si3 0.088239 0.678432 0.405542
Si Si4 0.017027 0.677421 0.608713
Si Si5 0.567369 0.320298 0.902548
Si Si6 0.086416 0.320448 0.087436
O O1 0.093079 0.771047 0.748977
O O2 0.138353 0.779211 0.947719
O O3 0.176451 0.000000 0.920333
O O4 0.250000 0.750000 0.000000
O O5 0.252641 0.500000 0.428563
O O6 0.250000 0.750000 0.500000
O O7 0.326166 0.743261 0.487337
O O8 0.163356 0.718316 0.251253
O O9 0.094470 0.500000 0.402441
O O10 0.057807 0.704157 0.444275
O O11 0.016531 0.744911 0.249238
O O12 0.036545 0.500000 0.642376
O O13 0.000000 0.712519 0.500000
O O14 0.557543 0.500000 0.887508
O O15 0.589091 0.262089 0.014081
O O16 0.088284 0.500000 0.078092
O O17 0.000000 0.284134 0.000000
#
# Coordination Sequence:
#
# PCOD9198593 Si02
#       6
#     8   8   8   8   8   8
#     4  10  21  36  55  81 112 146 185 228 274 325
#     4  11  23  38  58  84 113 144 182 227 273 326
#     4  10  20  36  58  81 111 149 184 224 276 328
#     4   9  19  36  57  81 110 146 186 227 273 325
#     4  10  21  37  58  83 110 143 186 231 272 322
#     4  10  22  39  58  82 112 145 181 223 273 327
#
# _framework density 18.007190999999999
#
# number of rings (size 3 to 8) (size 9 to 14) (size 15 to 20)
#    0.000    2.000    0.000    3.000    0.000    7.333 
#    0.000    5.000    0.000    0.000    0.000    0.000 
#    0.000    0.000    0.000    0.000    0.000    0.000 
#
# Total GULP energy -134035.974651 kJ/mol
# GULP energy per Si atom -5584.832277 kJ/mol
# Density = 1.796621 g / cm^3
# Si number density = 18.007191 Si / 1000 Ang^3
#
#
#
# Elastic Constant Matrix: (Units=GPa)
#
#
# Indices 1 2 3 4 5 6 
#
# 1 146.2260 75.1556 107.4860 0.0000 3.3329 0.0000
# 2 75.1556 62.7759 66.6744 0.0000 1.9084 0.0000
# 3 107.4860 66.6744 130.0498 0.0000 7.7470 0.0000
# 4 0.0000 0.0000 0.0000 33.5419 0.0000 3.0996
# 5 3.3329 1.9084 7.7470 0.0000 40.1406 0.0000
# 6 0.0000 0.0000 0.0000 3.0996 0.0000 33.3231
#
#
#
# Elastic Compliance Matrix: (Units=1/GPa)
#
#
# Indices 1 2 3 4 5 6 
#
# 1 0.023114 -0.016139 -0.010886 0.000000 0.000949 0.000000
# 2 -0.016139 0.046374 -0.010506 0.000000 0.001163 0.000000
# 3 -0.010886 -0.010506 0.022245 0.000000 -0.002890 0.000000
# 4 0.000000 0.000000 0.000000 0.030072 0.000000 -0.002797
# 5 0.000949 0.001163 -0.002890 0.000000 0.025336 0.000000
# 6 0.000000 0.000000 0.000000 -0.002797 0.000000 0.030269
#
#
# Mechanical properties :
#
#
# Convention : Reuss Voigt Hill
#
# Bulk Modulus (GPa) = 59.98223 93.07596 76.52910
# Shear Modulus (GPa) = 19.37770 27.38352 23.38061
#
# Velocity S-wave (km/s) = 3.28397 3.90384 3.60725
# Velocity P-wave (km/s) = 6.91099 8.49237 7.74216
#
# Compressibility (1/GPa) = 0.01667160
#
# Stress axis : x y z
#
# Youngs Moduli (GPa) = 43.26388 21.56386 44.95412
#
# Poissons Ratio (x) = 0.34802 0.48937
# Poissons Ratio (y) = 0.69823 0.47227
# Poissons Ratio (z) = 0.47097 0.22654
#
# Static dielectric constant tensor:
#      x y z
#    x 1.614980 0.000000 0.003570 
#    y 0.000000 1.602960 0.000000 
#    z 0.003570 0.000000 1.578090 
# 
# From -- ./inp_files/274071.got.cif
#   From: 2010.05.17/outbox.cif.g08.bks.cpg/sg12_138_cif.got.tgz:274071.got - 2010.06.03 13:09:07.
