data_PCOD9198143
_publ_section_title
;
Structure prediction by ZEFSAII (Michael W. Deem and Ramdas Pophale) SiO2 
 PCOD9198143
Probable space group: C 2/M
;
_chemical_formula_sum "Si O2"
_cell_formula_units_Z 56
_cell_length_a 19.818562
_cell_length_b 10.113461
_cell_length_c 11.739033
_cell_angle_alpha 90.000000
_cell_angle_beta 84.628063
_cell_angle_gamma 90.000000
_cell_volume 2342.570220
_symmetry_space_group_name_H-M "C 2/M"
_symmetry_group_IT_number 12
_symmetry_cell_setting 'monoclinic'
loop_
_space_group_symop_operation_xyz
x,y,z
-x,y,-z
-x,-y,-z
x,-y,z
1/2+x,1/2+y,z
1/2-x,1/2+y,-z
1/2-x,1/2-y,-z
1/2+x,1/2-y,z
loop_
_atom_site_type_symbol
_atom_site_label
_atom_site_fract_x
_atom_site_fract_y
_atom_site_fract_z
Si Si1 0.240172 0.197049 0.684368
Si Si2 0.670456 0.141963 0.854176
Si Si3 0.556294 0.646385 0.860045
Si Si4 0.913755 0.158558 0.806433
Si Si5 0.396611 0.157145 0.597226
Si Si6 0.898627 0.858391 0.407019
Si Si7 0.300803 0.856565 0.902927
O O1 0.213081 0.338812 0.731201
O O2 0.314407 0.175651 0.623230
O O3 0.181543 0.144881 0.612689
O O4 0.243926 0.138935 0.813297
O O5 0.610972 0.245980 0.883485
O O6 0.636786 0.000000 0.852728
O O7 0.716136 0.143703 0.961023
O O8 0.572896 0.500000 0.901921
O O9 0.476652 0.673511 0.882996
O O10 0.565429 0.640784 0.720495
O O11 0.925902 0.248647 0.692024
O O12 0.848733 0.233581 0.866853
O O13 0.904902 0.000000 0.786599
O O14 0.088179 0.500000 0.399421
O O15 0.415934 0.230337 0.477507
O O16 0.912953 0.000000 0.463232
O O17 0.337737 0.000000 0.880276
#
# Coordination Sequence:
#
# PCOD9198143 Si02
#       7
#     8   8   8   8   8   8   8
#     4  10  20  36  56  80 113 148 183 225 275 330
#     4  10  22  37  58  86 115 148 188 232 280 332
#     4   9  21  40  60  82 113 149 188 233 280 329
#     4  10  21  39  60  83 111 148 191 233 276 332
#     4  11  23  38  57  84 115 148 184 231 284 334
#     4  10  20  36  58  82 108 146 189 232 279 331
#     4  10  21  38  58  85 117 149 186 232 282 330
#
# _framework density 23.905369
#
# number of rings (size 3 to 8) (size 9 to 14) (size 15 to 20)
#    0.000    2.000    0.000    3.857    0.000    9.143 
#    0.000    5.714    0.000    0.000    0.000    0.000 
#    0.000    0.000    0.000    0.000    0.000    0.000 
#
# Total GULP energy -156171.358577 kJ/mol
# GULP energy per Si atom -5577.548521 kJ/mol
# Density = 2.385096 g / cm^3
# Si number density = 23.905369 Si / 1000 Ang^3
#
#
#
# Elastic Constant Matrix: (Units=GPa)
#
#
# Indices 1 2 3 4 5 6 
#
# 1 75.8962 41.2308 -13.2365 0.0000 15.0179 0.0000
# 2 41.2308 198.7869 40.4525 0.0000 18.1045 0.0000
# 3 -13.2365 40.4525 74.3976 0.0000 0.5872 0.0000
# 4 0.0000 0.0000 0.0000 21.1323 0.0000 -3.1940
# 5 15.0179 18.1045 0.5872 0.0000 26.6998 0.0000
# 6 0.0000 0.0000 0.0000 -3.1940 0.0000 15.4112
#
#
#
# Elastic Compliance Matrix: (Units=1/GPa)
#
#
# Indices 1 2 3 4 5 6 
#
# 1 0.017839 -0.004148 0.005487 0.000000 -0.007342 0.000000
# 2 -0.004148 0.007027 -0.004541 0.000000 -0.002332 0.000000
# 3 0.005487 -0.004541 0.016889 0.000000 -0.000379 0.000000
# 4 0.000000 0.000000 0.000000 0.048851 0.000000 0.010124
# 5 -0.007342 -0.002332 -0.000379 0.000000 0.043173 0.000000
# 6 0.000000 0.000000 0.000000 0.010124 0.000000 0.066986
#
#
# Mechanical properties :
#
#
# Convention : Reuss Voigt Hill
#
# Bulk Modulus (GPa) = 28.28608 53.99714 41.14161
# Shear Modulus (GPa) = 22.83597 31.35759 27.09678
#
# Velocity S-wave (km/s) = 3.09409 3.62572 3.37040
# Velocity P-wave (km/s) = 4.96213 6.33756 5.69155
#
# Compressibility (1/GPa) = 0.03535308
#
# Stress axis : x y z
#
# Youngs Moduli (GPa) = 56.05663 142.30361 59.20879
#
# Poissons Ratio (x) = 0.59028 -0.32489
# Poissons Ratio (y) = 0.23252 0.26884
# Poissons Ratio (z) = -0.30760 0.64613
#
# Static dielectric constant tensor:
#      x y z
#    x 1.939610 0.000000 -0.027950 
#    y 0.000000 2.050010 0.000000 
#    z -0.027950 0.000000 1.972940 
# 
# From -- ./inp_files/164853.got.cif
#   From: 2010.05.17/outbox.cif.g08.bks.cpg/sg12_83_cif.got.tgz:164853.got - 2010.06.03 13:09:07.
