data_PCOD9198705
_publ_section_title
;
Structure prediction by ZEFSAII (Michael W. Deem and Ramdas Pophale) SiO2 
 PCOD9198705
Probable space group: C 2/M
;
_chemical_formula_sum "Si O2"
_cell_formula_units_Z 56
_cell_length_a 28.082813
_cell_length_b 8.441771
_cell_length_c 14.032319
_cell_angle_alpha 90.000000
_cell_angle_beta 119.965431
_cell_angle_gamma 90.000000
_cell_volume 2881.943302
_symmetry_space_group_name_H-M "C 2/M"
_symmetry_group_IT_number 12
_symmetry_cell_setting 'monoclinic'
loop_
_space_group_symop_operation_xyz
x,y,z
-x,y,-z
-x,-y,-z
x,-y,z
1/2+x,1/2+y,z
1/2-x,1/2+y,-z
1/2-x,1/2-y,-z
1/2+x,1/2-y,z
loop_
_atom_site_type_symbol
_atom_site_label
_atom_site_fract_x
_atom_site_fract_y
_atom_site_fract_z
Si Si1 0.202770 0.808452 0.023343
Si Si2 0.012047 0.310140 0.119868
Si Si3 0.225678 0.193303 0.262547
Si Si4 0.654371 0.808386 0.546042
Si Si5 0.917625 0.189874 0.166371
Si Si6 0.559630 0.191718 0.598438
Si Si7 0.629475 0.689885 0.309417
O O1 0.214218 0.755199 0.142984
O O2 0.203230 0.000000 0.023610
O O3 0.250000 0.750000 0.000000
O O4 0.142761 0.755630 0.927835
O O5 0.013333 0.500000 0.121536
O O6 0.070606 0.248380 0.214363
O O7 0.964134 0.253686 0.142194
O O8 0.000000 0.255003 0.000000
O O9 0.285498 0.244624 0.358889
O O10 0.177594 0.245237 0.285911
O O11 0.225665 0.000000 0.262381
O O12 0.607417 0.757236 0.573460
O O13 0.641345 0.748976 0.427583
O O14 0.654195 0.000000 0.544296
O O15 0.929363 0.245393 0.285191
O O16 0.918600 0.000000 0.164044
O O17 0.500000 0.241788 0.500000
O O18 0.560016 0.000000 0.602527
O O19 0.629543 0.500000 0.309405
#
# Coordination Sequence:
#
# PCOD9198705 Si02
#       7
#     8   8   8   8   8   8   8
#     4  10  21  38  59  85 116 150 190 232 280 337
#     4  11  24  41  61  85 114 150 192 235 282 342
#     4   9  19  36  57  81 113 154 192 230 282 341
#     4  10  20  36  58  83 115 155 196 236 280 336
#     4  11  23  38  60  89 119 150 187 237 289 338
#     4  10  21  37  58  83 114 155 197 236 283 340
#     4  11  22  37  59  85 115 150 189 238 292 341
#
# _framework density 19.431332000000001
#
# number of rings (size 3 to 8) (size 9 to 14) (size 15 to 20)
#    0.000    1.714    0.000    4.286    0.000    6.571 
#    0.000    2.857    0.000    0.000    0.000    0.000 
#    0.000    0.000    0.000    0.000    0.000    0.000 
#
# Total GULP energy -156550.712647 kJ/mol
# GULP energy per Si atom -5591.096880 kJ/mol
# Density = 1.938711 g / cm^3
# Si number density = 19.431332 Si / 1000 Ang^3
#
#
#
# Elastic Constant Matrix: (Units=GPa)
#
#
# Indices 1 2 3 4 5 6 
#
# 1 240.6775 33.6999 146.6330 0.0000 0.4375 0.0000
# 2 33.6999 17.0730 32.8424 0.0000 0.7985 0.0000
# 3 146.6330 32.8424 240.6935 0.0000 0.4894 0.0000
# 4 0.0000 0.0000 0.0000 -9.9286 0.0000 -7.4084
# 5 0.4375 0.7985 0.4894 0.0000 47.1658 0.0000
# 6 0.0000 0.0000 0.0000 -7.4084 0.0000 20.7400
#
#
#
# Elastic Compliance Matrix: (Units=1/GPa)
#
#
# Indices 1 2 3 4 5 6 
#
# 1 0.007329 -0.007975 -0.003377 0.000000 0.000102 0.000000
# 2 -0.007975 0.088167 -0.007169 0.000000 -0.001344 0.000000
# 3 -0.003377 -0.007169 0.007190 0.000000 0.000078 0.000000
# 4 0.000000 0.000000 0.000000 -0.079524 0.000000 -0.028406
# 5 0.000102 -0.001344 0.000078 0.000000 0.021223 0.000000
# 6 0.000000 0.000000 0.000000 -0.028406 0.000000 0.038069
#
#
# Mechanical properties :
#
#
# Convention : Reuss Voigt Hill
#
# Bulk Modulus (GPa) = 15.23364 102.75494 58.99429
# Shear Modulus (GPa) = 35.36626 30.61337 32.98981
#
# Velocity S-wave (km/s) = 4.27085 3.97352 4.12486
# Velocity P-wave (km/s) = 5.67247 8.60509 7.28782
#
# Compressibility (1/GPa) = 0.06564417
#
# Stress axis : x y z
#
# Youngs Moduli (GPa) = 136.44977 11.34206 139.08437
#
# Poissons Ratio (x) = 0.09045 0.46965
# Poissons Ratio (y) = 1.08819 0.99712
# Poissons Ratio (z) = 0.46076 0.08131
#
# Static dielectric constant tensor:
#      x y z
#    x 1.648080 0.000000 0.007960 
#    y 0.000000 1.671680 0.000000 
#    z 0.007960 0.000000 1.640360 
# 
# From -- ./inp_files/181057.got.cif
#   From: 2010.05.17/outbox.cif.g08.bks.cpg/sg12_91_cif.got.tgz:181057.got - 2010.06.03 13:09:07.
