data_PCOD9198728
_publ_section_title
;
Structure prediction by ZEFSAII (Michael W. Deem and Ramdas Pophale) SiO2 
 PCOD9198728
Probable space group: C 2/M
;
_chemical_formula_sum "Si O2"
_cell_formula_units_Z 64
_cell_length_a 14.879323
_cell_length_b 8.460982
_cell_length_c 26.147022
_cell_angle_alpha 90.000000
_cell_angle_beta 88.487893
_cell_angle_gamma 90.000000
_cell_volume 3290.598647
_symmetry_space_group_name_H-M "C 2/M"
_symmetry_group_IT_number 12
_symmetry_cell_setting 'monoclinic'
loop_
_space_group_symop_operation_xyz
x,y,z
-x,y,-z
-x,-y,-z
x,-y,z
1/2+x,1/2+y,z
1/2-x,1/2+y,-z
1/2-x,1/2-y,-z
1/2+x,1/2-y,z
loop_
_atom_site_type_symbol
_atom_site_label
_atom_site_fract_x
_atom_site_fract_y
_atom_site_fract_z
Si Si1 0.253807 0.690840 0.420986
Si Si2 0.795554 0.689425 0.118152
Si Si3 0.397141 0.190633 0.494902
Si Si4 0.037365 0.183661 0.249709
Si Si5 0.654220 0.183905 0.766459
Si Si6 0.197489 0.686239 0.309300
Si Si7 0.602235 0.812929 0.141928
Si Si8 0.535310 0.192684 0.944786
O O1 0.257808 0.500000 0.421973
O O2 0.345412 0.754133 0.444718
O O3 0.169603 0.740938 0.458013
O O4 0.235322 0.741709 0.363330
O O5 0.780576 0.500000 0.114270
O O6 0.841009 0.717290 0.172988
O O7 0.701452 0.777837 0.120042
O O8 0.864642 0.740642 0.073183
O O9 0.500000 0.246556 0.500000
O O10 0.399265 0.000000 0.494871
O O11 0.106959 0.228319 0.292905
O O12 0.085771 0.223124 0.195163
O O13 0.945402 0.281376 0.251867
O O14 0.014563 0.000000 0.252079
O O15 0.727207 0.283901 0.734726
O O16 0.677219 0.000000 0.759128
O O17 0.178562 0.500000 0.313120
O O18 0.531517 0.761711 0.099905
O O19 0.590176 0.000000 0.151780
O O20 0.535207 0.000000 0.945950
O O21 0.500000 0.249149 0.000000
#
# Coordination Sequence:
#
# PCOD9198728 Si02
#       8
#     8   8   8   8   8   8   8   8
#     4   9  20  37  56  84 119 151 189 240 290 336
#     4  10  20  36  58  84 112 145 187 234 285 346
#     4   9  18  35  60  86 114 153 197 235 281 340
#     4  12  24  38  58  85 116 154 196 239 290 350
#     4  11  22  38  59  85 114 151 194 240 292 347
#     4  11  23  39  58  85 122 158 196 244 292 345
#     4  11  21  36  59  85 112 148 191 235 287 344
#     4   9  19  37  59  82 112 149 187 232 290 351
#
# _framework density 19.449348000000001
#
# number of rings (size 3 to 8) (size 9 to 14) (size 15 to 20)
#    0.000    1.750    2.500    2.250    0.000    3.250 
#    0.000    1.250    0.000    2.625    0.000    0.000 
#    0.000    0.000    0.000    0.000    0.000    0.000 
#
# Total GULP energy -178748.508833 kJ/mol
# GULP energy per Si atom -5585.890901 kJ/mol
# Density = 1.940508 g / cm^3
# Si number density = 19.449348 Si / 1000 Ang^3
#
#
#
# Elastic Constant Matrix: (Units=GPa)
#
#
# Indices 1 2 3 4 5 6 
#
# 1 75.7869 -4.9358 -16.3999 0.0000 10.2687 0.0000
# 2 -4.9358 16.9680 9.2496 0.0000 3.2037 0.0000
# 3 -16.3999 9.2496 38.2651 0.0000 6.1113 0.0000
# 4 0.0000 0.0000 0.0000 14.5782 0.0000 -4.6002
# 5 10.2687 3.2037 6.1113 0.0000 16.8807 0.0000
# 6 0.0000 0.0000 0.0000 -4.6002 0.0000 23.4163
#
#
#
# Elastic Compliance Matrix: (Units=1/GPa)
#
#
# Indices 1 2 3 4 5 6 
#
# 1 0.017263 0.002814 0.009001 0.000000 -0.014294 0.000000
# 2 0.002814 0.069212 -0.013960 0.000000 -0.009793 0.000000
# 3 0.009001 -0.013960 0.035893 0.000000 -0.015820 0.000000
# 4 0.000000 0.000000 0.000000 0.073129 0.000000 0.014367
# 5 -0.014294 -0.009793 -0.015820 0.000000 0.075520 0.000000
# 6 0.000000 0.000000 0.000000 0.014367 0.000000 0.045528
#
#
# Mechanical properties :
#
#
# Convention : Reuss Voigt Hill
#
# Bulk Modulus (GPa) = 8.46910 11.87196 10.17053
# Shear Modulus (GPa) = 13.88144 20.51546 17.19845
#
# Velocity S-wave (km/s) = 2.67446 3.25131 2.97689
# Velocity P-wave (km/s) = 3.72838 4.49578 4.12994
#
# Compressibility (1/GPa) = 0.11807627
#
# Stress axis : x y z
#
# Youngs Moduli (GPa) = 57.92841 14.44840 27.86095
#
# Poissons Ratio (x) = -0.04065 -0.25079
# Poissons Ratio (y) = -0.16298 0.38895
# Poissons Ratio (z) = -0.52143 0.20170
#
# Static dielectric constant tensor:
#      x y z
#    x 1.663330 0.000000 -0.003390 
#    y 0.000000 1.659680 0.000000 
#    z -0.003390 0.000000 1.672750 
# 
# From -- ./inp_files/338802.got.cif
#   From: 2010.05.17/outbox.cif.g08.bks.cpg/sg12_170_cif.got.tgz:338802.got - 2010.06.03 13:09:07.
