data_PCOD9198620
_publ_section_title
;
Structure prediction by ZEFSAII (Michael W. Deem and Ramdas Pophale) SiO2 
 PCOD9198620
Probable space group: C 2/M
;
_chemical_formula_sum "Si O2"
_cell_formula_units_Z 56
_cell_length_a 32.363949
_cell_length_b 8.180220
_cell_length_c 21.864803
_cell_angle_alpha 90.000000
_cell_angle_beta 151.482300
_cell_angle_gamma 90.000000
_cell_volume 2763.643182
_symmetry_space_group_name_H-M "C 2/M"
_symmetry_group_IT_number 12
_symmetry_cell_setting 'monoclinic'
loop_
_space_group_symop_operation_xyz
x,y,z
-x,y,-z
-x,-y,-z
x,-y,z
1/2+x,1/2+y,z
1/2-x,1/2+y,-z
1/2-x,1/2-y,-z
1/2+x,1/2-y,z
loop_
_atom_site_type_symbol
_atom_site_label
_atom_site_fract_x
_atom_site_fract_y
_atom_site_fract_z
Si Si1 0.714940 0.193958 0.020428
Si Si2 0.527759 0.299360 0.104305
Si Si3 0.364321 0.698467 0.300597
Si Si4 0.400523 0.191463 0.593529
Si Si5 0.539639 0.697616 0.457099
Si Si6 0.045917 0.190335 0.866449
Si Si7 0.281761 0.303711 0.608240
O O1 0.778773 0.260741 0.156407
O O2 0.723125 0.000000 0.030287
O O3 0.750000 0.250000 0.000000
O O4 0.617919 0.234101 0.915520
O O5 0.527365 0.500000 0.104571
O O6 0.464674 0.245564 0.077871
O O7 0.625075 0.242734 0.248138
O O8 0.500000 0.248950 0.000000
O O9 0.360632 0.500000 0.298471
O O10 0.446972 0.738072 0.365972
O O11 0.387950 0.751822 0.399673
O O12 0.447282 0.221794 0.590656
O O13 0.452629 0.286607 0.713386
O O14 0.300607 0.243597 0.457536
O O15 0.402952 0.000000 0.612854
O O16 0.543100 0.500000 0.455017
O O17 0.066714 0.000000 0.897109
O O18 0.288532 0.500000 0.616899
O O19 0.250000 0.250000 0.500000
#
# Coordination Sequence:
#
# PCOD9198620 Si02
#       7
#     8   8   8   8   8   8   8
#     4  11  22  37  57  84 119 154 193 237 287 344
#     4   9  19  37  60  85 114 152 198 245 294 350
#     4   8  17  34  55  77 106 146 186 229 275 331
#     4  11  22  34  54  85 116 143 184 242 294 337
#     4   9  17  34  58  80 105 143 190 228 274 343
#     4  11  22  37  59  83 111 154 200 240 291 353
#     4  10  20  36  58  82 110 146 186 233 284 337
#
# _framework density 20.263107999999999
#
# number of rings (size 3 to 8) (size 9 to 14) (size 15 to 20)
#    0.000    2.143    1.429    3.000    0.000    2.857 
#    0.000    5.000    0.000    3.857    0.000    0.000 
#    0.000    0.000    0.000    0.000    0.000    0.000 
#
# Total GULP energy -156195.731963 kJ/mol
# GULP energy per Si atom -5578.418999 kJ/mol
# Density = 2.021699 g / cm^3
# Si number density = 20.263108 Si / 1000 Ang^3
#
#
#
# Elastic Constant Matrix: (Units=GPa)
#
#
# Indices 1 2 3 4 5 6 
#
# 1 107.4433 7.0346 36.8538 0.0000 -12.4596 0.0000
# 2 7.0346 13.9734 5.4060 0.0000 3.0318 0.0000
# 3 36.8538 5.4060 110.3019 0.0000 -2.5506 0.0000
# 4 0.0000 0.0000 0.0000 15.5028 0.0000 -1.8961
# 5 -12.4596 3.0318 -2.5506 0.0000 27.4942 0.0000
# 6 0.0000 0.0000 0.0000 -1.8961 0.0000 15.2217
#
#
#
# Elastic Compliance Matrix: (Units=1/GPa)
#
#
# Indices 1 2 3 4 5 6 
#
# 1 0.011496 -0.005654 -0.003436 0.000000 0.005514 0.000000
# 2 -0.005654 0.077715 -0.002182 0.000000 -0.011334 0.000000
# 3 -0.003436 -0.002182 0.010313 0.000000 -0.000360 0.000000
# 4 0.000000 0.000000 0.000000 0.065502 0.000000 0.008159
# 5 0.005514 -0.011334 -0.000360 0.000000 0.040087 0.000000
# 6 0.000000 0.000000 0.000000 0.008159 0.000000 0.066712
#
#
# Mechanical properties :
#
#
# Convention : Reuss Voigt Hill
#
# Bulk Modulus (GPa) = 12.99066 36.70081 24.84574
# Shear Modulus (GPa) = 15.62364 23.80536 19.71450
#
# Velocity S-wave (km/s) = 2.77977 3.43127 3.12256
# Velocity P-wave (km/s) = 4.08996 5.81804 5.02879
#
# Compressibility (1/GPa) = 0.07697837
#
# Stress axis : x y z
#
# Youngs Moduli (GPa) = 86.99044 12.86761 96.96749
#
# Poissons Ratio (x) = 0.07276 0.33320
# Poissons Ratio (y) = 0.49186 0.21156
# Poissons Ratio (z) = 0.29892 0.02807
#
# Static dielectric constant tensor:
#      x y z
#    x 1.727400 0.000000 0.007090 
#    y 0.000000 1.712950 0.000000 
#    z 0.007090 0.000000 1.746080 
# 
# From -- ./inp_files/329689.got.cif
#   From: 2010.05.17/outbox.cif.g08.bks.cpg/sg12_165_cif.got.tgz:329689.got - 2010.06.03 13:09:07.
