data_PCOD9198557
_publ_section_title
;
Structure prediction by ZEFSAII (Michael W. Deem and Ramdas Pophale) SiO2 
 PCOD9198557
Probable space group: C 2/M
;
_chemical_formula_sum "Si O2"
_cell_formula_units_Z 54
_cell_length_a 8.953438
_cell_length_b 13.838058
_cell_length_c 22.878651
_cell_angle_alpha 90.000000
_cell_angle_beta 69.963758
_cell_angle_gamma 90.000000
_cell_volume 2663.061049
_symmetry_space_group_name_H-M "C 2/M"
_symmetry_group_IT_number 12
_symmetry_cell_setting 'monoclinic'
loop_
_space_group_symop_operation_xyz
x,y,z
-x,y,-z
-x,-y,-z
x,-y,z
1/2+x,1/2+y,z
1/2-x,1/2+y,-z
1/2-x,1/2-y,-z
1/2+x,1/2-y,z
loop_
_atom_site_type_symbol
_atom_site_label
_atom_site_fract_x
_atom_site_fract_y
_atom_site_fract_z
Si Si1 0.559504 0.392054 0.794232
Si Si2 0.641009 0.107571 0.157635
Si Si3 0.264030 0.176103 0.551768
Si Si4 0.500000 0.000000 0.500000
Si Si5 0.676185 0.694022 0.086490
Si Si6 0.935577 0.223387 0.638152
Si Si7 0.899829 0.693370 0.278305
Si Si8 0.000000 0.746788 0.000000
O O1 0.558069 0.500000 0.769286
O O2 0.705253 0.385969 0.820683
O O3 0.400342 0.370688 0.852884
O O4 0.584575 0.304480 0.746212
O O5 0.653795 0.194879 0.110668
O O6 0.489195 0.128377 0.219155
O O7 0.634812 0.000000 0.133249
O O8 0.250000 0.250000 0.500000
O O9 0.360382 0.226320 0.591638
O O10 0.085283 0.159131 0.599435
O O11 0.361435 0.083757 0.519925
O O12 0.861100 0.683604 0.047783
O O13 0.579214 0.687631 0.039379
O O14 0.785742 0.171774 0.688834
O O15 0.006571 0.304331 0.672848
#
# Coordination Sequence:
#
# PCOD9198557 Si02
#       8
#     8   8   8   2   8   8   8   4
#     4  10  20  37  61  85 114 159 203 237 297 374
#     4  10  20  37  59  84 113 156 196 237 298 371
#     4  11  22  45  69  94 128 171 217 262 310 378
#     4  12  24  44  74  94 124 184 214 256 324 374
#     4  10  20  38  58  83 112 153 188 253 290 362
#     4  10  21  40  65  90 132 159 201 268 308 353
#     4  10  20  39  60  90 122 160 194 252 311 360
#     4  10  20  36  58  80 114 150 194 236 314 344
#
# _framework density 20.277417
#
# number of rings (size 3 to 8) (size 9 to 14) (size 15 to 20)
#    0.000    1.778    4.444    0.000    0.000    0.000 
#    8.000    8.148    0.000    0.000    0.000    0.000 
#    0.000    0.000    0.000    0.000    0.000    0.000 
#
# Total GULP energy -150479.981833 kJ/mol
# GULP energy per Si atom -5573.332660 kJ/mol
# Density = 2.023126 g / cm^3
# Si number density = 20.277417 Si / 1000 Ang^3
#
#
#
# Elastic Constant Matrix: (Units=GPa)
#
#
# Indices 1 2 3 4 5 6 
#
# 1 121.0572 18.5210 43.4550 0.0000 -35.2336 0.0000
# 2 18.5210 96.9848 22.5681 0.0000 -4.7833 0.0000
# 3 43.4550 22.5681 79.8132 0.0000 -25.9520 0.0000
# 4 0.0000 0.0000 0.0000 3.0550 0.0000 -9.0265
# 5 -35.2336 -4.7833 -25.9520 0.0000 56.0170 0.0000
# 6 0.0000 0.0000 0.0000 -9.0265 0.0000 4.2181
#
#
#
# Elastic Compliance Matrix: (Units=1/GPa)
#
#
# Indices 1 2 3 4 5 6 
#
# 1 0.011437 -0.000931 -0.004298 0.000000 0.005123 0.000000
# 2 -0.000931 0.011130 -0.002969 0.000000 -0.001011 0.000000
# 3 -0.004298 -0.002969 0.017363 0.000000 0.005087 0.000000
# 4 0.000000 0.000000 0.000000 -0.061495 0.000000 -0.131598
# 5 0.005123 -0.001011 0.005087 0.000000 0.023345 0.000000
# 6 0.000000 0.000000 0.000000 -0.131598 0.000000 -0.044538
#
#
# Mechanical properties :
#
#
# Convention : Reuss Voigt Hill
#
# Bulk Modulus (GPa) = 42.49200 51.88261 47.18730
# Shear Modulus (GPa) = -269.97709 26.87874 -121.54918
#
# Velocity S-wave (km/s) = -11.55122 3.64476 -7.75069
# Velocity P-wave (km/s) = 12.52625 6.58440 7.53500
#
# Compressibility (1/GPa) = 0.02353384
#
# Stress axis : x y z
#
# Youngs Moduli (GPa) = 87.43716 89.84975 57.59440
#
# Poissons Ratio (x) = 0.08368 0.24753
# Poissons Ratio (y) = 0.08143 0.17098
# Poissons Ratio (z) = 0.37578 0.26673
#
# Static dielectric constant tensor:
#      x y z
#    x 1.739870 0.000000 -0.018810 
#    y 0.000000 1.660600 0.000000 
#    z -0.018810 0.000000 1.753740 
# 
# From -- ./inp_files/332593.got.cif
#   From: 2010.05.17/outbox.cif.g08.bks.cpg/sg12_167_cif.got.tgz:332593.got - 2010.06.03 13:09:07.
