data_PCOD9198915
_publ_section_title
;
Structure prediction by ZEFSAII (Michael W. Deem and Ramdas Pophale) SiO2 
 PCOD9198915
Probable space group: C 2/M
;
_chemical_formula_sum "Si O2"
_cell_formula_units_Z 40
_cell_length_a 11.063727
_cell_length_b 30.748621
_cell_length_c 7.943221
_cell_angle_alpha 90.000000
_cell_angle_beta 38.001901
_cell_angle_gamma 90.000000
_cell_volume 1663.735033
_symmetry_space_group_name_H-M "C 2/M"
_symmetry_group_IT_number 12
_symmetry_cell_setting 'monoclinic'
loop_
_space_group_symop_operation_xyz
x,y,z
-x,y,-z
-x,-y,-z
x,-y,z
1/2+x,1/2+y,z
1/2-x,1/2+y,-z
1/2-x,1/2-y,-z
1/2+x,1/2-y,z
loop_
_atom_site_type_symbol
_atom_site_label
_atom_site_fract_x
_atom_site_fract_y
_atom_site_fract_z
Si Si1 0.105117 0.048375 0.064147
Si Si2 0.548394 0.697965 0.647952
Si Si3 0.193967 0.893658 0.457925
Si Si4 0.000971 0.289696 0.801932
Si Si5 0.622513 0.880187 0.114615
O O1 0.931911 0.063334 0.380274
O O2 0.179208 0.000000 0.021385
O O3 0.272955 0.084857 0.883665
O O4 0.000000 0.048422 0.000000
O O5 0.500000 0.703896 0.500000
O O6 0.547548 0.645969 0.671246
O O7 0.767648 0.705598 0.485487
O O8 0.441350 0.739751 0.844269
O O9 0.392921 0.891965 0.346870
O O10 0.272886 0.886091 0.182713
O O11 0.879876 0.328151 0.844252
O O12 0.000000 0.300927 0.000000
#
# Coordination Sequence:
#
# PCOD9198915 Si02
#       5
#     8   8   8   8   8
#     4  11  26  45  65  95 128 161 207 266 333 393
#     4  10  20  36  58  89 127 166 206 255 302 362
#     4  10  21  41  68  95 127 167 217 262 311 374
#     4  10  20  38  57  88 125 165 210 253 303 364
#     4  10  20  43  67  92 129 168 211 266 311 369
#
# _framework density 24.042292
#
# number of rings (size 3 to 8) (size 9 to 14) (size 15 to 20)
#    0.000    1.800    4.000    1.800    0.000    4.800 
#   10.800    4.000    0.000    0.000    0.000    0.000 
#    0.000    0.000    0.000    0.000    0.000    0.000 
#
# Total GULP energy -111545.076048 kJ/mol
# GULP energy per Si atom -5577.253802 kJ/mol
# Density = 2.398757 g / cm^3
# Si number density = 24.042292 Si / 1000 Ang^3
#
#
#
# Elastic Constant Matrix: (Units=GPa)
#
#
# Indices 1 2 3 4 5 6 
#
# 1 80.9664 73.3809 24.1932 0.0000 -26.5248 0.0000
# 2 73.3809 185.4446 33.8521 0.0000 -16.8714 0.0000
# 3 24.1932 33.8521 50.9021 0.0000 -17.3559 0.0000
# 4 0.0000 0.0000 0.0000 30.9262 0.0000 -7.1445
# 5 -26.5248 -16.8714 -17.3559 0.0000 33.0376 0.0000
# 6 0.0000 0.0000 0.0000 -7.1445 0.0000 40.9492
#
#
#
# Elastic Compliance Matrix: (Units=1/GPa)
#
#
# Indices 1 2 3 4 5 6 
#
# 1 0.025420 -0.008432 -0.001198 0.000000 0.015474 0.000000
# 2 -0.008432 0.008974 -0.003297 0.000000 -0.003919 0.000000
# 3 -0.001198 -0.003297 0.026198 0.000000 0.011117 0.000000
# 4 0.000000 0.000000 0.000000 0.033693 0.000000 0.005879
# 5 0.015474 -0.003919 0.011117 0.000000 0.046531 0.000000
# 6 0.000000 0.000000 0.000000 0.005879 0.000000 0.025446
#
#
# Mechanical properties :
#
#
# Convention : Reuss Voigt Hill
#
# Bulk Modulus (GPa) = 28.78668 64.46284 46.62476
# Shear Modulus (GPa) = 24.54619 33.37505 28.96062
#
# Velocity S-wave (km/s) = 3.19871 3.72987 3.47446
# Velocity P-wave (km/s) = 5.06376 6.73942 5.96076
#
# Compressibility (1/GPa) = 0.03473829
#
# Stress axis : x y z
#
# Youngs Moduli (GPa) = 39.33833 111.42715 38.17055
#
# Poissons Ratio (x) = 0.93961 0.04573
# Poissons Ratio (y) = 0.33172 0.12584
# Poissons Ratio (z) = 0.04713 0.36736
#
# Static dielectric constant tensor:
#      x y z
#    x 1.925610 0.000000 0.014340 
#    y 0.000000 1.922560 0.000000 
#    z 0.014340 0.000000 1.923820 
# 
# From -- ./inp_files/54005.got.cif
#   From: 2010.05.17/outbox.cif.g08.bks.cpg/sg12_28_cif.got.tgz:54005.got - 2010.06.03 13:09:07.
