data_PCOD9198005
_publ_section_title
;
Structure prediction by ZEFSAII (Michael W. Deem and Ramdas Pophale) SiO2 
 PCOD9198005
Probable space group: C 2/M
;
_chemical_formula_sum "Si O2"
_cell_formula_units_Z 56
_cell_length_a 7.714950
_cell_length_b 18.238857
_cell_length_c 18.828836
_cell_angle_alpha 90.000000
_cell_angle_beta 66.981060
_cell_angle_gamma 90.000000
_cell_volume 2438.480701
_symmetry_space_group_name_H-M "C 2/M"
_symmetry_group_IT_number 12
_symmetry_cell_setting 'monoclinic'
loop_
_space_group_symop_operation_xyz
x,y,z
-x,y,-z
-x,-y,-z
x,-y,z
1/2+x,1/2+y,z
1/2-x,1/2+y,-z
1/2-x,1/2-y,-z
1/2+x,1/2-y,z
loop_
_atom_site_type_symbol
_atom_site_label
_atom_site_fract_x
_atom_site_fract_y
_atom_site_fract_z
Si Si1 0.844547 0.660917 0.848058
Si Si2 0.043844 0.914510 0.120083
Si Si3 0.083876 0.354538 0.548413
Si Si4 0.050126 0.083897 0.699554
Si Si5 0.546538 0.692549 0.574885
Si Si6 0.530811 0.917520 0.307120
Si Si7 0.138201 0.306759 0.918656
O O1 0.657267 0.610315 0.879421
O O2 0.951605 0.639077 0.759126
O O3 0.761271 0.742993 0.863223
O O4 0.997437 0.655169 0.885709
O O5 0.216623 0.863689 0.069552
O O6 0.031627 0.903722 0.208123
O O7 0.074247 0.000000 0.101105
O O8 0.231250 0.318926 0.469631
O O9 0.006039 0.277935 0.595469
O O10 0.000000 0.406389 0.500000
O O11 0.129946 0.400958 0.609999
O O12 0.987415 0.140987 0.649460
O O13 0.275975 0.088713 0.677563
O O14 0.006459 0.000000 0.685675
O O15 0.500000 0.673096 0.500000
O O16 0.521353 0.000000 0.280065
O O17 0.000000 0.273134 0.000000
#
# Coordination Sequence:
#
# PCOD9198005 Si02
#       7
#     8   8   8   8   8   8   8
#     4  11  24  44  72 103 137 179 228 288 331 413
#     4  10  24  45  69 103 142 182 225 285 351 407
#     4  10  20  36  55  82 120 161 207 264 317 377
#     4   9  19  38  60  82 123 167 207 262 329 397
#     4  10  21  33  51  85 120 156 209 267 325 384
#     4  10  22  39  64  92 122 169 223 270 330 402
#     4  12  26  45  75 107 138 178 232 278 341 422
#
# _framework density 22.965119000000001
#
# number of rings (size 3 to 8) (size 9 to 14) (size 15 to 20)
#    0.000    1.714    2.857    1.714    2.000    3.714 
#    0.000    2.143    0.000    0.000    0.000    0.000 
#    0.000    0.000    0.000    0.000    0.000    0.000 
#
# Total GULP energy -155976.578241 kJ/mol
# GULP energy per Si atom -5570.592080 kJ/mol
# Density = 2.291285 g / cm^3
# Si number density = 22.965119 Si / 1000 Ang^3
#
#
#
# Elastic Constant Matrix: (Units=GPa)
#
#
# Indices 1 2 3 4 5 6 
#
# 1 33.6328 5.1858 0.4300 0.0000 7.2688 0.0000
# 2 5.1858 85.7529 3.0969 0.0000 -7.0611 0.0000
# 3 0.4300 3.0969 49.0319 0.0000 -2.7915 0.0000
# 4 0.0000 0.0000 0.0000 12.2309 0.0000 -6.5827
# 5 7.2688 -7.0611 -2.7915 0.0000 26.3596 0.0000
# 6 0.0000 0.0000 0.0000 -6.5827 0.0000 12.2936
#
#
#
# Elastic Compliance Matrix: (Units=1/GPa)
#
#
# Indices 1 2 3 4 5 6 
#
# 1 0.032257 -0.002725 -0.000663 0.000000 -0.009695 0.000000
# 2 -0.002725 0.012171 -0.000520 0.000000 0.003957 0.000000
# 3 -0.000663 -0.000520 0.020560 0.000000 0.002221 0.000000
# 4 0.000000 0.000000 0.000000 0.114861 0.000000 0.061503
# 5 -0.009695 0.003957 0.002221 0.000000 0.041905 0.000000
# 6 0.000000 0.000000 0.000000 0.061503 0.000000 0.114275
#
#
# Mechanical properties :
#
#
# Convention : Reuss Voigt Hill
#
# Bulk Modulus (GPa) = 17.49084 20.64924 19.07004
# Shear Modulus (GPa) = 13.77782 20.82381 17.30081
#
# Velocity S-wave (km/s) = 2.45204 3.01451 2.74770
# Velocity P-wave (km/s) = 3.95594 4.59646 4.28817
#
# Compressibility (1/GPa) = 0.05717279
#
# Stress axis : x y z
#
# Youngs Moduli (GPa) = 31.00114 82.16403 48.63822
#
# Poissons Ratio (x) = 0.22390 0.03224
# Poissons Ratio (y) = 0.08448 0.02527
# Poissons Ratio (z) = 0.02055 0.04269
#
# Static dielectric constant tensor:
#      x y z
#    x 2.636060 0.000000 -0.092390 
#    y 0.000000 1.851660 0.000000 
#    z -0.092390 0.000000 1.895380 
# 
# From -- ./inp_files/257054.got.cif
#   From: 2010.05.17/outbox.cif.g08.bks.cpg/sg12_129_cif.got.tgz:257054.got - 2010.06.03 13:09:07.
