data_PCOD9198695
_publ_section_title
;
Structure prediction by ZEFSAII (Michael W. Deem and Ramdas Pophale) SiO2 
 PCOD9198695
Probable space group: C 2/M
;
_chemical_formula_sum "Si O2"
_cell_formula_units_Z 56
_cell_length_a 19.513677
_cell_length_b 9.430116
_cell_length_c 25.488227
_cell_angle_alpha 90.000000
_cell_angle_beta 39.988114
_cell_angle_gamma 90.000000
_cell_volume 3014.087649
_symmetry_space_group_name_H-M "C 2/M"
_symmetry_group_IT_number 12
_symmetry_cell_setting 'monoclinic'
loop_
_space_group_symop_operation_xyz
x,y,z
-x,y,-z
-x,-y,-z
x,-y,z
1/2+x,1/2+y,z
1/2-x,1/2+y,-z
1/2-x,1/2-y,-z
1/2+x,1/2-y,z
loop_
_atom_site_type_symbol
_atom_site_label
_atom_site_fract_x
_atom_site_fract_y
_atom_site_fract_z
Si Si1 0.702940 0.833542 0.690354
Si Si2 0.916402 0.830583 0.003662
Si Si3 0.314174 0.164604 0.418915
Si Si4 0.305758 0.667001 0.865400
Si Si5 0.013008 0.169271 0.157157
Si Si6 0.016763 0.833548 0.323224
Si Si7 0.930002 0.827660 0.590342
O O1 0.734587 0.825403 0.610431
O O2 0.595721 0.747913 0.763971
O O3 0.807145 0.780547 0.659701
O O4 0.683952 0.000000 0.713420
O O5 0.961809 0.804370 0.918654
O O6 0.900755 0.000000 0.018319
O O7 0.803034 0.753207 0.073567
O O8 0.000000 0.786054 0.000000
O O9 0.250000 0.250000 0.500000
O O10 0.429996 0.234737 0.347398
O O11 0.320017 0.000000 0.429896
O O12 0.282493 0.500000 0.887097
O O13 0.387037 0.712214 0.864436
O O14 0.372356 0.681121 0.772436
O O15 0.999467 0.000000 0.173136
O O16 0.023003 0.793411 0.380524
O O17 0.985480 0.000000 0.337698
O O18 0.000000 0.776986 0.500000
O O19 0.927131 0.000000 0.588733
#
# Coordination Sequence:
#
# PCOD9198695 Si02
#       7
#     8   8   8   8   8   8   8
#     4  10  21  36  58  86 111 147 195 234 278 335
#     4  10  23  40  59  85 116 151 186 226 281 341
#     4  11  22  36  57  85 115 149 190 234 280 332
#     4  10  21  37  59  86 113 148 190 232 281 332
#     4  10  21  39  59  82 115 150 184 231 287 334
#     4  10  20  36  58  83 114 149 187 233 282 333
#     4   9  18  34  55  79 111 149 188 232 279 327
#
# _framework density 18.579419999999999
#
# number of rings (size 3 to 8) (size 9 to 14) (size 15 to 20)
#    0.000    2.000    1.429    1.714    2.000    4.857 
#    0.000    0.714    0.000    1.714    0.000    0.000 
#    0.000    0.000    0.000    0.000    0.000    0.000 
#
# Total GULP energy -156283.249768 kJ/mol
# GULP energy per Si atom -5581.544635 kJ/mol
# Density = 1.853713 g / cm^3
# Si number density = 18.579420 Si / 1000 Ang^3
#
#
#
# Elastic Constant Matrix: (Units=GPa)
#
#
# Indices 1 2 3 4 5 6 
#
# 1 82.6096 12.3321 19.0109 0.0000 1.5025 0.0000
# 2 12.3321 34.0728 27.2623 0.0000 1.2158 -0.0001
# 3 19.0109 27.2623 68.4797 0.0000 -2.4557 0.0000
# 4 0.0000 0.0000 0.0000 30.7808 0.0000 -5.4140
# 5 1.5025 1.2158 -2.4557 0.0000 29.8591 0.0000
# 6 0.0000 -0.0001 0.0000 -5.4140 0.0000 18.3043
#
#
#
# Elastic Compliance Matrix: (Units=1/GPa)
#
#
# Indices 1 2 3 4 5 6 
#
# 1 0.013114 -0.002618 -0.002626 0.000000 -0.000769 0.000000
# 2 -0.002618 0.043892 -0.016856 0.000000 -0.003042 0.000000
# 3 -0.002626 -0.016856 0.022137 0.000000 0.002639 0.000000
# 4 0.000000 0.000000 0.000000 0.034271 0.000000 0.010137
# 5 -0.000769 -0.003042 0.002639 0.000000 0.033870 0.000000
# 6 0.000000 0.000000 0.000000 0.010137 0.000000 0.057630
#
#
# Mechanical properties :
#
#
# Convention : Reuss Voigt Hill
#
# Bulk Modulus (GPa) = 28.61785 33.59696 31.10740
# Shear Modulus (GPa) = 19.17458 24.22598 21.70028
#
# Velocity S-wave (km/s) = 3.21601 3.61489 3.42127
# Velocity P-wave (km/s) = 5.40618 5.96200 5.69088
#
# Compressibility (1/GPa) = 0.03494322
#
# Stress axis : x y z
#
# Youngs Moduli (GPa) = 76.25288 22.78325 45.17307
#
# Poissons Ratio (x) = 0.05964 0.11863
# Poissons Ratio (y) = 0.19962 0.76144
# Poissons Ratio (z) = 0.20025 0.38404
#
# Static dielectric constant tensor:
#      x y z
#    x 1.651730 0.000000 0.008920 
#    y 0.000000 1.619260 0.000000 
#    z 0.008920 0.000000 1.632510 
# 
# From -- ./inp_files/230920.got.cif
#   From: 2010.05.17/outbox.cif.g08.bks.cpg/sg12_116_cif.got.tgz:230920.got - 2010.06.03 13:09:07.
