data_PCOD9198699
_publ_section_title
;
Structure prediction by ZEFSAII (Michael W. Deem and Ramdas Pophale) SiO2 
 PCOD9198699
Probable space group: C 2/M
;
_chemical_formula_sum "Si O2"
_cell_formula_units_Z 40
_cell_length_a 9.039483
_cell_length_b 9.794019
_cell_length_c 34.184214
_cell_angle_alpha 90.000000
_cell_angle_beta 36.322767
_cell_angle_gamma 90.000000
_cell_volume 1792.653431
_symmetry_space_group_name_H-M "C 2/M"
_symmetry_group_IT_number 12
_symmetry_cell_setting 'monoclinic'
loop_
_space_group_symop_operation_xyz
x,y,z
-x,y,-z
-x,-y,-z
x,-y,z
1/2+x,1/2+y,z
1/2-x,1/2+y,-z
1/2-x,1/2-y,-z
1/2+x,1/2-y,z
loop_
_atom_site_type_symbol
_atom_site_label
_atom_site_fract_x
_atom_site_fract_y
_atom_site_fract_z
Si Si1 0.886025 0.348172 0.563227
Si Si2 0.190052 0.352578 0.255650
Si Si3 0.415575 0.841319 0.935819
Si Si4 0.370718 0.157143 0.855428
Si Si5 0.853121 0.772314 0.654453
O O1 0.995233 0.500000 0.542477
O O2 0.928433 0.276045 0.595190
O O3 0.587935 0.355692 0.620551
O O4 0.000000 0.280632 0.500000
O O5 0.300979 0.500000 0.221069
O O6 0.358236 0.223837 0.208020
O O7 0.171897 0.342506 0.306682
O O8 0.917260 0.339947 0.294220
O O9 0.308598 0.843827 0.914802
O O10 0.677605 0.761373 0.877181
O O11 0.439679 0.000000 0.943635
O O12 0.250000 0.750000 0.000000
O O13 0.357674 0.000000 0.844346
#
# Coordination Sequence:
#
# PCOD9198699 Si02
#       5
#     8   8   8   8   8
#     4  10  20  36  58  83 114 153 195 241 296 356
#     4  11  23  39  60  86 118 157 200 246 299 357
#     4  11  24  42  65  93 125 161 202 247 297 353
#     4  11  25  42  62  91 124 158 201 250 298 353
#     4  10  22  37  57  85 118 151 196 248 297 353
#
# _framework density 22.313293000000002
#
# number of rings (size 3 to 8) (size 9 to 14) (size 15 to 20)
#    0.000    1.400    0.000    4.800    0.000   13.600 
#    0.000    0.000    0.000    9.600    0.000    0.000 
#    0.000    0.000    0.000    0.000    0.000    0.000 
#
# Total GULP energy -111687.053144 kJ/mol
# GULP energy per Si atom -5584.352657 kJ/mol
# Density = 2.226251 g / cm^3
# Si number density = 22.313293 Si / 1000 Ang^3
#
#
#
# Elastic Constant Matrix: (Units=GPa)
#
#
# Indices 1 2 3 4 5 6 
#
# 1 99.7831 27.4518 6.8812 0.0004 5.6696 -0.0002
# 2 27.4518 147.1621 20.2574 0.0004 2.2022 -0.0001
# 3 6.8812 20.2574 68.7360 0.0010 7.2867 -0.0004
# 4 0.0004 0.0004 0.0010 20.3079 -0.0004 -5.9545
# 5 5.6696 2.2022 7.2867 -0.0004 43.7879 0.0003
# 6 -0.0002 -0.0001 -0.0004 -5.9545 0.0003 3.4212
#
#
#
# Elastic Compliance Matrix: (Units=1/GPa)
#
#
# Indices 1 2 3 4 5 6 
#
# 1 0.010644 -0.001916 -0.000372 0.000000 -0.001220 0.000001
# 2 -0.001916 0.007428 -0.002019 0.000000 0.000211 0.000000
# 3 -0.000372 -0.002019 0.015437 0.000000 -0.002419 0.000001
# 4 0.000000 0.000000 0.000000 0.100560 0.000000 0.175019
# 5 -0.001220 0.000211 -0.002419 0.000000 0.023387 -0.000003
# 6 0.000001 0.000000 0.000001 0.175019 -0.000003 0.596902
#
#
# Mechanical properties :
#
#
# Convention : Reuss Voigt Hill
#
# Bulk Modulus (GPa) = 40.16981 47.20689 43.68835
# Shear Modulus (GPa) = 6.48281 30.90945 18.69613
#
# Velocity S-wave (km/s) = 1.70636 3.72593 2.89778
# Velocity P-wave (km/s) = 4.68230 6.30178 5.55141
#
# Compressibility (1/GPa) = 0.02489432
#
# Stress axis : x y z
#
# Youngs Moduli (GPa) = 93.95117 134.63480 64.77840
#
# Poissons Ratio (x) = 0.25798 0.02407
# Poissons Ratio (y) = 0.18002 0.13082
# Poissons Ratio (z) = 0.03491 0.27189
#
# Static dielectric constant tensor:
#      x y z
#    x 1.807970 0.000000 -0.001340 
#    y 0.000000 1.809160 0.000000 
#    z -0.001340 0.000000 1.865920 
# 
# From -- ./inp_files/371929.got.cif
#   From: 2010.05.17/outbox.cif.g08.bks.cpg/sg12_186_cif.got.tgz:371929.got - 2010.06.03 13:09:07.
