data_PCOD9198813
_publ_section_title
;
Structure prediction by ZEFSAII (Michael W. Deem and Ramdas Pophale) SiO2 
 PCOD9198813
Probable space group: C 2/M
;
_chemical_formula_sum "Si O2"
_cell_formula_units_Z 64
_cell_length_a 29.826519
_cell_length_b 8.268912
_cell_length_c 12.226598
_cell_angle_alpha 90.000000
_cell_angle_beta 85.903934
_cell_angle_gamma 90.000000
_cell_volume 3007.778370
_symmetry_space_group_name_H-M "C 2/M"
_symmetry_group_IT_number 12
_symmetry_cell_setting 'monoclinic'
loop_
_space_group_symop_operation_xyz
x,y,z
-x,y,-z
-x,-y,-z
x,-y,z
1/2+x,1/2+y,z
1/2-x,1/2+y,-z
1/2-x,1/2-y,-z
1/2+x,1/2-y,z
loop_
_atom_site_type_symbol
_atom_site_label
_atom_site_fract_x
_atom_site_fract_y
_atom_site_fract_z
Si Si1 0.338965 0.304142 0.147981
Si Si2 0.086446 0.190473 0.703280
Si Si3 0.350273 0.192407 0.913454
Si Si4 0.394627 0.809390 0.529220
Si Si5 0.262643 0.196354 0.813903
Si Si6 0.291946 0.194847 0.566145
Si Si7 0.571425 0.685988 0.248565
Si Si8 0.009702 0.688738 0.874782
O O1 0.339584 0.500000 0.141482
O O2 0.366615 0.256723 0.250042
O O3 0.287819 0.244415 0.161826
O O4 0.361706 0.235206 0.035356
O O5 0.080504 0.278872 0.589413
O O6 0.048937 0.223710 0.801035
O O7 0.088182 0.000000 0.680344
O O8 0.298987 0.244612 0.897941
O O9 0.382416 0.281912 0.823814
O O10 0.354045 0.000000 0.894485
O O11 0.342572 0.749438 0.527679
O O12 0.419497 0.728551 0.627108
O O13 0.392606 0.000000 0.553140
O O14 0.281621 0.244859 0.692489
O O15 0.260484 0.000000 0.815117
O O16 0.250000 0.250000 0.500000
O O17 0.292405 0.000000 0.561850
O O18 0.557574 0.500000 0.240981
O O19 0.534389 0.791624 0.192481
O O20 0.021918 0.500000 0.882638
O O21 0.000000 0.749907 0.000000
#
# Coordination Sequence:
#
# PCOD9198813 Si02
#       8
#     8   8   8   8   8   8   8   8
#     4  10  21  37  59  88 125 167 210 261 317 372
#     4  11  24  42  65  94 130 166 208 260 316 376
#     4  11  21  37  60  87 125 167 212 261 313 375
#     4  11  23  42  66  92 128 169 214 263 316 375
#     4   9  18  35  56  82 121 165 208 255 311 370
#     4  10  20  36  58  85 121 166 214 263 314 369
#     4  12  25  42  67  96 128 165 211 263 321 383
#     4  11  25  46  72 100 129 163 208 258 316 382
#
# _framework density 21.278165000000001
#
# number of rings (size 3 to 8) (size 9 to 14) (size 15 to 20)
#    0.000    1.375    1.250    4.500    0.000    6.500 
#    0.000    3.750    0.000    0.000    0.000    0.000 
#    0.000    0.000    0.000    0.000    0.000    0.000 
#
# Total GULP energy -178906.800999 kJ/mol
# GULP energy per Si atom -5590.837531 kJ/mol
# Density = 2.122973 g / cm^3
# Si number density = 21.278165 Si / 1000 Ang^3
#
#
#
# Elastic Constant Matrix: (Units=GPa)
#
#
# Indices 1 2 3 4 5 6 
#
# 1 59.3659 -10.9859 9.5402 0.0000 6.5522 0.0000
# 2 -10.9859 23.4626 0.2145 0.0000 0.7529 0.0000
# 3 9.5402 0.2145 116.5334 0.0000 2.9164 0.0000
# 4 0.0000 0.0000 0.0000 22.3967 0.0000 -0.9125
# 5 6.5522 0.7529 2.9164 0.0000 32.7666 0.0000
# 6 0.0000 0.0000 0.0000 -0.9125 0.0000 26.5594
#
#
#
# Elastic Compliance Matrix: (Units=1/GPa)
#
#
# Indices 1 2 3 4 5 6 
#
# 1 0.019207 0.009133 -0.001491 0.000000 -0.003918 0.000000
# 2 0.009133 0.046995 -0.000763 0.000000 -0.002838 0.000000
# 3 -0.001491 -0.000763 0.008716 0.000000 -0.000460 0.000000
# 4 0.000000 0.000000 0.000000 0.044712 0.000000 0.001536
# 5 -0.003918 -0.002838 -0.000460 0.000000 0.031408 0.000000
# 6 0.000000 0.000000 0.000000 0.001536 0.000000 0.037704
#
#
# Mechanical properties :
#
#
# Convention : Reuss Voigt Hill
#
# Bulk Modulus (GPa) = 11.27718 21.87772 16.57745
# Shear Modulus (GPa) = 24.44455 29.71742 27.08098
#
# Velocity S-wave (km/s) = 3.39309 3.74119 3.57138
# Velocity P-wave (km/s) = 4.54556 5.38201 4.98137
#
# Compressibility (1/GPa) = 0.08867469
#
# Stress axis : x y z
#
# Youngs Moduli (GPa) = 52.06511 21.27876 114.72856
#
# Poissons Ratio (x) = -0.19433 0.17108
# Poissons Ratio (y) = -0.47549 0.08755
# Poissons Ratio (z) = 0.07764 0.01624
#
# Static dielectric constant tensor:
#      x y z
#    x 1.791270 0.000000 0.007900 
#    y 0.000000 1.734020 0.000000 
#    z 0.007900 0.000000 1.746740 
# 
# From -- ./inp_files/187498.got.cif
#   From: 2010.05.17/outbox.cif.g08.bks.cpg/sg12_94_cif.got.tgz:187498.got - 2010.06.03 13:09:07.
