data_PCOD9198043
_publ_section_title
;
Structure prediction by ZEFSAII (Michael W. Deem and Ramdas Pophale) SiO2 
 PCOD9198043
Probable space group: C 2/M
;
_chemical_formula_sum "Si O2"
_cell_formula_units_Z 36
_cell_length_a 13.112578
_cell_length_b 10.567204
_cell_length_c 13.209912
_cell_angle_alpha 90.000000
_cell_angle_beta 91.479277
_cell_angle_gamma 90.000000
_cell_volume 1829.798799
_symmetry_space_group_name_H-M "C 2/M"
_symmetry_group_IT_number 12
_symmetry_cell_setting 'monoclinic'
loop_
_space_group_symop_operation_xyz
x,y,z
-x,y,-z
-x,-y,-z
x,-y,z
1/2+x,1/2+y,z
1/2-x,1/2+y,-z
1/2-x,1/2-y,-z
1/2+x,1/2-y,z
loop_
_atom_site_type_symbol
_atom_site_label
_atom_site_fract_x
_atom_site_fract_y
_atom_site_fract_z
Si Si1 0.482282 0.357841 0.832432
Si Si2 0.390183 0.859657 0.692744
Si Si3 0.000000 0.267176 0.500000
Si Si4 0.832235 0.142526 0.022286
Si Si5 0.199537 0.854289 0.571252
O O1 0.481579 0.500000 0.787429
O O2 0.439673 0.250654 0.758753
O O3 0.594876 0.332068 0.879571
O O4 0.407410 0.360139 0.927509
O O5 0.439910 0.848354 0.581981
O O6 0.268059 0.844120 0.674104
O O7 0.410167 0.000000 0.734240
O O8 0.918880 0.182181 0.435689
O O9 0.788719 0.000000 0.032184
O O10 0.750000 0.250000 0.000000
O O11 0.250000 0.750000 0.500000
O O12 0.211168 0.000000 0.537036
#
# Coordination Sequence:
#
# PCOD9198043 Si02
#       5
#     8   8   4   8   8
#     4   9  20  38  56  78 111 145 176 215 266 324
#     4  10  21  36  54  79 109 141 181 227 268 310
#     4  10  20  36  56  76 106 146 184 222 268 320
#     4   9  19  37  59  82 109 141 176 216 266 322
#     4   9  19  34  52  74 101 135 177 222 266 313
#
# _framework density 19.674295000000001
#
# number of rings (size 3 to 8) (size 9 to 14) (size 15 to 20)
#    0.000    2.667    0.000    2.000    0.000    8.889 
#    0.000    8.889    0.000    0.000    0.000    0.000 
#    0.000    0.000    0.000    0.000    0.000    0.000 
#
# Total GULP energy -100320.674202 kJ/mol
# GULP energy per Si atom -5573.370789 kJ/mol
# Density = 1.962952 g / cm^3
# Si number density = 19.674295 Si / 1000 Ang^3
#
#
#
# Elastic Constant Matrix: (Units=GPa)
#
#
# Indices 1 2 3 4 5 6 
#
# 1 109.6261 76.6975 24.7563 0.0000 33.7646 0.0000
# 2 76.6975 183.2291 55.1896 0.0000 51.2081 0.0000
# 3 24.7563 55.1896 58.7433 0.0000 22.6763 0.0000
# 4 0.0000 0.0000 0.0000 34.4297 0.0000 7.1169
# 5 33.7646 51.2081 22.6763 0.0000 31.5247 0.0000
# 6 0.0000 0.0000 0.0000 7.1169 0.0000 30.4455
#
#
#
# Elastic Compliance Matrix: (Units=1/GPa)
#
#
# Indices 1 2 3 4 5 6 
#
# 1 0.014626 -0.003438 0.001325 0.000000 -0.011035 0.000000
# 2 -0.003438 0.011665 -0.005008 0.000000 -0.011664 0.000000
# 3 0.001325 -0.005008 0.025719 0.000000 -0.011785 0.000000
# 4 0.000000 0.000000 0.000000 0.030519 0.000000 -0.007134
# 5 -0.011035 -0.011664 -0.011785 0.000000 0.070964 0.000000
# 6 0.000000 0.000000 0.000000 -0.007134 0.000000 0.034513
#
#
# Mechanical properties :
#
#
# Convention : Reuss Voigt Hill
#
# Bulk Modulus (GPa) = 26.47612 73.87617 50.17614
# Shear Modulus (GPa) = 23.27350 32.27699 27.77524
#
# Velocity S-wave (km/s) = 3.44312 4.05478 3.76141
# Velocity P-wave (km/s) = 5.41232 7.71705 6.66506
#
# Compressibility (1/GPa) = 0.03776989
#
# Stress axis : x y z
#
# Youngs Moduli (GPa) = 68.36925 85.72831 38.88203
#
# Poissons Ratio (x) = 0.29471 -0.05154
# Poissons Ratio (y) = 0.23503 0.19472
# Poissons Ratio (z) = -0.09062 0.42931
#
# Static dielectric constant tensor:
#      x y z
#    x 1.730510 0.000000 -0.013630 
#    y 0.000000 1.663890 0.000000 
#    z -0.013630 0.000000 1.706980 
# 
# From -- ./inp_files/210887.got.cif
#   From: 2010.05.17/outbox.cif.g08.bks.cpg/sg12_106_cif.got.tgz:210887.got - 2010.06.03 13:09:07.
