data_PCOD9198150
_publ_section_title
;
Structure prediction by ZEFSAII (Michael W. Deem and Ramdas Pophale) SiO2 
 PCOD9198150
Probable space group: C 2/M
;
_chemical_formula_sum "Si O2"
_cell_formula_units_Z 60
_cell_length_a 27.118757
_cell_length_b 10.793102
_cell_length_c 22.319548
_cell_angle_alpha 90.000000
_cell_angle_beta 29.209307
_cell_angle_gamma 90.000000
_cell_volume 3188.031230
_symmetry_space_group_name_H-M "C 2/M"
_symmetry_group_IT_number 12
_symmetry_cell_setting 'monoclinic'
loop_
_space_group_symop_operation_xyz
x,y,z
-x,y,-z
-x,-y,-z
x,-y,z
1/2+x,1/2+y,z
1/2-x,1/2+y,-z
1/2-x,1/2-y,-z
1/2+x,1/2-y,z
loop_
_atom_site_type_symbol
_atom_site_label
_atom_site_fract_x
_atom_site_fract_y
_atom_site_fract_z
Si Si1 0.690698 0.861015 0.095073
Si Si2 0.500000 0.716700 0.000000
Si Si3 0.224712 0.137837 0.756370
Si Si4 0.955269 0.646587 0.924226
Si Si5 0.489122 0.362993 0.583352
Si Si6 0.535470 0.855541 0.716420
Si Si7 0.618930 0.149352 0.508155
Si Si8 0.227654 0.228952 0.173203
O O1 0.573358 0.849391 0.201447
O O2 0.707497 0.839838 0.147869
O O3 0.723740 0.000000 0.042549
O O4 0.750000 0.750000 0.000000
O O5 0.604095 0.643368 0.882636
O O6 0.487325 0.796027 0.953123
O O7 0.275824 0.165183 0.638435
O O8 0.262194 0.227692 0.768959
O O9 0.258054 0.000000 0.738089
O O10 0.969881 0.500000 0.911287
O O11 0.016831 0.700129 0.801908
O O12 0.835648 0.670682 0.041737
O O13 0.500000 0.354085 0.500000
O O14 0.529043 0.500000 0.559016
O O15 0.543705 0.243999 0.554256
O O16 0.371081 0.355619 0.725847
O O17 0.614908 0.812506 0.582284
O O18 0.558596 0.000000 0.702098
O O19 0.592452 0.000000 0.532723
#
# Coordination Sequence:
#
# PCOD9198150 Si02
#       8
#     8   4   8   8   8   8   8   8
#     4  11  21  33  51  80 118 158 192 226 272 331
#     4  10  22  38  58  80 106 136 180 242 296 340
#     4  10  21  37  58  81 105 139 185 237 286 330
#     4  10  20  36  56  81 108 144 188 231 281 336
#     4  11  22  34  49  80 122 160 188 226 275 326
#     4   9  18  33  54  79 112 146 184 228 267 325
#     4  10  20  36  58  82 110 151 191 226 273 339
#     4  11  20  33  54  82 115 152 189 226 272 333
#
# _framework density 18.820391000000001
#
# number of rings (size 3 to 8) (size 9 to 14) (size 15 to 20)
#    0.000    1.733    4.000    1.200    0.000    1.333 
#    0.000    1.333    0.000    0.000    0.000    0.000 
#    0.000    0.000    0.000    0.000    0.000    0.000 
#
# Total GULP energy -167120.971586 kJ/mol
# GULP energy per Si atom -5570.699053 kJ/mol
# Density = 1.877756 g / cm^3
# Si number density = 18.820391 Si / 1000 Ang^3
#
#
#
# Elastic Constant Matrix: (Units=GPa)
#
#
# Indices 1 2 3 4 5 6 
#
# 1 69.4707 15.7755 34.6111 0.0000 23.1247 0.0000
# 2 15.7755 73.4536 29.3982 -0.0001 9.6656 0.0001
# 3 34.6111 29.3982 118.3683 0.0000 34.0462 0.0000
# 4 0.0000 -0.0001 0.0000 22.2498 0.0000 5.6999
# 5 23.1247 9.6656 34.0462 0.0000 33.9098 0.0000
# 6 0.0000 0.0001 0.0000 5.6999 0.0000 9.8979
#
#
#
# Elastic Compliance Matrix: (Units=1/GPa)
#
#
# Indices 1 2 3 4 5 6 
#
# 1 0.019411 -0.001915 -0.002179 0.000000 -0.010504 0.000000
# 2 -0.001915 0.015319 -0.003325 0.000000 0.000277 0.000000
# 3 -0.002179 -0.003325 0.012951 0.000000 -0.010570 0.000000
# 4 0.000000 0.000000 0.000000 0.052722 0.000000 -0.030361
# 5 -0.010504 0.000277 -0.010570 0.000000 0.047186 0.000000
# 6 0.000000 0.000000 0.000000 -0.030361 0.000000 0.118515
#
#
# Mechanical properties :
#
#
# Convention : Reuss Voigt Hill
#
# Bulk Modulus (GPa) = 30.44575 46.76245 38.60410
# Shear Modulus (GPa) = 17.12970 25.31203 21.22087
#
# Velocity S-wave (km/s) = 3.02017 3.67130 3.36154
# Velocity P-wave (km/s) = 5.32673 6.54766 5.96850
#
# Compressibility (1/GPa) = 0.03284530
#
# Stress axis : x y z
#
# Youngs Moduli (GPa) = 51.51594 65.27683 77.21263
#
# Poissons Ratio (x) = 0.12498 0.16826
# Poissons Ratio (y) = 0.09863 0.25670
# Poissons Ratio (z) = 0.11226 0.21702
#
# Static dielectric constant tensor:
#      x y z
#    x 1.641040 0.000000 0.032790 
#    y 0.000000 1.648730 0.000000 
#    z 0.032790 0.000000 1.692350 
# 
# From -- ./inp_files/327812.got.cif
#   From: 2010.05.17/outbox.cif.g08.bks.cpg/sg12_164_cif.got.tgz:327812.got - 2010.06.03 13:09:07.
