data_PCOD9198986
_publ_section_title
;
Structure prediction by ZEFSAII (Michael W. Deem and Ramdas Pophale) SiO2 
 PCOD9198986
Probable space group: C 2/M
;
_chemical_formula_sum "Si O2"
_cell_formula_units_Z 58
_cell_length_a 23.875854
_cell_length_b 14.854863
_cell_length_c 16.760533
_cell_angle_alpha 90.000000
_cell_angle_beta 30.696689
_cell_angle_gamma 90.000000
_cell_volume 3034.627410
_symmetry_space_group_name_H-M "C 2/M"
_symmetry_group_IT_number 12
_symmetry_cell_setting 'monoclinic'
loop_
_space_group_symop_operation_xyz
x,y,z
-x,y,-z
-x,-y,-z
x,-y,z
1/2+x,1/2+y,z
1/2-x,1/2+y,-z
1/2-x,1/2-y,-z
1/2+x,1/2-y,z
loop_
_atom_site_type_symbol
_atom_site_label
_atom_site_fract_x
_atom_site_fract_y
_atom_site_fract_z
Si Si1 0.500000 0.000000 0.000000
Si Si2 0.556826 0.843910 0.816789
Si Si3 0.267184 0.217650 0.774984
Si Si4 0.304441 0.103891 0.876816
Si Si5 0.315737 0.893270 0.050629
Si Si6 0.937468 0.603262 0.476178
Si Si7 0.399132 0.658355 0.160856
Si Si8 0.791566 0.398876 0.497249
O O1 0.568793 0.079641 0.868777
O O2 0.546917 0.746723 0.866915
O O3 0.661847 0.838973 0.630511
O O4 0.444581 0.871695 0.908586
O O5 0.245029 0.168299 0.886619
O O6 0.253050 0.323547 0.810904
O O7 0.382421 0.177440 0.600826
O O8 0.182988 0.186881 0.809600
O O9 0.434410 0.112539 0.698994
O O10 0.273590 0.000000 0.899771
O O11 0.288624 0.121415 0.990374
O O12 0.301455 0.000000 0.086999
O O13 0.916830 0.500000 0.531654
O O14 0.875175 0.610522 0.468594
O O15 0.326500 0.615240 0.319274
O O16 0.500000 0.604083 0.000000
O O17 0.801008 0.500000 0.455006
#
# Coordination Sequence:
#
# PCOD9198986 Si02
#       8
#     2   8   8   8   8   8   8   8
#     4  12  20  28  64  84 104 146 186 240 282 324
#     4  12  20  38  57  84 114 149 194 243 288 327
#     4  11  21  35  54  86 122 147 186 237 292 343
#     4  10  20  36  62  90 112 145 190 243 294 340
#     4  11  21  36  59  84 116 150 192 241 287 341
#     4   9  18  34  60  90 113 144 187 242 293 341
#     4  11  23  37  55  86 120 155 194 235 284 350
#     4  10  20  36  59  83 117 155 189 235 294 349
#
# _framework density 19.112725000000001
#
# number of rings (size 3 to 8) (size 9 to 14) (size 15 to 20)
#    0.000    1.379    4.828    1.655    0.000    1.931 
#    0.000    0.000    0.000    1.655    0.000    0.000 
#    0.000    0.000    0.000    0.000    0.000    0.000 
#
# Total GULP energy -161463.288825 kJ/mol
# GULP energy per Si atom -5567.699615 kJ/mol
# Density = 1.906922 g / cm^3
# Si number density = 19.112725 Si / 1000 Ang^3
#
#
#
# Elastic Constant Matrix: (Units=GPa)
#
#
# Indices 1 2 3 4 5 6 
#
# 1 28.9168 13.3489 7.9191 0.0000 9.5752 0.0000
# 2 13.3489 73.5405 28.2830 0.0000 8.3736 0.0000
# 3 7.9191 28.2830 108.5163 0.0000 20.7402 0.0000
# 4 0.0000 0.0000 0.0000 24.5288 0.0000 -6.5021
# 5 9.5752 8.3736 20.7402 0.0000 12.3049 0.0000
# 6 0.0000 0.0000 0.0000 -6.5021 0.0000 -16.2979
#
#
#
# Elastic Compliance Matrix: (Units=1/GPa)
#
#
# Indices 1 2 3 4 5 6 
#
# 1 0.051389 -0.006642 0.007022 0.000000 -0.047305 0.000000
# 2 -0.006642 0.016217 -0.003866 0.000000 0.000650 0.000000
# 3 0.007022 -0.003866 0.015124 0.000000 -0.028326 0.000000
# 4 0.000000 0.000000 0.000000 0.036869 0.000000 -0.014709
# 5 -0.047305 0.000650 -0.028326 0.000000 0.165381 0.000000
# 6 0.000000 0.000000 0.000000 -0.014709 0.000000 -0.055489
#
#
# Mechanical properties :
#
#
# Convention : Reuss Voigt Hill
#
# Bulk Modulus (GPa) = 13.19998 34.45285 23.82641
# Shear Modulus (GPa) = 19.10470 14.86867 16.98668
#
# Velocity S-wave (km/s) = 3.16504 2.79219 2.98445
# Velocity P-wave (km/s) = 4.50311 5.33483 4.93652
#
# Compressibility (1/GPa) = 0.07575770
#
# Stress axis : x y z
#
# Youngs Moduli (GPa) = 19.45925 61.66546 66.11963
#
# Poissons Ratio (x) = 0.40961 -0.46431
# Poissons Ratio (y) = 0.12926 0.25562
# Poissons Ratio (z) = -0.13665 0.23840
#
# Static dielectric constant tensor:
#      x y z
#    x 1.696490 0.000000 0.012330 
#    y 0.000000 1.660630 0.000000 
#    z 0.012330 0.000000 1.684140 
# 
# From -- ./inp_files/293492.got.cif
#   From: 2010.05.17/outbox.cif.g08.bks.cpg/sg12_147_cif.got.tgz:293492.got - 2010.06.03 13:09:07.
