data_PCOD9198527
_publ_section_title
;
Structure prediction by ZEFSAII (Michael W. Deem and Ramdas Pophale) SiO2 
 PCOD9198527
Probable space group: C 2/M
;
_chemical_formula_sum "Si O2"
_cell_formula_units_Z 56
_cell_length_a 19.146817
_cell_length_b 7.497086
_cell_length_c 23.302804
_cell_angle_alpha 90.000000
_cell_angle_beta 52.530313
_cell_angle_gamma 90.000000
_cell_volume 2654.850849
_symmetry_space_group_name_H-M "C 2/M"
_symmetry_group_IT_number 12
_symmetry_cell_setting 'monoclinic'
loop_
_space_group_symop_operation_xyz
x,y,z
-x,y,-z
-x,-y,-z
x,-y,z
1/2+x,1/2+y,z
1/2-x,1/2+y,-z
1/2-x,1/2-y,-z
1/2+x,1/2-y,z
loop_
_atom_site_type_symbol
_atom_site_label
_atom_site_fract_x
_atom_site_fract_y
_atom_site_fract_z
Si Si1 0.756233 0.287116 0.930037
Si Si2 0.121885 0.715859 0.230202
Si Si3 0.569344 0.707018 0.628842
Si Si4 0.082753 0.295398 0.492206
Si Si5 0.776532 0.218758 0.364223
Si Si6 0.095323 0.781993 0.932842
Si Si7 0.714941 0.716964 0.771205
O O1 0.757042 0.500000 0.923284
O O2 0.839569 0.224026 0.850790
O O3 0.668818 0.223054 0.941510
O O4 0.750000 0.250000 0.000000
O O5 0.118626 0.500000 0.232788
O O6 0.194890 0.770499 0.241291
O O7 0.024923 0.780009 0.293383
O O8 0.588779 0.500000 0.607709
O O9 0.565295 0.795312 0.568616
O O10 0.646888 0.778340 0.630864
O O11 0.088586 0.500000 0.468038
O O12 0.179660 0.220258 0.431994
O O13 0.000000 0.212807 0.500000
O O14 0.790875 0.275546 0.291362
O O15 0.778988 0.000000 0.363906
O O16 0.132921 0.727947 0.852032
O O17 0.093318 0.000000 0.933808
O O18 0.000000 0.719858 0.000000
O O19 0.716021 0.500000 0.770423
#
# Coordination Sequence:
#
# PCOD9198527 Si02
#       7
#     8   8   8   8   8   8   8
#     4   9  18  31  49  74 101 130 165 206 250 293
#     4   9  18  34  53  71  96 134 175 205 234 287
#     4  11  22  33  49  77 108 130 153 198 255 297
#     4  10  20  36  58  76  93 128 172 203 235 290
#     4   9  18  31  48  74 102 126 158 202 250 293
#     4   8  14  25  44  71  98 124 159 204 248 285
#     4   8  14  28  49  69  92 125 167 208 237 277
#
# _framework density 21.093463
#
# number of rings (size 3 to 8) (size 9 to 14) (size 15 to 20)
#    0.000    2.857    0.000    3.429    0.000    4.286 
#    0.000    3.571    0.000    2.143    0.000    0.000 
#    0.000    0.000    0.000    0.000    0.000    0.000 
#
# Total GULP energy -156260.969389 kJ/mol
# GULP energy per Si atom -5580.748907 kJ/mol
# Density = 2.104545 g / cm^3
# Si number density = 21.093463 Si / 1000 Ang^3
#
#
#
# Elastic Constant Matrix: (Units=GPa)
#
#
# Indices 1 2 3 4 5 6 
#
# 1 154.4856 0.8301 116.0331 0.0000 -2.5425 0.0009
# 2 0.8301 55.4959 -7.8014 -0.0001 -1.6166 0.0015
# 3 116.0331 -7.8014 188.3937 0.0001 -8.7471 -0.0001
# 4 0.0000 -0.0001 0.0001 7.2410 0.0000 7.2943
# 5 -2.5425 -1.6166 -8.7471 0.0000 42.4862 0.0000
# 6 0.0009 0.0015 -0.0001 7.2943 0.0000 -1.4251
#
#
#
# Elastic Compliance Matrix: (Units=1/GPa)
#
#
# Indices 1 2 3 4 5 6 
#
# 1 0.012162 -0.001274 -0.007584 -0.000001 -0.000882 0.000001
# 2 -0.001274 0.018289 0.001586 -0.000003 0.000946 0.000003
# 3 -0.007584 0.001586 0.010123 0.000001 0.001691 -0.000001
# 4 -0.000001 -0.000003 0.000001 0.022434 0.000000 0.114823
# 5 -0.000882 0.000946 0.001691 0.000000 0.023868 0.000000
# 6 0.000001 0.000003 -0.000001 0.114823 0.000000 -0.113983
#
#
# Mechanical properties :
#
#
# Convention : Reuss Voigt Hill
#
# Bulk Modulus (GPa) = 38.41773 68.49988 53.45880
# Shear Modulus (GPa) = -1286.73715 28.94797 -628.89459
#
# Velocity S-wave (km/s) = -24.72532 3.70857 -17.28566
# Velocity P-wave (km/s) = 28.22887 7.13323 19.31303
#
# Compressibility (1/GPa) = 0.02602965
#
# Stress axis : x y z
#
# Youngs Moduli (GPa) = 82.22346 54.67799 98.78048
#
# Poissons Ratio (x) = 0.06965 0.74919
# Poissons Ratio (y) = 0.10474 -0.15665
# Poissons Ratio (z) = 0.62361 -0.08671
#
# Static dielectric constant tensor:
#      x y z
#    x 1.732270 0.000000 0.001790 
#    y 0.000000 1.851670 0.000000 
#    z 0.001790 0.000000 1.743350 
# 
# From -- ./inp_files/342331.got.cif
#   From: 2010.05.17/outbox.cif.g08.bks.cpg/sg12_172_cif.got.tgz:342331.got - 2010.06.03 13:09:07.
