data_PCOD9198703
_publ_section_title
;
Structure prediction by ZEFSAII (Michael W. Deem and Ramdas Pophale) SiO2 
 PCOD9198703
Probable space group: C 2/M
;
_chemical_formula_sum "Si O2"
_cell_formula_units_Z 56
_cell_length_a 18.543451
_cell_length_b 12.898216
_cell_length_c 13.741925
_cell_angle_alpha 90.000000
_cell_angle_beta 116.522923
_cell_angle_gamma 90.000000
_cell_volume 2940.846051
_symmetry_space_group_name_H-M "C 2/M"
_symmetry_group_IT_number 12
_symmetry_cell_setting 'monoclinic'
loop_
_space_group_symop_operation_xyz
x,y,z
-x,y,-z
-x,-y,-z
x,-y,z
1/2+x,1/2+y,z
1/2-x,1/2+y,-z
1/2-x,1/2-y,-z
1/2+x,1/2-y,z
loop_
_atom_site_type_symbol
_atom_site_label
_atom_site_fract_x
_atom_site_fract_y
_atom_site_fract_z
Si Si1 0.584431 0.198804 0.656153
Si Si2 0.406761 0.885078 0.919118
Si Si3 0.961178 0.123634 0.238088
Si Si4 0.124889 0.756284 0.285956
Si Si5 0.758480 0.879997 0.775277
Si Si6 0.413180 0.121271 0.562625
Si Si7 0.666392 0.288368 0.994091
O O1 0.563152 0.314691 0.677965
O O2 0.671016 0.165917 0.748520
O O3 0.508322 0.131621 0.648200
O O4 0.590985 0.174865 0.545501
O O5 0.396326 0.825156 0.811762
O O6 0.370688 0.814687 0.981594
O O7 0.370488 0.000000 0.892552
O O8 0.500000 0.893531 0.000000
O O9 0.048659 0.167548 0.257998
O O10 0.962302 0.000000 0.248838
O O11 0.894746 0.159345 0.118479
O O12 0.200626 0.819827 0.290106
O O13 0.136220 0.688479 0.389810
O O14 0.814940 0.863191 0.903255
O O15 0.749655 0.000000 0.746348
O O16 0.391608 0.000000 0.544582
O O17 0.750000 0.250000 0.000000
#
# Coordination Sequence:
#
# PCOD9198703 Si02
#       7
#     8   8   8   8   8   8   8
#     4  10  21  39  59  88 114 141 200 243 279 346
#     4  10  20  36  58  83 115 149 188 238 283 329
#     4  11  22  40  59  81 118 159 192 232 287 341
#     4  10  22  38  57  86 118 151 197 229 279 350
#     4  11  22  37  59  86 118 152 188 238 287 334
#     4  10  20  39  65  86 113 152 188 240 295 334
#     4  11  22  39  54  88 119 150 194 233 281 349
#
# _framework density 19.042138999999999
#
# number of rings (size 3 to 8) (size 9 to 14) (size 15 to 20)
#    0.000    1.571    2.857    3.000    0.000    1.714 
#    0.000    9.286    0.000    0.000    0.000    0.000 
#    0.000    0.000    0.000    0.000    0.000    0.000 
#
# Total GULP energy -156263.806474 kJ/mol
# GULP energy per Si atom -5580.850231 kJ/mol
# Density = 1.899880 g / cm^3
# Si number density = 19.042139 Si / 1000 Ang^3
#
#
#
# Elastic Constant Matrix: (Units=GPa)
#
#
# Indices 1 2 3 4 5 6 
#
# 1 64.1454 38.8675 11.4246 0.0000 -8.9578 0.0000
# 2 38.8675 172.1869 34.1284 0.0000 -16.2670 0.0000
# 3 11.4246 34.1284 40.3037 0.0000 -7.7510 0.0000
# 4 0.0000 0.0000 0.0000 12.0454 0.0000 -2.0182
# 5 -8.9578 -16.2670 -7.7510 0.0000 28.7015 0.0000
# 6 0.0000 0.0000 0.0000 -2.0182 0.0000 18.4423
#
#
#
# Elastic Compliance Matrix: (Units=1/GPa)
#
#
# Indices 1 2 3 4 5 6 
#
# 1 0.018485 -0.003541 -0.001601 0.000000 0.003330 0.000000
# 2 -0.003541 0.007830 -0.005259 0.000000 0.001912 0.000000
# 3 -0.001601 -0.005259 0.030641 0.000000 0.004794 0.000000
# 4 0.000000 0.000000 0.000000 0.084570 0.000000 0.009254
# 5 0.003330 0.001912 0.004794 0.000000 0.038259 0.000000
# 6 0.000000 0.000000 0.000000 0.009254 0.000000 0.055236
#
#
# Mechanical properties :
#
#
# Convention : Reuss Voigt Hill
#
# Bulk Modulus (GPa) = 27.65925 49.49744 38.57834
# Shear Modulus (GPa) = 18.66556 24.65222 21.65889
#
# Velocity S-wave (km/s) = 3.13425 3.60198 3.37622
# Velocity P-wave (km/s) = 5.25879 6.58400 5.95835
#
# Compressibility (1/GPa) = 0.03615428
#
# Stress axis : x y z
#
# Youngs Moduli (GPa) = 54.09731 127.71620 32.63652
#
# Poissons Ratio (x) = 0.45220 0.05226
# Poissons Ratio (y) = 0.19154 0.17163
# Poissons Ratio (z) = 0.08662 0.67163
#
# Static dielectric constant tensor:
#      x y z
#    x 1.642940 0.000000 0.010490 
#    y 0.000000 1.655340 0.000000 
#    z 0.010490 0.000000 1.706190 
# 
# From -- ./inp_files/223919.got.cif
#   From: 2010.05.17/outbox.cif.g08.bks.cpg/sg12_112_cif.got.tgz:223919.got - 2010.06.03 13:09:07.
