data_PCOD9198982
_publ_section_title
;
Structure prediction by ZEFSAII (Michael W. Deem and Ramdas Pophale) SiO2 
 PCOD9198982
Probable space group: C 2/M
;
_chemical_formula_sum "Si O2"
_cell_formula_units_Z 60
_cell_length_a 19.612787
_cell_length_b 8.418442
_cell_length_c 20.151607
_cell_angle_alpha 90.000000
_cell_angle_beta 130.647498
_cell_angle_gamma 90.000000
_cell_volume 2524.462177
_symmetry_space_group_name_H-M "C 2/M"
_symmetry_group_IT_number 12
_symmetry_cell_setting 'monoclinic'
loop_
_space_group_symop_operation_xyz
x,y,z
-x,y,-z
-x,-y,-z
x,-y,z
1/2+x,1/2+y,z
1/2-x,1/2+y,-z
1/2-x,1/2-y,-z
1/2+x,1/2-y,z
loop_
_atom_site_type_symbol
_atom_site_label
_atom_site_fract_x
_atom_site_fract_y
_atom_site_fract_z
Si Si1 0.097824 0.688259 0.083628
Si Si2 0.458449 0.307527 0.194882
Si Si3 0.121048 0.819922 0.725892
Si Si4 0.154925 0.328392 0.345240
Si Si5 0.771703 0.184031 0.728222
Si Si6 0.357121 0.000000 0.526030
Si Si7 0.442153 0.321197 0.530333
Si Si8 0.672650 0.689600 0.999843
O O1 0.090824 0.500000 0.083796
O O2 0.140293 0.750279 0.178467
O O3 0.166481 0.733700 0.068086
O O4 0.000000 0.753732 0.000000
O O5 0.464195 0.500000 0.203954
O O6 0.388194 0.247301 0.206624
O O7 0.554479 0.234029 0.270704
O O8 0.419142 0.269603 0.098107
O O9 0.184418 0.748753 0.710133
O O10 0.018348 0.819795 0.635757
O O11 0.153021 0.000000 0.754105
O O12 0.164198 0.500000 0.317119
O O13 0.219828 0.216724 0.344743
O O14 0.168355 0.363861 0.431091
O O15 0.771863 0.000000 0.738955
O O16 0.395386 0.851692 0.504698
O O17 0.500000 0.327271 0.500000
O O18 0.395247 0.500000 0.505436
O O19 0.679005 0.500000 0.010434
O O20 0.750000 0.750000 0.000000
#
# Coordination Sequence:
#
# PCOD9198982 Si02
#       8
#     8   8   8   8   8   4   8   8
#     4  11  24  42  60  80 114 156 205 256 314 375
#     4  10  20  36  59  83 113 149 195 250 305 364
#     4  10  20  37  61  91 125 158 198 253 304 364
#     4  10  21  36  57  86 114 153 197 243 294 356
#     4  12  25  38  59  86 120 160 205 261 311 371
#     4  10  21  38  66  96 129 164 204 256 295 374
#     4  10  21  39  67 105 133 165 203 252 309 368
#     4  11  23  37  55  82 112 151 194 246 308 365
#
# _framework density 23.767437999999999
#
# number of rings (size 3 to 8) (size 9 to 14) (size 15 to 20)
#    0.400    1.067    1.333    4.200    0.933    6.400 
#    0.000    0.000    0.000    0.800    0.000    0.000 
#    0.000    0.000    0.000    0.000    0.000    0.000 
#
# Total GULP energy -167128.174393 kJ/mol
# GULP energy per Si atom -5570.939146 kJ/mol
# Density = 2.371334 g / cm^3
# Si number density = 23.767438 Si / 1000 Ang^3
#
#
#
# Elastic Constant Matrix: (Units=GPa)
#
#
# Indices 1 2 3 4 5 6 
#
# 1 99.3315 22.0780 16.4526 0.0000 -1.5867 0.0000
# 2 22.0780 91.1328 7.2711 0.0000 14.6111 0.0000
# 3 16.4526 7.2711 44.6610 0.0000 3.8936 0.0000
# 4 0.0000 0.0000 0.0000 2.4983 0.0000 -8.0830
# 5 -1.5867 14.6111 3.8936 0.0000 39.6891 0.0000
# 6 0.0000 0.0000 0.0000 -8.0830 0.0000 54.2996
#
#
#
# Elastic Compliance Matrix: (Units=1/GPa)
#
#
# Indices 1 2 3 4 5 6 
#
# 1 0.011350 -0.002734 -0.003897 0.000000 0.001843 0.000000
# 2 -0.002734 0.012426 -0.000613 0.000000 -0.004624 0.000000
# 3 -0.003897 -0.000613 0.024126 0.000000 -0.002297 0.000000
# 4 0.000000 0.000000 0.000000 0.772144 0.000000 0.114940
# 5 0.001843 -0.004624 -0.002297 0.000000 0.027197 0.000000
# 6 0.000000 0.000000 0.000000 0.114940 0.000000 0.035526
#
#
# Mechanical properties :
#
#
# Convention : Reuss Voigt Hill
#
# Bulk Modulus (GPa) = 29.92679 36.30318 33.11498
# Shear Modulus (GPa) = 5.50422 31.91897 18.71159
#
# Velocity S-wave (km/s) = 1.52345 3.66863 2.80889
# Velocity P-wave (km/s) = 3.96401 5.76651 4.94803
#
# Compressibility (1/GPa) = 0.03341488
#
# Stress axis : x y z
#
# Youngs Moduli (GPa) = 88.10682 80.47935 41.44843
#
# Poissons Ratio (x) = 0.22004 0.16151
# Poissons Ratio (y) = 0.24090 0.02539
# Poissons Ratio (z) = 0.34332 0.04931
#
# Static dielectric constant tensor:
#      x y z
#    x 2.023430 0.000000 0.046600 
#    y 0.000000 1.832460 0.000000 
#    z 0.046600 0.000000 1.996720 
# 
# From -- ./inp_files/342456.got.cif
#   From: 2010.05.17/outbox.cif.g08.bks.cpg/sg12_172_cif.got.tgz:342456.got - 2010.06.03 13:09:07.
