data_PCOD9198247
_publ_section_title
;
Structure prediction by ZEFSAII (Michael W. Deem and Ramdas Pophale) SiO2 
 PCOD9198247
Probable space group: C 2/M
;
_chemical_formula_sum "Si O2"
_cell_formula_units_Z 56
_cell_length_a 18.748224
_cell_length_b 7.737749
_cell_length_c 19.292158
_cell_angle_alpha 90.000000
_cell_angle_beta 75.780155
_cell_angle_gamma 90.000000
_cell_volume 2712.943961
_symmetry_space_group_name_H-M "C 2/M"
_symmetry_group_IT_number 12
_symmetry_cell_setting 'monoclinic'
loop_
_space_group_symop_operation_xyz
x,y,z
-x,y,-z
-x,-y,-z
x,-y,z
1/2+x,1/2+y,z
1/2-x,1/2+y,-z
1/2-x,1/2-y,-z
1/2+x,1/2-y,z
loop_
_atom_site_type_symbol
_atom_site_label
_atom_site_fract_x
_atom_site_fract_y
_atom_site_fract_z
Si Si1 0.934948 0.202108 0.562708
Si Si2 0.513275 0.203788 0.299225
Si Si3 0.632393 0.710074 0.155827
Si Si4 0.703615 0.204350 0.843844
Si Si5 0.665746 0.294741 0.000301
Si Si6 0.352724 0.212231 0.290274
Si Si7 0.272249 0.292024 0.572845
O O1 0.956848 0.213322 0.637601
O O2 0.853861 0.276948 0.569502
O O3 0.000000 0.279070 0.500000
O O4 0.929332 0.000000 0.544249
O O5 0.570124 0.231717 0.223205
O O6 0.432755 0.269513 0.296834
O O7 0.507272 0.000000 0.314626
O O8 0.633731 0.500000 0.155325
O O9 0.713469 0.771750 0.161634
O O10 0.621227 0.767566 0.078491
O O11 0.655891 0.227939 0.924934
O O12 0.667142 0.272221 0.782524
O O13 0.712811 0.000000 0.831588
O O14 0.658108 0.500000 0.998710
O O15 0.750000 0.250000 0.000000
O O16 0.289190 0.269438 0.358297
O O17 0.354291 0.000000 0.289370
O O18 0.273756 0.500000 0.580178
O O19 0.250000 0.250000 0.500000
#
# Coordination Sequence:
#
# PCOD9198247 Si02
#       7
#     8   8   8   8   8   8   8
#     4  10  21  37  57  80 106 137 170 206 256 313
#     4  11  22  34  52  77 104 136 175 217 254 297
#     4   9  18  33  53  75 102 137 171 209 262 313
#     4   9  17  33  56  76  99 135 175 214 257 307
#     4   9  17  30  50  77 105 133 169 213 260 308
#     4   9  19  35  52  73 103 138 172 208 257 306
#     4  10  20  36  57  78 104 136 169 208 252 302
#
# _framework density 20.641783
#
# number of rings (size 3 to 8) (size 9 to 14) (size 15 to 20)
#    0.000    2.429    0.000    3.429    0.000    6.000 
#    0.000    3.571    0.000    4.286    0.000    0.000 
#    0.000    0.000    0.000    0.000    0.000    0.000 
#
# Total GULP energy -156247.968822 kJ/mol
# GULP energy per Si atom -5580.284601 kJ/mol
# Density = 2.059480 g / cm^3
# Si number density = 20.641783 Si / 1000 Ang^3
#
#
#
# Elastic Constant Matrix: (Units=GPa)
#
#
# Indices 1 2 3 4 5 6 
#
# 1 149.7110 -0.1470 89.5189 0.0000 4.2382 0.0000
# 2 -0.1470 21.9176 -19.5418 0.0000 -1.2124 0.0000
# 3 89.5189 -19.5418 173.1227 0.0000 4.7877 0.0000
# 4 0.0000 0.0000 0.0000 23.9355 0.0000 3.3262
# 5 4.2382 -1.2124 4.7877 0.0000 34.3999 0.0000
# 6 0.0000 0.0000 0.0000 3.3262 0.0000 9.4815
#
#
#
# Elastic Compliance Matrix: (Units=1/GPa)
#
#
# Indices 1 2 3 4 5 6 
#
# 1 0.010177 -0.005162 -0.005828 0.000000 -0.000625 0.000000
# 2 -0.005162 0.053384 0.008659 0.000000 0.001312 0.000000
# 3 -0.005828 0.008659 0.009776 0.000000 -0.000337 0.000000
# 4 0.000000 0.000000 0.000000 0.043920 0.000000 -0.015408
# 5 -0.000625 0.001312 -0.000337 0.000000 0.029240 0.000000
# 6 0.000000 0.000000 0.000000 -0.015408 0.000000 0.110874
#
#
# Mechanical properties :
#
#
# Convention : Reuss Voigt Hill
#
# Bulk Modulus (GPa) = 14.56143 53.82351 34.19247
# Shear Modulus (GPa) = 17.54854 31.89147 24.72000
#
# Velocity S-wave (km/s) = 2.91889 3.93491 3.46435
# Velocity P-wave (km/s) = 4.29297 6.83932 5.70990
#
# Compressibility (1/GPa) = 0.06867458
#
# Stress axis : x y z
#
# Youngs Moduli (GPa) = 98.26290 18.73236 102.28740
#
# Poissons Ratio (x) = 0.09670 0.59610
# Poissons Ratio (y) = 0.50726 -0.88569
# Poissons Ratio (z) = 0.57264 -0.16220
#
# Static dielectric constant tensor:
#      x y z
#    x 1.721090 0.000000 -0.005610 
#    y 0.000000 1.798980 0.000000 
#    z -0.005610 0.000000 1.727340 
# 
# From -- ./inp_files/275086.got.cif
#   From: 2010.05.17/outbox.cif.g08.bks.cpg/sg12_138_cif.got.tgz:275086.got - 2010.06.03 13:09:07.
