data_PCOD9198428
_publ_section_title
;
Structure prediction by ZEFSAII (Michael W. Deem and Ramdas Pophale) SiO2 
 PCOD9198428
Probable space group: C 2/M
;
_chemical_formula_sum "Si O2"
_cell_formula_units_Z 44
_cell_length_a 18.087056
_cell_length_b 9.550819
_cell_length_c 13.839938
_cell_angle_alpha 90.000000
_cell_angle_beta 51.334191
_cell_angle_gamma 90.000000
_cell_volume 1866.742120
_symmetry_space_group_name_H-M "C 2/M"
_symmetry_group_IT_number 12
_symmetry_cell_setting 'monoclinic'
loop_
_space_group_symop_operation_xyz
x,y,z
-x,y,-z
-x,-y,-z
x,-y,z
1/2+x,1/2+y,z
1/2-x,1/2+y,-z
1/2-x,1/2-y,-z
1/2+x,1/2-y,z
loop_
_atom_site_type_symbol
_atom_site_label
_atom_site_fract_x
_atom_site_fract_y
_atom_site_fract_z
Si Si1 0.579203 0.659727 0.313944
Si Si2 0.123384 0.236625 0.060171
Si Si3 0.597527 0.157897 0.569207
Si Si4 0.740351 0.000000 0.048063
Si Si5 0.421549 0.162280 0.183200
Si Si6 0.739494 0.834401 0.291909
O O1 0.585485 0.500000 0.342733
O O2 0.597066 0.663081 0.184135
O O3 0.476747 0.729389 0.410051
O O4 0.659013 0.756808 0.295481
O O5 0.176951 0.378233 0.044943
O O6 0.026460 0.274959 0.085997
O O7 0.193572 0.124411 0.957871
O O8 0.596412 0.164864 0.685674
O O9 0.697787 0.177613 0.435965
O O10 0.563102 0.000000 0.571817
O O11 0.338178 0.253866 0.206649
O O12 0.417080 0.000000 0.155910
O O13 0.740464 0.000000 0.271668
#
# Coordination Sequence:
#
# PCOD9198428 Si02
#       6
#     8   8   8   4   8   8
#     4  11  22  36  56  84 117 148 189 231 277 328
#     4  10  21  38  63  92 107 141 182 236 280 338
#     4   9  20  37  56  81 112 154 198 231 265 319
#     4  10  20  38  66  88 110 132 186 234 286 340
#     4  10  20  36  57  83 118 148 185 230 278 326
#     4  11  23  35  54  81 118 159 189 226 273 328
#
# _framework density 23.570478000000001
#
# number of rings (size 3 to 8) (size 9 to 14) (size 15 to 20)
#    0.000    1.818    1.818    2.182    3.818    4.364 
#    0.000    0.000    0.000    6.545    0.000    0.000 
#    0.000    0.000    0.000    0.000    0.000    0.000 
#
# Total GULP energy -122688.827283 kJ/mol
# GULP energy per Si atom -5576.764877 kJ/mol
# Density = 2.351683 g / cm^3
# Si number density = 23.570478 Si / 1000 Ang^3
#
#
#
# Elastic Constant Matrix: (Units=GPa)
#
#
# Indices 1 2 3 4 5 6 
#
# 1 135.6112 92.0824 37.6413 0.0000 -38.5374 0.0000
# 2 92.0824 223.4757 46.2745 0.0000 -47.0108 0.0000
# 3 37.6413 46.2745 93.2783 0.0000 -18.2094 0.0000
# 4 0.0000 0.0000 0.0000 20.6216 0.0000 -0.0354
# 5 -38.5374 -47.0108 -18.2094 0.0000 48.6144 0.0000
# 6 0.0000 0.0000 0.0000 -0.0354 0.0000 38.4898
#
#
#
# Elastic Compliance Matrix: (Units=1/GPa)
#
#
# Indices 1 2 3 4 5 6 
#
# 1 0.011675 -0.003265 -0.002051 0.000000 0.005329 0.000000
# 2 -0.003265 0.006847 -0.001394 0.000000 0.003511 0.000000
# 3 -0.002051 -0.001394 0.012579 0.000000 0.001738 0.000000
# 4 0.000000 0.000000 0.000000 0.048493 0.000000 0.000045
# 5 0.005329 0.003511 0.001738 0.000000 0.028841 0.000000
# 6 0.000000 0.000000 0.000000 0.000045 0.000000 0.025981
#
#
# Mechanical properties :
#
#
# Convention : Reuss Voigt Hill
#
# Bulk Modulus (GPa) = 56.55702 89.37352 72.96527
# Shear Modulus (GPa) = 32.52470 39.96963 36.24717
#
# Velocity S-wave (km/s) = 3.71872 4.12242 3.92576
# Velocity P-wave (km/s) = 6.51809 7.78839 7.18138
#
# Compressibility (1/GPa) = 0.01768127
#
# Stress axis : x y z
#
# Youngs Moduli (GPa) = 85.65607 146.04433 79.49688
#
# Poissons Ratio (x) = 0.47678 0.16306
# Poissons Ratio (y) = 0.27964 0.11082
# Poissons Ratio (z) = 0.17570 0.20358
#
# Static dielectric constant tensor:
#      x y z
#    x 1.848370 0.000000 0.089670 
#    y 0.000000 1.795670 0.000000 
#    z 0.089670 0.000000 2.069350 
# 
# From -- ./inp_files/220703.got.cif
#   From: 2010.05.17/outbox.cif.g08.bks.cpg/sg12_111_cif.got.tgz:220703.got - 2010.06.03 13:09:07.
