data_PCOD9198201
_publ_section_title
;
Structure prediction by ZEFSAII (Michael W. Deem and Ramdas Pophale) SiO2 
 PCOD9198201
Probable space group: C 2/M
;
_chemical_formula_sum "Si O2"
_cell_formula_units_Z 60
_cell_length_a 20.897695
_cell_length_b 19.065717
_cell_length_c 8.848376
_cell_angle_alpha 90.000000
_cell_angle_beta 74.752641
_cell_angle_gamma 90.000000
_cell_volume 3401.356426
_symmetry_space_group_name_H-M "C 2/M"
_symmetry_group_IT_number 12
_symmetry_cell_setting 'monoclinic'
loop_
_space_group_symop_operation_xyz
x,y,z
-x,y,-z
-x,-y,-z
x,-y,z
1/2+x,1/2+y,z
1/2-x,1/2+y,-z
1/2-x,1/2-y,-z
1/2+x,1/2-y,z
loop_
_atom_site_type_symbol
_atom_site_label
_atom_site_fract_x
_atom_site_fract_y
_atom_site_fract_z
Si Si1 0.390783 0.685794 0.364524
Si Si2 0.187445 0.294687 0.093818
Si Si3 0.769851 0.083518 0.527680
Si Si4 0.743748 0.418676 0.109008
Si Si5 0.000000 0.880173 0.500000
Si Si6 0.806629 0.297093 0.550285
Si Si7 0.414121 0.578258 0.827605
Si Si8 0.071234 0.214441 0.995800
O O1 0.336524 0.626274 0.443052
O O2 0.457186 0.663964 0.408339
O O3 0.370931 0.762317 0.438090
O O4 0.394933 0.692120 0.182447
O O5 0.188280 0.288123 0.273840
O O6 0.250000 0.250000 0.000000
O O7 0.207283 0.371001 0.018647
O O8 0.120829 0.263075 0.061342
O O9 0.752668 0.096079 0.714208
O O10 0.712126 0.122902 0.471711
O O11 0.776469 0.000000 0.498614
O O12 0.758570 0.500000 0.074323
O O13 0.665226 0.408773 0.123988
O O14 0.053104 0.919843 0.359895
O O15 0.750000 0.250000 0.500000
O O16 0.426061 0.500000 0.882404
O O17 0.442329 0.642459 0.905424
O O18 0.000000 0.247587 0.000000
#
# Coordination Sequence:
#
# PCOD9198201 Si02
#       8
#     8   8   8   8   4   8   8   8
#     4  11  22  37  56  81 116 152 196 234 281 341
#     4  12  21  38  62  82 116 154 195 249 296 343
#     4  10  20  36  56  84 116 147 187 236 291 346
#     4  10  21  37  60  88 116 151 194 242 295 349
#     4  12  21  38  58  78 115 164 200 234 275 344
#     4  10  22  36  56  85 109 147 193 243 294 340
#     4  11  23  38  55  83 120 161 200 235 282 343
#     4  12  25  40  57  87 117 157 203 243 290 348
#
# _framework density 17.640022999999999
#
# number of rings (size 3 to 8) (size 9 to 14) (size 15 to 20)
#    0.000    1.067    4.000    5.000    0.000    1.867 
#    0.000    0.000    0.000    0.400    0.000    0.467 
#    0.000    0.000    0.000    0.000    0.000    0.000 
#
# Total GULP energy -167318.420856 kJ/mol
# GULP energy per Si atom -5577.280695 kJ/mol
# Density = 1.759987 g / cm^3
# Si number density = 17.640023 Si / 1000 Ang^3
#
#
#
# Elastic Constant Matrix: (Units=GPa)
#
#
# Indices 1 2 3 4 5 6 
#
# 1 96.2043 46.5684 33.0454 0.0000 11.6692 0.0000
# 2 46.5684 73.4052 47.2855 0.0000 3.5658 0.0000
# 3 33.0454 47.2855 122.4724 0.0000 11.4702 0.0000
# 4 0.0000 0.0000 0.0000 22.9038 0.0000 5.6412
# 5 11.6692 3.5658 11.4702 0.0000 25.6369 0.0000
# 6 0.0000 0.0000 0.0000 5.6412 0.0000 14.6901
#
#
#
# Elastic Compliance Matrix: (Units=1/GPa)
#
#
# Indices 1 2 3 4 5 6 
#
# 1 0.015827 -0.009795 0.000061 0.000000 -0.005869 0.000000
# 2 -0.009795 0.024204 -0.007102 0.000000 0.004269 0.000000
# 3 0.000061 -0.007102 0.011273 0.000000 -0.004084 0.000000
# 4 0.000000 0.000000 0.000000 0.048222 0.000000 -0.018518
# 5 -0.005869 0.004269 -0.004084 0.000000 0.042911 0.000000
# 6 0.000000 0.000000 0.000000 -0.018518 0.000000 0.075184
#
#
# Mechanical properties :
#
#
# Convention : Reuss Voigt Hill
#
# Bulk Modulus (GPa) = 56.71341 60.65338 58.68339
# Shear Modulus (GPa) = 19.44237 23.65834 21.55036
#
# Velocity S-wave (km/s) = 3.32350 3.66618 3.49904
# Velocity P-wave (km/s) = 6.85184 7.23738 7.04725
#
# Compressibility (1/GPa) = 0.01763251
#
# Stress axis : x y z
#
# Youngs Moduli (GPa) = 63.18466 41.31491 88.70593
#
# Poissons Ratio (x) = 0.40466 -0.00540
# Poissons Ratio (y) = 0.61887 0.63000
# Poissons Ratio (z) = -0.00385 0.29343
#
# Static dielectric constant tensor:
#      x y z
#    x 1.647990 0.000000 0.003000 
#    y 0.000000 1.504640 0.000000 
#    z 0.003000 0.000000 1.687970 
# 
# From -- ./inp_files/87907.got.cif
#   From: 2010.05.17/outbox.cif.g08.bks.cpg/sg12_44_cif.got.tgz:87907.got - 2010.06.03 13:09:07.
