data_PCOD9198898
_publ_section_title
;
Structure prediction by ZEFSAII (Michael W. Deem and Ramdas Pophale) SiO2 
 PCOD9198898
Probable space group: C 2/M
;
_chemical_formula_sum "Si O2"
_cell_formula_units_Z 64
_cell_length_a 22.170279
_cell_length_b 14.674023
_cell_length_c 31.739725
_cell_angle_alpha 90.000000
_cell_angle_beta 19.060718
_cell_angle_gamma 90.000000
_cell_volume 3372.094627
_symmetry_space_group_name_H-M "C 2/M"
_symmetry_group_IT_number 12
_symmetry_cell_setting 'monoclinic'
loop_
_space_group_symop_operation_xyz
x,y,z
-x,y,-z
-x,-y,-z
x,-y,z
1/2+x,1/2+y,z
1/2-x,1/2+y,-z
1/2-x,1/2-y,-z
1/2+x,1/2-y,z
loop_
_atom_site_type_symbol
_atom_site_label
_atom_site_fract_x
_atom_site_fract_y
_atom_site_fract_z
Si Si1 0.300541 0.899274 0.541642
Si Si2 0.067330 0.390068 0.720578
Si Si3 0.700156 0.790254 0.865893
Si Si4 0.437939 0.715769 0.493665
Si Si5 0.614790 0.890021 0.075282
Si Si6 0.361782 0.392308 0.839059
Si Si7 0.572175 0.182688 0.622726
Si Si8 0.782879 0.608145 0.230331
O O1 0.392235 0.813287 0.503672
O O2 0.374629 0.895965 0.445017
O O3 0.080180 0.882669 0.688290
O O4 0.335182 0.000000 0.537004
O O5 0.072535 0.500000 0.715121
O O6 0.259819 0.349058 0.609622
O O7 0.919166 0.360481 0.854200
O O8 0.045992 0.350229 0.687858
O O9 0.754676 0.837491 0.873876
O O10 0.674665 0.864211 0.845643
O O11 0.878697 0.728980 0.737708
O O12 0.500000 0.741962 0.000000
O O13 0.500000 0.730256 0.500000
O O14 0.599777 0.662464 0.363246
O O15 0.444066 0.865758 0.157022
O O16 0.616300 0.000000 0.076649
O O17 0.795635 0.863170 0.929364
O O18 0.317452 0.500000 0.863618
O O19 0.750000 0.250000 0.500000
O O20 0.755418 0.500000 0.251804
#
# Coordination Sequence:
#
# PCOD9198898 Si02
#       8
#     8   8   8   8   8   8   8   8
#     4  11  24  43  65  86 117 165 216 263 305 359
#     4  11  22  38  62  91 125 166 201 247 311 377
#     4  12  22  35  60  93 129 162 207 256 308 370
#     4  12  23  38  60  91 124 154 205 255 307 372
#     4   9  19  35  56  87 125 158 190 234 306 384
#     4  10  20  36  58  88 123 161 203 253 307 368
#     4  12  22  41  63  89 125 164 211 257 307 363
#     4  11  21  34  56  91 131 162 186 239 316 380
#
# _framework density 18.979301
#
# number of rings (size 3 to 8) (size 9 to 14) (size 15 to 20)
#    0.000    1.000    6.250    1.125    0.000    1.250 
#    0.000    3.750    0.000    1.500    0.000    0.000 
#    0.000    0.000    0.000    0.000    0.000    0.000 
#
# Total GULP energy -178583.054009 kJ/mol
# GULP energy per Si atom -5580.720438 kJ/mol
# Density = 1.893610 g / cm^3
# Si number density = 18.979301 Si / 1000 Ang^3
#
#
#
# Elastic Constant Matrix: (Units=GPa)
#
#
# Indices 1 2 3 4 5 6 
#
# 1 105.5266 27.2087 40.5699 0.0096 26.8507 -0.0023
# 2 27.2087 83.8883 38.6920 0.0183 -2.7037 0.0034
# 3 40.5699 38.6920 132.0511 0.0820 13.8107 -0.0018
# 4 0.0096 0.0183 0.0820 5.9283 0.0054 11.9357
# 5 26.8507 -2.7037 13.8107 0.0054 38.8348 -0.0019
# 6 -0.0023 0.0034 -0.0018 11.9357 -0.0019 15.0785
#
#
#
# Elastic Compliance Matrix: (Units=1/GPa)
#
#
# Indices 1 2 3 4 5 6 
#
# 1 0.013493 -0.003670 -0.002147 -0.000041 -0.008821 0.000034
# 2 -0.003670 0.015017 -0.003788 -0.000025 0.004930 0.000016
# 3 -0.002147 -0.003788 0.009571 0.000199 -0.002183 -0.000156
# 4 -0.000041 -0.000025 0.000199 -0.284124 0.000006 0.224903
# 5 -0.008821 0.004930 -0.002183 0.000006 0.032968 -0.000004
# 6 0.000034 0.000016 -0.000156 0.224903 -0.000004 -0.111706
#
#
# Mechanical properties :
#
#
# Convention : Reuss Voigt Hill
#
# Bulk Modulus (GPa) = 52.99688 59.37857 56.18772
# Shear Modulus (GPa) = -16.70670 26.30135 4.79733
#
# Velocity S-wave (km/s) = -2.97013 3.72666 1.59159
# Velocity P-wave (km/s) = 4.02764 7.06196 5.74861
#
# Compressibility (1/GPa) = 0.01886904
#
# Stress axis : x y z
#
# Youngs Moduli (GPa) = 74.11521 66.59068 104.48572
#
# Poissons Ratio (x) = 0.24439 0.22437
# Poissons Ratio (y) = 0.27201 0.39581
# Poissons Ratio (z) = 0.15915 0.25226
#
# Static dielectric constant tensor:
#      x y z
#    x 1.668820 0.000000 0.032340 
#    y 0.000000 1.659730 0.000020 
#    z 0.032340 0.000020 1.691520 
# 
# From -- ./inp_files/381432.got.cif
#   From: 2010.05.17/outbox.cif.g08.bks.cpg/sg12_191_cif.got.tgz:381432.got - 2010.06.03 13:09:07.
