data_PCOD9198022
_publ_section_title
;
Structure prediction by ZEFSAII (Michael W. Deem and Ramdas Pophale) SiO2 
 PCOD9198022
Probable space group: C 2/M
;
_chemical_formula_sum "Si O2"
_cell_formula_units_Z 58
_cell_length_a 20.224546
_cell_length_b 7.344712
_cell_length_c 23.673232
_cell_angle_alpha 90.000000
_cell_angle_beta 42.287540
_cell_angle_gamma 90.000000
_cell_volume 2366.085474
_symmetry_space_group_name_H-M "C 2/M"
_symmetry_group_IT_number 12
_symmetry_cell_setting 'monoclinic'
loop_
_space_group_symop_operation_xyz
x,y,z
-x,y,-z
-x,-y,-z
x,-y,z
1/2+x,1/2+y,z
1/2-x,1/2+y,-z
1/2-x,1/2-y,-z
1/2+x,1/2-y,z
loop_
_atom_site_type_symbol
_atom_site_label
_atom_site_fract_x
_atom_site_fract_y
_atom_site_fract_z
Si Si1 0.947377 0.776033 0.247711
Si Si2 0.437629 0.705080 0.376726
Si Si3 0.271950 0.290758 0.284301
Si Si4 0.358697 0.715902 0.063044
Si Si5 0.000000 0.500000 0.000000
Si Si6 0.405339 0.721154 0.522551
Si Si7 0.837703 0.717946 0.757507
Si Si8 0.365255 0.283272 0.934220
O O1 0.872163 0.715937 0.246769
O O2 0.913755 0.711912 0.330871
O O3 0.057382 0.717006 0.161037
O O4 0.945787 0.000000 0.250950
O O5 0.396768 0.500000 0.402637
O O6 0.410495 0.786431 0.454536
O O7 0.556433 0.697745 0.301286
O O8 0.294067 0.500000 0.254318
O O9 0.192415 0.284314 0.384624
O O10 0.215470 0.214095 0.265842
O O11 0.374738 0.500000 0.060108
O O12 0.242473 0.749110 0.143286
O O13 0.419595 0.839004 0.066535
O O14 0.391631 0.783069 0.980400
O O15 0.500000 0.778368 0.500000
O O16 0.406887 0.500000 0.520815
O O17 0.853586 0.500000 0.742836
O O18 0.376931 0.500000 0.928864
O O19 0.250000 0.250000 0.000000
#
# Coordination Sequence:
#
# PCOD9198022 Si02
#       8
#     8   8   8   8   2   8   8   8
#     4   9  20  38  59  86 115 156 199 244 306 364
#     4  10  20  36  61  84 115 156 201 245 297 371
#     4  10  21  37  59  85 115 155 198 245 299 367
#     4  10  24  42  61  92 128 165 209 267 317 374
#     4  12  26  40  64  94 124 170 218 254 322 394
#     4  10  20  36  55  85 121 154 191 247 307 355
#     4  10  21  37  59  86 119 152 196 252 306 356
#     4  10  21  39  64  88 124 163 207 264 319 377
#
# _framework density 24.513062000000001
#
# number of rings (size 3 to 8) (size 9 to 14) (size 15 to 20)
#    0.000    2.069    1.379    1.034    3.862    1.379 
#    0.000    1.379    0.000    0.000    0.000    0.000 
#    0.000    0.000    0.000    0.000    0.000    0.000 
#
# Total GULP energy -161843.693955 kJ/mol
# GULP energy per Si atom -5580.817033 kJ/mol
# Density = 2.445727 g / cm^3
# Si number density = 24.513062 Si / 1000 Ang^3
#
#
#
# Elastic Constant Matrix: (Units=GPa)
#
#
# Indices 1 2 3 4 5 6 
#
# 1 82.0195 -10.4901 -9.7324 -0.0002 10.2102 0.0000
# 2 -10.4901 99.6511 -7.3770 0.0011 3.9317 0.0026
# 3 -9.7324 -7.3770 66.7682 -0.0022 15.9325 -0.0015
# 4 -0.0002 0.0011 -0.0022 -12.5583 0.0000 -33.5428
# 5 10.2102 3.9317 15.9325 0.0000 48.7772 0.0002
# 6 0.0000 0.0026 -0.0015 -33.5428 0.0002 -18.2138
#
#
#
# Elastic Compliance Matrix: (Units=1/GPa)
#
#
# Indices 1 2 3 4 5 6 
#
# 1 0.013272 0.001779 0.003067 0.000000 -0.003923 0.000000
# 2 0.001779 0.010431 0.001845 0.000001 -0.001816 0.000000
# 3 0.003067 0.001845 0.017154 0.000000 -0.006394 -0.000001
# 4 0.000000 0.000001 0.000000 0.020319 0.000000 -0.037420
# 5 -0.003923 -0.001816 -0.006394 0.000000 0.023558 0.000000
# 6 0.000000 0.000000 -0.000001 -0.037420 0.000000 0.014010
#
#
# Mechanical properties :
#
#
# Convention : Reuss Voigt Hill
#
# Bulk Modulus (GPa) = 18.43676 21.47109 19.95393
# Shear Modulus (GPa) = 48.33720 22.00357 35.17039
#
# Velocity S-wave (km/s) = 4.44542 2.99929 3.79193
# Velocity P-wave (km/s) = 5.82122 4.55767 5.22776
#
# Compressibility (1/GPa) = 0.05423946
#
# Stress axis : x y z
#
# Youngs Moduli (GPa) = 75.34577 95.87257 58.29578
#
# Poissons Ratio (x) = -0.17056 -0.17882
# Poissons Ratio (y) = -0.13404 -0.10756
# Poissons Ratio (z) = -0.23112 -0.17689
#
# Static dielectric constant tensor:
#      x y z
#    x 2.076730 0.000000 0.069900 
#    y 0.000000 1.935180 0.000000 
#    z 0.069900 0.000000 1.955680 
# 
# From -- ./inp_files/346493.got.cif
#   From: 2010.05.17/outbox.cif.g08.bks.cpg/sg12_174_cif.got.tgz:346493.got - 2010.06.03 13:09:07.
