data_PCOD9198202
_publ_section_title
;
Structure prediction by ZEFSAII (Michael W. Deem and Ramdas Pophale) SiO2 
 PCOD9198202
Probable space group: C 2/M
;
_chemical_formula_sum "Si O2"
_cell_formula_units_Z 50
_cell_length_a 19.712702
_cell_length_b 8.091431
_cell_length_c 16.643076
_cell_angle_alpha 90.000000
_cell_angle_beta 124.930731
_cell_angle_gamma 90.000000
_cell_volume 2176.390285
_symmetry_space_group_name_H-M "C 2/M"
_symmetry_group_IT_number 12
_symmetry_cell_setting 'monoclinic'
loop_
_space_group_symop_operation_xyz
x,y,z
-x,y,-z
-x,-y,-z
x,-y,z
1/2+x,1/2+y,z
1/2-x,1/2+y,-z
1/2-x,1/2-y,-z
1/2+x,1/2-y,z
loop_
_atom_site_type_symbol
_atom_site_label
_atom_site_fract_x
_atom_site_fract_y
_atom_site_fract_z
Si Si1 0.045927 0.810173 0.449695
Si Si2 0.113000 0.690646 0.049499
Si Si3 0.295267 0.186077 0.372201
Si Si4 0.383447 0.189820 0.754447
Si Si5 0.035801 0.310015 0.762579
Si Si6 0.500000 0.500000 0.000000
Si Si7 0.297144 0.308186 0.191908
O O1 0.142515 0.798434 0.535347
O O2 0.000000 0.759130 0.500000
O O3 0.012829 0.702901 0.354585
O O4 0.022542 0.000000 0.416258
O O5 0.088711 0.500000 0.008152
O O6 0.115808 0.686892 0.148909
O O7 0.208467 0.724103 0.090870
O O8 0.056776 0.850153 0.996228
O O9 0.199471 0.217338 0.327018
O O10 0.304918 0.213965 0.282507
O O11 0.318975 0.000000 0.407166
O O12 0.468813 0.261748 0.779072
O O13 0.377440 0.000000 0.722167
O O14 0.052008 0.500000 0.794706
O O15 0.124106 0.226341 0.809862
O O16 0.295994 0.500000 0.214746
#
# Coordination Sequence:
#
# PCOD9198202 Si02
#       7
#     8   8   8   8   8   2   8
#     4  11  22  35  51  76 113 157 199 249 302 338
#     4   9  21  40  63  94 126 152 189 239 293 351
#     4  11  21  33  56  79 110 150 202 255 289 336
#     4   9  21  40  57  83 119 156 189 239 299 347
#     4  11  22  35  58  85 112 153 205 244 290 347
#     4  12  22  36  72 102 116 150 192 238 288 362
#     4  10  20  36  56  84 117 154 192 240 291 344
#
# _framework density 22.97382
#
# number of rings (size 3 to 8) (size 9 to 14) (size 15 to 20)
#    0.000    1.760    1.600    4.080    5.600    2.560 
#    0.000    0.000    0.000    0.960    0.000    0.000 
#    0.000    0.000    0.000    0.000    0.000    0.000 
#
# Total GULP energy -139430.820371 kJ/mol
# GULP energy per Si atom -5577.232815 kJ/mol
# Density = 2.292153 g / cm^3
# Si number density = 22.973820 Si / 1000 Ang^3
#
#
#
# Elastic Constant Matrix: (Units=GPa)
#
#
# Indices 1 2 3 4 5 6 
#
# 1 158.4340 18.3797 29.4570 0.0000 28.6120 0.0000
# 2 18.3797 68.9262 30.8165 0.0000 14.4834 0.0000
# 3 29.4570 30.8165 60.3599 0.0000 12.9960 0.0000
# 4 0.0000 0.0000 0.0000 8.8061 0.0000 12.7644
# 5 28.6120 14.4834 12.9960 0.0000 27.0877 0.0000
# 6 0.0000 0.0000 0.0000 12.7644 0.0000 27.2546
#
#
#
# Elastic Compliance Matrix: (Units=1/GPa)
#
#
# Indices 1 2 3 4 5 6 
#
# 1 0.008107 0.000617 -0.002628 0.000000 -0.007632 0.000000
# 2 0.000617 0.019788 -0.008905 0.000000 -0.006959 0.000000
# 3 -0.002628 -0.008905 0.023167 0.000000 -0.003577 0.000000
# 4 0.000000 0.000000 0.000000 0.353596 0.000000 -0.165602
# 5 -0.007632 -0.006959 -0.003577 0.000000 0.050416 0.000000
# 6 0.000000 0.000000 0.000000 -0.165602 0.000000 0.114249
#
#
# Mechanical properties :
#
#
# Convention : Reuss Voigt Hill
#
# Bulk Modulus (GPa) = 34.21298 49.44737 41.83017
# Shear Modulus (GPa) = 8.32088 26.56747 17.44418
#
# Velocity S-wave (km/s) = 1.90519 3.40431 2.75854
# Velocity P-wave (km/s) = 4.44569 6.08461 5.32854
#
# Compressibility (1/GPa) = 0.02922868
#
# Stress axis : x y z
#
# Youngs Moduli (GPa) = 123.34713 50.53679 43.16559
#
# Poissons Ratio (x) = -0.03118 0.11345
# Poissons Ratio (y) = -0.07610 0.38440
# Poissons Ratio (z) = 0.32418 0.45004
#
# Static dielectric constant tensor:
#      x y z
#    x 1.890390 0.000000 0.014230 
#    y 0.000000 1.809000 0.000000 
#    z 0.014230 0.000000 1.853050 
# 
# From -- ./inp_files/274532.got.cif
#   From: 2010.05.17/outbox.cif.g08.bks.cpg/sg12_138_cif.got.tgz:274532.got - 2010.06.03 13:09:07.
