data_PCOD9198629
_publ_section_title
;
Structure prediction by ZEFSAII (Michael W. Deem and Ramdas Pophale) SiO2 
 PCOD9198629
Probable space group: C 2/M
;
_chemical_formula_sum "Si O2"
_cell_formula_units_Z 56
_cell_length_a 13.203500
_cell_length_b 16.154620
_cell_length_c 15.069730
_cell_angle_alpha 90.000000
_cell_angle_beta 55.673664
_cell_angle_gamma 90.000000
_cell_volume 2654.524709
_symmetry_space_group_name_H-M "C 2/M"
_symmetry_group_IT_number 12
_symmetry_cell_setting 'monoclinic'
loop_
_space_group_symop_operation_xyz
x,y,z
-x,y,-z
-x,-y,-z
x,-y,z
1/2+x,1/2+y,z
1/2-x,1/2+y,-z
1/2-x,1/2-y,-z
1/2+x,1/2-y,z
loop_
_atom_site_type_symbol
_atom_site_label
_atom_site_fract_x
_atom_site_fract_y
_atom_site_fract_z
Si Si1 0.485377 0.669697 0.905747
Si Si2 0.035460 0.361025 0.117985
Si Si3 0.772270 0.096740 0.900239
Si Si4 0.213504 0.601228 0.545075
Si Si5 0.790209 0.100055 0.316544
Si Si6 0.241985 0.594740 0.723345
Si Si7 0.070475 0.399743 0.296490
O O1 0.494504 0.768143 0.895049
O O2 0.355780 0.643346 0.929186
O O3 0.590905 0.631405 0.792729
O O4 0.500000 0.642252 0.000000
O O5 0.095481 0.364397 0.186308
O O6 0.905847 0.406811 0.192626
O O7 0.131586 0.396759 0.000594
O O8 0.789570 0.131967 0.792059
O O9 0.806360 0.000000 0.883122
O O10 0.218774 0.500000 0.545942
O O11 0.281444 0.628853 0.422733
O O12 0.263575 0.632424 0.615382
O O13 0.069212 0.622293 0.609383
O O14 0.670032 0.125739 0.319990
O O15 0.791551 0.000000 0.317181
O O16 0.286977 0.500000 0.698644
O O17 0.075680 0.500000 0.286853
#
# Coordination Sequence:
#
# PCOD9198629 Si02
#       7
#     8   8   8   8   8   8   8
#     4  12  26  39  52  77 113 149 182 219 270 334
#     4  11  21  36  57  81 109 143 177 223 279 324
#     4  11  22  37  58  81 107 142 184 227 270 319
#     4   8  15  31  57  87 112 136 177 230 272 308
#     4  10  20  36  58  82 111 147 182 220 270 322
#     4   9  18  34  58  85 107 133 179 232 272 312
#     4   9  17  32  59  90 113 138 180 228 267 311
#
# _framework density 21.096056000000001
#
# number of rings (size 3 to 8) (size 9 to 14) (size 15 to 20)
#    0.000    2.000    0.000    5.571    0.000    6.286 
#    0.000    3.571    0.000    6.857    0.000    0.000 
#    0.000    0.000    0.000    0.000    0.000    0.286 
#
# Total GULP energy -156375.151080 kJ/mol
# GULP energy per Si atom -5584.826824 kJ/mol
# Density = 2.104804 g / cm^3
# Si number density = 21.096056 Si / 1000 Ang^3
#
#
#
# Elastic Constant Matrix: (Units=GPa)
#
#
# Indices 1 2 3 4 5 6 
#
# 1 62.9103 -0.9532 37.1509 0.0000 31.3937 0.0000
# 2 -0.9532 14.2936 4.1039 0.0000 4.4564 0.0000
# 3 37.1509 4.1039 152.6461 0.0000 34.8516 0.0000
# 4 0.0000 0.0000 0.0000 -37.5233 0.0000 8.9922
# 5 31.3937 4.4564 34.8516 0.0000 35.6798 0.0000
# 6 0.0000 0.0000 0.0000 8.9922 0.0000 17.6432
#
#
#
# Elastic Compliance Matrix: (Units=1/GPa)
#
#
# Indices 1 2 3 4 5 6 
#
# 1 0.030108 0.010654 -0.001624 0.000000 -0.026236 0.000000
# 2 0.010654 0.076568 -0.000422 0.000000 -0.018525 0.000000
# 3 -0.001624 -0.000422 0.008519 0.000000 -0.006840 0.000000
# 4 0.000000 0.000000 0.000000 -0.023749 0.000000 0.012104
# 5 -0.026236 -0.018525 -0.006840 0.000000 0.060106 0.000000
# 6 0.000000 0.000000 0.000000 0.012104 0.000000 0.050510
#
#
# Mechanical properties :
#
#
# Convention : Reuss Voigt Hill
#
# Bulk Modulus (GPa) = 7.55221 34.49480 21.02351
# Shear Modulus (GPa) = 21.83551 15.79648 18.81600
#
# Velocity S-wave (km/s) = 3.22071 2.73937 2.98974
# Velocity P-wave (km/s) = 4.17353 5.13735 4.68031
#
# Compressibility (1/GPa) = 0.13241164
#
# Stress axis : x y z
#
# Youngs Moduli (GPa) = 33.21325 13.06022 117.37928
#
# Poissons Ratio (x) = -0.13914 0.19064
# Poissons Ratio (y) = -0.35384 0.04951
# Poissons Ratio (z) = 0.05394 0.00551
#
# Static dielectric constant tensor:
#      x y z
#    x 1.762990 0.000000 0.040150 
#    y 0.000000 1.750300 0.000000 
#    z 0.040150 0.000000 1.759570 
# 
# From -- ./inp_files/206601.got.cif
#   From: 2010.05.17/outbox.cif.g08.bks.cpg/sg12_104_cif.got.tgz:206601.got - 2010.06.03 13:09:07.
