data_PCOD9198248
_publ_section_title
;
Structure prediction by ZEFSAII (Michael W. Deem and Ramdas Pophale) SiO2 
 PCOD9198248
Probable space group: C 2/M
;
_chemical_formula_sum "Si O2"
_cell_formula_units_Z 40
_cell_length_a 18.670032
_cell_length_b 8.197293
_cell_length_c 26.994521
_cell_angle_alpha 90.000000
_cell_angle_beta 149.758704
_cell_angle_gamma 90.000000
_cell_volume 2080.720409
_symmetry_space_group_name_H-M "C 2/M"
_symmetry_group_IT_number 12
_symmetry_cell_setting 'monoclinic'
loop_
_space_group_symop_operation_xyz
x,y,z
-x,y,-z
-x,-y,-z
x,-y,z
1/2+x,1/2+y,z
1/2-x,1/2+y,-z
1/2-x,1/2-y,-z
1/2+x,1/2-y,z
loop_
_atom_site_type_symbol
_atom_site_label
_atom_site_fract_x
_atom_site_fract_y
_atom_site_fract_z
Si Si1 0.598233 0.199434 0.211415
Si Si2 0.435406 0.804130 0.214043
Si Si3 0.922688 0.196978 0.403804
Si Si4 0.413088 0.804549 0.595769
Si Si5 0.670972 0.194884 0.003151
O O1 0.527800 0.252380 0.221592
O O2 0.759777 0.255870 0.303435
O O3 0.599082 0.000000 0.212412
O O4 0.491418 0.249491 0.103254
O O5 0.502724 0.743055 0.305270
O O6 0.271032 0.759033 0.106569
O O7 0.444243 0.000000 0.219181
O O8 0.000000 0.255383 0.500000
O O9 0.011336 0.245091 0.408754
O O10 0.918028 0.000000 0.403432
O O11 0.250000 0.750000 0.500000
O O12 0.416691 0.000000 0.598832
O O13 0.671810 0.000000 0.006156
O O14 0.750000 0.250000 0.000000
#
# Coordination Sequence:
#
# PCOD9198248 Si02
#       5
#     8   8   8   8   8
#     4   8  15  30  52  76 102 135 175 213 253 307
#     4   9  18  34  54  76 104 138 177 219 261 309
#     4  10  20  36  57  78 104 141 179 216 265 321
#     4  11  23  38  56  79 107 138 175 221 270 322
#     4   9  16  28  49  77 107 139 176 216 258 308
#
# _framework density 19.224112000000002
#
# number of rings (size 3 to 8) (size 9 to 14) (size 15 to 20)
#    0.000    2.600    0.000    3.600    0.000    5.200 
#    0.000    6.000    0.000    6.000    0.000    0.000 
#    0.000    0.000    0.000    0.000    0.000    0.000 
#
# Total GULP energy -111518.124650 kJ/mol
# GULP energy per Si atom -5575.906232 kJ/mol
# Density = 1.918036 g / cm^3
# Si number density = 19.224112 Si / 1000 Ang^3
#
#
#
# Elastic Constant Matrix: (Units=GPa)
#
#
# Indices 1 2 3 4 5 6 
#
# 1 108.1144 5.2935 102.5619 0.0000 -0.4107 0.0000
# 2 5.2935 5.0635 13.5329 0.0000 -0.8103 0.0000
# 3 102.5619 13.5329 241.9898 -0.0002 -2.3358 0.0000
# 4 0.0000 0.0000 -0.0002 24.8949 0.0000 -0.4065
# 5 -0.4107 -0.8103 -2.3358 0.0000 34.9075 0.0000
# 6 0.0000 0.0000 0.0000 -0.4065 0.0000 22.5971
#
#
#
# Elastic Compliance Matrix: (Units=1/GPa)
#
#
# Indices 1 2 3 4 5 6 
#
# 1 0.015482 0.001554 -0.006651 0.000000 -0.000227 0.000000
# 2 0.001554 0.233071 -0.013649 0.000000 0.004515 0.000000
# 3 -0.006651 -0.013649 0.007716 0.000000 0.000121 0.000000
# 4 0.000000 0.000000 0.000000 0.040181 0.000000 0.000723
# 5 -0.000227 0.004515 0.000121 0.000000 0.028757 0.000000
# 6 0.000000 0.000000 0.000000 0.000723 0.000000 0.044266
#
#
# Mechanical properties :
#
#
# Convention : Reuss Voigt Hill
#
# Bulk Modulus (GPa) = 4.57088 66.43824 35.50456
# Shear Modulus (GPa) = 10.41906 32.06520 21.24213
#
# Velocity S-wave (km/s) = 2.33057 4.08851 3.32772
# Velocity P-wave (km/s) = 3.10240 7.54471 5.76835
#
# Compressibility (1/GPa) = 0.21877626
#
# Stress axis : x y z
#
# Youngs Moduli (GPa) = 64.59303 4.29054 129.60812
#
# Poissons Ratio (x) = -0.00667 0.86197
# Poissons Ratio (y) = -0.10035 1.76902
# Poissons Ratio (z) = 0.42958 0.05856
#
# Static dielectric constant tensor:
#      x y z
#    x 1.646680 0.000000 -0.006090 
#    y 0.000000 1.683120 0.000000 
#    z -0.006090 0.000000 1.710830 
# 
# From -- ./inp_files/151932.got.cif
#   From: 2010.05.17/outbox.cif.g08.bks.cpg/sg12_76_cif.got.tgz:151932.got - 2010.06.03 13:09:07.
