data_PCOD9198170
_publ_section_title
;
Structure prediction by ZEFSAII (Michael W. Deem and Ramdas Pophale) SiO2 
 PCOD9198170
Probable space group: C 2/M
;
_chemical_formula_sum "Si O2"
_cell_formula_units_Z 64
_cell_length_a 8.803974
_cell_length_b 22.180955
_cell_length_c 28.814761
_cell_angle_alpha 90.000000
_cell_angle_beta 142.868287
_cell_angle_gamma 90.000000
_cell_volume 3396.712229
_symmetry_space_group_name_H-M "C 2/M"
_symmetry_group_IT_number 12
_symmetry_cell_setting 'monoclinic'
loop_
_space_group_symop_operation_xyz
x,y,z
-x,y,-z
-x,-y,-z
x,-y,z
1/2+x,1/2+y,z
1/2-x,1/2+y,-z
1/2-x,1/2-y,-z
1/2+x,1/2-y,z
loop_
_atom_site_type_symbol
_atom_site_label
_atom_site_fract_x
_atom_site_fract_y
_atom_site_fract_z
Si Si1 0.006225 0.928302 0.275055
Si Si2 0.590574 0.567892 0.851844
Si Si3 0.632914 0.257499 0.639680
Si Si4 0.930713 0.661542 0.830890
Si Si5 0.037339 0.665436 0.960515
Si Si6 0.712615 0.161045 0.585107
Si Si7 0.677502 0.782341 0.746090
Si Si8 0.901960 0.140125 0.879623
O O1 0.060358 0.920074 0.232841
O O2 0.167839 0.888331 0.350646
O O3 0.722935 0.900835 0.207504
O O4 0.018117 0.000000 0.287961
O O5 0.683424 0.500000 0.871436
O O6 0.420946 0.577416 0.856288
O O7 0.833883 0.611241 0.915959
O O8 0.587029 0.216037 0.583815
O O9 0.422783 0.304388 0.605096
O O10 0.685844 0.208681 0.693425
O O11 0.895286 0.291748 0.694684
O O12 0.747739 0.711942 0.765772
O O13 0.978805 0.686837 0.894551
O O14 0.180453 0.653048 0.861520
O O15 0.330049 0.649029 0.031123
O O16 0.000000 0.701884 0.000000
O O17 0.500000 0.133966 0.500000
O O18 0.864304 0.816387 0.825636
#
# Coordination Sequence:
#
# PCOD9198170 Si02
#       8
#     8   8   8   8   8   8   8   8
#     4  10  20  38  60  82 114 154 194 234 281 351
#     4   9  20  38  58  77 106 151 198 240 286 348
#     4  10  20  36  56  82 114 153 185 232 277 343
#     4  11  21  37  54  79 111 150 194 237 290 339
#     4   9  21  34  52  75 109 144 191 239 293 347
#     4  11  21  36  59  90 120 148 190 236 290 343
#     4  11  20  34  56  78 113 148 189 234 286 342
#     4  11  21  32  53  82 107 145 189 248 297 332
#
# _framework density 18.841750000000001
#
# number of rings (size 3 to 8) (size 9 to 14) (size 15 to 20)
#    0.000    1.750    3.750    1.500    3.500    3.500 
#    0.000    1.250    0.000    6.000    0.000    0.000 
#    0.000   15.000    0.000    0.000    0.000    0.000 
#
# Total GULP energy -178160.516510 kJ/mol
# GULP energy per Si atom -5567.516141 kJ/mol
# Density = 1.879887 g / cm^3
# Si number density = 18.841750 Si / 1000 Ang^3
#
#
#
# Elastic Constant Matrix: (Units=GPa)
#
#
# Indices 1 2 3 4 5 6 
#
# 1 74.3695 1.7326 21.5353 0.0002 -1.0326 -0.0001
# 2 1.7326 47.0733 17.5473 0.0012 5.8245 -0.0002
# 3 21.5353 17.5473 102.4672 -0.0016 -11.7392 -0.0020
# 4 0.0002 0.0012 -0.0016 14.4263 -0.0023 -1.9364
# 5 -1.0326 5.8245 -11.7392 -0.0023 14.9879 -0.0014
# 6 -0.0001 -0.0002 -0.0020 -1.9364 -0.0014 16.7780
#
#
#
# Elastic Compliance Matrix: (Units=1/GPa)
#
#
# Indices 1 2 3 4 5 6 
#
# 1 0.014389 0.001011 -0.003437 -0.000001 -0.002093 -0.000001
# 2 0.001011 0.025343 -0.006232 -0.000005 -0.014660 -0.000002
# 3 -0.003437 -0.006232 0.012962 0.000004 0.012338 0.000003
# 4 -0.000001 -0.000005 0.000004 0.070409 0.000017 0.008126
# 5 -0.002093 -0.014660 0.012338 0.000017 0.081937 0.000010
# 6 -0.000001 -0.000002 0.000003 0.008126 0.000010 0.060540
#
#
# Mechanical properties :
#
#
# Convention : Reuss Voigt Hill
#
# Bulk Modulus (GPa) = 28.26625 33.94893 31.10759
# Shear Modulus (GPa) = 16.96701 21.44475 19.20588
#
# Velocity S-wave (km/s) = 3.00409 3.37731 3.19615
# Velocity P-wave (km/s) = 5.20262 5.76761 5.49238
#
# Compressibility (1/GPa) = 0.03537788
#
# Stress axis : x y z
#
# Youngs Moduli (GPa) = 69.49736 39.45810 77.14695
#
# Poissons Ratio (x) = -0.03988 0.26516
# Poissons Ratio (y) = -0.07024 0.48078
# Poissons Ratio (z) = 0.23886 0.24590
#
# Static dielectric constant tensor:
#      x y z
#    x 1.714090 0.000000 -0.033040 
#    y 0.000000 1.690340 0.000000 
#    z -0.033040 0.000000 1.654160 
# 
# From -- ./inp_files/258911.got.cif
#   From: 2010.05.17/outbox.cif.g08.bks.cpg/sg12_130_cif.got.tgz:258911.got - 2010.06.03 13:09:07.
