data_PCOD9198433
_publ_section_title
;
Structure prediction by ZEFSAII (Michael W. Deem and Ramdas Pophale) SiO2 
 PCOD9198433
Probable space group: C 2/M
;
_chemical_formula_sum "Si O2"
_cell_formula_units_Z 64
_cell_length_a 30.632004
_cell_length_b 7.784356
_cell_length_c 11.934476
_cell_angle_alpha 90.000000
_cell_angle_beta 87.894978
_cell_angle_gamma 90.000000
_cell_volume 2843.860469
_symmetry_space_group_name_H-M "C 2/M"
_symmetry_group_IT_number 12
_symmetry_cell_setting 'monoclinic'
loop_
_space_group_symop_operation_xyz
x,y,z
-x,y,-z
-x,-y,-z
x,-y,z
1/2+x,1/2+y,z
1/2-x,1/2+y,-z
1/2-x,1/2-y,-z
1/2+x,1/2-y,z
loop_
_atom_site_type_symbol
_atom_site_label
_atom_site_fract_x
_atom_site_fract_y
_atom_site_fract_z
Si Si1 0.923762 0.202124 0.280248
Si Si2 0.894273 0.301390 0.516898
Si Si3 0.005915 0.791355 0.129146
Si Si4 0.701889 0.696465 0.463234
Si Si5 0.262278 0.791665 0.768635
Si Si6 0.097630 0.703630 0.232015
Si Si7 0.827185 0.708252 0.944728
Si Si8 0.166680 0.799258 0.800290
O O1 0.921909 0.219300 0.414171
O O2 0.878100 0.279269 0.240153
O O3 0.965694 0.270575 0.210388
O O4 0.922977 0.000000 0.252376
O O5 0.907045 0.500000 0.518262
O O6 0.842332 0.289105 0.495096
O O7 0.900867 0.225722 0.641121
O O8 0.050988 0.729890 0.178971
O O9 0.006983 0.000000 0.129830
O O10 0.000000 0.737658 0.000000
O O11 0.695723 0.500000 0.495381
O O12 0.750000 0.750000 0.500000
O O13 0.706114 0.722107 0.329805
O O14 0.282104 0.746128 0.886845
O O15 0.213118 0.726519 0.755769
O O16 0.262598 0.000000 0.760073
O O17 0.106778 0.500000 0.242942
O O18 0.134397 0.767621 0.142489
O O19 0.829107 0.500000 0.955550
O O20 0.832376 0.786635 0.065909
O O21 0.167150 0.000000 0.767089
#
# Coordination Sequence:
#
# PCOD9198433 Si02
#       8
#     8   8   8   8   8   8   8   8
#     4  10  22  40  60  89 124 156 201 255 306 360
#     4  11  23  42  64  88 123 161 203 253 307 367
#     4  10  22  41  65  92 124 160 201 252 306 365
#     4  12  24  38  60  88 120 162 210 256 302 360
#     4  10  20  37  57  83 121 159 199 250 303 359
#     4  10  22  40  62  88 121 160 202 254 309 365
#     4  10  20  36  57  83 121 158 195 250 306 361
#     4  10  21  36  58  85 117 158 201 249 303 362
#
# _framework density 22.504621
#
# number of rings (size 3 to 8) (size 9 to 14) (size 15 to 20)
#    0.000    1.625    1.250    3.375    0.000    6.250 
#    0.000    2.500    0.000    0.000    0.000    0.000 
#    0.000    0.000    0.000    0.000    0.000    0.000 
#
# Total GULP energy -178867.148562 kJ/mol
# GULP energy per Si atom -5589.598393 kJ/mol
# Density = 2.245340 g / cm^3
# Si number density = 22.504621 Si / 1000 Ang^3
#
#
#
# Elastic Constant Matrix: (Units=GPa)
#
#
# Indices 1 2 3 4 5 6 
#
# 1 106.6655 -8.3660 25.6925 0.0000 -14.4915 0.0000
# 2 -8.3660 27.0183 -14.1635 0.0000 -0.6907 0.0000
# 3 25.6925 -14.1635 97.8150 0.0000 -14.6980 0.0000
# 4 0.0000 0.0000 0.0000 26.2860 0.0000 4.2839
# 5 -14.4915 -0.6907 -14.6980 0.0000 41.6147 0.0000
# 6 0.0000 0.0000 0.0000 4.2839 0.0000 14.8000
#
#
#
# Elastic Compliance Matrix: (Units=1/GPa)
#
#
# Indices 1 2 3 4 5 6 
#
# 1 0.010431 0.002277 -0.001963 0.000000 0.002977 0.000000
# 2 0.002277 0.040875 0.005852 0.000000 0.003538 0.000000
# 3 -0.001963 0.005852 0.012143 0.000000 0.003702 0.000000
# 4 0.000000 0.000000 0.000000 0.039926 0.000000 -0.011557
# 5 0.002977 0.003538 0.003702 0.000000 0.026433 0.000000
# 6 0.000000 0.000000 0.000000 -0.011557 0.000000 0.070913
#
#
# Mechanical properties :
#
#
# Convention : Reuss Voigt Hill
#
# Bulk Modulus (GPa) = 13.19572 26.42494 19.81033
# Shear Modulus (GPa) = 23.40289 31.76253 27.58271
#
# Velocity S-wave (km/s) = 3.22827 3.76091 3.50472
# Velocity P-wave (km/s) = 4.44656 5.53414 5.01989
#
# Compressibility (1/GPa) = 0.07578217
#
# Stress axis : x y z
#
# Youngs Moduli (GPa) = 95.86882 24.46456 82.35423
#
# Poissons Ratio (x) = -0.05571 0.16164
# Poissons Ratio (y) = -0.21830 -0.48196
# Poissons Ratio (z) = 0.18817 -0.14317
#
# Static dielectric constant tensor:
#      x y z
#    x 1.830150 0.000000 0.001140 
#    y 0.000000 1.819670 0.000000 
#    z 0.001140 0.000000 1.840480 
# 
# From -- ./inp_files/187544.got.cif
#   From: 2010.05.17/outbox.cif.g08.bks.cpg/sg12_94_cif.got.tgz:187544.got - 2010.06.03 13:09:07.
