data_PCOD9198030
_publ_section_title
;
Structure prediction by ZEFSAII (Michael W. Deem and Ramdas Pophale) SiO2 
 PCOD9198030
Probable space group: C 2/M
;
_chemical_formula_sum "Si O2"
_cell_formula_units_Z 40
_cell_length_a 13.699544
_cell_length_b 19.780231
_cell_length_c 8.859150
_cell_angle_alpha 90.000000
_cell_angle_beta 140.141250
_cell_angle_gamma 90.000000
_cell_volume 1538.572138
_symmetry_space_group_name_H-M "C 2/M"
_symmetry_group_IT_number 12
_symmetry_cell_setting 'monoclinic'
loop_
_space_group_symop_operation_xyz
x,y,z
-x,y,-z
-x,-y,-z
x,-y,z
1/2+x,1/2+y,z
1/2-x,1/2+y,-z
1/2-x,1/2-y,-z
1/2+x,1/2-y,z
loop_
_atom_site_type_symbol
_atom_site_label
_atom_site_fract_x
_atom_site_fract_y
_atom_site_fract_z
Si Si1 0.880514 0.000000 0.066288
Si Si2 0.000000 0.117914 0.000000
Si Si3 0.950991 0.500000 0.248496
Si Si4 0.726306 0.500000 0.727440
Si Si5 0.711274 0.792716 0.622054
Si Si6 0.577520 0.147514 0.776534
Si Si7 0.177670 0.143352 0.667110
O O1 0.883193 0.000000 0.251839
O O2 0.699425 0.000000 0.823701
O O3 0.945653 0.933127 0.066987
O O4 0.863886 0.165076 0.778567
O O5 0.890329 0.500000 0.004078
O O6 0.009453 0.575081 0.343335
O O7 0.703586 0.570821 0.617557
O O8 0.561034 0.804735 0.342600
O O9 0.654421 0.820448 0.719518
O O10 0.728308 0.712560 0.651419
O O11 0.713407 0.138287 0.056187
O O12 0.000000 0.149561 0.500000
#
# Coordination Sequence:
#
# PCOD9198030 Si02
#       7
#     4   4   4   4   8   8   8
#     4   9  18  33  59  82 119 158 183 244 274 356
#     4  11  20  36  52  89 124 152 194 213 314 350
#     4   8  15  32  56  82 110 142 182 248 278 319
#     4   8  18  36  58  88 103 148 200 240 279 325
#     4  11  22  33  57  85 121 154 179 248 286 350
#     4  10  20  36  55  89 113 149 199 237 292 323
#     4  11  20  35  62  87 112 146 196 252 281 331
#
# _framework density 25.99813
#
# number of rings (size 3 to 8) (size 9 to 14) (size 15 to 20)
#    0.600    1.400    4.000    0.900    0.000    3.200 
#    0.000    1.000    0.000    0.600    0.000    0.000 
#    0.000    0.000    0.000    0.000    0.000    0.000 
#
# Total GULP energy -111799.702639 kJ/mol
# GULP energy per Si atom -5589.985132 kJ/mol
# Density = 2.593896 g / cm^3
# Si number density = 25.998130 Si / 1000 Ang^3
#
#
#
# Elastic Constant Matrix: (Units=GPa)
#
#
# Indices 1 2 3 4 5 6 
#
# 1 83.4939 48.6910 12.4898 0.0000 13.3770 0.0000
# 2 48.6910 236.7601 20.5938 0.0000 8.8098 0.0000
# 3 12.4898 20.5938 119.1186 0.0000 -1.4514 0.0000
# 4 0.0000 0.0000 0.0000 40.3800 0.0000 0.1089
# 5 13.3770 8.8098 -1.4514 0.0000 22.0260 0.0000
# 6 0.0000 0.0000 0.0000 0.1089 0.0000 0.6159
#
#
#
# Elastic Compliance Matrix: (Units=1/GPa)
#
#
# Indices 1 2 3 4 5 6 
#
# 1 0.015025 -0.002682 -0.001211 0.000000 -0.008132 0.000000
# 2 -0.002682 0.004837 -0.000559 0.000000 -0.000342 0.000000
# 3 -0.001211 -0.000559 0.008637 0.000000 0.001528 0.000000
# 4 0.000000 0.000000 0.000000 0.024777 0.000000 -0.004382
# 5 -0.008132 -0.000342 0.001528 0.000000 0.050577 0.000000
# 6 0.000000 0.000000 0.000000 -0.004382 0.000000 1.624380
#
#
# Mechanical properties :
#
#
# Convention : Reuss Voigt Hill
#
# Bulk Modulus (GPa) = 51.03367 66.99131 59.01249
# Shear Modulus (GPa) = 2.86752 36.44426 19.65589
#
# Velocity S-wave (km/s) = 1.05136 3.74813 2.75262
# Velocity P-wave (km/s) = 4.59850 6.67495 5.73154
#
# Compressibility (1/GPa) = 0.01959491
#
# Stress axis : x y z
#
# Youngs Moduli (GPa) = 66.55563 206.75490 115.77782
#
# Poissons Ratio (x) = 0.55453 0.14018
# Poissons Ratio (y) = 0.17851 0.06474
# Poissons Ratio (z) = 0.08059 0.11560
#
# Static dielectric constant tensor:
#      x y z
#    x 2.051680 0.000000 -0.038100 
#    y 0.000000 2.040490 0.000000 
#    z -0.038100 0.000000 2.080580 
# 
# From -- ./inp_files/159701.got.cif
#   From: 2010.05.17/outbox.cif.g08.bks.cpg/sg12_80_cif.got.tgz:159701.got - 2010.06.03 13:09:07.
