data_PCOD9198485
_publ_section_title
;
Structure prediction by ZEFSAII (Michael W. Deem and Ramdas Pophale) SiO2 
 PCOD9198485
Probable space group: C 2/M
;
_chemical_formula_sum "Si O2"
_cell_formula_units_Z 50
_cell_length_a 25.035990
_cell_length_b 10.081345
_cell_length_c 16.725163
_cell_angle_alpha 90.000000
_cell_angle_beta 148.952817
_cell_angle_gamma 90.000000
_cell_volume 2177.146239
_symmetry_space_group_name_H-M "C 2/M"
_symmetry_group_IT_number 12
_symmetry_cell_setting 'monoclinic'
loop_
_space_group_symop_operation_xyz
x,y,z
-x,y,-z
-x,-y,-z
x,-y,z
1/2+x,1/2+y,z
1/2-x,1/2+y,-z
1/2-x,1/2-y,-z
1/2+x,1/2-y,z
loop_
_atom_site_type_symbol
_atom_site_label
_atom_site_fract_x
_atom_site_fract_y
_atom_site_fract_z
Si Si1 0.877476 0.357522 0.111130
Si Si2 0.166611 0.651916 0.493210
Si Si3 0.371094 0.651374 0.231743
Si Si4 0.172318 0.344524 0.682152
Si Si5 0.902825 0.730764 0.967653
Si Si6 0.107126 0.851347 0.279088
Si Si7 0.500000 0.000000 0.000000
O O1 0.908900 0.500000 0.186389
O O2 0.912647 0.234095 0.209564
O O3 0.912407 0.345366 0.064980
O O4 0.752436 0.357432 0.944979
O O5 0.142050 0.500000 0.439408
O O6 0.134039 0.674778 0.542522
O O7 0.121258 0.750165 0.369909
O O8 0.291562 0.664238 0.646364
O O9 0.409401 0.500000 0.289606
O O10 0.378126 0.744106 0.319092
O O11 0.160245 0.500000 0.688805
O O12 0.294629 0.307672 0.834418
O O13 0.001790 0.826527 0.096561
O O14 0.916777 0.617670 0.919348
O O15 0.107998 0.000000 0.312566
#
# Coordination Sequence:
#
# PCOD9198485 Si02
#       7
#     8   8   8   8   8   8   2
#     4   9  17  32  49  75 111 149 186 228 277 348
#     4   9  20  37  56  78 111 151 197 232 281 341
#     4   9  18  30  52  81 113 145 190 234 289 337
#     4  10  20  36  57  86 117 152 188 243 291 338
#     4  11  22  35  57  84 118 147 191 233 290 335
#     4  10  21  38  56  81 110 155 195 235 280 345
#     4  12  24  36  50  92 116 150 182 240 288 330
#
# _framework density 22.965843
#
# number of rings (size 3 to 8) (size 9 to 14) (size 15 to 20)
#    0.000    2.240    0.800    1.920    2.240    5.120 
#    5.760    3.200    0.000    0.960    0.000    5.600 
#    0.000    0.000    0.000    0.000    0.000    0.000 
#
# Total GULP energy -139439.062790 kJ/mol
# GULP energy per Si atom -5577.562512 kJ/mol
# Density = 2.291357 g / cm^3
# Si number density = 22.965843 Si / 1000 Ang^3
#
#
#
# Elastic Constant Matrix: (Units=GPa)
#
#
# Indices 1 2 3 4 5 6 
#
# 1 47.7858 38.3359 8.2871 0.0000 -18.9795 0.0000
# 2 38.3359 167.3578 27.4704 0.0000 -43.1606 0.0000
# 3 8.2871 27.4704 57.4362 0.0000 10.5783 0.0000
# 4 0.0000 0.0000 0.0000 17.9717 0.0000 -13.6326
# 5 -18.9795 -43.1606 10.5783 0.0000 40.1039 0.0000
# 6 0.0000 0.0000 0.0000 -13.6326 0.0000 23.8899
#
#
#
# Elastic Compliance Matrix: (Units=1/GPa)
#
#
# Indices 1 2 3 4 5 6 
#
# 1 0.028733 -0.002605 -0.005137 0.000000 0.012150 0.000000
# 2 -0.002605 0.010957 -0.007157 0.000000 0.012446 0.000000
# 3 -0.005137 -0.007157 0.024638 0.000000 -0.016632 0.000000
# 4 0.000000 0.000000 0.000000 0.098113 0.000000 0.055987
# 5 0.012150 0.012446 -0.016632 0.000000 0.048467 0.000000
# 6 0.000000 0.000000 0.000000 0.055987 0.000000 0.073807
#
#
# Mechanical properties :
#
#
# Convention : Reuss Voigt Hill
#
# Bulk Modulus (GPa) = 28.96101 46.75186 37.85643
# Shear Modulus (GPa) = 15.33632 29.62551 22.48091
#
# Velocity S-wave (km/s) = 2.58696 3.59553 3.13211
# Velocity P-wave (km/s) = 4.64338 6.13502 5.44056
#
# Compressibility (1/GPa) = 0.03452919
#
# Stress axis : x y z
#
# Youngs Moduli (GPa) = 34.80291 91.26940 40.58770
#
# Poissons Ratio (x) = 0.23778 0.20851
# Poissons Ratio (y) = 0.09067 0.29047
# Poissons Ratio (z) = 0.17880 0.65319
#
# Static dielectric constant tensor:
#      x y z
#    x 1.881070 0.000000 0.020260 
#    y 0.000000 1.773960 0.000000 
#    z 0.020260 0.000000 1.865150 
# 
# From -- ./inp_files/292264.got.cif
#   From: 2010.05.17/outbox.cif.g08.bks.cpg/sg12_147_cif.got.tgz:292264.got - 2010.06.03 13:09:07.
