data_PCOD9198621
_publ_section_title
;
Structure prediction by ZEFSAII (Michael W. Deem and Ramdas Pophale) SiO2 
 PCOD9198621
Probable space group: C 2/M
;
_chemical_formula_sum "Si O2"
_cell_formula_units_Z 32
_cell_length_a 8.011247
_cell_length_b 13.250662
_cell_length_c 20.189681
_cell_angle_alpha 90.000000
_cell_angle_beta 40.012987
_cell_angle_gamma 90.000000
_cell_volume 1378.008641
_symmetry_space_group_name_H-M "C 2/M"
_symmetry_group_IT_number 12
_symmetry_cell_setting 'monoclinic'
loop_
_space_group_symop_operation_xyz
x,y,z
-x,y,-z
-x,-y,-z
x,-y,z
1/2+x,1/2+y,z
1/2-x,1/2+y,-z
1/2-x,1/2-y,-z
1/2+x,1/2-y,z
loop_
_atom_site_type_symbol
_atom_site_label
_atom_site_fract_x
_atom_site_fract_y
_atom_site_fract_z
Si Si1 0.504670 0.888023 0.187209
Si Si2 0.480908 0.712659 0.113552
Si Si3 0.788802 0.318008 0.386190
Si Si4 0.192452 0.881805 0.698629
O O1 0.376259 0.819754 0.170898
O O2 0.333996 0.879415 0.304730
O O3 0.782958 0.841543 0.124466
O O4 0.542068 0.000000 0.152453
O O5 0.473130 0.646721 0.183957
O O6 0.750000 0.750000 0.000000
O O7 0.500000 0.329453 0.500000
O O8 0.837233 0.201144 0.350344
O O9 0.010288 0.359367 0.367656
O O10 0.157087 0.000000 0.692821
#
# Coordination Sequence:
#
# PCOD9198621 Si02
#       4
#     8   8   8   8
#     4  10  22  39  58  83 116 150 186 232 282 332
#     4  10  20  36  58  82 110 146 189 232 276 332
#     4  10  20  38  60  85 116 148 188 233 276 333
#     4  10  22  39  58  83 116 150 186 232 282 332
#
# _framework density 23.221916
#
# number of rings (size 3 to 8) (size 9 to 14) (size 15 to 20)
#    0.000    2.000    0.000    4.500    0.000    5.500 
#    0.000   22.500    0.000   25.500    0.000    0.000 
#    0.000    0.000    0.000    0.000    0.000    0.000 
#
# Total GULP energy -89354.077920 kJ/mol
# GULP energy per Si atom -5584.629870 kJ/mol
# Density = 2.316906 g / cm^3
# Si number density = 23.221916 Si / 1000 Ang^3
#
#
#
# Elastic Constant Matrix: (Units=GPa)
#
#
# Indices 1 2 3 4 5 6 
#
# 1 42.1042 -1.8955 7.7794 -0.0008 -10.0260 0.0000
# 2 -1.8955 154.7821 -22.3519 -0.0042 0.0746 0.0010
# 3 7.7794 -22.3519 157.6605 -0.0132 -38.9372 -0.0011
# 4 -0.0008 -0.0042 -0.0132 -2.8952 0.0024 -12.1623
# 5 -10.0260 0.0746 -38.9372 0.0024 22.8592 0.0014
# 6 0.0000 0.0010 -0.0011 -12.1623 0.0014 11.9904
#
#
#
# Elastic Compliance Matrix: (Units=1/GPa)
#
#
# Indices 1 2 3 4 5 6 
#
# 1 0.027288 0.000754 0.002961 0.000000 0.017010 -0.000002
# 2 0.000754 0.006715 0.001711 -0.000002 0.003223 -0.000003
# 3 0.002961 0.001711 0.011666 -0.000006 0.021165 -0.000008
# 4 0.000000 -0.000002 -0.000006 -0.065652 0.000001 -0.066593
# 5 0.017010 0.003223 0.021165 0.000001 0.087248 -0.000008
# 6 -0.000002 -0.000003 -0.000008 -0.066593 -0.000008 0.015852
#
#
# Mechanical properties :
#
#
# Convention : Reuss Voigt Hill
#
# Bulk Modulus (GPa) = 17.69253 35.73455 26.71354
# Shear Modulus (GPa) = 54.88089 31.12520 43.00305
#
# Velocity S-wave (km/s) = 4.86668 3.66503 4.30796
# Velocity P-wave (km/s) = 6.26217 5.77336 6.02273
#
# Compressibility (1/GPa) = 0.05652103
#
# Stress axis : x y z
#
# Youngs Moduli (GPa) = 36.64630 148.91101 85.71745
#
# Poissons Ratio (x) = -0.11222 -0.25384
# Poissons Ratio (y) = -0.02762 -0.14664
# Poissons Ratio (z) = -0.10852 -0.25475
#
# Static dielectric constant tensor:
#      x y z
#    x 2.012450 0.000000 -0.020730 
#    y 0.000000 1.866620 0.000000 
#    z -0.020730 0.000000 1.939700 
# 
# From -- ./inp_files/127381.got.cif
#   From: 2010.05.17/outbox.cif.g08.bks.cpg/sg12_64_cif.got.tgz:127381.got - 2010.06.03 13:09:07.
