data_PCOD9198550
_publ_section_title
;
Structure prediction by ZEFSAII (Michael W. Deem and Ramdas Pophale) SiO2 
 PCOD9198550
Probable space group: C 2/M
;
_chemical_formula_sum "Si O2"
_cell_formula_units_Z 56
_cell_length_a 19.803382
_cell_length_b 8.605063
_cell_length_c 20.388517
_cell_angle_alpha 90.000000
_cell_angle_beta 55.779977
_cell_angle_gamma 90.000000
_cell_volume 2872.921072
_symmetry_space_group_name_H-M "C 2/M"
_symmetry_group_IT_number 12
_symmetry_cell_setting 'monoclinic'
loop_
_space_group_symop_operation_xyz
x,y,z
-x,y,-z
-x,-y,-z
x,-y,z
1/2+x,1/2+y,z
1/2-x,1/2+y,-z
1/2-x,1/2-y,-z
1/2+x,1/2-y,z
loop_
_atom_site_type_symbol
_atom_site_label
_atom_site_fract_x
_atom_site_fract_y
_atom_site_fract_z
Si Si1 0.163446 0.812244 0.572508
Si Si2 0.053063 0.314269 0.133818
Si Si3 0.375812 0.313935 0.258147
Si Si4 0.668651 0.812983 0.192773
Si Si5 0.309842 0.314235 0.023594
Si Si6 0.583900 0.689291 0.485611
Si Si7 0.791697 0.185461 0.693704
O O1 0.250000 0.750000 0.500000
O O2 0.140554 0.759565 0.657861
O O3 0.098736 0.763229 0.552272
O O4 0.167113 0.000000 0.571513
O O5 0.054359 0.500000 0.132324
O O6 0.103611 0.264574 0.172114
O O7 0.102743 0.253900 0.043325
O O8 0.961510 0.252974 0.187170
O O9 0.380211 0.500000 0.255277
O O10 0.297698 0.260031 0.259484
O O11 0.659329 0.735375 0.268222
O O12 0.663757 0.000000 0.201350
O O13 0.759979 0.773067 0.116386
O O14 0.313508 0.500000 0.017863
O O15 0.250000 0.250000 0.000000
O O16 0.500000 0.745372 0.500000
O O17 0.582337 0.500000 0.485629
O O18 0.658673 0.737111 0.398081
O O19 0.784296 0.000000 0.696136
#
# Coordination Sequence:
#
# PCOD9198550 Si02
#       7
#     8   8   8   8   8   8   8
#     4  10  20  36  58  80 108 146 187 229 278 334
#     4  10  21  37  59  86 116 148 187 237 282 333
#     4  11  23  37  57  82 114 152 191 235 282 339
#     4   9  20  37  57  83 117 149 179 228 284 333
#     4   9  17  33  57  84 115 150 186 229 281 334
#     4   9  19  35  55  80 111 142 181 233 279 324
#     4  11  22  36  58  82 112 152 190 233 281 335
#
# _framework density 19.492356999999998
#
# number of rings (size 3 to 8) (size 9 to 14) (size 15 to 20)
#    0.000    2.143    1.429    2.571    2.000    4.000 
#    0.000    0.714    0.000    6.429    0.000    0.000 
#    0.000    0.000    0.000    0.000    0.000    0.000 
#
# Total GULP energy -156247.610653 kJ/mol
# GULP energy per Si atom -5580.271809 kJ/mol
# Density = 1.944799 g / cm^3
# Si number density = 19.492357 Si / 1000 Ang^3
#
#
#
# Elastic Constant Matrix: (Units=GPa)
#
#
# Indices 1 2 3 4 5 6 
#
# 1 69.6683 4.5078 -5.7721 0.0000 -14.4152 0.0000
# 2 4.5078 26.2077 5.2890 -0.0001 -3.8965 -0.0003
# 3 -5.7721 5.2890 29.0521 0.0000 -12.7327 0.0000
# 4 0.0000 -0.0001 0.0000 23.0241 0.0000 -1.1201
# 5 -14.4152 -3.8965 -12.7327 0.0000 38.4772 0.0000
# 6 0.0000 -0.0003 0.0000 -1.1201 0.0000 25.9816
#
#
#
# Elastic Compliance Matrix: (Units=1/GPa)
#
#
# Indices 1 2 3 4 5 6 
#
# 1 0.016978 -0.003201 0.007722 0.000000 0.008592 0.000000
# 2 -0.003201 0.040335 -0.007854 0.000000 0.000286 0.000000
# 3 0.007722 -0.007854 0.044802 0.000000 0.016923 0.000000
# 4 0.000000 0.000000 0.000000 0.043524 0.000000 0.001876
# 5 0.008592 0.000286 0.016923 0.000000 0.034837 0.000000
# 6 0.000000 0.000000 0.000000 0.001876 0.000000 0.038570
#
#
# Mechanical properties :
#
#
# Convention : Reuss Voigt Hill
#
# Bulk Modulus (GPa) = 10.47682 14.77526 12.62604
# Shear Modulus (GPa) = 19.41532 25.55681 22.48607
#
# Velocity S-wave (km/s) = 3.15945 3.62487 3.40013
# Velocity P-wave (km/s) = 4.32388 5.01159 4.68038
#
# Compressibility (1/GPa) = 0.09544881
#
# Stress axis : x y z
#
# Youngs Moduli (GPa) = 58.89848 24.79249 22.32052
#
# Poissons Ratio (x) = 0.07937 -0.17235
# Poissons Ratio (y) = 0.18855 0.17529
# Poissons Ratio (z) = -0.45479 0.19471
#
# Static dielectric constant tensor:
#      x y z
#    x 1.671690 0.000000 -0.001060 
#    y 0.000000 1.654220 0.000000 
#    z -0.001060 0.000000 1.687490 
# 
# From -- ./inp_files/313761.got.cif
#   From: 2010.05.17/outbox.cif.g08.bks.cpg/sg12_157_cif.got.tgz:313761.got - 2010.06.03 13:09:07.
