data_PCOD9198673
_publ_section_title
;
Structure prediction by ZEFSAII (Michael W. Deem and Ramdas Pophale) SiO2 
 PCOD9198673
Probable space group: C 2/M
;
_chemical_formula_sum "Si O2"
_cell_formula_units_Z 64
_cell_length_a 31.286547
_cell_length_b 8.559289
_cell_length_c 15.090320
_cell_angle_alpha 90.000000
_cell_angle_beta 57.985486
_cell_angle_gamma 90.000000
_cell_volume 3426.458636
_symmetry_space_group_name_H-M "C 2/M"
_symmetry_group_IT_number 12
_symmetry_cell_setting 'monoclinic'
loop_
_space_group_symop_operation_xyz
x,y,z
-x,y,-z
-x,-y,-z
x,-y,z
1/2+x,1/2+y,z
1/2-x,1/2+y,-z
1/2-x,1/2-y,-z
1/2+x,1/2-y,z
loop_
_atom_site_type_symbol
_atom_site_label
_atom_site_fract_x
_atom_site_fract_y
_atom_site_fract_z
Si Si1 0.902989 0.689312 0.931805
Si Si2 0.365002 0.686297 0.498400
Si Si3 0.285800 0.688522 0.735403
Si Si4 0.615493 0.812908 0.714364
Si Si5 0.137136 0.687658 0.214638
Si Si6 0.006749 0.187224 0.889647
Si Si7 0.442949 0.811868 0.545552
Si Si8 0.171886 0.309549 0.828841
O O1 0.905496 0.500000 0.928253
O O2 0.878018 0.740437 0.866734
O O3 0.958905 0.752427 0.887054
O O4 0.867351 0.738925 0.052258
O O5 0.362328 0.500000 0.494819
O O6 0.320641 0.740315 0.614081
O O7 0.363631 0.757783 0.402727
O O8 0.416819 0.735622 0.489447
O O9 0.285993 0.500000 0.735245
O O10 0.312811 0.744291 0.795439
O O11 0.228575 0.743319 0.786784
O O12 0.559341 0.749687 0.793880
O O13 0.650918 0.759619 0.756587
O O14 0.613367 0.000000 0.717976
O O15 0.141923 0.500000 0.207632
O O16 0.091774 0.727484 0.331911
O O17 0.007511 0.000000 0.887260
O O18 0.000000 0.238554 0.000000
O O19 0.500000 0.762452 0.500000
O O20 0.442209 0.000000 0.535159
O O21 0.172711 0.500000 0.828296
#
# Coordination Sequence:
#
# PCOD9198673 Si02
#       8
#     8   8   8   8   8   8   8   8
#     4  10  20  36  58  83 112 149 191 229 270 330
#     4  10  21  36  54  80 112 145 182 231 287 336
#     4   9  19  38  59  78 110 150 185 229 284 335
#     4  11  22  37  59  83 110 148 192 230 273 331
#     4   9  19  34  53  81 112 141 183 232 276 324
#     4  11  23  38  56  82 118 149 180 229 283 331
#     4   9  18  33  52  76 106 143 186 230 274 330
#     4   9  19  36  58  82 107 145 194 232 271 332
#
# _framework density 18.678177999999999
#
# number of rings (size 3 to 8) (size 9 to 14) (size 15 to 20)
#    0.000    2.250    1.250    1.125    1.750    2.750 
#    0.000    1.875    0.000    0.000    0.000    0.000 
#    0.000    0.000    0.000    0.000    0.000    0.000 
#
# Total GULP energy -178638.688779 kJ/mol
# GULP energy per Si atom -5582.459024 kJ/mol
# Density = 1.863567 g / cm^3
# Si number density = 18.678178 Si / 1000 Ang^3
#
#
#
# Elastic Constant Matrix: (Units=GPa)
#
#
# Indices 1 2 3 4 5 6 
#
# 1 176.3027 24.3192 57.0933 0.0000 9.0499 0.0000
# 2 24.3192 16.4041 15.8576 0.0000 5.5064 0.0000
# 3 57.0933 15.8576 45.0557 0.0000 28.8603 0.0000
# 4 0.0000 0.0000 0.0000 4.3152 0.0000 1.1991
# 5 9.0499 5.5064 28.8603 0.0000 38.3133 0.0000
# 6 0.0000 0.0000 0.0000 1.1991 0.0000 22.4269
#
#
#
# Elastic Compliance Matrix: (Units=1/GPa)
#
#
# Indices 1 2 3 4 5 6 
#
# 1 0.015327 0.003514 -0.034815 0.000000 0.022100 0.000000
# 2 0.003514 0.103561 -0.059588 0.000000 0.029172 0.000000
# 3 -0.034815 -0.059588 0.147888 0.000000 -0.094612 0.000000
# 4 0.000000 0.000000 0.000000 0.235237 0.000000 -0.012577
# 5 0.022100 0.029172 -0.094612 0.000000 0.087957 0.000000
# 6 0.000000 0.000000 0.000000 -0.012577 0.000000 0.045262
#
#
# Mechanical properties :
#
#
# Convention : Reuss Voigt Hill
#
# Bulk Modulus (GPa) = 11.76506 48.03364 29.89935
# Shear Modulus (GPa) = 5.91476 22.37721 14.14599
#
# Velocity S-wave (km/s) = 1.78144 3.46503 2.75499
# Velocity P-wave (km/s) = 3.24714 6.46381 5.11492
#
# Compressibility (1/GPa) = 0.08499747
#
# Stress axis : x y z
#
# Youngs Moduli (GPa) = 65.24283 9.65612 6.76189
#
# Poissons Ratio (x) = -0.03393 0.23542
# Poissons Ratio (y) = -0.22927 0.40293
# Poissons Ratio (z) = 2.27145 0.57539
#
# Static dielectric constant tensor:
#      x y z
#    x 1.624600 0.000000 0.004940 
#    y 0.000000 1.636830 0.000000 
#    z 0.004940 0.000000 1.635260 
# 
# From -- ./inp_files/248972.got.cif
#   From: 2010.05.17/outbox.cif.g08.bks.cpg/sg12_125_cif.got.tgz:248972.got - 2010.06.03 13:09:07.
