data_PCOD9198014
_publ_section_title
;
Structure prediction by ZEFSAII (Michael W. Deem and Ramdas Pophale) SiO2 
 PCOD9198014
Probable space group: C 2/M
;
_chemical_formula_sum "Si O2"
_cell_formula_units_Z 44
_cell_length_a 23.924100
_cell_length_b 10.354613
_cell_length_c 12.610294
_cell_angle_alpha 90.000000
_cell_angle_beta 137.532288
_cell_angle_gamma 90.000000
_cell_volume 2109.166196
_symmetry_space_group_name_H-M "C 2/M"
_symmetry_group_IT_number 12
_symmetry_cell_setting 'monoclinic'
loop_
_space_group_symop_operation_xyz
x,y,z
-x,y,-z
-x,-y,-z
x,-y,z
1/2+x,1/2+y,z
1/2-x,1/2+y,-z
1/2-x,1/2-y,-z
1/2+x,1/2-y,z
loop_
_atom_site_type_symbol
_atom_site_label
_atom_site_fract_x
_atom_site_fract_y
_atom_site_fract_z
Si Si1 0.140415 0.651458 0.425842
Si Si2 0.999979 0.140528 0.739008
Si Si3 0.662463 0.774422 0.013141
Si Si4 0.162042 0.643578 0.779501
Si Si5 0.500000 0.712647 0.500000
Si Si6 0.272741 0.143549 0.681044
O O1 0.131609 0.500000 0.445719
O O2 0.207304 0.738434 0.584213
O O3 0.175257 0.649834 0.354437
O O4 0.057317 0.737261 0.312833
O O5 0.005895 0.138853 0.619173
O O6 0.968566 0.000000 0.731258
O O7 0.091479 0.166242 0.912836
O O8 0.755026 0.722846 0.123675
O O9 0.668797 0.843071 0.134798
O O10 0.643509 0.854444 0.879968
O O11 0.176991 0.500000 0.763944
O O12 0.082724 0.702488 0.611581
O O13 0.232398 0.000000 0.629690
#
# Coordination Sequence:
#
# PCOD9198014 Si02
#       6
#     8   8   8   8   4   8
#     4  10  23  40  62  89 118 151 197 247 293 345
#     4  11  23  40  59  85 119 159 199 241 291 349
#     4  10  22  36  57  85 117 157 198 237 289 351
#     4  10  20  36  55  84 119 151 190 243 296 347
#     4  10  22  36  60  86 111 152 199 240 289 352
#     4  10  21  41  64  87 116 156 196 239 294 355
#
# _framework density 20.861324
#
# number of rings (size 3 to 8) (size 9 to 14) (size 15 to 20)
#    0.000    1.818    0.000    3.273    0.000    8.727 
#    0.000    8.182    0.000    0.000    0.000    0.000 
#    0.000    0.000    0.000    0.000    0.000    0.000 
#
# Total GULP energy -122763.064838 kJ/mol
# GULP energy per Si atom -5580.139311 kJ/mol
# Density = 2.081384 g / cm^3
# Si number density = 20.861324 Si / 1000 Ang^3
#
#
#
# Elastic Constant Matrix: (Units=GPa)
#
#
# Indices 1 2 3 4 5 6 
#
# 1 42.6825 14.4616 22.1726 0.0000 -3.9125 0.0000
# 2 14.4616 114.6518 19.1889 0.0000 -3.1990 0.0000
# 3 22.1726 19.1889 112.5599 0.0000 -6.4288 0.0000
# 4 0.0000 0.0000 0.0000 -27.6115 0.0000 29.8686
# 5 -3.9125 -3.1990 -6.4288 0.0000 36.8188 0.0000
# 6 0.0000 0.0000 0.0000 29.8686 0.0000 -9.8537
#
#
#
# Elastic Compliance Matrix: (Units=1/GPa)
#
#
# Indices 1 2 3 4 5 6 
#
# 1 0.026935 -0.002549 -0.004768 0.000000 0.001808 0.000000
# 2 -0.002549 0.009229 -0.001051 0.000000 0.000347 0.000000
# 3 -0.004768 -0.001051 0.010069 0.000000 0.001160 0.000000
# 4 0.000000 0.000000 0.000000 0.015892 0.000000 0.048171
# 5 0.001808 0.000347 0.001160 0.000000 0.027585 0.000000
# 6 0.000000 0.000000 0.000000 0.048171 0.000000 0.044530
#
#
# Mechanical properties :
#
#
# Convention : Reuss Voigt Hill
#
# Bulk Modulus (GPa) = 33.90246 42.39339 38.14792
# Shear Modulus (GPa) = 31.09278 14.14213 22.61746
#
# Velocity S-wave (km/s) = 3.86482 2.60650 3.29626
# Velocity P-wave (km/s) = 6.01685 5.42440 5.72829
#
# Compressibility (1/GPa) = 0.02949639
#
# Stress axis : x y z
#
# Youngs Moduli (GPa) = 37.12631 108.35119 99.31587
#
# Poissons Ratio (x) = 0.27619 0.47354
# Poissons Ratio (y) = 0.09463 0.10442
# Poissons Ratio (z) = 0.17702 0.11392
#
# Static dielectric constant tensor:
#      x y z
#    x 1.758560 0.000000 -0.012260 
#    y 0.000000 1.768090 0.000000 
#    z -0.012260 0.000000 1.747160 
# 
# From -- ./inp_files/175387.got.cif
#   From: 2010.05.17/outbox.cif.g08.bks.cpg/sg12_88_cif.got.tgz:175387.got - 2010.06.03 13:09:07.
