data_PCOD9198977
_publ_section_title
;
Structure prediction by ZEFSAII (Michael W. Deem and Ramdas Pophale) SiO2 
 PCOD9198977
Probable space group: C 2/M
;
_chemical_formula_sum "Si O2"
_cell_formula_units_Z 56
_cell_length_a 19.365000
_cell_length_b 8.575750
_cell_length_c 24.928018
_cell_angle_alpha 90.000000
_cell_angle_beta 133.541402
_cell_angle_gamma 90.000000
_cell_volume 3000.831076
_symmetry_space_group_name_H-M "C 2/M"
_symmetry_group_IT_number 12
_symmetry_cell_setting 'monoclinic'
loop_
_space_group_symop_operation_xyz
x,y,z
-x,y,-z
-x,-y,-z
x,-y,z
1/2+x,1/2+y,z
1/2-x,1/2+y,-z
1/2-x,1/2-y,-z
1/2+x,1/2-y,z
loop_
_atom_site_type_symbol
_atom_site_label
_atom_site_fract_x
_atom_site_fract_y
_atom_site_fract_z
Si Si1 0.356122 0.684187 0.566961
Si Si2 0.214818 0.323862 0.823884
Si Si3 0.413982 0.814027 0.915394
Si Si4 0.998972 0.679861 0.435940
Si Si5 0.499526 0.812574 0.264405
Si Si6 0.590975 0.311502 0.207786
Si Si7 0.703978 0.176486 0.690295
O O1 0.348699 0.500000 0.570692
O O2 0.250000 0.750000 0.500000
O O3 0.416847 0.728163 0.546734
O O4 0.420620 0.750341 0.650913
O O5 0.221935 0.500000 0.850017
O O6 0.312050 0.231624 0.887097
O O7 0.217956 0.336146 0.761176
O O8 0.109447 0.260598 0.780972
O O9 0.426739 0.741026 0.862834
O O10 0.416513 0.000000 0.910465
O O11 0.500000 0.764153 0.000000
O O12 0.001695 0.500000 0.415832
O O13 0.896898 0.756729 0.369603
O O14 0.000000 0.671754 0.500000
O O15 0.523951 0.757014 0.217556
O O16 0.500288 0.000000 0.268593
O O17 0.590620 0.500000 0.209227
O O18 0.698758 0.255639 0.280061
O O19 0.693651 0.000000 0.661991
#
# Coordination Sequence:
#
# PCOD9198977 Si02
#       7
#     8   8   8   8   8   8   8
#     4  12  26  42  59  83 117 158 203 249 300 352
#     4   9  18  35  60  84 113 152 192 234 290 353
#     4  10  21  38  61  90 122 154 194 244 292 341
#     4  10  20  36  59  83 112 149 190 241 298 350
#     4  11  22  40  62  87 120 155 195 245 297 349
#     4  10  21  36  58  89 120 155 197 236 288 353
#     4   8  15  32  53  78 109 144 187 232 282 340
#
# _framework density 18.661497000000001
#
# number of rings (size 3 to 8) (size 9 to 14) (size 15 to 20)
#    0.000    2.000    1.429    3.429    2.000    2.571 
#    0.000    1.429    0.000    0.000    0.000    0.000 
#    0.000    0.000    0.000    0.000    0.000    0.000 
#
# Total GULP energy -155988.937222 kJ/mol
# GULP energy per Si atom -5571.033472 kJ/mol
# Density = 1.861902 g / cm^3
# Si number density = 18.661497 Si / 1000 Ang^3
#
#
#
# Elastic Constant Matrix: (Units=GPa)
#
#
# Indices 1 2 3 4 5 6 
#
# 1 130.4833 32.2276 61.5898 0.0000 14.9047 0.0000
# 2 32.2276 64.8110 39.4893 0.0000 8.1474 0.0000
# 3 61.5898 39.4893 111.7902 0.0000 26.1338 0.0000
# 4 0.0000 0.0000 0.0000 24.7760 0.0000 -0.2547
# 5 14.9047 8.1474 26.1338 0.0000 28.2955 0.0000
# 6 0.0000 0.0000 0.0000 -0.2547 0.0000 14.7462
#
#
#
# Elastic Compliance Matrix: (Units=1/GPa)
#
#
# Indices 1 2 3 4 5 6 
#
# 1 0.010596 -0.002189 -0.004983 0.000000 -0.000349 0.000000
# 2 -0.002189 0.020134 -0.006148 0.000000 0.001034 0.000000
# 3 -0.004983 -0.006148 0.016369 0.000000 -0.010724 0.000000
# 4 0.000000 0.000000 0.000000 0.040369 0.000000 0.000697
# 5 -0.000349 0.001034 -0.010724 0.000000 0.045132 0.000000
# 6 0.000000 0.000000 0.000000 0.000697 0.000000 0.067826
#
#
# Mechanical properties :
#
#
# Convention : Reuss Voigt Hill
#
# Bulk Modulus (GPa) = 48.87687 63.74423 56.31055
# Shear Modulus (GPa) = 21.37787 25.14872 23.26330
#
# Velocity S-wave (km/s) = 3.38828 3.67499 3.53454
# Velocity P-wave (km/s) = 6.44635 7.22770 6.84818
#
# Compressibility (1/GPa) = 0.02045957
#
# Stress axis : x y z
#
# Youngs Moduli (GPa) = 94.37109 49.66751 61.08956
#
# Poissons Ratio (x) = 0.10872 0.30442
# Poissons Ratio (y) = 0.20658 0.37557
# Poissons Ratio (z) = 0.47027 0.30535
#
# Static dielectric constant tensor:
#      x y z
#    x 1.655210 0.000000 0.024070 
#    y 0.000000 1.667500 0.000000 
#    z 0.024070 0.000000 1.673510 
# 
# From -- ./inp_files/342604.got.cif
#   From: 2010.05.17/outbox.cif.g08.bks.cpg/sg12_172_cif.got.tgz:342604.got - 2010.06.03 13:09:07.
