data_PCOD9198242
_publ_section_title
;
Structure prediction by ZEFSAII (Michael W. Deem and Ramdas Pophale) SiO2 
 PCOD9198242
Probable space group: C 2/M
;
_chemical_formula_sum "Si O2"
_cell_formula_units_Z 56
_cell_length_a 14.704485
_cell_length_b 9.258594
_cell_length_c 30.466105
_cell_angle_alpha 90.000000
_cell_angle_beta 52.297672
_cell_angle_gamma 90.000000
_cell_volume 3281.688463
_symmetry_space_group_name_H-M "C 2/M"
_symmetry_group_IT_number 12
_symmetry_cell_setting 'monoclinic'
loop_
_space_group_symop_operation_xyz
x,y,z
-x,y,-z
-x,-y,-z
x,-y,z
1/2+x,1/2+y,z
1/2-x,1/2+y,-z
1/2-x,1/2-y,-z
1/2+x,1/2-y,z
loop_
_atom_site_type_symbol
_atom_site_label
_atom_site_fract_x
_atom_site_fract_y
_atom_site_fract_z
Si Si1 0.840551 0.831340 0.942774
Si Si2 0.201790 0.173027 0.143692
Si Si3 0.285113 0.826524 0.351717
Si Si4 0.438570 0.669046 0.064119
Si Si5 0.824622 0.326261 0.440994
Si Si6 0.909543 0.673497 0.648383
Si Si7 0.948191 0.326674 0.738360
O O1 0.840328 0.783072 0.892570
O O2 0.965254 0.818111 0.927200
O O3 0.807997 0.000000 0.952770
O O4 0.750000 0.750000 0.000000
O O5 0.331263 0.232021 0.106844
O O6 0.125231 0.245182 0.203712
O O7 0.197871 0.000000 0.148705
O O8 0.281331 0.788239 0.404649
O O9 0.188175 0.749961 0.351371
O O10 0.415933 0.791304 0.298587
O O11 0.271991 0.000000 0.352289
O O12 0.402986 0.500000 0.070936
O O13 0.500000 0.708228 0.000000
O O14 0.816670 0.500000 0.447250
O O15 0.750000 0.250000 0.500000
O O16 0.960063 0.288382 0.404532
O O17 0.897730 0.500000 0.647899
O O18 0.905571 0.708807 0.701549
O O19 0.937276 0.500000 0.746721
#
# Coordination Sequence:
#
# PCOD9198242 Si02
#       7
#     8   8   8   8   8   8   8
#     4  10  21  36  54  77 104 134 169 209 256 312
#     4  11  23  36  54  82 110 134 171 225 270 310
#     4   9  19  36  57  80 108 143 183 226 270 316
#     4  10  20  36  57  77 102 140 175 204 256 325
#     4   9  19  35  53  79 115 150 184 222 267 318
#     4   9  19  36  57  79 106 143 183 225 269 315
#     4   9  20  39  57  74 104 143 179 217 267 326
#
# _framework density 17.064385000000001
#
# number of rings (size 3 to 8) (size 9 to 14) (size 15 to 20)
#    0.000    2.429    1.429    2.143    0.000    5.429 
#    0.000   10.000    0.000    0.000    0.000    0.000 
#    0.000    0.000    0.000    0.000    0.000    0.000 
#
# Total GULP energy -156183.742103 kJ/mol
# GULP energy per Si atom -5577.990789 kJ/mol
# Density = 1.702555 g / cm^3
# Si number density = 17.064385 Si / 1000 Ang^3
#
#
#
# Elastic Constant Matrix: (Units=GPa)
#
#
# Indices 1 2 3 4 5 6 
#
# 1 137.1777 58.4681 86.3641 0.0000 3.2428 0.0000
# 2 58.4681 43.5687 71.3016 0.0000 0.9493 0.0000
# 3 86.3641 71.3016 180.3389 0.0000 3.4168 0.0000
# 4 0.0000 0.0000 0.0000 33.5514 0.0000 -0.7983
# 5 3.2428 0.9493 3.4168 0.0000 10.7487 0.0000
# 6 0.0000 0.0000 0.0000 -0.7983 0.0000 34.5745
#
#
#
# Elastic Compliance Matrix: (Units=1/GPa)
#
#
# Indices 1 2 3 4 5 6 
#
# 1 0.017581 -0.027903 0.002683 0.000000 -0.003692 0.000000
# 2 -0.027903 0.109379 -0.030040 0.000000 0.008307 0.000000
# 3 0.002683 -0.030040 0.016200 0.000000 -0.003306 0.000000
# 4 0.000000 0.000000 0.000000 0.029821 0.000000 0.000689
# 5 -0.003692 0.008307 -0.003306 0.000000 0.094466 0.000000
# 6 0.000000 0.000000 0.000000 0.000689 0.000000 0.028939
#
#
# Mechanical properties :
#
#
# Convention : Reuss Voigt Hill
#
# Bulk Modulus (GPa) = 30.63882 88.15032 59.39457
# Shear Modulus (GPa) = 11.96781 25.43835 18.70308
#
# Velocity S-wave (km/s) = 2.65114 3.86518 3.31423
# Velocity P-wave (km/s) = 5.23118 8.46694 7.03755
#
# Compressibility (1/GPa) = 0.03263833
#
# Stress axis : x y z
#
# Youngs Moduli (GPa) = 56.87910 9.14256 61.72766
#
# Poissons Ratio (x) = 0.25511 -0.16559
# Poissons Ratio (y) = 1.58711 1.85431
# Poissons Ratio (z) = -0.15259 0.27464
#
# Static dielectric constant tensor:
#      x y z
#    x 1.566900 0.000000 0.010920 
#    y 0.000000 1.571150 0.000000 
#    z 0.010920 0.000000 1.553370 
# 
# From -- ./inp_files/337912.got.cif
#   From: 2010.05.17/outbox.cif.g08.bks.cpg/sg12_169_cif.got.tgz:337912.got - 2010.06.03 13:09:07.
