data_PCOD9198055
_publ_section_title
;
Structure prediction by ZEFSAII (Michael W. Deem and Ramdas Pophale) SiO2 
 PCOD9198055
Probable space group: C 2/M
;
_chemical_formula_sum "Si O2"
_cell_formula_units_Z 48
_cell_length_a 8.832271
_cell_length_b 11.040522
_cell_length_c 26.673682
_cell_angle_alpha 90.000000
_cell_angle_beta 104.625367
_cell_angle_gamma 90.000000
_cell_volume 2516.747751
_symmetry_space_group_name_H-M "C 2/M"
_symmetry_group_IT_number 12
_symmetry_cell_setting 'monoclinic'
loop_
_space_group_symop_operation_xyz
x,y,z
-x,y,-z
-x,-y,-z
x,-y,z
1/2+x,1/2+y,z
1/2-x,1/2+y,-z
1/2-x,1/2-y,-z
1/2+x,1/2-y,z
loop_
_atom_site_type_symbol
_atom_site_label
_atom_site_fract_x
_atom_site_fract_y
_atom_site_fract_z
Si Si1 0.553973 0.365070 0.729502
Si Si2 0.172346 0.865216 0.103378
Si Si3 0.938053 0.633991 0.438145
Si Si4 0.595798 0.191049 0.962136
Si Si5 0.567876 0.633165 0.392809
Si Si6 0.760759 0.139859 0.776328
O O1 0.631405 0.500000 0.737880
O O2 0.461990 0.359897 0.669164
O O3 0.662362 0.247455 0.742981
O O4 0.429431 0.360089 0.764024
O O5 0.322845 0.868538 0.079322
O O6 0.223495 0.830353 0.163527
O O7 0.034313 0.782569 0.070252
O O8 0.105778 0.000000 0.100965
O O9 0.989539 0.500000 0.423327
O O10 0.750848 0.634700 0.420591
O O11 0.000000 0.644676 0.500000
O O12 0.994027 0.749691 0.412043
O O13 0.500000 0.129240 0.000000
O O14 0.750000 0.250000 0.000000
O O15 0.505488 0.500000 0.404251
O O16 0.699759 0.000000 0.766211
#
# Coordination Sequence:
#
# PCOD9198055 Si02
#       6
#     8   8   8   8   8   8
#     4  10  21  37  56  80 111 144 181 228 277 326
#     4  10  20  36  56  77 106 142 178 221 272 324
#     4  10  21  37  57  82 112 146 185 229 275 325
#     4   9  19  34  53  79 107 137 177 218 262 322
#     4  10  21  36  55  81 111 144 183 226 275 330
#     4  10  21  37  58  82 110 146 185 227 277 331
#
# _framework density 19.072233000000001
#
# number of rings (size 3 to 8) (size 9 to 14) (size 15 to 20)
#    0.000    2.167    0.000    2.500    0.000    7.000 
#    0.000    3.333    0.000    0.000    0.000    0.000 
#    0.000    0.000    0.000    0.000    0.000    0.000 
#
# Total GULP energy -133647.606685 kJ/mol
# GULP energy per Si atom -5568.650279 kJ/mol
# Density = 1.902882 g / cm^3
# Si number density = 19.072233 Si / 1000 Ang^3
#
#
#
# Elastic Constant Matrix: (Units=GPa)
#
#
# Indices 1 2 3 4 5 6 
#
# 1 54.0566 39.1591 2.3273 0.0000 1.6314 0.0000
# 2 39.1591 125.2900 40.7587 0.0000 10.8004 0.0000
# 3 2.3273 40.7587 49.7218 0.0000 1.5220 0.0000
# 4 0.0000 0.0000 0.0000 173.9625 0.0000 37.9033
# 5 1.6314 10.8004 1.5220 0.0000 31.4704 0.0000
# 6 0.0000 0.0000 0.0000 37.9033 0.0000 45.3502
#
#
#
# Elastic Compliance Matrix: (Units=1/GPa)
#
#
# Indices 1 2 3 4 5 6 
#
# 1 0.025861 -0.010689 0.007492 0.000000 0.001966 0.000000
# 2 -0.010689 0.015658 -0.012205 0.000000 -0.004229 0.000000
# 3 0.007492 -0.012205 0.029694 0.000000 0.002364 0.000000
# 4 0.000000 0.000000 0.000000 0.007028 0.000000 -0.005874
# 5 0.001966 -0.004229 0.002364 0.000000 0.033011 0.000000
# 6 0.000000 0.000000 0.000000 -0.005874 0.000000 0.026960
#
#
# Mechanical properties :
#
#
# Convention : Reuss Voigt Hill
#
# Bulk Modulus (GPa) = 24.74845 43.72874 34.23859
# Shear Modulus (GPa) = 27.39937 59.94483 43.67210
#
# Velocity S-wave (km/s) = 3.79438 5.61237 4.79040
# Velocity P-wave (km/s) = 5.67457 8.06077 6.97053
#
# Compressibility (1/GPa) = 0.04040658
#
# Stress axis : x y z
#
# Youngs Moduli (GPa) = 38.66871 63.86708 33.67698
#
# Poissons Ratio (x) = 0.68270 -0.25230
# Poissons Ratio (y) = 0.41334 0.41103
# Poissons Ratio (z) = -0.28970 0.77951
#
# Static dielectric constant tensor:
#      x y z
#    x 1.630370 0.000000 -0.016110 
#    y 0.000000 1.695170 0.000000 
#    z -0.016110 0.000000 1.671820 
# 
# From -- ./inp_files/332056.got.cif
#   From: 2010.05.17/outbox.cif.g08.bks.cpg/sg12_167_cif.got.tgz:332056.got - 2010.06.03 13:09:07.
