data_PCOD9198413
_publ_section_title
;
Structure prediction by ZEFSAII (Michael W. Deem and Ramdas Pophale) SiO2 
 PCOD9198413
Probable space group: C 2/M
;
_chemical_formula_sum "Si O2"
_cell_formula_units_Z 64
_cell_length_a 20.796225
_cell_length_b 8.510371
_cell_length_c 34.094262
_cell_angle_alpha 90.000000
_cell_angle_beta 146.260910
_cell_angle_gamma 90.000000
_cell_volume 3351.424761
_symmetry_space_group_name_H-M "C 2/M"
_symmetry_group_IT_number 12
_symmetry_cell_setting 'monoclinic'
loop_
_space_group_symop_operation_xyz
x,y,z
-x,y,-z
-x,-y,-z
x,-y,z
1/2+x,1/2+y,z
1/2-x,1/2+y,-z
1/2-x,1/2-y,-z
1/2+x,1/2-y,z
loop_
_atom_site_type_symbol
_atom_site_label
_atom_site_fract_x
_atom_site_fract_y
_atom_site_fract_z
Si Si1 0.015239 0.688104 0.053975
Si Si2 0.362414 0.188109 0.663403
Si Si3 0.234539 0.313149 0.802545
Si Si4 0.130264 0.310706 0.422702
Si Si5 0.228593 0.310042 0.032758
Si Si6 0.605886 0.191484 0.659019
Si Si7 0.126438 0.309671 0.580587
Si Si8 0.899189 0.811990 0.188681
O O1 0.029711 0.500000 0.066516
O O2 0.130760 0.772647 0.126498
O O3 0.898410 0.738666 0.016535
O O4 0.000000 0.716721 0.000000
O O5 0.385655 0.240283 0.630340
O O6 0.236804 0.247746 0.612912
O O7 0.469871 0.249399 0.743511
O O8 0.363093 0.000000 0.664745
O O9 0.215771 0.500000 0.795348
O O10 0.185060 0.257651 0.735554
O O11 0.167254 0.239477 0.805364
O O12 0.130982 0.500000 0.423220
O O13 0.250000 0.250000 0.500000
O O14 0.023854 0.258710 0.395635
O O15 0.230558 0.500000 0.033709
O O16 0.324718 0.257063 0.113267
O O17 0.250000 0.250000 0.000000
O O18 0.637962 0.242895 0.631704
O O19 0.608303 0.000000 0.659585
O O20 0.129165 0.500000 0.580492
O O21 0.000000 0.261493 0.500000
O O22 0.902256 0.000000 0.189348
#
# Coordination Sequence:
#
# PCOD9198413 Si02
#       8
#     8   8   8   8   8   8   8   8
#     4  10  20  39  61  84 118 157 199 244 294 350
#     4  11  23  39  60  88 122 156 196 249 303 351
#     4  11  21  36  60  90 121 153 196 251 302 347
#     4  10  20  36  57  83 114 149 191 242 292 343
#     4  10  23  41  62  88 122 160 198 248 297 351
#     4   9  19  37  57  81 117 152 189 241 293 342
#     4  10  21  39  63  86 116 161 205 242 292 361
#     4  11  22  40  63  87 119 160 201 241 295 361
#
# _framework density 19.096354999999999
#
# number of rings (size 3 to 8) (size 9 to 14) (size 15 to 20)
#    0.000    1.750    2.500    1.875    0.000    5.000 
#    0.000    5.625    0.000    0.000    0.000    0.000 
#    0.000    0.000    0.000    0.000    0.000    0.000 
#
# Total GULP energy -178734.028875 kJ/mol
# GULP energy per Si atom -5585.438402 kJ/mol
# Density = 1.905289 g / cm^3
# Si number density = 19.096355 Si / 1000 Ang^3
#
#
#
# Elastic Constant Matrix: (Units=GPa)
#
#
# Indices 1 2 3 4 5 6 
#
# 1 88.8169 14.9213 8.4970 0.0000 2.5762 -0.0001
# 2 14.9213 15.8547 17.6470 0.0001 0.7132 -0.0005
# 3 8.4970 17.6470 94.1022 0.0001 5.9383 -0.0001
# 4 0.0000 0.0001 0.0001 20.3961 0.0000 3.3258
# 5 2.5762 0.7132 5.9383 0.0000 37.2914 0.0000
# 6 -0.0001 -0.0005 -0.0001 3.3258 0.0000 29.9552
#
#
#
# Elastic Compliance Matrix: (Units=1/GPa)
#
#
# Indices 1 2 3 4 5 6 
#
# 1 0.013564 -0.014439 0.001540 0.000000 -0.000906 0.000000
# 2 -0.014439 0.095109 -0.016648 -0.000001 0.001829 0.000001
# 3 0.001540 -0.016648 0.013734 0.000000 -0.001975 0.000000
# 4 0.000000 -0.000001 0.000000 0.049933 0.000000 -0.005544
# 5 -0.000906 0.001829 -0.001975 0.000000 0.027158 0.000000
# 6 0.000000 0.000001 0.000000 -0.005544 0.000000 0.033999
#
#
# Mechanical properties :
#
#
# Convention : Reuss Voigt Hill
#
# Bulk Modulus (GPa) = 15.79414 31.21159 23.50286
# Shear Modulus (GPa) = 15.93910 28.04244 21.99077
#
# Velocity S-wave (km/s) = 2.89220 3.83622 3.39716
# Velocity P-wave (km/s) = 4.40928 6.00016 5.26515
#
# Compressibility (1/GPa) = 0.06331464
#
# Stress axis : x y z
#
# Youngs Moduli (GPa) = 73.72567 10.51425 72.81070
#
# Poissons Ratio (x) = 0.15181 -0.11214
# Poissons Ratio (y) = 1.06451 1.21212
# Poissons Ratio (z) = -0.11355 0.17504
#
# Static dielectric constant tensor:
#      x y z
#    x 1.651150 0.000000 -0.002840 
#    y 0.000000 1.658570 0.000000 
#    z -0.002840 0.000000 1.660040 
# 
# From -- ./inp_files/378340.got.cif
#   From: 2010.05.17/outbox.cif.g08.bks.cpg/sg12_190_cif.got.tgz:378340.got - 2010.06.03 13:09:07.
