data_PCOD9198047
_publ_section_title
;
Structure prediction by ZEFSAII (Michael W. Deem and Ramdas Pophale) SiO2 
 PCOD9198047
Probable space group: C 2/M
;
_chemical_formula_sum "Si O2"
_cell_formula_units_Z 64
_cell_length_a 22.718018
_cell_length_b 14.342115
_cell_length_c 8.979007
_cell_angle_alpha 90.000000
_cell_angle_beta 80.483999
_cell_angle_gamma 90.000000
_cell_volume 2885.322280
_symmetry_space_group_name_H-M "C 2/M"
_symmetry_group_IT_number 12
_symmetry_cell_setting 'monoclinic'
loop_
_space_group_symop_operation_xyz
x,y,z
-x,y,-z
-x,-y,-z
x,-y,z
1/2+x,1/2+y,z
1/2-x,1/2+y,-z
1/2-x,1/2-y,-z
1/2+x,1/2-y,z
loop_
_atom_site_type_symbol
_atom_site_label
_atom_site_fract_x
_atom_site_fract_y
_atom_site_fract_z
Si Si1 0.283484 0.387622 0.090957
Si Si2 0.234644 0.386600 0.436626
Si Si3 0.159605 0.892020 0.406443
Si Si4 0.110373 0.606996 0.362625
Si Si5 0.401332 0.275672 0.050416
Si Si6 0.554452 0.606647 0.695829
Si Si7 0.560941 0.285701 0.288262
Si Si8 0.164101 0.394287 0.000677
O O1 0.287392 0.500000 0.089492
O O2 0.263731 0.359041 0.266276
O O3 0.232170 0.362616 0.994556
O O4 0.345751 0.341466 0.033105
O O5 0.237591 0.500000 0.439406
O O6 0.277536 0.355502 0.553433
O O7 0.164414 0.365217 0.451729
O O8 0.110720 0.892099 0.560878
O O9 0.125335 0.830475 0.300535
O O10 0.166993 0.000000 0.354022
O O11 0.091925 0.500000 0.400694
O O12 0.061303 0.687750 0.375589
O O13 0.138301 0.606652 0.181973
O O14 0.441257 0.268230 0.887161
O O15 0.373530 0.173889 0.085707
O O16 0.430682 0.323767 0.177575
O O17 0.547310 0.500000 0.750578
O O18 0.492089 0.643100 0.656423
O O19 0.162750 0.500000 0.947766
#
# Coordination Sequence:
#
# PCOD9198047 Si02
#       8
#     8   8   8   8   8   8   8   8
#     4   9  15  27  49  77 106 137 172 206 254 316
#     4   8  14  29  54  79 100 134 177 209 247 312
#     4  10  20  36  56  77 103 138 176 210 254 314
#     4   8  16  33  55  77 105 136 173 215 258 311
#     4  11  20  32  52  79 105 135 175 217 261 307
#     4  11  23  39  55  73 105 147 178 205 251 319
#     4  11  23  34  51  81 108 135 174 220 263 296
#     4   8  16  30  50  76 106 137 171 215 257 305
#
# _framework density 22.181229999999999
#
# number of rings (size 3 to 8) (size 9 to 14) (size 15 to 20)
#    0.000    2.500    1.250    3.375    0.000    4.000 
#    0.000    0.625    0.000    5.250    0.000    0.000 
#    0.000    0.000    0.000    0.000    0.000    0.000 
#
# Total GULP energy -178683.984909 kJ/mol
# GULP energy per Si atom -5583.874528 kJ/mol
# Density = 2.213074 g / cm^3
# Si number density = 22.181230 Si / 1000 Ang^3
#
#
#
# Elastic Constant Matrix: (Units=GPa)
#
#
# Indices 1 2 3 4 5 6 
#
# 1 48.1468 13.5104 6.0348 0.0000 9.7953 0.0000
# 2 13.5104 62.5194 3.9727 0.0000 17.8971 0.0000
# 3 6.0348 3.9727 38.6970 0.0000 19.5651 0.0000
# 4 0.0000 0.0000 0.0000 140.7713 0.0000 -53.4404
# 5 9.7953 17.8971 19.5651 0.0000 21.4046 0.0000
# 6 0.0000 0.0000 0.0000 -53.4404 0.0000 70.1942
#
#
#
# Elastic Compliance Matrix: (Units=1/GPa)
#
#
# Indices 1 2 3 4 5 6 
#
# 1 0.023291 -0.002077 0.002030 0.000000 -0.010778 0.000000
# 2 -0.002077 0.025071 0.014629 0.000000 -0.033384 0.000000
# 3 0.002030 0.014629 0.057037 0.000000 -0.065296 0.000000
# 4 0.000000 0.000000 0.000000 0.009991 0.000000 0.007607
# 5 -0.010778 -0.033384 -0.065296 0.000000 0.139249 0.000000
# 6 0.000000 0.000000 0.000000 0.007607 0.000000 0.020037
#
#
# Mechanical properties :
#
#
# Convention : Reuss Voigt Hill
#
# Bulk Modulus (GPa) = 7.43145 21.82213 14.62679
# Shear Modulus (GPa) = 17.21960 54.86370 36.04165
#
# Velocity S-wave (km/s) = 2.78926 4.97875 4.03534
# Velocity P-wave (km/s) = 3.70553 6.55058 5.32170
#
# Compressibility (1/GPa) = 0.13456318
#
# Stress axis : x y z
#
# Youngs Moduli (GPa) = 42.93542 39.88679 17.53251
#
# Poissons Ratio (x) = 0.08284 -0.03559
# Poissons Ratio (y) = 0.08917 -0.25648
# Poissons Ratio (z) = -0.08717 -0.58350
#
# Static dielectric constant tensor:
#      x y z
#    x 1.822780 0.000000 0.001630 
#    y 0.000000 1.829030 0.000000 
#    z 0.001630 0.000000 1.812650 
# 
# From -- ./inp_files/96920.got.cif
#   From: 2010.05.17/outbox.cif.g08.bks.cpg/sg12_49_cif.got.tgz:96920.got - 2010.06.03 13:09:07.
