data_PCOD9198547
_publ_section_title
;
Structure prediction by ZEFSAII (Michael W. Deem and Ramdas Pophale) SiO2 
 PCOD9198547
Probable space group: C 2/M
;
_chemical_formula_sum "Si O2"
_cell_formula_units_Z 56
_cell_length_a 30.008000
_cell_length_b 8.968988
_cell_length_c 22.372017
_cell_angle_alpha 90.000000
_cell_angle_beta 30.990719
_cell_angle_gamma 90.000000
_cell_volume 3100.329619
_symmetry_space_group_name_H-M "C 2/M"
_symmetry_group_IT_number 12
_symmetry_cell_setting 'monoclinic'
loop_
_space_group_symop_operation_xyz
x,y,z
-x,y,-z
-x,-y,-z
x,-y,z
1/2+x,1/2+y,z
1/2-x,1/2+y,-z
1/2-x,1/2-y,-z
1/2+x,1/2-y,z
loop_
_atom_site_type_symbol
_atom_site_label
_atom_site_fract_x
_atom_site_fract_y
_atom_site_fract_z
Si Si1 0.113679 0.678808 0.730005
Si Si2 0.422235 0.821726 0.362559
Si Si3 0.785524 0.819959 0.606141
Si Si4 0.727805 0.179178 0.802621
Si Si5 0.960605 0.824895 0.978953
Si Si6 0.888994 0.177933 0.854966
Si Si7 0.258654 0.678262 0.898643
O O1 0.104244 0.500000 0.746061
O O2 0.121372 0.716233 0.651288
O O3 0.197843 0.722687 0.671369
O O4 0.028406 0.753788 0.855126
O O5 0.366128 0.752312 0.480070
O O6 0.518693 0.756339 0.250353
O O7 0.425319 0.000000 0.364246
O O8 0.774251 0.773295 0.688093
O O9 0.793145 0.000000 0.594892
O O10 0.774400 0.216420 0.811435
O O11 0.719575 0.000000 0.808920
O O12 0.632139 0.246987 0.915779
O O13 0.951118 0.000000 0.977569
O O14 0.000000 0.806152 0.000000
O O15 0.837480 0.212423 0.852619
O O16 0.898832 0.000000 0.848723
O O17 0.826073 0.238365 0.979280
O O18 0.242987 0.500000 0.920704
#
# Coordination Sequence:
#
# PCOD9198547 Si02
#       7
#     8   8   8   8   8   8   8
#     4  10  21  37  56  78 105 143 185 223 264 316
#     4  11  23  37  55  79 108 142 182 225 268 313
#     4  10  21  37  56  77 104 142 184 222 266 318
#     4  10  20  36  58  80 107 143 181 220 266 320
#     4  11  22  33  50  80 114 143 174 216 264 314
#     4  10  20  36  58  83 111 140 175 220 269 320
#     4   9  19  36  59  86 110 136 174 222 271 317
#
# _framework density 18.062595999999999
#
# number of rings (size 3 to 8) (size 9 to 14) (size 15 to 20)
#    0.000    1.857    1.429    2.571    0.000    7.429 
#    0.000    0.714    0.000    4.286    0.000    0.000 
#    0.000    0.000    0.000    0.000    0.000    0.000 
#
# Total GULP energy -156397.296073 kJ/mol
# GULP energy per Si atom -5585.617717 kJ/mol
# Density = 1.802149 g / cm^3
# Si number density = 18.062596 Si / 1000 Ang^3
#
#
#
# Elastic Constant Matrix: (Units=GPa)
#
#
# Indices 1 2 3 4 5 6 
#
# 1 104.3959 35.9694 61.0514 -0.0002 27.4552 0.0003
# 2 35.9694 17.0794 29.4151 -0.0071 9.7693 0.0022
# 3 61.0514 29.4151 99.6001 -0.0093 23.1673 0.0015
# 4 -0.0002 -0.0071 -0.0093 27.4067 0.0018 1.2992
# 5 27.4552 9.7693 23.1673 0.0018 22.5012 0.0002
# 6 0.0003 0.0022 0.0015 1.2992 0.0002 24.0600
#
#
#
# Elastic Compliance Matrix: (Units=1/GPa)
#
#
# Indices 1 2 3 4 5 6 
#
# 1 0.039086 -0.077621 0.002919 -0.000018 -0.016996 0.000008
# 2 -0.077621 0.280869 -0.038179 0.000059 0.012076 -0.000026
# 3 0.002919 -0.038179 0.021695 -0.000002 -0.009323 0.000002
# 4 -0.000018 0.000059 -0.000002 0.036581 -0.000005 -0.001975
# 5 -0.016996 0.012076 -0.009323 -0.000005 0.069536 -0.000001
# 6 0.000008 -0.000026 0.000002 -0.001975 -0.000001 0.041670
#
#
# Mechanical properties :
#
#
# Convention : Reuss Voigt Hill
#
# Bulk Modulus (GPa) = 8.62911 52.66081 30.64496
# Shear Modulus (GPa) = 6.63281 21.10287 13.86784
#
# Velocity S-wave (km/s) = 1.91836 3.42178 2.77386
# Velocity P-wave (km/s) = 3.11360 6.69547 5.22129
#
# Compressibility (1/GPa) = 0.11588684
#
# Stress axis : x y z
#
# Youngs Moduli (GPa) = 25.58466 3.56038 46.09372
#
# Poissons Ratio (x) = 0.27636 -0.13455
# Poissons Ratio (y) = 1.98591 1.75983
# Poissons Ratio (z) = -0.07468 0.13593
#
# Static dielectric constant tensor:
#      x y z
#    x 1.641430 0.000000 0.023190 
#    y 0.000000 1.602890 0.000000 
#    z 0.023190 0.000000 1.571520 
# 
# From -- ./inp_files/329489.got.cif
#   From: 2010.05.17/outbox.cif.g08.bks.cpg/sg12_165_cif.got.tgz:329489.got - 2010.06.03 13:09:07.
