data_PCOD9198491
_publ_section_title
;
Structure prediction by ZEFSAII (Michael W. Deem and Ramdas Pophale) SiO2 
 PCOD9198491
Probable space group: C 2/M
;
_chemical_formula_sum "Si O2"
_cell_formula_units_Z 56
_cell_length_a 24.081663
_cell_length_b 8.970255
_cell_length_c 15.859049
_cell_angle_alpha 90.000000
_cell_angle_beta 56.156772
_cell_angle_gamma 90.000000
_cell_volume 2845.389874
_symmetry_space_group_name_H-M "C 2/M"
_symmetry_group_IT_number 12
_symmetry_cell_setting 'monoclinic'
loop_
_space_group_symop_operation_xyz
x,y,z
-x,y,-z
-x,-y,-z
x,-y,z
1/2+x,1/2+y,z
1/2-x,1/2+y,-z
1/2-x,1/2-y,-z
1/2+x,1/2-y,z
loop_
_atom_site_type_symbol
_atom_site_label
_atom_site_fract_x
_atom_site_fract_y
_atom_site_fract_z
Si Si1 0.927616 0.678417 0.024702
Si Si2 0.575770 0.177880 0.642086
Si Si3 0.573473 0.822035 0.173446
Si Si4 0.423209 0.675923 0.536933
Si Si5 0.206430 0.177788 0.798746
Si Si6 0.330245 0.677550 0.775842
Si Si7 0.202890 0.821570 0.610461
O O1 0.919442 0.500000 0.044025
O O2 0.867497 0.762921 0.120426
O O3 0.925048 0.709105 0.927112
O O4 0.000000 0.719855 0.000000
O O5 0.499578 0.220215 0.728744
O O6 0.590582 0.227719 0.534044
O O7 0.628627 0.259690 0.656958
O O8 0.582575 0.000000 0.645650
O O9 0.631310 0.740498 0.175897
O O10 0.580771 0.000000 0.179099
O O11 0.500000 0.697802 0.500000
O O12 0.414334 0.500000 0.524273
O O13 0.376145 0.713737 0.655380
O O14 0.258558 0.250980 0.818839
O O15 0.224954 0.218381 0.686587
O O16 0.208696 0.000000 0.804298
O O17 0.324455 0.500000 0.786667
O O18 0.250000 0.750000 0.500000
O O19 0.203801 0.000000 0.601560
#
# Coordination Sequence:
#
# PCOD9198491 Si02
#       7
#     8   8   8   8   8   8   8
#     4  10  22  43  69  93 120 156 201 250 303 363
#     4  11  22  36  60  91 123 161 202 250 306 360
#     4  10  22  39  61  91 123 157 200 251 301 358
#     4  10  20  36  57  86 124 164 206 250 298 355
#     4  11  25  43  63  90 124 160 201 252 305 360
#     4  11  23  39  62  89 122 165 206 249 303 362
#     4  11  24  41  62  89 122 160 202 249 302 362
#
# _framework density 19.680958
#
# number of rings (size 3 to 8) (size 9 to 14) (size 15 to 20)
#    0.000    1.429    1.429    3.429    0.000    9.143 
#    0.000    0.000    0.000    0.000    0.000    0.000 
#    0.000    0.000    0.000    0.000    0.000    0.000 
#
# Total GULP energy -156621.874545 kJ/mol
# GULP energy per Si atom -5593.638377 kJ/mol
# Density = 1.963616 g / cm^3
# Si number density = 19.680958 Si / 1000 Ang^3
#
#
#
# Elastic Constant Matrix: (Units=GPa)
#
#
# Indices 1 2 3 4 5 6 
#
# 1 147.0257 52.3018 47.7738 0.0000 4.5583 0.0000
# 2 52.3018 41.8730 40.1206 0.0000 8.5774 0.0000
# 3 47.7738 40.1206 79.9499 0.0000 3.1394 0.0000
# 4 0.0000 0.0000 0.0000 26.7738 0.0000 0.6265
# 5 4.5583 8.5774 3.1394 0.0000 30.4680 0.0000
# 6 0.0000 0.0000 0.0000 0.6265 0.0000 34.7135
#
#
#
# Elastic Compliance Matrix: (Units=1/GPa)
#
#
# Indices 1 2 3 4 5 6 
#
# 1 0.012486 -0.017192 0.001054 0.000000 0.002863 0.000000
# 2 -0.017192 0.073365 -0.025938 0.000000 -0.015409 0.000000
# 3 0.001054 -0.025938 0.024714 0.000000 0.004598 0.000000
# 4 0.000000 0.000000 0.000000 0.037366 0.000000 -0.000674
# 5 0.002863 -0.015409 0.004598 0.000000 0.036257 0.000000
# 6 0.000000 0.000000 0.000000 -0.000674 0.000000 0.028819
#
#
# Mechanical properties :
#
#
# Convention : Reuss Voigt Hill
#
# Bulk Modulus (GPa) = 37.86116 61.02678 49.44397
# Shear Modulus (GPa) = 16.34183 26.96788 21.65485
#
# Velocity S-wave (km/s) = 2.88468 3.70571 3.32067
# Velocity P-wave (km/s) = 5.51130 7.02745 6.31504
#
# Compressibility (1/GPa) = 0.02641229
#
# Stress axis : x y z
#
# Youngs Moduli (GPa) = 80.08870 13.63051 40.46350
#
# Poissons Ratio (x) = 0.23434 -0.04265
# Poissons Ratio (y) = 1.37692 1.04953
# Poissons Ratio (z) = -0.08442 0.35355
#
# Static dielectric constant tensor:
#      x y z
#    x 1.672480 0.000000 -0.001810 
#    y 0.000000 1.652590 0.000000 
#    z -0.001810 0.000000 1.682990 
# 
# From -- ./inp_files/238292.got.cif
#   From: 2010.05.17/outbox.cif.g08.bks.cpg/sg12_120_cif.got.tgz:238292.got - 2010.06.03 13:09:07.
