data_PCOD9198532
_publ_section_title
;
Structure prediction by ZEFSAII (Michael W. Deem and Ramdas Pophale) SiO2 
 PCOD9198532
Probable space group: C 2/M
;
_chemical_formula_sum "Si O2"
_cell_formula_units_Z 40
_cell_length_a 28.129771
_cell_length_b 9.673111
_cell_length_c 16.482307
_cell_angle_alpha 90.000000
_cell_angle_beta 20.536104
_cell_angle_gamma 90.000000
_cell_volume 1573.283206
_symmetry_space_group_name_H-M "C 2/M"
_symmetry_group_IT_number 12
_symmetry_cell_setting 'monoclinic'
loop_
_space_group_symop_operation_xyz
x,y,z
-x,y,-z
-x,-y,-z
x,-y,z
1/2+x,1/2+y,z
1/2-x,1/2+y,-z
1/2-x,1/2-y,-z
1/2+x,1/2-y,z
loop_
_atom_site_type_symbol
_atom_site_label
_atom_site_fract_x
_atom_site_fract_y
_atom_site_fract_z
Si Si1 0.851178 0.500000 0.343653
Si Si2 0.000000 0.736910 0.000000
Si Si3 0.768953 0.263150 0.263701
Si Si4 0.132551 0.700113 0.333336
Si Si5 0.856235 0.000000 0.925671
Si Si6 0.416580 0.000000 0.919790
Si Si7 0.820999 0.000000 0.799882
Si Si8 0.878100 0.000000 0.399706
O O1 0.914895 0.367008 0.194918
O O2 0.690796 0.500000 0.579507
O O3 0.923110 0.500000 0.316482
O O4 0.114215 0.811271 0.871008
O O5 0.662672 0.177898 0.379982
O O6 0.683849 0.364895 0.457292
O O7 0.853979 0.366716 0.067843
O O8 0.262492 0.633306 0.084393
O O9 0.000000 0.647718 0.500000
O O10 0.134806 0.862800 0.315847
O O11 0.889218 0.000000 0.778591
O O12 0.966916 0.000000 0.819687
O O13 0.344589 0.000000 0.946651
#
# Coordination Sequence:
#
# PCOD9198532 Si02
#       8
#     4   4   8   8   4   4   4   4
#     4   7  10  20  43  75 103 121 155 210 254 282
#     4   7  10  20  44  77  98 116 160 216 246 274
#     4   8  14  27  51  76  97 126 170 211 243 290
#     4  11  22  37  55  74 101 137 174 209 251 305
#     4  12  24  35  49  76 112 136 161 211 267 300
#     4   7  12  24  47  78 100 121 161 215 252 280
#     4  10  20  36  58  78  98 129 175 218 247 292
#     4   9  16  29  52  78 101 131 171 210 245 295
#
# _framework density 25.42454
#
# number of rings (size 3 to 8) (size 9 to 14) (size 15 to 20)
#    0.000    3.000    0.000    5.400    0.000    0.000 
#    0.000    0.000    0.000   22.200    0.000    0.000 
#    0.000    0.000    0.000    0.000    0.000    0.000 
#
# Total GULP energy -111561.937223 kJ/mol
# GULP energy per Si atom -5578.096861 kJ/mol
# Density = 2.536667 g / cm^3
# Si number density = 25.424540 Si / 1000 Ang^3
#
#
#
# Elastic Constant Matrix: (Units=GPa)
#
#
# Indices 1 2 3 4 5 6 
#
# 1 179.8450 35.9207 79.4442 0.0000 -77.4240 0.0000
# 2 35.9207 69.9183 22.1614 0.0000 -8.7934 0.0000
# 3 79.4442 22.1614 96.8867 0.0000 -67.0143 0.0000
# 4 0.0000 0.0000 0.0000 6.8977 0.0000 14.5483
# 5 -77.4240 -8.7934 -67.0143 0.0000 72.2545 0.0000
# 6 0.0000 0.0000 0.0000 14.5483 0.0000 -3.8497
#
#
#
# Elastic Compliance Matrix: (Units=1/GPa)
#
#
# Indices 1 2 3 4 5 6 
#
# 1 0.011557 -0.004283 -0.000814 0.000000 0.011108 0.000000
# 2 -0.004283 0.017410 -0.006079 0.000000 -0.008108 0.000000
# 3 -0.000814 -0.006079 0.031422 0.000000 0.027531 0.000000
# 4 0.000000 0.000000 0.000000 0.016161 0.000000 0.061074
# 5 0.011108 -0.008108 0.027531 0.000000 0.050291 0.000000
# 6 0.000000 0.000000 0.000000 0.061074 0.000000 -0.028957
#
#
# Mechanical properties :
#
#
# Convention : Reuss Voigt Hill
#
# Bulk Modulus (GPa) = 26.28942 69.07806 47.68374
# Shear Modulus (GPa) = 37.61843 29.00208 33.31026
#
# Velocity S-wave (km/s) = 3.85074 3.38111 3.62354
# Velocity P-wave (km/s) = 5.48941 6.51700 6.02515
#
# Compressibility (1/GPa) = 0.03803812
#
# Stress axis : x y z
#
# Youngs Moduli (GPa) = 86.52511 57.43951 31.82524
#
# Poissons Ratio (x) = 0.24599 0.02590
# Poissons Ratio (y) = 0.37055 0.19346
# Poissons Ratio (z) = 0.07041 0.34917
#
# Static dielectric constant tensor:
#      x y z
#    x 2.123680 0.000000 -0.027190 
#    y 0.000000 1.953180 0.000000 
#    z -0.027190 0.000000 2.053470 
# 
# From -- ./inp_files/268271.got.cif
#   From: 2010.05.17/outbox.cif.g08.bks.cpg/sg12_135_cif.got.tgz:268271.got - 2010.06.03 13:09:07.
