data_PCOD9198767
_publ_section_title
;
Structure prediction by ZEFSAII (Michael W. Deem and Ramdas Pophale) SiO2 
 PCOD9198767
Probable space group: C 2/M
;
_chemical_formula_sum "Si O2"
_cell_formula_units_Z 56
_cell_length_a 21.627424
_cell_length_b 8.879254
_cell_length_c 15.659397
_cell_angle_alpha 90.000000
_cell_angle_beta 92.625466
_cell_angle_gamma 90.000000
_cell_volume 3004.001839
_symmetry_space_group_name_H-M "C 2/M"
_symmetry_group_IT_number 12
_symmetry_cell_setting 'monoclinic'
loop_
_space_group_symop_operation_xyz
x,y,z
-x,y,-z
-x,-y,-z
x,-y,z
1/2+x,1/2+y,z
1/2-x,1/2+y,-z
1/2-x,1/2-y,-z
1/2+x,1/2-y,z
loop_
_atom_site_type_symbol
_atom_site_label
_atom_site_fract_x
_atom_site_fract_y
_atom_site_fract_z
Si Si1 0.814301 0.179087 0.973384
Si Si2 0.468359 0.679399 0.408784
Si Si3 0.445428 0.682067 0.063573
Si Si4 0.340725 0.822839 0.443016
Si Si5 0.715314 0.822046 0.379462
Si Si6 0.504709 0.820541 0.231710
Si Si7 0.853069 0.678166 0.802225
O O1 0.825380 0.225325 0.876460
O O2 0.810296 0.000000 0.982424
O O3 0.750000 0.250000 0.000000
O O4 0.877235 0.228976 0.026645
O O5 0.500000 0.729462 0.500000
O O6 0.475470 0.500000 0.402488
O O7 0.396909 0.726052 0.411518
O O8 0.495277 0.755278 0.325621
O O9 0.446780 0.500000 0.067625
O O10 0.460597 0.748133 0.157417
O O11 0.500000 0.728009 0.000000
O O12 0.329514 0.792308 0.542962
O O13 0.276597 0.775869 0.394897
O O14 0.353210 0.000000 0.432539
O O15 0.681513 0.793463 0.288803
O O16 0.731767 0.000000 0.385430
O O17 0.574662 0.788749 0.205941
O O18 0.495880 0.000000 0.233521
O O19 0.846688 0.500000 0.821860
#
# Coordination Sequence:
#
# PCOD9198767 Si02
#       7
#     8   8   8   8   8   8   8
#     4  11  24  41  63  89 121 158 197 249 305 362
#     4  11  24  40  59  85 120 160 201 247 300 359
#     4  10  21  41  65  89 122 162 203 249 305 366
#     4  10  20  36  58  84 116 154 198 246 296 350
#     4   9  19  36  58  83 116 156 194 237 295 361
#     4  11  23  38  63  94 121 156 202 253 304 360
#     4  10  21  38  60  87 118 152 194 243 299 360
#
# _framework density 18.641801000000001
#
# number of rings (size 3 to 8) (size 9 to 14) (size 15 to 20)
#    0.000    1.714    1.429    2.571    0.000    6.571 
#    0.000    1.429    0.000    0.000    0.000    0.000 
#    0.000    0.000    0.000    0.000    0.000    0.000 
#
# Total GULP energy -156424.452628 kJ/mol
# GULP energy per Si atom -5586.587594 kJ/mol
# Density = 1.859937 g / cm^3
# Si number density = 18.641801 Si / 1000 Ang^3
#
#
#
# Elastic Constant Matrix: (Units=GPa)
#
#
# Indices 1 2 3 4 5 6 
#
# 1 99.3581 41.3685 54.3179 0.0000 -7.2555 0.0000
# 2 41.3685 31.6255 41.8206 0.0000 -3.7665 0.0000
# 3 54.3179 41.8206 105.7679 0.0000 7.0182 0.0000
# 4 0.0000 0.0000 0.0000 31.5287 0.0000 -2.3115
# 5 -7.2555 -3.7665 7.0182 0.0000 22.7566 0.0000
# 6 0.0000 0.0000 0.0000 -2.3115 0.0000 23.9920
#
#
#
# Elastic Compliance Matrix: (Units=1/GPa)
#
#
# Indices 1 2 3 4 5 6 
#
# 1 0.022230 -0.028195 -0.000437 0.000000 0.002556 0.000000
# 2 -0.028195 0.111692 -0.030947 0.000000 0.019041 0.000000
# 3 -0.000437 -0.030947 0.022730 0.000000 -0.012271 0.000000
# 4 0.000000 0.000000 0.000000 0.031943 0.000000 0.003078
# 5 0.002556 0.019041 -0.012271 0.000000 0.051694 0.000000
# 6 0.000000 0.000000 0.000000 0.003078 0.000000 0.041977
#
#
# Mechanical properties :
#
#
# Convention : Reuss Voigt Hill
#
# Bulk Modulus (GPa) = 26.67164 56.86283 41.76724
# Shear Modulus (GPa) = 12.07958 22.27175 17.17567
#
# Velocity S-wave (km/s) = 2.54831 3.46022 3.03867
# Velocity P-wave (km/s) = 4.79552 6.82153 5.89620
#
# Compressibility (1/GPa) = 0.03749300
#
# Stress axis : x y z
#
# Youngs Moduli (GPa) = 44.98490 8.95320 43.99507
#
# Poissons Ratio (x) = 0.25244 0.01924
# Poissons Ratio (y) = 1.26836 1.36149
# Poissons Ratio (z) = 0.01968 0.27707
#
# Static dielectric constant tensor:
#      x y z
#    x 1.628250 0.000000 0.008030 
#    y 0.000000 1.630330 0.000000 
#    z 0.008030 0.000000 1.619630 
# 
# From -- ./inp_files/231051.got.cif
#   From: 2010.05.17/outbox.cif.g08.bks.cpg/sg12_116_cif.got.tgz:231051.got - 2010.06.03 13:09:07.
