data_PCOD9198289
_publ_section_title
;
Structure prediction by ZEFSAII (Michael W. Deem and Ramdas Pophale) SiO2 
 PCOD9198289
Probable space group: C 2/M
;
_chemical_formula_sum "Si O2"
_cell_formula_units_Z 64
_cell_length_a 17.335214
_cell_length_b 22.503764
_cell_length_c 23.201984
_cell_angle_alpha 90.000000
_cell_angle_beta 158.627593
_cell_angle_gamma 90.000000
_cell_volume 3298.539255
_symmetry_space_group_name_H-M "C 2/M"
_symmetry_group_IT_number 12
_symmetry_cell_setting 'monoclinic'
loop_
_space_group_symop_operation_xyz
x,y,z
-x,y,-z
-x,-y,-z
x,-y,z
1/2+x,1/2+y,z
1/2-x,1/2+y,-z
1/2-x,1/2-y,-z
1/2+x,1/2-y,z
loop_
_atom_site_type_symbol
_atom_site_label
_atom_site_fract_x
_atom_site_fract_y
_atom_site_fract_z
Si Si1 0.691972 0.669975 0.375218
Si Si2 0.288207 0.434560 0.891674
Si Si3 0.976121 0.848279 0.105768
Si Si4 0.851530 0.070787 0.344284
Si Si5 0.503166 0.568409 0.685250
Si Si6 0.192336 0.752700 0.868887
Si Si7 0.839241 0.322988 0.265500
Si Si8 0.924111 0.373838 0.012692
O O1 0.603828 0.645962 0.253257
O O2 0.641970 0.619169 0.387719
O O3 0.548659 0.727980 0.287581
O O4 0.938924 0.684660 0.548092
O O5 0.192495 0.500000 0.829058
O O6 0.152198 0.384311 0.765312
O O7 0.500000 0.438527 0.000000
O O8 0.365148 0.408133 0.006039
O O9 0.144158 0.828350 0.173599
O O10 0.795621 0.797785 0.980497
O O11 0.960662 0.079796 0.357720
O O12 0.626342 0.103244 0.187609
O O13 0.000000 0.090076 0.500000
O O14 0.814996 0.000000 0.323945
O O15 0.434563 0.500000 0.645584
O O16 0.733250 0.578890 0.874979
O O17 0.201910 0.727723 0.810305
O O18 0.327034 0.812767 0.967758
O O19 0.000000 0.363890 0.000000
#
# Coordination Sequence:
#
# PCOD9198289 Si02
#       8
#     8   8   8   8   8   8   8   8
#     4  11  22  35  54  81 113 140 172 223 278 323
#     4   8  16  33  56  78 101 136 182 224 261 307
#     4  10  20  36  57  80 106 141 184 223 265 324
#     4   9  17  32  55  82 111 141 179 225 265 309
#     4   9  19  34  51  75 109 147 178 211 264 324
#     4  10  20  37  56  76 106 144 180 219 268 325
#     4  10  20  36  58  79 105 140 181 227 272 316
#     4   9  16  30  54  79 104 139 181 215 255 317
#
# _framework density 19.402528
#
# number of rings (size 3 to 8) (size 9 to 14) (size 15 to 20)
#    0.000    2.500    0.000    3.375    0.000    2.500 
#    0.000   11.250    0.000    6.750    0.000    0.000 
#    0.000    0.000    0.000    0.000    0.000    2.875 
#
# Total GULP energy -178559.000538 kJ/mol
# GULP energy per Si atom -5579.968767 kJ/mol
# Density = 1.935837 g / cm^3
# Si number density = 19.402528 Si / 1000 Ang^3
#
#
#
# Elastic Constant Matrix: (Units=GPa)
#
#
# Indices 1 2 3 4 5 6 
#
# 1 45.4301 24.2683 22.0237 0.0687 -12.4737 -0.0244
# 2 24.2683 80.0190 31.7995 -0.0478 -7.9418 0.0410
# 3 22.0237 31.7995 103.0978 -0.0007 -16.3918 0.0454
# 4 0.0687 -0.0478 -0.0007 10.3890 0.0223 0.0410
# 5 -12.4737 -7.9418 -16.3918 0.0223 29.4251 0.0161
# 6 -0.0244 0.0410 0.0454 0.0410 0.0161 21.0105
#
#
#
# Elastic Compliance Matrix: (Units=1/GPa)
#
#
# Indices 1 2 3 4 5 6 
#
# 1 0.029565 -0.006983 -0.002709 -0.000248 0.009140 0.000047
# 2 -0.006983 0.015956 -0.003528 0.000121 -0.000619 -0.000031
# 3 -0.002709 -0.003528 0.012104 -0.000007 0.004643 -0.000026
# 4 -0.000248 0.000121 -0.000007 0.096259 -0.000149 -0.000188
# 5 0.009140 -0.000619 0.004643 -0.000149 0.040278 -0.000029
# 6 0.000047 -0.000031 -0.000026 -0.000188 -0.000029 0.047596
#
#
# Mechanical properties :
#
#
# Convention : Reuss Voigt Hill
#
# Bulk Modulus (GPa) = 32.06636 42.74776 37.40706
# Shear Modulus (GPa) = 17.94730 22.19528 20.07129
#
# Velocity S-wave (km/s) = 3.04468 3.38588 3.21980
# Velocity P-wave (km/s) = 5.37800 6.11273 5.75710
#
# Compressibility (1/GPa) = 0.03118533
#
# Stress axis : x y z
#
# Youngs Moduli (GPa) = 33.82357 62.67399 82.61398
#
# Poissons Ratio (x) = 0.43767 0.22377
# Poissons Ratio (y) = 0.23620 0.29147
# Poissons Ratio (z) = 0.09162 0.22112
#
# Static dielectric constant tensor:
#      x y z
#    x 1.697170 -0.000010 0.000920 
#    y -0.000010 1.676110 -0.000020 
#    z 0.000920 -0.000020 1.665650 
# 
# From -- ./inp_files/345037.got.cif
#   From: 2010.05.17/outbox.cif.g08.bks.cpg/sg12_173_cif.got.tgz:345037.got - 2010.06.03 13:09:07.
