data_PCOD9198645
_publ_section_title
;
Structure prediction by ZEFSAII (Michael W. Deem and Ramdas Pophale) SiO2 
 PCOD9198645
Probable space group: C 2/M
;
_chemical_formula_sum "Si O2"
_cell_formula_units_Z 52
_cell_length_a 24.296865
_cell_length_b 12.499008
_cell_length_c 12.239638
_cell_angle_alpha 90.000000
_cell_angle_beta 126.277098
_cell_angle_gamma 90.000000
_cell_volume 2996.527176
_symmetry_space_group_name_H-M "C 2/M"
_symmetry_group_IT_number 12
_symmetry_cell_setting 'monoclinic'
loop_
_space_group_symop_operation_xyz
x,y,z
-x,y,-z
-x,-y,-z
x,-y,z
1/2+x,1/2+y,z
1/2-x,1/2+y,-z
1/2-x,1/2-y,-z
1/2+x,1/2-y,z
loop_
_atom_site_type_symbol
_atom_site_label
_atom_site_fract_x
_atom_site_fract_y
_atom_site_fract_z
Si Si1 0.147170 0.196119 0.298009
Si Si2 0.203787 0.620226 0.497975
Si Si3 0.982049 0.872154 0.714500
Si Si4 0.246274 0.126532 0.046632
Si Si5 0.500000 0.266989 0.500000
Si Si6 0.632035 0.123479 0.636881
Si Si7 0.605431 0.624453 0.015735
O O1 0.178626 0.309871 0.367796
O O2 0.214833 0.123605 0.388844
O O3 0.088559 0.166158 0.315003
O O4 0.116534 0.186777 0.141380
O O5 0.181654 0.500000 0.455165
O O6 0.168314 0.660627 0.567471
O O7 0.992601 0.832758 0.603477
O O8 0.982794 0.000000 0.715177
O O9 0.043866 0.836402 0.866822
O O10 0.310754 0.125888 0.202881
O O11 0.175316 0.127171 0.029370
O O12 0.247392 0.000000 0.996580
O O13 0.250000 0.250000 0.000000
O O14 0.567399 0.194793 0.588207
O O15 0.610672 0.000000 0.597184
O O16 0.591625 0.500000 0.029531
#
# Coordination Sequence:
#
# PCOD9198645 Si02
#       7
#     8   8   8   8   4   8   8
#     4  11  20  36  61  84 112 147 190 236 284 344
#     4  10  20  36  59  86 111 143 189 239 287 341
#     4  11  23  36  55  85 118 151 185 234 294 348
#     4  10  20  37  60  85 115 155 198 243 291 347
#     4  12  22  38  54  86 116 152 188 242 286 344
#     4  10  20  37  60  81 108 149 196 239 283 347
#     4  10  20  36  58  82 113 152 194 234 285 352
#
# _framework density 17.353421000000001
#
# number of rings (size 3 to 8) (size 9 to 14) (size 15 to 20)
#    0.000    1.538    3.077    3.231    0.000    1.231 
#    0.000    1.538    0.000    3.692    0.000    0.000 
#    0.000    0.000    0.000    0.000    0.000    0.000 
#
# Total GULP energy -144771.526625 kJ/mol
# GULP energy per Si atom -5568.135639 kJ/mol
# Density = 1.731392 g / cm^3
# Si number density = 17.353421 Si / 1000 Ang^3
#
#
#
# Elastic Constant Matrix: (Units=GPa)
#
#
# Indices 1 2 3 4 5 6 
#
# 1 103.5727 24.6929 43.6693 0.0000 11.1566 0.0000
# 2 24.6929 77.5147 37.4083 0.0000 -5.7530 0.0000
# 3 43.6693 37.4083 87.8093 0.0000 -1.6906 0.0000
# 4 0.0000 0.0000 0.0000 -3.7263 0.0000 -0.9880
# 5 11.1566 -5.7530 -1.6906 0.0000 30.1524 0.0000
# 6 0.0000 0.0000 0.0000 -0.9880 0.0000 28.4514
#
#
#
# Elastic Compliance Matrix: (Units=1/GPa)
#
#
# Indices 1 2 3 4 5 6 
#
# 1 0.013158 -0.001753 -0.005903 0.000000 -0.005534 0.000000
# 2 -0.001753 0.016698 -0.006174 0.000000 0.003489 0.000000
# 3 -0.005903 -0.006174 0.016992 0.000000 0.001959 0.000000
# 4 0.000000 0.000000 0.000000 -0.265913 0.000000 -0.009234
# 5 -0.005534 0.003489 0.001959 0.000000 0.035988 0.000000
# 6 0.000000 0.000000 0.000000 -0.009234 0.000000 0.034827
#
#
# Mechanical properties :
#
#
# Convention : Reuss Voigt Hill
#
# Bulk Modulus (GPa) = 52.12133 53.38197 52.75165
# Shear Modulus (GPa) = -43.78628 21.85058 -10.96785
#
# Velocity S-wave (km/s) = -5.02860 3.55230 -2.51674
# Velocity P-wave (km/s) = 1.90142 6.90316 4.69245
#
# Compressibility (1/GPa) = 0.01918600
#
# Stress axis : x y z
#
# Youngs Moduli (GPa) = 75.99772 59.88732 58.85002
#
# Poissons Ratio (x) = 0.10501 0.34742
# Poissons Ratio (y) = 0.13326 0.36337
# Poissons Ratio (z) = 0.44865 0.36977
#
# Static dielectric constant tensor:
#      x y z
#    x 1.587520 0.000000 -0.004530 
#    y 0.000000 1.630770 0.000000 
#    z -0.004530 0.000000 1.573770 
# 
# From -- ./inp_files/175345.got.cif
#   From: 2010.05.17/outbox.cif.g08.bks.cpg/sg12_88_cif.got.tgz:175345.got - 2010.06.03 13:09:07.
