data_PCOD9198542
_publ_section_title
;
Structure prediction by ZEFSAII (Michael W. Deem and Ramdas Pophale) SiO2 
 PCOD9198542
Probable space group: C 2/M
;
_chemical_formula_sum "Si O2"
_cell_formula_units_Z 64
_cell_length_a 14.842809
_cell_length_b 7.660048
_cell_length_c 24.550799
_cell_angle_alpha 90.000000
_cell_angle_beta 98.979590
_cell_angle_gamma 90.000000
_cell_volume 2757.132403
_symmetry_space_group_name_H-M "C 2/M"
_symmetry_group_IT_number 12
_symmetry_cell_setting 'monoclinic'
loop_
_space_group_symop_operation_xyz
x,y,z
-x,y,-z
-x,-y,-z
x,-y,z
1/2+x,1/2+y,z
1/2-x,1/2+y,-z
1/2-x,1/2-y,-z
1/2+x,1/2-y,z
loop_
_atom_site_type_symbol
_atom_site_label
_atom_site_fract_x
_atom_site_fract_y
_atom_site_fract_z
Si Si1 0.396333 0.209796 0.992741
Si Si2 0.276322 0.710032 0.087104
Si Si3 0.430162 0.710940 0.743493
Si Si4 0.586076 0.197739 0.538458
Si Si5 0.472517 0.701115 0.623643
Si Si6 0.620357 0.285796 0.796701
Si Si7 0.776344 0.295621 0.592170
Si Si8 0.266740 0.701877 0.292324
O O1 0.323652 0.275290 0.940661
O O2 0.400920 0.000000 0.987336
O O3 0.500000 0.277210 0.000000
O O4 0.347226 0.248615 0.045419
O O5 0.270347 0.500000 0.090435
O O6 0.318067 0.775279 0.147570
O O7 0.421457 0.500000 0.743143
O O8 0.456386 0.761911 0.683854
O O9 0.514153 0.762525 0.789512
O O10 0.331779 0.789111 0.745997
O O11 0.500000 0.284872 0.500000
O O12 0.548370 0.199726 0.596710
O O13 0.686787 0.274847 0.547322
O O14 0.594540 0.000000 0.518476
O O15 0.501379 0.500000 0.628306
O O16 0.372967 0.713453 0.585857
O O17 0.623447 0.500000 0.796090
O O18 0.660848 0.223816 0.742878
O O19 0.796141 0.500000 0.599797
O O20 0.749179 0.220245 0.649324
O O21 0.292135 0.500000 0.304134
#
# Coordination Sequence:
#
# PCOD9198542 Si02
#       8
#     8   8   8   8   8   8   8   8
#     4   9  18  33  51  70  95 128 167 212 256 295
#     4   9  18  32  50  72  97 130 169 205 247 299
#     4   9  18  33  52  75 102 132 166 203 245 297
#     4  11  24  39  55  78 106 136 174 219 264 310
#     4  10  20  36  58  80 104 137 174 213 259 310
#     4   9  17  31  50  72 103 136 163 198 247 301
#     4  10  20  36  58  81 106 138 174 212 257 310
#     4   9  18  33  53  77 103 133 168 203 244 299
#
# _framework density 23.212522
#
# number of rings (size 3 to 8) (size 9 to 14) (size 15 to 20)
#    0.000    2.500    0.000    1.875    0.000    5.750 
#    0.000    3.125    0.000    0.000    0.000    0.000 
#    0.000    0.000    0.000    0.000    0.000    0.000 
#
# Total GULP energy -178739.796565 kJ/mol
# GULP energy per Si atom -5585.618643 kJ/mol
# Density = 2.315969 g / cm^3
# Si number density = 23.212522 Si / 1000 Ang^3
#
#
#
# Elastic Constant Matrix: (Units=GPa)
#
#
# Indices 1 2 3 4 5 6 
#
# 1 161.4345 5.9120 34.6775 0.0000 32.1778 0.0000
# 2 5.9120 49.7481 -1.1948 0.0000 4.9691 0.0000
# 3 34.6775 -1.1948 53.5971 0.0000 24.7186 0.0000
# 4 0.0000 0.0000 0.0000 12.5862 0.0000 -1.3136
# 5 32.1778 4.9691 24.7186 0.0000 28.5243 0.0000
# 6 0.0000 0.0000 0.0000 -1.3136 0.0000 12.4417
#
#
#
# Elastic Compliance Matrix: (Units=1/GPa)
#
#
# Indices 1 2 3 4 5 6 
#
# 1 0.008087 -0.000248 -0.001750 0.000000 -0.007563 0.000000
# 2 -0.000248 0.020866 0.003620 0.000000 -0.006492 0.000000
# 3 -0.001750 0.003620 0.032067 0.000000 -0.026445 0.000000
# 4 0.000000 0.000000 0.000000 0.080338 0.000000 0.008482
# 5 -0.007563 -0.006492 -0.026445 0.000000 0.067638 0.000000
# 6 0.000000 0.000000 0.000000 0.008482 0.000000 0.081270
#
#
# Mechanical properties :
#
#
# Convention : Reuss Voigt Hill
#
# Bulk Modulus (GPa) = 15.56070 38.17435 26.86753
# Shear Modulus (GPa) = 16.21048 25.73609 20.97329
#
# Velocity S-wave (km/s) = 2.64550 3.33335 3.00914
# Velocity P-wave (km/s) = 4.00621 5.59431 4.86549
#
# Compressibility (1/GPa) = 0.06426444
#
# Stress axis : x y z
#
# Youngs Moduli (GPa) = 123.65625 47.92461 31.18498
#
# Poissons Ratio (x) = 0.01187 0.05456
# Poissons Ratio (y) = 0.03062 -0.11287
# Poissons Ratio (z) = 0.21635 -0.17346
#
# Static dielectric constant tensor:
#      x y z
#    x 1.856510 0.000000 0.044470 
#    y 0.000000 1.850790 0.000000 
#    z 0.044470 0.000000 1.911770 
# 
# From -- ./inp_files/359699.got.cif
#   From: 2010.05.17/outbox.cif.g08.bks.cpg/sg12_180_cif.got.tgz:359699.got - 2010.06.03 13:09:07.
