data_PCOD9198798
_publ_section_title
;
Structure prediction by ZEFSAII (Michael W. Deem and Ramdas Pophale) SiO2 
 PCOD9198798
Probable space group: C 2/M
;
_chemical_formula_sum "Si O2"
_cell_formula_units_Z 48
_cell_length_a 9.363785
_cell_length_b 15.427875
_cell_length_c 19.138593
_cell_angle_alpha 90.000000
_cell_angle_beta 126.336438
_cell_angle_gamma 90.000000
_cell_volume 2227.208767
_symmetry_space_group_name_H-M "C 2/M"
_symmetry_group_IT_number 12
_symmetry_cell_setting 'monoclinic'
loop_
_space_group_symop_operation_xyz
x,y,z
-x,y,-z
-x,-y,-z
x,-y,z
1/2+x,1/2+y,z
1/2-x,1/2+y,-z
1/2-x,1/2-y,-z
1/2+x,1/2-y,z
loop_
_atom_site_type_symbol
_atom_site_label
_atom_site_fract_x
_atom_site_fract_y
_atom_site_fract_z
Si Si1 0.847455 0.895432 0.898859
Si Si2 0.847493 0.099298 0.513279
Si Si3 0.051456 0.674427 0.335954
Si Si4 0.570619 0.598592 0.707362
Si Si5 0.545109 0.096163 0.196399
Si Si6 0.148254 0.822740 0.250338
O O1 0.653033 0.867976 0.872119
O O2 0.886541 0.836987 0.841993
O O3 0.834526 0.000000 0.877946
O O4 0.000000 0.885570 0.000000
O O5 0.697509 0.159761 0.437045
O O6 0.946517 0.136337 0.610210
O O7 0.000000 0.093652 0.500000
O O8 0.782184 0.000000 0.508277
O O9 0.060720 0.593350 0.285258
O O10 0.078010 0.747773 0.283141
O O11 0.860072 0.677908 0.315619
O O12 0.603812 0.500000 0.693036
O O13 0.767795 0.637858 0.773974
O O14 0.455578 0.598770 0.743281
O O15 0.541075 0.000000 0.163808
#
# Coordination Sequence:
#
# PCOD9198798 Si02
#       6
#     8   8   8   8   8   8
#     4   9  19  39  67  94 118 148 191 244 299 357
#     4  10  20  36  60  86 116 156 205 248 285 338
#     4  11  22  37  55  82 118 158 200 239 292 345
#     4  10  20  36  58  85 117 157 200 246 293 342
#     4   9  17  34  60  85 114 153 194 237 293 351
#     4  11  24  39  57  85 121 158 199 243 297 357
#
# _framework density 21.551639000000002
#
# number of rings (size 3 to 8) (size 9 to 14) (size 15 to 20)
#    0.000    2.000    1.667    2.000    0.000    3.333 
#    0.000    5.833    0.000    4.000    0.000    0.000 
#    0.000    0.667    0.000    0.000    0.000    0.000 
#
# Total GULP energy -133601.813728 kJ/mol
# GULP energy per Si atom -5566.742239 kJ/mol
# Density = 2.150259 g / cm^3
# Si number density = 21.551639 Si / 1000 Ang^3
#
#
#
# Elastic Constant Matrix: (Units=GPa)
#
#
# Indices 1 2 3 4 5 6 
#
# 1 177.1160 26.5088 75.5987 0.0000 24.1185 0.0000
# 2 26.5088 76.3787 33.0731 0.0000 5.6986 0.0000
# 3 75.5987 33.0731 149.1180 0.0000 29.8747 0.0000
# 4 0.0000 0.0000 0.0000 27.3482 0.0000 4.1714
# 5 24.1185 5.6986 29.8747 0.0000 29.3701 0.0000
# 6 0.0000 0.0000 0.0000 4.1714 0.0000 40.9476
#
#
#
# Elastic Compliance Matrix: (Units=1/GPa)
#
#
# Indices 1 2 3 4 5 6 
#
# 1 0.007470 -0.001093 -0.002962 0.000000 -0.002910 0.000000
# 2 -0.001093 0.014651 -0.002896 0.000000 0.001000 0.000000
# 3 -0.002962 -0.002896 0.010362 0.000000 -0.007546 0.000000
# 4 0.000000 0.000000 0.000000 0.037143 0.000000 -0.003784
# 5 -0.002910 0.001000 -0.007546 0.000000 0.043919 0.000000
# 6 0.000000 0.000000 0.000000 -0.003784 0.000000 0.024807
#
#
# Mechanical properties :
#
#
# Convention : Reuss Voigt Hill
#
# Bulk Modulus (GPa) = 53.81643 74.77487 64.29565
# Shear Modulus (GPa) = 31.55647 37.36199 34.45923
#
# Velocity S-wave (km/s) = 3.83067 4.16817 4.00298
# Velocity P-wave (km/s) = 6.67761 7.61156 7.15983
#
# Compressibility (1/GPa) = 0.01858169
#
# Stress axis : x y z
#
# Youngs Moduli (GPa) = 133.86909 68.25326 96.51040
#
# Poissons Ratio (x) = 0.07460 0.28584
# Poissons Ratio (y) = 0.14633 0.27948
# Poissons Ratio (z) = 0.39648 0.19765
#
# Static dielectric constant tensor:
#      x y z
#    x 1.776010 0.000000 0.024620 
#    y 0.000000 2.079330 0.000000 
#    z 0.024620 0.000000 1.750950 
# 
# From -- ./inp_files/256728.got.cif
#   From: 2010.05.17/outbox.cif.g08.bks.cpg/sg12_129_cif.got.tgz:256728.got - 2010.06.03 13:09:07.
