data_PCOD9198475
_publ_section_title
;
Structure prediction by ZEFSAII (Michael W. Deem and Ramdas Pophale) SiO2 
 PCOD9198475
Probable space group: C 2/M
;
_chemical_formula_sum "Si O2"
_cell_formula_units_Z 56
_cell_length_a 34.416277
_cell_length_b 8.755935
_cell_length_c 11.223451
_cell_angle_alpha 90.000000
_cell_angle_beta 59.376778
_cell_angle_gamma 90.000000
_cell_volume 2910.460402
_symmetry_space_group_name_H-M "C 2/M"
_symmetry_group_IT_number 12
_symmetry_cell_setting 'monoclinic'
loop_
_space_group_symop_operation_xyz
x,y,z
-x,y,-z
-x,-y,-z
x,-y,z
1/2+x,1/2+y,z
1/2-x,1/2+y,-z
1/2-x,1/2-y,-z
1/2+x,1/2-y,z
loop_
_atom_site_type_symbol
_atom_site_label
_atom_site_fract_x
_atom_site_fract_y
_atom_site_fract_z
Si Si1 0.993703 0.184106 0.374102
Si Si2 0.217253 0.818066 0.772572
Si Si3 0.100458 0.815887 0.595651
Si Si4 0.808289 0.182494 0.687507
Si Si5 0.918430 0.682274 0.880795
Si Si6 0.369944 0.817115 0.201931
Si Si7 0.323322 0.817190 0.921541
O O1 0.946057 0.234526 0.393323
O O2 0.000000 0.238913 0.500000
O O3 0.036068 0.237755 0.230521
O O4 0.993228 0.000000 0.377250
O O5 0.266898 0.749895 0.676750
O O6 0.179235 0.756097 0.742328
O O7 0.218365 0.000000 0.768327
O O8 0.201624 0.759213 0.927675
O O9 0.143742 0.779524 0.446625
O O10 0.107953 0.740191 0.711639
O O11 0.099134 0.000000 0.611579
O O12 0.807138 0.252981 0.821381
O O13 0.803854 0.000000 0.702014
O O14 0.925250 0.500000 0.869822
O O15 0.876612 0.716107 0.857491
O O16 0.900530 0.726587 0.039806
O O17 0.365332 0.000000 0.207920
O O18 0.316940 0.000000 0.937972
#
# Coordination Sequence:
#
# PCOD9198475 Si02
#       7
#     8   8   8   8   8   8   8
#     4  10  21  38  60  87 117 148 185 229 279 336
#     4  11  22  37  59  85 114 149 190 235 286 341
#     4  10  23  40  58  83 114 150 193 237 282 336
#     4  11  22  37  57  82 115 153 193 237 285 336
#     4   9  20  37  58  84 113 148 187 231 282 335
#     4  10  22  41  61  83 113 148 191 237 282 337
#     4  10  20  36  57  85 119 151 190 235 283 340
#
# _framework density 19.240942
#
# number of rings (size 3 to 8) (size 9 to 14) (size 15 to 20)
#    0.000    1.857    0.000    4.714    0.000    7.714 
#    0.000    2.857    0.000    0.000    0.000    0.000 
#    0.000    0.000    0.000    0.000    0.000    0.000 
#
# Total GULP energy -156504.219363 kJ/mol
# GULP energy per Si atom -5589.436406 kJ/mol
# Density = 1.919715 g / cm^3
# Si number density = 19.240942 Si / 1000 Ang^3
#
#
#
# Elastic Constant Matrix: (Units=GPa)
#
#
# Indices 1 2 3 4 5 6 
#
# 1 174.8839 51.0093 61.1183 0.0000 -8.4722 0.0000
# 2 51.0093 48.9361 25.6591 0.0000 -8.0352 0.0000
# 3 61.1183 25.6591 33.7101 0.0000 -8.3062 0.0000
# 4 0.0000 0.0000 0.0000 28.0803 0.0000 -3.0794
# 5 -8.4722 -8.0352 -8.3062 0.0000 37.9433 0.0000
# 6 0.0000 0.0000 0.0000 -3.0794 0.0000 33.6055
#
#
#
# Elastic Compliance Matrix: (Units=1/GPa)
#
#
# Indices 1 2 3 4 5 6 
#
# 1 0.016109 -0.002638 -0.027958 0.000000 -0.003082 0.000000
# 2 -0.002638 0.034534 -0.020978 0.000000 0.002132 0.000000
# 3 -0.027958 -0.020978 0.099030 0.000000 0.010994 0.000000
# 4 0.000000 0.000000 0.000000 0.035974 0.000000 0.003296
# 5 -0.003082 0.002132 0.010994 0.000000 0.028525 0.000000
# 6 0.000000 0.000000 0.000000 0.003296 0.000000 0.030059
#
#
# Mechanical properties :
#
#
# Convention : Reuss Voigt Hill
#
# Bulk Modulus (GPa) = 21.49351 59.23372 40.36362
# Shear Modulus (GPa) = 13.77839 27.90874 20.84357
#
# Velocity S-wave (km/s) = 2.67890 3.81266 3.29491
# Velocity P-wave (km/s) = 4.55672 7.08759 5.95809
#
# Compressibility (1/GPa) = 0.04652567
#
# Stress axis : x y z
#
# Youngs Moduli (GPa) = 62.07779 28.95666 10.09795
#
# Poissons Ratio (x) = 0.07639 0.28231
# Poissons Ratio (y) = 0.16377 0.21184
# Poissons Ratio (z) = 1.73554 0.60746
#
# Static dielectric constant tensor:
#      x y z
#    x 1.664260 0.000000 -0.008210 
#    y 0.000000 1.644300 0.000000 
#    z -0.008210 0.000000 1.652920 
# 
# From -- ./inp_files/187195.got.cif
#   From: 2010.05.17/outbox.cif.g08.bks.cpg/sg12_94_cif.got.tgz:187195.got - 2010.06.03 13:09:07.
