data_PCOD9198855
_publ_section_title
;
Structure prediction by ZEFSAII (Michael W. Deem and Ramdas Pophale) SiO2 
 PCOD9198855
Probable space group: C 2/M
;
_chemical_formula_sum "Si O2"
_cell_formula_units_Z 60
_cell_length_a 27.813952
_cell_length_b 14.170710
_cell_length_c 24.504308
_cell_angle_alpha 90.000000
_cell_angle_beta 162.089673
_cell_angle_gamma 90.000000
_cell_volume 2970.171995
_symmetry_space_group_name_H-M "C 2/M"
_symmetry_group_IT_number 12
_symmetry_cell_setting 'monoclinic'
loop_
_space_group_symop_operation_xyz
x,y,z
-x,y,-z
-x,-y,-z
x,-y,z
1/2+x,1/2+y,z
1/2-x,1/2+y,-z
1/2-x,1/2-y,-z
1/2+x,1/2-y,z
loop_
_atom_site_type_symbol
_atom_site_label
_atom_site_fract_x
_atom_site_fract_y
_atom_site_fract_z
Si Si1 0.500000 0.659059 0.500000
Si Si2 0.452194 0.793563 0.814873
Si Si3 0.340503 0.392114 0.522001
Si Si4 0.764492 0.395204 0.081616
Si Si5 0.635435 0.105492 0.099258
Si Si6 0.394949 0.394625 0.706088
Si Si7 0.842574 0.606861 0.040109
Si Si8 0.575129 0.288763 0.700552
O O1 0.322858 0.612990 0.314886
O O2 0.485043 0.710829 0.425865
O O3 0.324810 0.874900 0.684992
O O4 0.372297 0.691730 0.723090
O O5 0.529765 0.817614 0.840237
O O6 0.582743 0.810510 0.001534
O O7 0.396696 0.500000 0.575505
O O8 0.326290 0.376411 0.571593
O O9 0.449499 0.316572 0.610498
O O10 0.828980 0.500000 0.163069
O O11 0.783464 0.378603 0.037464
O O12 0.847453 0.310527 0.201805
O O13 0.582094 0.397046 0.899207
O O14 0.616991 0.000000 0.055245
O O15 0.500000 0.111105 0.000000
O O16 0.343952 0.500000 0.668541
O O17 0.900742 0.500000 0.098442
O O18 0.700217 0.627192 0.845465
#
# Coordination Sequence:
#
# PCOD9198855 Si02
#       8
#     4   8   8   8   8   8   8   8
#     4  12  25  38  61  86 120 164 213 246 305 360
#     4  12  22  38  58  84 118 157 194 244 299 354
#     4  11  23  37  57  86 123 157 190 239 303 366
#     4  10  20  37  61  88 117 153 199 251 303 352
#     4  11  24  41  60  85 120 158 201 250 302 364
#     4  10  20  36  58  87 117 153 197 242 296 358
#     4  11  20  33  59  87 115 149 191 240 294 360
#     4  12  22  39  59  85 118 157 202 245 296 356
#
# _framework density 20.200849999999999
#
# number of rings (size 3 to 8) (size 9 to 14) (size 15 to 20)
#    0.000    0.933    4.000    4.200    0.000    2.667 
#    0.000    2.333    0.000    1.200    0.000    0.000 
#    0.000    0.000    0.000    0.000    0.000    0.000 
#
# Total GULP energy -167246.849399 kJ/mol
# GULP energy per Si atom -5574.894980 kJ/mol
# Density = 2.015487 g / cm^3
# Si number density = 20.200850 Si / 1000 Ang^3
#
#
#
# Elastic Constant Matrix: (Units=GPa)
#
#
# Indices 1 2 3 4 5 6 
#
# 1 50.8915 30.8676 11.5329 -0.0015 -13.6098 -0.0009
# 2 30.8676 109.0390 28.6506 0.0017 -21.6928 0.0006
# 3 11.5329 28.6506 88.4978 0.0025 -7.4011 0.0027
# 4 -0.0015 0.0017 0.0025 25.3011 -0.0002 0.1993
# 5 -13.6098 -21.6928 -7.4011 -0.0002 35.8660 0.0003
# 6 -0.0009 0.0006 0.0027 0.1993 0.0003 13.4395
#
#
#
# Elastic Compliance Matrix: (Units=1/GPa)
#
#
# Indices 1 2 3 4 5 6 
#
# 1 0.024831 -0.005626 -0.000927 0.000002 0.005828 0.000002
# 2 -0.005626 0.012486 -0.002906 -0.000001 0.004817 0.000000
# 3 -0.000927 -0.002906 0.012399 -0.000001 0.000449 -0.000002
# 4 0.000002 -0.000001 -0.000001 0.039529 0.000000 -0.000586
# 5 0.005828 0.004817 0.000449 0.000000 0.033099 -0.000001
# 6 0.000002 0.000000 -0.000002 -0.000586 -0.000001 0.074416
#
#
# Mechanical properties :
#
#
# Convention : Reuss Voigt Hill
#
# Bulk Modulus (GPa) = 32.47104 43.39227 37.93166
# Shear Modulus (GPa) = 22.12938 26.74646 24.43792
#
# Velocity S-wave (km/s) = 3.31338 3.64266 3.48191
# Velocity P-wave (km/s) = 5.54499 6.26251 5.91464
#
# Compressibility (1/GPa) = 0.03079667
#
# Stress axis : x y z
#
# Youngs Moduli (GPa) = 40.27242 80.09169 80.65217
#
# Poissons Ratio (x) = 0.45062 0.07477
# Poissons Ratio (y) = 0.22658 0.23438
# Poissons Ratio (z) = 0.03734 0.23275
#
# Static dielectric constant tensor:
#      x y z
#    x 1.758360 0.000000 0.059050 
#    y 0.000000 1.720290 0.000000 
#    z 0.059050 0.000000 1.763310 
# 
# From -- ./inp_files/352158.got.cif
#   From: 2010.05.17/outbox.cif.g08.bks.cpg/sg12_177_cif.got.tgz:352158.got - 2010.06.03 13:09:07.
