data_PCOD9198930
_publ_section_title
;
Structure prediction by ZEFSAII (Michael W. Deem and Ramdas Pophale) SiO2 
 PCOD9198930
Probable space group: C 2/M
;
_chemical_formula_sum "Si O2"
_cell_formula_units_Z 42
_cell_length_a 20.695993
_cell_length_b 18.570745
_cell_length_c 16.656037
_cell_angle_alpha 90.000000
_cell_angle_beta 20.121145
_cell_angle_gamma 90.000000
_cell_volume 2202.183973
_symmetry_space_group_name_H-M "C 2/M"
_symmetry_group_IT_number 12
_symmetry_cell_setting 'monoclinic'
loop_
_space_group_symop_operation_xyz
x,y,z
-x,y,-z
-x,-y,-z
x,-y,z
1/2+x,1/2+y,z
1/2-x,1/2+y,-z
1/2-x,1/2-y,-z
1/2+x,1/2-y,z
loop_
_atom_site_type_symbol
_atom_site_label
_atom_site_fract_x
_atom_site_fract_y
_atom_site_fract_z
Si Si1 0.181868 0.330757 0.563025
Si Si2 0.500000 0.500000 0.000000
Si Si3 0.201346 0.666050 0.065275
Si Si4 0.456319 0.583595 0.640816
Si Si5 0.127794 0.419526 0.772969
Si Si6 0.058778 0.919749 0.092072
O O1 0.250000 0.250000 0.500000
O O2 0.088151 0.360098 0.753609
O O3 0.360331 0.381040 0.338224
O O4 0.022931 0.338746 0.681159
O O5 0.568085 0.438241 0.986886
O O6 0.306994 0.625916 0.868474
O O7 0.284338 0.629233 0.048706
O O8 0.250000 0.750000 0.000000
O O9 0.500000 0.611397 0.500000
O O10 0.396555 0.500000 0.701953
O O11 0.655471 0.585793 0.453991
O O12 0.094476 0.500000 0.778791
O O13 0.000000 0.411417 0.000000
O O14 0.060906 0.000000 0.129159
#
# Coordination Sequence:
#
# PCOD9198930 Si02
#       6
#     8   2   8   8   8   8
#     4  12  23  40  65  98 135 179 222 279 353 410
#     4   8  24  48  74  96 136 190 230 304 338 392
#     4  12  23  40  67  99 135 179 223 281 353 412
#     4  10  20  36  59  94 133 167 214 269 328 409
#     4  10  20  36  58  91 130 169 214 261 325 404
#     4  10  22  46  69  98 133 178 238 282 344 412
#
# _framework density 19.071975999999999
#
# number of rings (size 3 to 8) (size 9 to 14) (size 15 to 20)
#    0.571    0.762    3.810    2.286    0.000    4.571 
#    1.714    3.810    0.000    0.000    0.000    0.000 
#    0.000    0.000    0.000    0.000    0.000    0.000 
#
# Total GULP energy -116902.044478 kJ/mol
# GULP energy per Si atom -5566.764023 kJ/mol
# Density = 1.902857 g / cm^3
# Si number density = 19.071976 Si / 1000 Ang^3
#
#
#
# Elastic Constant Matrix: (Units=GPa)
#
#
# Indices 1 2 3 4 5 6 
#
# 1 130.1580 54.7260 30.5197 -0.0059 -15.8998 0.0052
# 2 54.7260 127.5938 35.3208 -0.0097 -9.6022 0.0074
# 3 30.5197 35.3208 76.4347 -0.0070 -30.6320 0.0328
# 4 -0.0059 -0.0097 -0.0070 17.5514 0.0069 -13.6597
# 5 -15.8998 -9.6022 -30.6320 0.0069 37.3492 -0.0019
# 6 0.0052 0.0074 0.0328 -13.6597 -0.0019 18.0493
#
#
#
# Elastic Compliance Matrix: (Units=1/GPa)
#
#
# Indices 1 2 3 4 5 6 
#
# 1 0.009804 -0.003665 -0.001379 0.000002 0.002100 0.000003
# 2 -0.003665 0.010424 -0.004327 0.000017 -0.002429 0.000018
# 3 -0.001379 -0.004327 0.022273 -0.000070 0.016568 -0.000090
# 4 0.000002 0.000017 -0.000070 0.138625 -0.000072 0.104912
# 5 0.002100 -0.002429 0.016568 -0.000072 0.040632 -0.000080
# 6 0.000003 0.000018 -0.000090 0.104912 -0.000080 0.134801
#
#
# Mechanical properties :
#
#
# Convention : Reuss Voigt Hill
#
# Bulk Modulus (GPa) = 42.09098 63.92439 53.00769
# Shear Modulus (GPa) = 13.04725 28.83132 20.93929
#
# Velocity S-wave (km/s) = 2.61838 3.89229 3.31706
# Velocity P-wave (km/s) = 5.59095 7.33417 6.52107
#
# Compressibility (1/GPa) = 0.02375806
#
# Stress axis : x y z
#
# Youngs Moduli (GPa) = 101.99950 95.92846 44.89713
#
# Poissons Ratio (x) = 0.35159 0.06193
# Poissons Ratio (y) = 0.37384 0.19428
# Poissons Ratio (z) = 0.14069 0.41511
#
# Static dielectric constant tensor:
#      x y z
#    x 1.707490 -0.000010 -0.012830 
#    y -0.000010 1.592160 0.000040 
#    z -0.012830 0.000040 1.671100 
# 
# From -- ./inp_files/285134.got.cif
#   From: 2010.05.17/outbox.cif.g08.bks.cpg/sg12_143_cif.got.tgz:285134.got - 2010.06.03 13:09:07.
