data_PCOD9198540
_publ_section_title
;
Structure prediction by ZEFSAII (Michael W. Deem and Ramdas Pophale) SiO2 
 PCOD9198540
Probable space group: C 2/M
;
_chemical_formula_sum "Si O2"
_cell_formula_units_Z 56
_cell_length_a 11.591166
_cell_length_b 14.207273
_cell_length_c 18.340027
_cell_angle_alpha 90.000000
_cell_angle_beta 52.388981
_cell_angle_gamma 90.000000
_cell_volume 2392.530413
_symmetry_space_group_name_H-M "C 2/M"
_symmetry_group_IT_number 12
_symmetry_cell_setting 'monoclinic'
loop_
_space_group_symop_operation_xyz
x,y,z
-x,y,-z
-x,-y,-z
x,-y,z
1/2+x,1/2+y,z
1/2-x,1/2+y,-z
1/2-x,1/2-y,-z
1/2+x,1/2-y,z
loop_
_atom_site_type_symbol
_atom_site_label
_atom_site_fract_x
_atom_site_fract_y
_atom_site_fract_z
Si Si1 0.120730 0.397093 0.812799
Si Si2 0.325009 0.233242 0.082397
Si Si3 0.143971 0.892075 0.491740
Si Si4 0.421644 0.193696 0.323294
Si Si5 0.279058 0.104917 0.968315
Si Si6 0.076555 0.392332 0.397079
Si Si7 0.910367 0.102714 0.314427
O O1 0.189185 0.500000 0.798295
O O2 0.193071 0.314756 0.832109
O O3 0.106941 0.373846 0.733693
O O4 0.953511 0.402520 0.902764
O O5 0.266425 0.336513 0.085617
O O6 0.500000 0.237062 0.000000
O O7 0.247020 0.165590 0.052815
O O8 0.266456 0.816126 0.424630
O O9 0.103663 0.891235 0.592375
O O10 0.000000 0.876512 0.500000
O O11 0.195693 0.000000 0.456591
O O12 0.535382 0.161880 0.340219
O O13 0.468844 0.294359 0.272500
O O14 0.216953 0.000000 0.993535
O O15 0.021652 0.500000 0.409741
O O16 0.247515 0.395824 0.345019
O O17 0.000000 0.354561 0.500000
O O18 0.975183 0.000000 0.270525
#
# Coordination Sequence:
#
# PCOD9198540 Si02
#       7
#     8   8   8   8   8   8   8
#     4  10  21  37  57  85 116 148 189 237 286 334
#     4   9  18  35  60  88 119 153 188 223 272 337
#     4  10  21  37  57  83 112 143 191 249 302 353
#     4  12  23  35  61  83 111 149 200 241 297 348
#     4   9  18  35  61  89 119 153 190 229 270 328
#     4  10  20  36  58  80 102 134 186 243 288 342
#     4  10  23  39  55  78 109 145 191 245 297 347
#
# _framework density 23.406181
#
# number of rings (size 3 to 8) (size 9 to 14) (size 15 to 20)
#    0.000    2.000    1.429    2.143    2.000    3.143 
#    0.000    2.143    0.000    3.429    0.000    0.000 
#    0.000    0.000    0.000    0.000    0.000    0.000 
#
# Total GULP energy -156462.105859 kJ/mol
# GULP energy per Si atom -5587.932352 kJ/mol
# Density = 2.335291 g / cm^3
# Si number density = 23.406181 Si / 1000 Ang^3
#
#
#
# Elastic Constant Matrix: (Units=GPa)
#
#
# Indices 1 2 3 4 5 6 
#
# 1 133.5771 37.1846 9.8649 0.0000 24.6381 0.0000
# 2 37.1846 142.4974 -0.1179 0.0000 8.8309 0.0000
# 3 9.8649 -0.1179 28.5699 0.0000 14.2724 0.0000
# 4 0.0000 0.0000 0.0000 20.0961 0.0000 4.7984
# 5 24.6381 8.8309 14.2724 0.0000 29.4116 0.0000
# 6 0.0000 0.0000 0.0000 4.7984 0.0000 25.9227
#
#
#
# Elastic Compliance Matrix: (Units=1/GPa)
#
#
# Indices 1 2 3 4 5 6 
#
# 1 0.009387 -0.001984 0.000503 0.000000 -0.007512 0.000000
# 2 -0.001984 0.007616 0.001358 0.000000 -0.001284 0.000000
# 3 0.000503 0.001358 0.046527 0.000000 -0.023407 0.000000
# 4 0.000000 0.000000 0.000000 0.052062 0.000000 -0.009637
# 5 -0.007512 -0.001284 -0.023407 0.000000 0.052037 0.000000
# 6 0.000000 0.000000 0.000000 -0.009637 0.000000 0.040360
#
#
# Mechanical properties :
#
#
# Convention : Reuss Voigt Hill
#
# Bulk Modulus (GPa) = 15.80156 44.27862 30.04009
# Shear Modulus (GPa) = 21.80277 32.26695 27.03486
#
# Velocity S-wave (km/s) = 3.05535 3.71693 3.40226
# Velocity P-wave (km/s) = 4.38322 6.11386 5.31939
#
# Compressibility (1/GPa) = 0.06328487
#
# Stress axis : x y z
#
# Youngs Moduli (GPa) = 106.53136 131.30304 21.49294
#
# Poissons Ratio (x) = 0.26045 -0.01082
# Poissons Ratio (y) = 0.21131 -0.02918
# Poissons Ratio (z) = -0.05362 -0.17828
#
# Static dielectric constant tensor:
#      x y z
#    x 1.843190 0.000000 -0.030300 
#    y 0.000000 1.972980 0.000000 
#    z -0.030300 0.000000 1.915190 
# 
# From -- ./inp_files/263260.got.cif
#   From: 2010.05.17/outbox.cif.g08.bks.cpg/sg12_132_cif.got.tgz:263260.got - 2010.06.03 13:09:07.
