data_PCOD9198737
_publ_section_title
;
Structure prediction by ZEFSAII (Michael W. Deem and Ramdas Pophale) SiO2 
 PCOD9198737
Probable space group: C 2/M
;
_chemical_formula_sum "Si O2"
_cell_formula_units_Z 48
_cell_length_a 13.720503
_cell_length_b 9.258420
_cell_length_c 28.170097
_cell_angle_alpha 90.000000
_cell_angle_beta 138.248333
_cell_angle_gamma 90.000000
_cell_volume 2382.903570
_symmetry_space_group_name_H-M "C 2/M"
_symmetry_group_IT_number 12
_symmetry_cell_setting 'monoclinic'
loop_
_space_group_symop_operation_xyz
x,y,z
-x,y,-z
-x,-y,-z
x,-y,z
1/2+x,1/2+y,z
1/2-x,1/2+y,-z
1/2-x,1/2-y,-z
1/2+x,1/2-y,z
loop_
_atom_site_type_symbol
_atom_site_label
_atom_site_fract_x
_atom_site_fract_y
_atom_site_fract_z
Si Si1 0.211568 0.672948 0.584726
Si Si2 0.840339 0.773943 0.954118
Si Si3 0.706276 0.328340 0.166821
Si Si4 0.964993 0.832529 0.309383
Si Si5 0.936093 0.348949 0.083876
Si Si6 0.462626 0.670672 0.553619
O O1 0.185037 0.500000 0.575427
O O2 0.379867 0.696919 0.659441
O O3 0.168265 0.737132 0.517431
O O4 0.104926 0.760570 0.580277
O O5 0.782118 0.747497 0.880072
O O6 0.706323 0.844662 0.934405
O O7 0.886345 0.657523 0.010603
O O8 0.000000 0.844829 0.000000
O O9 0.712738 0.500000 0.161351
O O10 0.837237 0.272542 0.246837
O O11 0.549077 0.281661 0.131138
O O12 0.007289 0.817076 0.379870
O O13 0.923477 0.000000 0.286006
O O14 0.015366 0.500000 0.121539
O O15 0.443580 0.500000 0.535864
#
# Coordination Sequence:
#
# PCOD9198737 Si02
#       6
#     8   8   8   8   8   8
#     4  10  20  36  59  86 113 145 186 236 284 330
#     4   9  21  38  61  87 113 144 185 228 275 330
#     4  11  24  39  57  82 115 152 188 230 280 334
#     4  10  23  40  57  80 114 152 190 231 279 335
#     4  10  21  38  62  87 113 147 186 231 279 329
#     4  10  20  36  58  84 113 148 188 232 281 336
#
# _framework density 20.143492999999999
#
# number of rings (size 3 to 8) (size 9 to 14) (size 15 to 20)
#    0.000    2.000    0.000    3.500    0.000   17.000 
#    0.000    3.333    0.000    0.000    0.000    0.000 
#    0.000    0.000    0.000    0.000    0.000    0.000 
#
# Total GULP energy -133633.832065 kJ/mol
# GULP energy per Si atom -5568.076336 kJ/mol
# Density = 2.009765 g / cm^3
# Si number density = 20.143493 Si / 1000 Ang^3
#
#
#
# Elastic Constant Matrix: (Units=GPa)
#
#
# Indices 1 2 3 4 5 6 
#
# 1 102.2437 26.4930 25.1215 0.0000 12.5689 0.0000
# 2 26.4930 68.8686 36.7182 0.0000 13.5481 0.0000
# 3 25.1215 36.7182 84.1214 0.0000 18.5498 0.0000
# 4 0.0000 0.0000 0.0000 43.5177 0.0000 -18.6317
# 5 12.5689 13.5481 18.5498 0.0000 21.6466 0.0000
# 6 0.0000 0.0000 0.0000 -18.6317 0.0000 32.7675
#
#
#
# Elastic Compliance Matrix: (Units=1/GPa)
#
#
# Indices 1 2 3 4 5 6 
#
# 1 0.011306 -0.002950 -0.001293 0.000000 -0.003611 0.000000
# 2 -0.002950 0.020320 -0.006858 0.000000 -0.005128 0.000000
# 3 -0.001293 -0.006858 0.017453 0.000000 -0.009914 0.000000
# 4 0.000000 0.000000 0.000000 0.030373 0.000000 0.017270
# 5 -0.003611 -0.005128 -0.009914 0.000000 0.059999 0.000000
# 6 0.000000 0.000000 0.000000 0.017270 0.000000 0.040338
#
#
# Mechanical properties :
#
#
# Convention : Reuss Voigt Hill
#
# Bulk Modulus (GPa) = 37.20350 47.98877 42.59614
# Shear Modulus (GPa) = 23.70227 30.71308 27.20767
#
# Velocity S-wave (km/s) = 3.43399 3.90900 3.67916
# Velocity P-wave (km/s) = 5.85084 6.65198 6.26423
#
# Compressibility (1/GPa) = 0.02687919
#
# Stress axis : x y z
#
# Youngs Moduli (GPa) = 88.44529 49.21149 57.29664
#
# Poissons Ratio (x) = 0.14517 0.07406
# Poissons Ratio (y) = 0.26091 0.39293
# Poissons Ratio (z) = 0.11432 0.33748
#
# Static dielectric constant tensor:
#      x y z
#    x 1.765630 0.000000 -0.004660 
#    y 0.000000 1.691850 0.000000 
#    z -0.004660 0.000000 1.703940 
# 
# From -- ./inp_files/375164.got.cif
#   From: 2010.05.17/outbox.cif.g08.bks.cpg/sg12_188_cif.got.tgz:375164.got - 2010.06.03 13:09:07.
