data_PCOD9198835
_publ_section_title
;
Structure prediction by ZEFSAII (Michael W. Deem and Ramdas Pophale) SiO2 
 PCOD9198835
Probable space group: C 2/M
;
_chemical_formula_sum "Si O2"
_cell_formula_units_Z 40
_cell_length_a 21.581954
_cell_length_b 8.932852
_cell_length_c 10.734564
_cell_angle_alpha 90.000000
_cell_angle_beta 105.410904
_cell_angle_gamma 90.000000
_cell_volume 1995.090263
_symmetry_space_group_name_H-M "C 2/M"
_symmetry_group_IT_number 12
_symmetry_cell_setting 'monoclinic'
loop_
_space_group_symop_operation_xyz
x,y,z
-x,y,-z
-x,-y,-z
x,-y,z
1/2+x,1/2+y,z
1/2-x,1/2+y,-z
1/2-x,1/2-y,-z
1/2+x,1/2-y,z
loop_
_atom_site_type_symbol
_atom_site_label
_atom_site_fract_x
_atom_site_fract_y
_atom_site_fract_z
Si Si1 0.487164 0.318989 0.634344
Si Si2 0.806763 0.323250 0.948839
Si Si3 0.749637 0.166730 0.689701
Si Si4 0.346481 0.668023 0.511715
Si Si5 0.945969 0.181564 0.075988
O O1 0.500000 0.266037 0.500000
O O2 0.494315 0.500000 0.637547
O O3 0.412102 0.284270 0.612268
O O4 0.529109 0.267823 0.773941
O O5 0.809674 0.500000 0.970491
O O6 0.784132 0.282901 0.797737
O O7 0.750000 0.250000 0.000000
O O8 0.876397 0.250819 0.011011
O O9 0.680079 0.224888 0.609618
O O10 0.792882 0.157870 0.589215
O O11 0.746896 0.000000 0.743907
O O12 0.356631 0.500000 0.464889
O O13 0.940176 0.000000 0.072166
O O14 0.000000 0.219116 0.000000
#
# Coordination Sequence:
#
# PCOD9198835 Si02
#       5
#     8   8   8   8   8
#     4   9  18  32  55  86 117 153 198 243 293 356
#     4  12  26  42  62  89 123 162 209 262 318 372
#     4  10  20  36  58  86 119 156 200 247 304 367
#     4   9  18  34  58  87 119 157 198 243 294 359
#     4  10  21  40  65  92 125 166 208 252 307 375
#
# _framework density 20.049219000000001
#
# number of rings (size 3 to 8) (size 9 to 14) (size 15 to 20)
#    0.000    2.000    0.000    3.600    2.800    4.400 
#    0.000    1.000    0.000    1.200    0.000    0.000 
#    0.000    0.000    0.000    0.000    0.000    0.000 
#
# Total GULP energy -111555.512030 kJ/mol
# GULP energy per Si atom -5577.775601 kJ/mol
# Density = 2.000359 g / cm^3
# Si number density = 20.049219 Si / 1000 Ang^3
#
#
#
# Elastic Constant Matrix: (Units=GPa)
#
#
# Indices 1 2 3 4 5 6 
#
# 1 96.1252 46.9486 39.1221 0.0000 14.8208 0.0000
# 2 46.9486 68.0861 30.7525 0.0000 3.7619 0.0000
# 3 39.1221 30.7525 109.0689 0.0000 17.0037 0.0000
# 4 0.0000 0.0000 0.0000 22.6706 0.0000 10.7099
# 5 14.8208 3.7619 17.0037 0.0000 29.4236 0.0000
# 6 0.0000 0.0000 0.0000 10.7099 0.0000 26.8712
#
#
#
# Elastic Compliance Matrix: (Units=1/GPa)
#
#
# Indices 1 2 3 4 5 6 
#
# 1 0.017509 -0.010691 -0.002312 0.000000 -0.006116 0.000000
# 2 -0.010691 0.023370 -0.003438 0.000000 0.004384 0.000000
# 3 -0.002312 -0.003438 0.011778 0.000000 -0.005202 0.000000
# 4 0.000000 0.000000 0.000000 0.054342 0.000000 -0.021659
# 5 -0.006116 0.004384 -0.005202 0.000000 0.039513 0.000000
# 6 0.000000 0.000000 0.000000 -0.021659 0.000000 0.045847
#
#
# Mechanical properties :
#
#
# Convention : Reuss Voigt Hill
#
# Bulk Modulus (GPa) = 50.57021 56.32518 53.44770
# Shear Modulus (GPa) = 21.56732 26.22352 23.89542
#
# Velocity S-wave (km/s) = 3.28337 3.62049 3.45605
# Velocity P-wave (km/s) = 6.29697 6.75513 6.53007
#
# Compressibility (1/GPa) = 0.01977449
#
# Stress axis : x y z
#
# Youngs Moduli (GPa) = 57.11458 42.79058 84.90154
#
# Poissons Ratio (x) = 0.45746 0.19633
# Poissons Ratio (y) = 0.61059 0.29189
# Poissons Ratio (z) = 0.13207 0.14711
#
# Static dielectric constant tensor:
#      x y z
#    x -0.084570 0.000000 1.800440 
#    y 0.000000 1.713450 0.000000 
#    z 1.800440 0.000000 -0.114930 
# 
# From -- ./inp_files/162640.got.cif
#   From: 2010.05.17/outbox.cif.g08.bks.cpg/sg12_82_cif.got.tgz:162640.got - 2010.06.03 13:09:07.
