data_PCOD9198696
_publ_section_title
;
Structure prediction by ZEFSAII (Michael W. Deem and Ramdas Pophale) SiO2 
 PCOD9198696
Probable space group: C 2/M
;
_chemical_formula_sum "Si O2"
_cell_formula_units_Z 64
_cell_length_a 20.785299
_cell_length_b 8.707790
_cell_length_c 22.224541
_cell_angle_alpha 90.000000
_cell_angle_beta 61.736550
_cell_angle_gamma 90.000000
_cell_volume 3542.943875
_symmetry_space_group_name_H-M "C 2/M"
_symmetry_group_IT_number 12
_symmetry_cell_setting 'monoclinic'
loop_
_space_group_symop_operation_xyz
x,y,z
-x,y,-z
-x,-y,-z
x,-y,z
1/2+x,1/2+y,z
1/2-x,1/2+y,-z
1/2-x,1/2-y,-z
1/2+x,1/2-y,z
loop_
_atom_site_type_symbol
_atom_site_label
_atom_site_fract_x
_atom_site_fract_y
_atom_site_fract_z
Si Si1 0.024472 0.813522 0.554610
Si Si2 0.901949 0.682493 0.296321
Si Si3 0.327159 0.315552 0.444891
Si Si4 0.848249 0.315272 0.082092
Si Si5 0.407699 0.816567 0.922996
Si Si6 0.453291 0.314914 0.709074
Si Si7 0.320326 0.684814 0.850678
Si Si8 0.930801 0.818104 0.159173
O O1 0.105260 0.766748 0.541510
O O2 0.000000 0.756572 0.500000
O O3 0.968587 0.771785 0.633056
O O4 0.025469 0.000000 0.551472
O O5 0.896817 0.500000 0.301161
O O6 0.848351 0.756370 0.369223
O O7 0.890832 0.741139 0.233741
O O8 0.982967 0.736597 0.280427
O O9 0.325183 0.500000 0.445612
O O10 0.250000 0.250000 0.500000
O O11 0.854308 0.500000 0.087206
O O12 0.763164 0.271704 0.123712
O O13 0.894245 0.234311 0.113390
O O14 0.878184 0.278258 0.002475
O O15 0.351887 0.761030 0.896776
O O16 0.485553 0.738061 0.877983
O O17 0.416694 0.000000 0.915215
O O18 0.462972 0.500000 0.709496
O O19 0.375146 0.275965 0.771788
O O20 0.322576 0.500000 0.857502
O O21 0.928658 0.000000 0.166909
#
# Coordination Sequence:
#
# PCOD9198696 Si02
#       8
#     8   8   8   8   8   8   8   8
#     4   8  15  30  53  81 112 144 183 225 267 320
#     4  11  21  36  60  85 111 149 194 237 284 340
#     4  10  20  36  58  86 119 150 189 234 280 336
#     4  10  23  40  55  82 119 151 186 237 294 346
#     4  11  22  37  60  84 111 148 193 240 284 344
#     4   9  17  32  56  83 111 147 187 230 274 333
#     4  10  20  36  58  83 114 150 189 232 285 346
#     4  12  24  39  59  83 113 149 192 241 292 345
#
# _framework density 18.064074000000002
#
# number of rings (size 3 to 8) (size 9 to 14) (size 15 to 20)
#    0.000    1.875    1.250    4.500    0.000    3.000 
#    2.250    0.000    0.000    9.375    0.000    0.000 
#    0.000    0.000    0.000    0.000    0.000    0.000 
#
# Total GULP energy -178702.573011 kJ/mol
# GULP energy per Si atom -5584.455407 kJ/mol
# Density = 1.802296 g / cm^3
# Si number density = 18.064074 Si / 1000 Ang^3
#
#
#
# Elastic Constant Matrix: (Units=GPa)
#
#
# Indices 1 2 3 4 5 6 
#
# 1 25.6073 11.4278 13.3230 0.0000 -1.9879 -0.0008
# 2 11.4278 43.8209 28.6688 -0.0001 -4.8133 -0.0017
# 3 13.3230 28.6688 100.2828 0.0000 -3.9881 -0.0003
# 4 0.0000 -0.0001 0.0000 27.0158 0.0000 -1.3133
# 5 -1.9879 -4.8133 -3.9881 0.0000 32.9870 -0.0001
# 6 -0.0008 -0.0017 -0.0003 -1.3133 -0.0001 15.9338
#
#
#
# Elastic Compliance Matrix: (Units=1/GPa)
#
#
# Indices 1 2 3 4 5 6 
#
# 1 0.045058 -0.009540 -0.003222 0.000000 0.000934 0.000001
# 2 -0.009540 0.030418 -0.007310 0.000000 0.002980 0.000003
# 3 -0.003222 -0.007310 0.012500 0.000000 0.000250 -0.000001
# 4 0.000000 0.000000 0.000000 0.037164 0.000000 0.003063
# 5 0.000934 0.002980 0.000250 0.000000 0.030836 0.000001
# 6 0.000001 0.000003 -0.000001 0.003063 0.000001 0.063012
#
#
# Mechanical properties :
#
#
# Convention : Reuss Voigt Hill
#
# Bulk Modulus (GPa) = 20.90670 30.72780 25.81725
# Shear Modulus (GPa) = 18.17689 22.94007 20.55848
#
# Velocity S-wave (km/s) = 3.17558 3.56747 3.37721
# Velocity P-wave (km/s) = 5.00445 5.83237 5.43420
#
# Compressibility (1/GPa) = 0.04783156
#
# Stress axis : x y z
#
# Youngs Moduli (GPa) = 22.19384 32.87567 80.00319
#
# Poissons Ratio (x) = 0.31364 0.25774
# Poissons Ratio (y) = 0.21173 0.58481
# Poissons Ratio (z) = 0.07150 0.24032
#
# Static dielectric constant tensor:
#      x y z
#    x 1.591030 0.000000 0.000390 
#    y 0.000000 1.606720 0.000000 
#    z 0.000390 0.000000 1.621640 
# 
# From -- ./inp_files/319827.got.cif
#   From: 2010.05.17/outbox.cif.g08.bks.cpg/sg12_160_cif.got.tgz:319827.got - 2010.06.03 13:09:07.
