data_PCOD9198149
_publ_section_title
;
Structure prediction by ZEFSAII (Michael W. Deem and Ramdas Pophale) SiO2 
 PCOD9198149
Probable space group: C 2/M
;
_chemical_formula_sum "Si O2"
_cell_formula_units_Z 56
_cell_length_a 8.590881
_cell_length_b 24.472710
_cell_length_c 17.274650
_cell_angle_alpha 90.000000
_cell_angle_beta 139.625174
_cell_angle_gamma 90.000000
_cell_volume 2352.664903
_symmetry_space_group_name_H-M "C 2/M"
_symmetry_group_IT_number 12
_symmetry_cell_setting 'monoclinic'
loop_
_space_group_symop_operation_xyz
x,y,z
-x,y,-z
-x,-y,-z
x,-y,z
1/2+x,1/2+y,z
1/2-x,1/2+y,-z
1/2-x,1/2-y,-z
1/2+x,1/2-y,z
loop_
_atom_site_type_symbol
_atom_site_label
_atom_site_fract_x
_atom_site_fract_y
_atom_site_fract_z
Si Si1 0.209941 0.558724 0.694398
Si Si2 0.684815 0.580876 0.443405
Si Si3 0.831129 0.563256 0.770562
Si Si4 0.894439 0.736554 0.131464
Si Si5 0.652387 0.858950 0.787302
Si Si6 0.289892 0.168383 0.854644
Si Si7 0.221198 0.808406 0.525625
O O1 0.283137 0.500000 0.753244
O O2 0.279376 0.562302 0.631052
O O3 0.917230 0.562388 0.580133
O O4 0.307596 0.607104 0.784718
O O5 0.423201 0.562445 0.371520
O O6 0.685824 0.646232 0.446545
O O7 0.889573 0.500000 0.812341
O O8 0.032884 0.594548 0.796940
O O9 0.774035 0.605835 0.819482
O O10 0.917394 0.792979 0.187326
O O11 0.749999 0.690982 0.125887
O O12 0.126654 0.703642 0.189255
O O13 0.750000 0.750000 0.000000
O O14 0.450183 0.828003 0.660740
O O15 0.500000 0.168875 0.000000
O O16 0.250000 0.750000 0.500000
O O17 0.000000 0.809970 0.500000
#
# Coordination Sequence:
#
# PCOD9198149 Si02
#       7
#     8   8   8   8   8   8   8
#     4  10  20  36  56  80 116 157 198 239 283 340
#     4  10  21  37  53  81 114 157 202 235 284 343
#     4  11  21  36  57  82 114 152 196 239 282 344
#     4   9  19  37  58  82 113 144 186 239 293 352
#     4  10  22  36  56  84 112 152 194 236 291 344
#     4   9  20  37  58  85 112 144 186 239 297 348
#     4  11  24  37  53  80 118 151 190 235 288 342
#
# _framework density 23.802795
#
# number of rings (size 3 to 8) (size 9 to 14) (size 15 to 20)
#    0.000    2.000    1.429    2.143    6.000    1.429 
#    0.000    2.143    0.000    0.000    0.000    0.000 
#    0.000   21.714    0.000    0.000    0.000    0.000 
#
# Total GULP energy -156402.809829 kJ/mol
# GULP energy per Si atom -5585.814637 kJ/mol
# Density = 2.374862 g / cm^3
# Si number density = 23.802795 Si / 1000 Ang^3
#
#
#
# Elastic Constant Matrix: (Units=GPa)
#
#
# Indices 1 2 3 4 5 6 
#
# 1 37.5798 45.0209 12.5489 0.0002 -12.1946 0.0001
# 2 45.0209 251.1114 36.9701 0.0000 -26.1035 0.0000
# 3 12.5489 36.9701 44.6139 0.0011 -16.6370 0.0003
# 4 0.0002 0.0000 0.0011 16.0238 0.0004 -8.5225
# 5 -12.1946 -26.1035 -16.6370 0.0004 29.4121 0.0002
# 6 0.0001 0.0000 0.0003 -8.5225 0.0002 17.9892
#
#
#
# Elastic Compliance Matrix: (Units=1/GPa)
#
#
# Indices 1 2 3 4 5 6 
#
# 1 0.036724 -0.005258 -0.002578 -0.000001 0.009101 -0.000001
# 2 -0.005258 0.005427 -0.002579 0.000000 0.001178 0.000000
# 3 -0.002578 -0.002579 0.030447 -0.000004 0.013865 -0.000002
# 4 -0.000001 0.000000 -0.000004 0.083430 -0.000003 0.039526
# 5 0.009101 0.001178 0.013865 -0.000003 0.046660 -0.000002
# 6 -0.000001 0.000000 -0.000002 0.039526 -0.000002 0.074315
#
#
# Mechanical properties :
#
#
# Convention : Reuss Voigt Hill
#
# Bulk Modulus (GPa) = 19.31748 58.04277 38.68012
# Shear Modulus (GPa) = 15.86846 28.60269 22.23558
#
# Velocity S-wave (km/s) = 2.58478 3.47025 3.05972
# Velocity P-wave (km/s) = 4.12812 6.36354 5.36358
#
# Compressibility (1/GPa) = 0.05176658
#
# Stress axis : x y z
#
# Youngs Moduli (GPa) = 27.23023 184.25734 32.84371
#
# Poissons Ratio (x) = 0.96891 0.08468
# Poissons Ratio (y) = 0.14319 0.08471
# Poissons Ratio (z) = 0.07021 0.47522
#
# Static dielectric constant tensor:
#      x y z
#    x 1.969530 0.000000 0.007610 
#    y 0.000000 1.907410 0.000000 
#    z 0.007610 0.000000 1.929910 
# 
# From -- ./inp_files/259233.got.cif
#   From: 2010.05.17/outbox.cif.g08.bks.cpg/sg12_130_cif.got.tgz:259233.got - 2010.06.03 13:09:07.
