data_PCOD9198494
_publ_section_title
;
Structure prediction by ZEFSAII (Michael W. Deem and Ramdas Pophale) SiO2 
 PCOD9198494
Probable space group: C 2/M
;
_chemical_formula_sum "Si O2"
_cell_formula_units_Z 48
_cell_length_a 11.481563
_cell_length_b 16.729645
_cell_length_c 13.388529
_cell_angle_alpha 90.000000
_cell_angle_beta 105.517533
_cell_angle_gamma 90.000000
_cell_volume 2477.959710
_symmetry_space_group_name_H-M "C 2/M"
_symmetry_group_IT_number 12
_symmetry_cell_setting 'monoclinic'
loop_
_space_group_symop_operation_xyz
x,y,z
-x,y,-z
-x,-y,-z
x,-y,z
1/2+x,1/2+y,z
1/2-x,1/2+y,-z
1/2-x,1/2-y,-z
1/2+x,1/2-y,z
loop_
_atom_site_type_symbol
_atom_site_label
_atom_site_fract_x
_atom_site_fract_y
_atom_site_fract_z
Si Si1 0.786512 0.345660 0.752737
Si Si2 0.953576 0.237222 0.381560
Si Si3 0.497573 0.090157 0.681307
Si Si4 0.730893 0.907764 0.853570
Si Si5 0.923230 0.806602 0.795039
Si Si6 0.649996 0.593735 0.912230
O O1 0.680167 0.295623 0.673444
O O2 0.881511 0.281243 0.818643
O O3 0.726237 0.394102 0.828666
O O4 0.862708 0.397392 0.691895
O O5 0.966542 0.333647 0.377327
O O6 0.000000 0.210913 0.500000
O O7 0.036627 0.203259 0.310641
O O8 0.590253 0.098399 0.796016
O O9 0.513142 0.000000 0.644173
O O10 0.807094 0.860340 0.789477
O O11 0.764743 0.000000 0.852203
O O12 0.771187 0.882573 0.973246
O O13 0.034069 0.848809 0.876967
O O14 0.614854 0.500000 0.912737
#
# Coordination Sequence:
#
# PCOD9198494 Si02
#       6
#     8   8   8   8   8   8
#     4  10  21  39  57  87 116 150 188 237 282 333
#     4  10  22  41  64  81 109 149 193 236 294 342
#     4  10  21  38  59  84 119 151 187 234 280 336
#     4  10  20  37  58  85 120 156 189 227 279 336
#     4  10  20  36  57  87 113 146 189 241 278 325
#     4  10  21  37  59  83 117 161 193 222 273 337
#
# _framework density 19.370774000000001
#
# number of rings (size 3 to 8) (size 9 to 14) (size 15 to 20)
#    0.000    2.000    1.667    1.500    0.000    5.667 
#    6.000    2.500    0.000   17.000    0.000    0.000 
#    0.000    0.000    0.000    0.000    0.000    0.000 
#
# Total GULP energy -133831.893418 kJ/mol
# GULP energy per Si atom -5576.328892 kJ/mol
# Density = 1.932669 g / cm^3
# Si number density = 19.370774 Si / 1000 Ang^3
#
#
#
# Elastic Constant Matrix: (Units=GPa)
#
#
# Indices 1 2 3 4 5 6 
#
# 1 67.0074 30.6034 21.1471 0.0000 7.1930 0.0000
# 2 30.6034 76.0239 39.3137 0.0000 5.5397 0.0000
# 3 21.1471 39.3137 86.4006 0.0000 8.3446 0.0000
# 4 0.0000 0.0000 0.0000 1.0694 0.0000 -3.8054
# 5 7.1930 5.5397 8.3446 0.0000 6.2828 0.0000
# 6 0.0000 0.0000 0.0000 -3.8054 0.0000 19.6105
#
#
#
# Elastic Compliance Matrix: (Units=1/GPa)
#
#
# Indices 1 2 3 4 5 6 
#
# 1 0.019806 -0.006653 -0.000226 0.000000 -0.016509 0.000000
# 2 -0.006653 0.019602 -0.007293 0.000000 0.000019 0.000000
# 3 -0.000226 -0.007293 0.016406 0.000000 -0.015101 0.000000
# 4 0.000000 0.000000 0.000000 3.021794 0.000000 0.586376
# 5 -0.016509 0.000019 -0.015101 0.000000 0.198104 0.000000
# 6 0.000000 0.000000 0.000000 0.586376 0.000000 0.164779
#
#
# Mechanical properties :
#
#
# Convention : Reuss Voigt Hill
#
# Bulk Modulus (GPa) = 36.40281 45.72893 41.06587
# Shear Modulus (GPa) = 1.43761 14.61704 8.02733
#
# Velocity S-wave (km/s) = 0.86242 2.74996 2.03790
# Velocity P-wave (km/s) = 4.45254 5.80874 5.17526
#
# Compressibility (1/GPa) = 0.02747041
#
# Stress axis : x y z
#
# Youngs Moduli (GPa) = 50.49038 51.01604 60.95325
#
# Poissons Ratio (x) = 0.33941 0.01377
# Poissons Ratio (y) = 0.33591 0.44451
# Poissons Ratio (z) = 0.01141 0.37204
#
# Static dielectric constant tensor:
#      x y z
#    x 1.689060 0.000000 0.009270 
#    y 0.000000 1.712840 0.000000 
#    z 0.009270 0.000000 1.651550 
# 
# From -- ./inp_files/131040.got.cif
#   From: 2010.05.17/outbox.cif.g08.bks.cpg/sg12_66_cif.got.tgz:131040.got - 2010.06.03 13:09:07.
