data_PCOD9198531
_publ_section_title
;
Structure prediction by ZEFSAII (Michael W. Deem and Ramdas Pophale) SiO2 
 PCOD9198531
Probable space group: C 2/M
;
_chemical_formula_sum "Si O2"
_cell_formula_units_Z 32
_cell_length_a 27.765386
_cell_length_b 10.617204
_cell_length_c 13.841901
_cell_angle_alpha 90.000000
_cell_angle_beta 20.593062
_cell_angle_gamma 90.000000
_cell_volume 1435.214873
_symmetry_space_group_name_H-M "C 2/M"
_symmetry_group_IT_number 12
_symmetry_cell_setting 'monoclinic'
loop_
_space_group_symop_operation_xyz
x,y,z
-x,y,-z
-x,-y,-z
x,-y,z
1/2+x,1/2+y,z
1/2-x,1/2+y,-z
1/2-x,1/2-y,-z
1/2+x,1/2-y,z
loop_
_atom_site_type_symbol
_atom_site_label
_atom_site_fract_x
_atom_site_fract_y
_atom_site_fract_z
Si Si1 0.820463 0.148247 0.562329
Si Si2 0.081827 0.500000 0.245654
Si Si3 0.010349 0.767355 0.364682
Si Si4 0.002547 0.645402 0.111296
Si Si5 0.636690 0.500000 0.177380
O O1 0.876239 0.179577 0.564943
O O2 0.905254 0.246905 0.337932
O O3 0.850594 0.000000 0.486141
O O4 0.659633 0.166159 0.848762
O O5 0.000000 0.500000 0.500000
O O6 0.044766 0.628823 0.262552
O O7 0.236807 0.500000 0.989619
O O8 0.000000 0.753592 0.500000
O O9 0.127259 0.873492 0.132189
O O10 0.962360 0.500000 0.211123
O O11 0.000000 0.654519 0.000000
O O12 0.500000 0.500000 0.500000
#
# Coordination Sequence:
#
# PCOD9198531 Si02
#       5
#     8   4   8   8   4
#     4  11  24  42  67 101 132 173 221 267 327 396
#     4  10  22  36  56  82 115 164 213 254 298 364
#     4  10  22  41  59  91 130 170 212 259 315 377
#     4  10  24  46  71  98 131 168 216 278 338 392
#     4  10  20  36  58  78 115 166 205 250 304 358
#
# _framework density 22.296313000000001
#
# number of rings (size 3 to 8) (size 9 to 14) (size 15 to 20)
#    0.000    1.750    1.250    1.500    1.750    9.500 
#    0.000    0.000    0.000    0.000    0.000    0.000 
#    0.000    0.000    0.000    0.000    0.000    0.000 
#
# Total GULP energy -89423.769325 kJ/mol
# GULP energy per Si atom -5588.985583 kJ/mol
# Density = 2.224557 g / cm^3
# Si number density = 22.296313 Si / 1000 Ang^3
#
#
#
# Elastic Constant Matrix: (Units=GPa)
#
#
# Indices 1 2 3 4 5 6 
#
# 1 120.7598 40.3769 42.9010 0.0000 -4.2079 0.0000
# 2 40.3769 238.4891 71.1113 0.0000 5.3914 0.0000
# 3 42.9010 71.1113 111.8168 0.0000 -5.6654 0.0000
# 4 0.0000 0.0000 0.0000 45.7513 0.0000 70.0755
# 5 -4.2079 5.3914 -5.6654 0.0000 33.2055 0.0000
# 6 0.0000 0.0000 0.0000 70.0755 0.0000 368.1188
#
#
#
# Elastic Compliance Matrix: (Units=1/GPa)
#
#
# Indices 1 2 3 4 5 6 
#
# 1 0.009690 -0.000693 -0.003237 0.000000 0.000788 0.000000
# 2 -0.000693 0.005290 -0.003174 0.000000 -0.001488 0.000000
# 3 -0.003237 -0.003174 0.012316 0.000000 0.002206 0.000000
# 4 0.000000 0.000000 0.000000 0.030853 0.000000 -0.005873
# 5 0.000788 -0.001488 0.002206 0.000000 0.030833 0.000000
# 6 0.000000 0.000000 0.000000 -0.005873 0.000000 0.003835
#
#
# Mechanical properties :
#
#
# Convention : Reuss Voigt Hill
#
# Bulk Modulus (GPa) = 76.40804 86.64932 81.52868
# Shear Modulus (GPa) = 44.88806 110.52689 77.70748
#
# Velocity S-wave (km/s) = 4.49179 7.04836 5.90998
# Velocity P-wave (km/s) = 7.82594 10.25603 9.12227
#
# Compressibility (1/GPa) = 0.01308763
#
# Stress axis : x y z
#
# Youngs Moduli (GPa) = 103.19781 189.01907 81.19847
#
# Poissons Ratio (x) = 0.13102 0.26284
# Poissons Ratio (y) = 0.07153 0.25772
# Poissons Ratio (z) = 0.33406 0.59995
#
# Static dielectric constant tensor:
#      x y z
#    x 1.838180 0.000000 0.034400 
#    y 0.000000 1.954080 0.000000 
#    z 0.034400 0.000000 1.788420 
# 
# From -- ./inp_files/245497.got.cif
#   From: 2010.05.17/outbox.cif.g08.bks.cpg/sg12_123_cif.got.tgz:245497.got - 2010.06.03 13:09:07.
