data_PCOD9198454
_publ_section_title
;
Structure prediction by ZEFSAII (Michael W. Deem and Ramdas Pophale) SiO2 
 PCOD9198454
Probable space group: C 2/M
;
_chemical_formula_sum "Si O2"
_cell_formula_units_Z 52
_cell_length_a 8.846011
_cell_length_b 25.620475
_cell_length_c 12.440618
_cell_angle_alpha 90.000000
_cell_angle_beta 98.013588
_cell_angle_gamma 90.000000
_cell_volume 2791.996665
_symmetry_space_group_name_H-M "C 2/M"
_symmetry_group_IT_number 12
_symmetry_cell_setting 'monoclinic'
loop_
_space_group_symop_operation_xyz
x,y,z
-x,y,-z
-x,-y,-z
x,-y,z
1/2+x,1/2+y,z
1/2-x,1/2+y,-z
1/2-x,1/2-y,-z
1/2+x,1/2-y,z
loop_
_atom_site_type_symbol
_atom_site_label
_atom_site_fract_x
_atom_site_fract_y
_atom_site_fract_z
Si Si1 0.194822 0.785098 0.594651
Si Si2 0.328756 0.405551 0.450452
Si Si3 0.487807 0.199239 0.307873
Si Si4 0.178609 0.058896 0.005898
Si Si5 0.185619 0.559101 0.216678
Si Si6 0.428155 0.863351 0.109583
Si Si7 0.500000 0.114604 0.500000
O O1 0.250000 0.750000 0.500000
O O2 0.157792 0.842639 0.549955
O O3 0.332844 0.793457 0.691461
O O4 0.068341 0.752124 0.642525
O O5 0.500000 0.425232 0.500000
O O6 0.288963 0.425286 0.327371
O O7 0.164119 0.414763 0.496984
O O8 0.405792 0.183975 0.189678
O O9 0.473705 0.152964 0.395156
O O10 0.278411 0.102487 0.073839
O O11 0.217547 0.000000 0.048486
O O12 0.220536 0.060364 0.884472
O O13 0.000000 0.067152 0.000000
O O14 0.128033 0.500000 0.226563
O O15 0.047987 0.598959 0.183084
O O16 0.500000 0.849862 0.000000
#
# Coordination Sequence:
#
# PCOD9198454 Si02
#       7
#     8   8   8   8   8   8   4
#     4  11  19  35  56  84 109 152 201 242 288 344
#     4  11  22  36  59  87 122 157 203 251 301 356
#     4  11  20  35  57  84 116 147 201 250 291 354
#     4   9  19  37  62  88 111 147 204 252 293 358
#     4  10  20  38  60  84 118 157 195 241 303 365
#     4  10  20  38  61  84 117 154 191 244 303 359
#     4  10  20  36  57  84 118 152 203 250 292 346
#
# _framework density 18.624665
#
# number of rings (size 3 to 8) (size 9 to 14) (size 15 to 20)
#    0.000    1.692    6.154    1.385    0.000    3.385 
#    0.000    1.154    0.000    0.000    0.000    0.000 
#    0.000    0.000    0.000    0.000    0.000    0.000 
#
# Total GULP energy -144833.721436 kJ/mol
# GULP energy per Si atom -5570.527748 kJ/mol
# Density = 1.858227 g / cm^3
# Si number density = 18.624665 Si / 1000 Ang^3
#
#
#
# Elastic Constant Matrix: (Units=GPa)
#
#
# Indices 1 2 3 4 5 6 
#
# 1 99.6074 3.9198 17.0574 0.0000 5.9420 0.0000
# 2 3.9198 23.8247 15.1621 0.0000 -2.7944 0.0000
# 3 17.0574 15.1621 69.1832 0.0000 19.3225 0.0000
# 4 0.0000 0.0000 0.0000 14.4645 0.0000 1.5688
# 5 5.9420 -2.7944 19.3225 0.0000 20.6699 0.0000
# 6 0.0000 0.0000 0.0000 1.5688 0.0000 15.8547
#
#
#
# Elastic Compliance Matrix: (Units=1/GPa)
#
#
# Indices 1 2 3 4 5 6 
#
# 1 0.010495 -0.000440 -0.002209 0.000000 -0.001012 0.000000
# 2 -0.000440 0.057933 -0.020044 0.000000 0.026696 0.000000
# 3 -0.002209 -0.020044 0.027028 0.000000 -0.027341 0.000000
# 4 0.000000 0.000000 0.000000 0.069885 0.000000 -0.006915
# 5 -0.001012 0.026696 -0.027341 0.000000 0.077839 0.000000
# 6 0.000000 0.000000 0.000000 -0.006915 0.000000 0.063757
#
#
# Mechanical properties :
#
#
# Convention : Reuss Voigt Hill
#
# Bulk Modulus (GPa) = 19.97168 29.43267 24.70217
# Shear Modulus (GPa) = 13.54970 20.62955 17.08962
#
# Velocity S-wave (km/s) = 2.70017 3.33174 3.03244
# Velocity P-wave (km/s) = 4.52413 5.53516 5.05499
#
# Compressibility (1/GPa) = 0.05007091
#
# Stress axis : x y z
#
# Youngs Moduli (GPa) = 95.28060 17.26135 36.99871
#
# Poissons Ratio (x) = 0.00759 0.08172
# Poissons Ratio (y) = 0.04191 0.74161
# Poissons Ratio (z) = 0.21044 0.34599
#
# Static dielectric constant tensor:
#      x y z
#    x 1.682160 0.000000 -0.009050 
#    y 0.000000 1.670650 0.000000 
#    z -0.009050 0.000000 1.640090 
# 
# From -- ./inp_files/123710.got.cif
#   From: 2010.05.17/outbox.cif.g08.bks.cpg/sg12_62_cif.got.tgz:123710.got - 2010.06.03 13:09:07.
