data_PCOD9198120
_publ_section_title
;
Structure prediction by ZEFSAII (Michael W. Deem and Ramdas Pophale) SiO2 
 PCOD9198120
Probable space group: C 2/M
;
_chemical_formula_sum "Si O2"
_cell_formula_units_Z 40
_cell_length_a 19.160120
_cell_length_b 8.849255
_cell_length_c 28.396359
_cell_angle_alpha 90.000000
_cell_angle_beta 26.578133
_cell_angle_gamma 90.000000
_cell_volume 2154.174353
_symmetry_space_group_name_H-M "C 2/M"
_symmetry_group_IT_number 12
_symmetry_cell_setting 'monoclinic'
loop_
_space_group_symop_operation_xyz
x,y,z
-x,y,-z
-x,-y,-z
x,-y,z
1/2+x,1/2+y,z
1/2-x,1/2+y,-z
1/2-x,1/2-y,-z
1/2+x,1/2-y,z
loop_
_atom_site_type_symbol
_atom_site_label
_atom_site_fract_x
_atom_site_fract_y
_atom_site_fract_z
Si Si1 0.086038 0.678718 0.331200
Si Si2 0.365758 0.178789 0.892371
Si Si3 0.269940 0.823606 0.303745
Si Si4 0.222646 0.819491 0.439914
Si Si5 0.435505 0.680299 0.752271
O O1 0.074117 0.500000 0.332323
O O2 0.199162 0.721428 0.305889
O O3 0.138076 0.755623 0.251134
O O4 0.918009 0.747440 0.446555
O O5 0.544737 0.197285 0.801645
O O6 0.354677 0.258581 0.848352
O O7 0.338110 0.000000 0.903776
O O8 0.250000 0.250000 0.000000
O O9 0.197913 0.794135 0.398866
O O10 0.239010 0.000000 0.310892
O O11 0.387914 0.745383 0.352702
O O12 0.231038 0.000000 0.442508
O O13 0.438621 0.500000 0.750120
#
# Coordination Sequence:
#
# PCOD9198120 Si02
#       5
#     8   8   8   8   8
#     4  12  23  34  52  81 116 149 184 227 272 321
#     4  10  21  40  64  86 109 139 179 225 275 330
#     4   9  20  37  56  80 111 146 182 223 271 323
#     4  10  20  36  56  79 112 151 188 224 268 325
#     4  11  22  37  57  81 111 146 186 228 272 323
#
# _framework density 18.568598999999999
#
# number of rings (size 3 to 8) (size 9 to 14) (size 15 to 20)
#    0.000    1.600    0.000    7.200    0.000    7.200 
#    0.000    1.000    0.000    6.000    0.000    0.000 
#    0.000    0.000    0.000    0.000    0.000    0.000 
#
# Total GULP energy -111818.805217 kJ/mol
# GULP energy per Si atom -5590.940261 kJ/mol
# Density = 1.852634 g / cm^3
# Si number density = 18.568599 Si / 1000 Ang^3
#
#
#
# Elastic Constant Matrix: (Units=GPa)
#
#
# Indices 1 2 3 4 5 6 
#
# 1 91.3921 68.5278 27.8537 -0.0001 31.7301 0.0004
# 2 68.5278 151.2102 46.0225 0.0000 27.5096 0.0006
# 3 27.8537 46.0225 79.2932 -0.0017 36.1829 -0.0001
# 4 -0.0001 0.0000 -0.0017 31.4876 -0.0006 3.0019
# 5 31.7301 27.5096 36.1829 -0.0006 23.2768 -0.0002
# 6 0.0004 0.0006 -0.0001 3.0019 -0.0002 36.3631
#
#
#
# Elastic Compliance Matrix: (Units=1/GPa)
#
#
# Indices 1 2 3 4 5 6 
#
# 1 0.054566 -0.015721 0.053051 0.000000 -0.138268 -0.000001
# 2 -0.015721 0.012987 -0.016480 0.000000 0.031699 0.000000
# 3 0.053051 -0.016480 0.095134 0.000001 -0.200721 -0.000001
# 4 0.000000 0.000000 0.000001 0.032010 -0.000002 -0.002643
# 5 -0.138268 0.031699 -0.200721 -0.000002 0.505991 0.000003
# 6 -0.000001 0.000000 -0.000001 -0.002643 0.000003 0.027719
#
#
# Mechanical properties :
#
#
# Convention : Reuss Voigt Hill
#
# Bulk Modulus (GPa) = 4.89269 67.41151 36.15210
# Shear Modulus (GPa) = 6.62395 30.19161 18.40778
#
# Velocity S-wave (km/s) = 1.89078 4.03668 3.15197
# Velocity P-wave (km/s) = 2.72165 7.62294 5.72349
#
# Compressibility (1/GPa) = 0.20438644
#
# Stress axis : x y z
#
# Youngs Moduli (GPa) = 18.32648 77.00162 10.51149
#
# Poissons Ratio (x) = 1.21051 -0.55764
# Poissons Ratio (y) = 0.28810 0.17323
# Poissons Ratio (z) = -0.97224 1.26902
#
# Static dielectric constant tensor:
#      x y z
#    x 1.656410 0.000000 0.002780 
#    y 0.000000 1.610940 0.000000 
#    z 0.002780 0.000000 1.617970 
# 
# From -- ./inp_files/151717.got.cif
#   From: 2010.05.17/outbox.cif.g08.bks.cpg/sg12_76_cif.got.tgz:151717.got - 2010.06.03 13:09:07.
