data_PCOD9198480
_publ_section_title
;
Structure prediction by ZEFSAII (Michael W. Deem and Ramdas Pophale) SiO2 
 PCOD9198480
Probable space group: C 2/M
;
_chemical_formula_sum "Si O2"
_cell_formula_units_Z 56
_cell_length_a 27.202531
_cell_length_b 8.818027
_cell_length_c 12.095067
_cell_angle_alpha 90.000000
_cell_angle_beta 76.743144
_cell_angle_gamma 90.000000
_cell_volume 2823.962103
_symmetry_space_group_name_H-M "C 2/M"
_symmetry_group_IT_number 12
_symmetry_cell_setting 'monoclinic'
loop_
_space_group_symop_operation_xyz
x,y,z
-x,y,-z
-x,-y,-z
x,-y,z
1/2+x,1/2+y,z
1/2-x,1/2+y,-z
1/2-x,1/2-y,-z
1/2+x,1/2-y,z
loop_
_atom_site_type_symbol
_atom_site_label
_atom_site_fract_x
_atom_site_fract_y
_atom_site_fract_z
Si Si1 0.865052 0.680072 0.432097
Si Si2 0.645131 0.318771 0.792813
Si Si3 0.241450 0.182562 0.883726
Si Si4 0.839450 0.682865 0.691251
Si Si5 0.058753 0.681438 0.976152
Si Si6 0.427283 0.318546 0.795942
Si Si7 0.974728 0.820674 0.392699
O O1 0.860097 0.500000 0.421179
O O2 0.843228 0.762761 0.336276
O O3 0.840556 0.725422 0.561722
O O4 0.924054 0.725239 0.408898
O O5 0.642115 0.500000 0.795856
O O6 0.688974 0.269011 0.854735
O O7 0.592265 0.250744 0.861452
O O8 0.287833 0.224069 0.779684
O O9 0.240539 0.000000 0.892867
O O10 0.250000 0.250000 0.000000
O O11 0.845596 0.500000 0.694042
O O12 0.885762 0.759594 0.731420
O O13 0.061700 0.500000 0.970724
O O14 0.079745 0.742356 0.081742
O O15 0.000000 0.727034 0.000000
O O16 0.423659 0.500000 0.807611
O O17 0.482679 0.280884 0.719054
O O18 0.000000 0.799937 0.500000
O O19 0.962391 0.000000 0.387497
#
# Coordination Sequence:
#
# PCOD9198480 Si02
#       7
#     8   8   8   8   8   8   8
#     4  11  23  38  60  90 123 161 203 246 299 359
#     4  11  24  42  64  89 121 159 200 248 301 357
#     4  10  23  43  65  90 118 153 198 248 302 357
#     4  10  22  40  61  87 121 157 198 248 298 354
#     4  11  24  41  61  87 120 157 199 245 298 359
#     4  11  22  36  59  89 121 157 201 248 298 354
#     4  10  20  36  57  85 123 163 200 244 295 350
#
# _framework density 19.830293999999999
#
# number of rings (size 3 to 8) (size 9 to 14) (size 15 to 20)
#    0.000    1.429    1.429    3.429    0.000   10.000 
#    0.000    0.000    0.000    0.000    0.000    0.000 
#    0.000    0.000    0.000    0.000    0.000    0.000 
#
# Total GULP energy -156611.406865 kJ/mol
# GULP energy per Si atom -5593.264531 kJ/mol
# Density = 1.978516 g / cm^3
# Si number density = 19.830294 Si / 1000 Ang^3
#
#
#
# Elastic Constant Matrix: (Units=GPa)
#
#
# Indices 1 2 3 4 5 6 
#
# 1 99.3494 31.5399 55.9135 0.0000 -1.1952 0.0000
# 2 31.5399 33.5644 39.9571 0.0000 -2.5043 0.0000
# 3 55.9135 39.9571 149.2112 0.0000 3.8992 0.0000
# 4 0.0000 0.0000 0.0000 29.6898 0.0000 6.3011
# 5 -1.1952 -2.5043 3.8992 0.0000 33.8617 0.0000
# 6 0.0000 0.0000 0.0000 6.3011 0.0000 21.4727
#
#
#
# Elastic Compliance Matrix: (Units=1/GPa)
#
#
# Indices 1 2 3 4 5 6 
#
# 1 0.015062 -0.010907 -0.002724 0.000000 0.000039 0.000000
# 2 -0.010907 0.052360 -0.010056 0.000000 0.004645 0.000000
# 3 -0.002724 -0.010056 0.010469 0.000000 -0.002045 0.000000
# 4 0.000000 0.000000 0.000000 0.035919 0.000000 -0.010540
# 5 0.000039 0.004645 -0.002045 0.000000 0.030112 0.000000
# 6 0.000000 0.000000 0.000000 -0.010540 0.000000 0.049664
#
#
# Mechanical properties :
#
#
# Convention : Reuss Voigt Hill
#
# Bulk Modulus (GPa) = 32.76888 59.66066 46.21477
# Shear Modulus (GPa) = 19.90981 27.31914 23.61447
#
# Velocity S-wave (km/s) = 3.17205 3.71569 3.45458
# Velocity P-wave (km/s) = 5.47507 6.96846 6.26641
#
# Compressibility (1/GPa) = 0.03051676
#
# Stress axis : x y z
#
# Youngs Moduli (GPa) = 66.39299 19.09839 95.52031
#
# Poissons Ratio (x) = 0.20831 0.26022
# Poissons Ratio (y) = 0.72417 0.96052
# Poissons Ratio (z) = 0.18087 0.19205
#
# Static dielectric constant tensor:
#      x y z
#    x 1.679700 0.000000 0.000610 
#    y 0.000000 1.661500 0.000000 
#    z 0.000610 0.000000 1.690460 
# 
# From -- ./inp_files/180787.got.cif
#   From: 2010.05.17/outbox.cif.g08.bks.cpg/sg12_91_cif.got.tgz:180787.got - 2010.06.03 13:09:07.
