data_PCOD9198827
_publ_section_title
;
Structure prediction by ZEFSAII (Michael W. Deem and Ramdas Pophale) SiO2 
 PCOD9198827
Probable space group: C 2/M
;
_chemical_formula_sum "Si O2"
_cell_formula_units_Z 56
_cell_length_a 19.405312
_cell_length_b 8.785307
_cell_length_c 21.495979
_cell_angle_alpha 90.000000
_cell_angle_beta 56.984690
_cell_angle_gamma 90.000000
_cell_volume 3072.916923
_symmetry_space_group_name_H-M "C 2/M"
_symmetry_group_IT_number 12
_symmetry_cell_setting 'monoclinic'
loop_
_space_group_symop_operation_xyz
x,y,z
-x,y,-z
-x,-y,-z
x,-y,z
1/2+x,1/2+y,z
1/2-x,1/2+y,-z
1/2-x,1/2-y,-z
1/2+x,1/2-y,z
loop_
_atom_site_type_symbol
_atom_site_label
_atom_site_fract_x
_atom_site_fract_y
_atom_site_fract_z
Si Si1 0.904604 0.676267 0.561989
Si Si2 0.758015 0.818960 0.565313
Si Si3 0.775554 0.171925 0.173022
Si Si4 0.783345 0.817882 0.919781
Si Si5 0.852006 0.185190 0.267168
Si Si6 0.034127 0.182061 0.210538
Si Si7 0.086736 0.328179 0.305698
O O1 0.873161 0.500000 0.578636
O O2 0.848734 0.772444 0.543979
O O3 0.902525 0.742689 0.632192
O O4 0.000000 0.671382 0.500000
O O5 0.750000 0.750000 0.500000
O O6 0.697429 0.751605 0.649061
O O7 0.746909 0.000000 0.568057
O O8 0.773947 0.266397 0.110047
O O9 0.816289 0.231100 0.216948
O O10 0.678974 0.160917 0.235420
O O11 0.807351 0.000000 0.146074
O O12 0.878730 0.766219 0.861772
O O13 0.783725 0.000000 0.922238
O O14 0.750000 0.750000 0.000000
O O15 0.947962 0.230544 0.223132
O O16 0.845285 0.000000 0.273634
O O17 0.034728 0.237445 0.281444
O O18 0.035674 0.000000 0.208320
O O19 0.052964 0.500000 0.329719
#
# Coordination Sequence:
#
# PCOD9198827 Si02
#       7
#     8   8   8   8   8   8   8
#     4  10  21  38  58  81 111 145 188 239 291 343
#     4  12  26  41  58  81 114 155 198 243 293 345
#     4   9  17  33  58  81 107 145 183 222 276 335
#     4  10  20  36  58  86 116 147 185 227 276 333
#     4  10  20  39  61  83 114 150 189 237 289 341
#     4   9  20  35  56  84 113 144 185 232 276 331
#     4   9  17  32  53  78 107 142 182 227 277 332
#
# _framework density 18.223725999999999
#
# number of rings (size 3 to 8) (size 9 to 14) (size 15 to 20)
#    0.000    2.143    1.429    1.714    2.000    2.571 
#    0.000    0.714    0.000    4.286    0.000    0.000 
#    0.000    0.000    0.000    0.000    0.000    0.000 
#
# Total GULP energy -155995.500914 kJ/mol
# GULP energy per Si atom -5571.267890 kJ/mol
# Density = 1.818225 g / cm^3
# Si number density = 18.223726 Si / 1000 Ang^3
#
#
#
# Elastic Constant Matrix: (Units=GPa)
#
#
# Indices 1 2 3 4 5 6 
#
# 1 131.6299 37.0434 64.4375 0.0001 22.6043 0.0003
# 2 37.0434 46.5679 46.9523 0.0002 8.5096 0.0006
# 3 64.4375 46.9523 125.7361 0.0000 32.2747 0.0000
# 4 0.0001 0.0002 0.0000 25.7260 0.0000 3.7437
# 5 22.6043 8.5096 32.2747 0.0000 26.1536 0.0000
# 6 0.0003 0.0006 0.0000 3.7437 0.0000 21.3606
#
#
#
# Elastic Compliance Matrix: (Units=1/GPa)
#
#
# Indices 1 2 3 4 5 6 
#
# 1 0.011180 -0.005596 -0.002381 0.000000 -0.004903 0.000000
# 2 -0.005596 0.038097 -0.013784 0.000000 0.009452 -0.000001
# 3 -0.002381 -0.013784 0.018502 0.000000 -0.016289 0.000000
# 4 0.000000 0.000000 0.000000 0.039889 0.000000 -0.006991
# 5 -0.004903 0.009452 -0.016289 0.000000 0.059500 0.000000
# 6 0.000000 -0.000001 0.000000 -0.006991 0.000000 0.048041
#
#
# Mechanical properties :
#
#
# Convention : Reuss Voigt Hill
#
# Bulk Modulus (GPa) = 41.22824 66.75559 53.99191
# Shear Modulus (GPa) = 18.73960 25.01475 21.87718
#
# Velocity S-wave (km/s) = 3.21020 3.70895 3.46855
# Velocity P-wave (km/s) = 6.03432 7.41973 6.76260
#
# Compressibility (1/GPa) = 0.02425522
#
# Stress axis : x y z
#
# Youngs Moduli (GPa) = 89.44887 26.24912 54.04890
#
# Poissons Ratio (x) = 0.14690 0.12868
# Poissons Ratio (y) = 0.50060 0.74501
# Poissons Ratio (z) = 0.21297 0.36182
#
# Static dielectric constant tensor:
#      x y z
#    x 1.650480 0.000000 -0.017470 
#    y 0.000000 1.645510 0.000000 
#    z -0.017470 0.000000 1.642840 
# 
# From -- ./inp_files/275041.got.cif
#   From: 2010.05.17/outbox.cif.g08.bks.cpg/sg12_138_cif.got.tgz:275041.got - 2010.06.03 13:09:07.
