data_PCOD9198713
_publ_section_title
;
Structure prediction by ZEFSAII (Michael W. Deem and Ramdas Pophale) SiO2 
 PCOD9198713
Probable space group: C 2/M
;
_chemical_formula_sum "Si O2"
_cell_formula_units_Z 64
_cell_length_a 30.809800
_cell_length_b 9.194903
_cell_length_c 12.716948
_cell_angle_alpha 90.000000
_cell_angle_beta 58.195495
_cell_angle_gamma 90.000000
_cell_volume 3061.694457
_symmetry_space_group_name_H-M "C 2/M"
_symmetry_group_IT_number 12
_symmetry_cell_setting 'monoclinic'
loop_
_space_group_symop_operation_xyz
x,y,z
-x,y,-z
-x,-y,-z
x,-y,z
1/2+x,1/2+y,z
1/2-x,1/2+y,-z
1/2-x,1/2-y,-z
1/2+x,1/2-y,z
loop_
_atom_site_type_symbol
_atom_site_label
_atom_site_fract_x
_atom_site_fract_y
_atom_site_fract_z
Si Si1 0.835621 0.170696 0.688693
Si Si2 0.957201 0.833393 0.972635
Si Si3 0.708612 0.674488 0.626677
Si Si4 0.376281 0.672223 0.409880
Si Si5 0.013352 0.167211 0.675279
Si Si6 0.632314 0.834781 0.012885
Si Si7 0.231725 0.172533 0.842113
Si Si8 0.575089 0.165206 0.310698
O O1 0.839412 0.187551 0.557499
O O2 0.786178 0.254238 0.794452
O O3 0.887767 0.237783 0.666246
O O4 0.832596 0.000000 0.716974
O O5 0.984235 0.838354 0.824264
O O6 0.943850 0.000000 0.020656
O O7 0.906050 0.741023 0.021127
O O8 0.000000 0.779296 0.000000
O O9 0.711287 0.500000 0.607360
O O10 0.750000 0.750000 0.500000
O O11 0.653347 0.725689 0.654722
O O12 0.718986 0.701126 0.735296
O O13 0.386059 0.500000 0.381363
O O14 0.431231 0.733349 0.370613
O O15 0.979281 0.261165 0.640714
O O16 0.018051 0.000000 0.630508
O O17 0.684001 0.744019 0.961678
O O18 0.644400 0.000000 0.965983
O O19 0.602512 0.838667 0.161414
O O20 0.234227 0.000000 0.856669
O O21 0.571205 0.000000 0.354780
#
# Coordination Sequence:
#
# PCOD9198713 Si02
#       8
#     8   8   8   8   8   8   8   8
#     4  11  22  38  61  84 112 150 193 236 284 340
#     4   9  18  32  55  84 113 147 189 234 279 332
#     4  10  20  36  58  83 117 154 187 230 279 331
#     4   9  19  35  57  85 115 149 189 228 272 335
#     4   9  18  35  58  82 112 149 189 230 278 336
#     4  10  22  39  58  80 113 152 189 235 287 340
#     4  11  23  37  59  88 118 150 190 235 282 337
#     4  10  22  41  60  81 113 147 188 241 291 336
#
# _framework density 20.903458000000001
#
# number of rings (size 3 to 8) (size 9 to 14) (size 15 to 20)
#    0.000    2.125    1.250    1.500    1.750    3.250 
#    0.000    4.375    0.000    0.000    0.000    0.000 
#    0.000    0.000    0.000    0.000    0.000    0.000 
#
# Total GULP energy -178750.873061 kJ/mol
# GULP energy per Si atom -5585.964783 kJ/mol
# Density = 2.085588 g / cm^3
# Si number density = 20.903458 Si / 1000 Ang^3
#
#
#
# Elastic Constant Matrix: (Units=GPa)
#
#
# Indices 1 2 3 4 5 6 
#
# 1 123.5456 31.2602 4.5823 0.0000 -11.5391 0.0000
# 2 31.2602 66.1463 13.4928 0.0000 -2.9232 0.0000
# 3 4.5823 13.4928 27.6974 0.0000 -8.5727 0.0000
# 4 0.0000 0.0000 0.0000 18.9643 0.0000 -5.7529
# 5 -11.5391 -2.9232 -8.5727 0.0000 33.2167 0.0000
# 6 0.0000 0.0000 0.0000 -5.7529 0.0000 31.2597
#
#
#
# Elastic Compliance Matrix: (Units=1/GPa)
#
#
# Indices 1 2 3 4 5 6 
#
# 1 0.009535 -0.004717 0.001757 0.000000 0.003351 0.000000
# 2 -0.004717 0.019134 -0.009267 0.000000 -0.002346 0.000000
# 3 0.001757 -0.009267 0.043760 0.000000 0.011089 0.000000
# 4 0.000000 0.000000 0.000000 0.055849 0.000000 0.010278
# 5 0.003351 -0.002346 0.011089 0.000000 0.033925 0.000000
# 6 0.000000 0.000000 0.000000 0.010278 0.000000 0.033882
#
#
# Mechanical properties :
#
#
# Convention : Reuss Voigt Hill
#
# Bulk Modulus (GPa) = 20.84337 35.11777 27.98057
# Shear Modulus (GPa) = 21.13904 27.89173 24.51539
#
# Velocity S-wave (km/s) = 3.18350 3.65679 3.42832
# Velocity P-wave (km/s) = 4.84828 5.88778 5.39313
#
# Compressibility (1/GPa) = 0.04797688
#
# Stress axis : x y z
#
# Youngs Moduli (GPa) = 104.87202 52.26379 22.85179
#
# Poissons Ratio (x) = 0.24652 -0.04016
# Poissons Ratio (y) = 0.49466 0.21176
# Poissons Ratio (z) = -0.18430 0.48432
#
# Static dielectric constant tensor:
#      x y z
#    x 1.762440 0.000000 0.004990 
#    y 0.000000 1.719340 0.000000 
#    z 0.004990 0.000000 1.769560 
# 
# From -- ./inp_files/249043.got.cif
#   From: 2010.05.17/outbox.cif.g08.bks.cpg/sg12_125_cif.got.tgz:249043.got - 2010.06.03 13:09:07.
