data_PCOD9198002
_publ_section_title
;
Structure prediction by ZEFSAII (Michael W. Deem and Ramdas Pophale) SiO2 
 PCOD9198002
Probable space group: C 2/M
;
_chemical_formula_sum "Si O2"
_cell_formula_units_Z 56
_cell_length_a 17.972586
_cell_length_b 19.139481
_cell_length_c 17.974538
_cell_angle_alpha 90.000000
_cell_angle_beta 149.712968
_cell_angle_gamma 90.000000
_cell_volume 3118.280342
_symmetry_space_group_name_H-M "C 2/M"
_symmetry_group_IT_number 12
_symmetry_cell_setting 'monoclinic'
loop_
_space_group_symop_operation_xyz
x,y,z
-x,y,-z
-x,-y,-z
x,-y,z
1/2+x,1/2+y,z
1/2-x,1/2+y,-z
1/2-x,1/2-y,-z
1/2+x,1/2-y,z
loop_
_atom_site_type_symbol
_atom_site_label
_atom_site_fract_x
_atom_site_fract_y
_atom_site_fract_z
Si Si1 0.051273 0.799907 0.838192
Si Si2 0.729121 0.207674 0.557392
Si Si3 0.334878 0.081905 0.866138
Si Si4 0.676098 0.299465 0.653526
Si Si5 0.071404 0.339264 0.755886
Si Si6 0.351982 0.299855 0.917619
Si Si7 0.717543 0.081209 0.003075
O O1 0.074351 0.737866 0.798156
O O2 0.885737 0.829634 0.700668
O O3 0.089695 0.770469 0.953220
O O4 0.156415 0.863953 0.909891
O O5 0.750000 0.250000 0.500000
O O6 0.721875 0.265350 0.615491
O O7 0.580663 0.162423 0.421798
O O8 0.226357 0.122954 0.717866
O O9 0.334993 0.000000 0.847154
O O10 0.500000 0.110691 0.000000
O O11 0.301381 0.088290 0.924749
O O12 0.500000 0.293718 0.500000
O O13 0.762185 0.254742 0.790229
O O14 0.216213 0.349500 0.828678
O O15 0.082086 0.393435 0.833590
O O16 0.500000 0.323560 0.000000
O O17 0.749735 0.000000 0.015292
#
# Coordination Sequence:
#
# PCOD9198002 Si02
#       7
#     8   8   8   8   8   8   8
#     4  10  20  36  57  82 113 146 195 243 287 340
#     4  10  22  34  53  84 111 146 186 239 293 344
#     4  10  23  39  57  82 116 161 202 232 277 349
#     4  12  22  34  55  83 120 149 190 242 297 338
#     4  10  20  36  55  82 117 145 190 240 292 341
#     4  11  19  31  53  83 105 143 180 236 288 333
#     4  10  21  38  60  84 116 158 198 235 282 344
#
# _framework density 17.958617
#
# number of rings (size 3 to 8) (size 9 to 14) (size 15 to 20)
#    0.000    1.571    2.857    3.857    6.000    0.286 
#    0.000    0.714    0.000    6.857    0.000    4.000 
#    0.000    0.000    0.000    0.000    0.000    0.000 
#
# Total GULP energy -155892.888551 kJ/mol
# GULP energy per Si atom -5567.603163 kJ/mol
# Density = 1.791774 g / cm^3
# Si number density = 17.958617 Si / 1000 Ang^3
#
#
#
# Elastic Constant Matrix: (Units=GPa)
#
#
# Indices 1 2 3 4 5 6 
#
# 1 80.5051 20.2166 37.2539 -0.0019 8.9934 -0.0005
# 2 20.2166 67.1931 24.6516 -0.0033 -6.9209 -0.0013
# 3 37.2539 24.6516 119.8695 -0.0045 9.0137 -0.0021
# 4 -0.0019 -0.0033 -0.0045 14.0257 -0.0028 -6.9336
# 5 8.9934 -6.9209 9.0137 -0.0028 31.6270 -0.0012
# 6 -0.0005 -0.0013 -0.0021 -6.9336 -0.0012 16.2401
#
#
#
# Elastic Compliance Matrix: (Units=1/GPa)
#
#
# Indices 1 2 3 4 5 6 
#
# 1 0.015563 -0.003735 -0.003755 -0.000001 -0.004173 -0.000001
# 2 -0.003735 0.017665 -0.002905 0.000006 0.005755 0.000004
# 3 -0.003755 -0.002905 0.010295 0.000003 -0.002502 0.000002
# 4 -0.000001 0.000006 0.000003 0.090372 0.000010 0.038584
# 5 -0.004173 0.005755 -0.002502 0.000010 0.034778 0.000007
# 6 -0.000001 0.000004 0.000002 0.038584 0.000007 0.078049
#
#
# Mechanical properties :
#
#
# Convention : Reuss Voigt Hill
#
# Bulk Modulus (GPa) = 43.98771 47.97909 45.98340
# Shear Modulus (GPa) = 18.17599 24.74162 21.45880
#
# Velocity S-wave (km/s) = 3.18481 3.71577 3.46049
# Velocity P-wave (km/s) = 6.17018 6.72188 6.45193
#
# Compressibility (1/GPa) = 0.02273362
#
# Stress axis : x y z
#
# Youngs Moduli (GPa) = 64.25413 56.61012 97.13492
#
# Poissons Ratio (x) = 0.21142 0.36474
# Poissons Ratio (y) = 0.23997 0.28217
# Poissons Ratio (z) = 0.24128 0.16445
#
# Static dielectric constant tensor:
#      x y z
#    x 1.675600 0.000000 0.014270 
#    y 0.000000 1.598760 0.000000 
#    z 0.014270 0.000000 1.699310 
# 
# From -- ./inp_files/217742.got.cif
#   From: 2010.05.17/outbox.cif.g08.bks.cpg/sg12_109_cif.got.tgz:217742.got - 2010.06.03 13:09:07.
