data_PCOD9198437
_publ_section_title
;
Structure prediction by ZEFSAII (Michael W. Deem and Ramdas Pophale) SiO2 
 PCOD9198437
Probable space group: C 2/M
;
_chemical_formula_sum "Si O2"
_cell_formula_units_Z 40
_cell_length_a 19.667486
_cell_length_b 7.387669
_cell_length_c 26.017980
_cell_angle_alpha 90.000000
_cell_angle_beta 154.490929
_cell_angle_gamma 90.000000
_cell_volume 1628.014719
_symmetry_space_group_name_H-M "C 2/M"
_symmetry_group_IT_number 12
_symmetry_cell_setting 'monoclinic'
loop_
_space_group_symop_operation_xyz
x,y,z
-x,y,-z
-x,-y,-z
x,-y,z
1/2+x,1/2+y,z
1/2-x,1/2+y,-z
1/2-x,1/2-y,-z
1/2+x,1/2-y,z
loop_
_atom_site_type_symbol
_atom_site_label
_atom_site_fract_x
_atom_site_fract_y
_atom_site_fract_z
Si Si1 0.581546 0.786310 0.005475
Si Si2 0.065565 0.283854 0.883151
Si Si3 0.916400 0.718319 0.278661
Si Si4 0.507583 0.793551 0.562473
Si Si5 0.840065 0.720292 0.637291
O O1 0.768201 0.765957 0.142093
O O2 0.545999 0.000000 0.979929
O O3 0.500000 0.706417 0.000000
O O4 0.528335 0.710975 0.914458
O O5 0.044396 0.500000 0.869547
O O6 0.956105 0.219452 0.762497
O O7 0.250000 0.250000 0.000000
O O8 0.923207 0.500000 0.286194
O O9 0.896768 0.787095 0.323806
O O10 0.075164 0.779041 0.357663
O O11 0.500000 0.711033 0.500000
O O12 0.331478 0.792317 0.465757
O O13 0.564553 0.000000 0.593924
O O14 0.831065 0.500000 0.630638
#
# Coordination Sequence:
#
# PCOD9198437 Si02
#       5
#     8   8   8   8   8
#     4  10  22  37  56  84 116 148 183 226 274 327
#     4  10  20  36  57  84 115 144 181 226 272 326
#     4  10  21  39  59  81 111 146 187 230 273 327
#     4  10  23  40  57  82 113 144 183 231 280 329
#     4  10  21  37  59  84 110 144 186 228 271 327
#
# _framework density 24.569801999999999
#
# number of rings (size 3 to 8) (size 9 to 14) (size 15 to 20)
#    0.000    2.000    2.000    0.600    2.800    3.200 
#    0.000    0.000    0.000    0.000    0.000    0.000 
#    0.000    0.000    0.000    0.000    0.000    0.000 
#
# Total GULP energy -111799.857942 kJ/mol
# GULP energy per Si atom -5589.992897 kJ/mol
# Density = 2.451388 g / cm^3
# Si number density = 24.569802 Si / 1000 Ang^3
#
#
#
# Elastic Constant Matrix: (Units=GPa)
#
#
# Indices 1 2 3 4 5 6 
#
# 1 151.2720 5.4399 3.2204 -0.0001 -39.1077 0.0000
# 2 5.4399 96.6128 -12.7735 0.0001 -11.5199 -0.0002
# 3 3.2204 -12.7735 48.3232 -0.0002 -25.6097 -0.0002
# 4 -0.0001 0.0001 -0.0002 6.8366 0.0000 13.0460
# 5 -39.1077 -11.5199 -25.6097 0.0000 57.1593 0.0000
# 6 0.0000 -0.0002 -0.0002 13.0460 0.0000 3.5471
#
#
#
# Elastic Compliance Matrix: (Units=1/GPa)
#
#
# Indices 1 2 3 4 5 6 
#
# 1 0.008480 0.000932 0.003745 0.000000 0.007667 0.000000
# 2 0.000932 0.011790 0.006100 0.000000 0.005747 0.000000
# 3 0.003745 0.006100 0.031560 0.000001 0.017931 0.000000
# 4 0.000000 0.000000 0.000001 -0.024304 0.000000 0.089388
# 5 0.007667 0.005747 0.017931 0.000000 0.031933 0.000000
# 6 0.000000 0.000000 0.000000 0.089388 0.000000 -0.046843
#
#
# Mechanical properties :
#
#
# Convention : Reuss Voigt Hill
#
# Bulk Modulus (GPa) = 13.62735 31.99796 22.81265
# Shear Modulus (GPa) = 322.08016 33.53002 177.80509
#
# Velocity S-wave (km/s) = 11.46178 3.69817 8.51613
# Velocity P-wave (km/s) = 13.44327 5.59346 10.29584
#
# Compressibility (1/GPa) = 0.07338183
#
# Stress axis : x y z
#
# Youngs Moduli (GPa) = 117.93119 84.81879 31.68572
#
# Poissons Ratio (x) = -0.07904 -0.11865
# Poissons Ratio (y) = -0.10989 -0.19328
# Poissons Ratio (z) = -0.44160 -0.51739
#
# Static dielectric constant tensor:
#      x y z
#    x 1.961530 0.000000 -0.029720 
#    y 0.000000 1.473300 0.000000 
#    z -0.029720 0.000000 1.922630 
# 
# From -- ./inp_files/151661.got.cif
#   From: 2010.05.17/outbox.cif.g08.bks.cpg/sg12_76_cif.got.tgz:151661.got - 2010.06.03 13:09:07.
