data_PCOD9198275
_publ_section_title
;
Structure prediction by ZEFSAII (Michael W. Deem and Ramdas Pophale) SiO2 
 PCOD9198275
Probable space group: C 2/M
;
_chemical_formula_sum "Si O2"
_cell_formula_units_Z 58
_cell_length_a 14.795442
_cell_length_b 8.083851
_cell_length_c 26.074220
_cell_angle_alpha 90.000000
_cell_angle_beta 97.819387
_cell_angle_gamma 90.000000
_cell_volume 3089.587851
_symmetry_space_group_name_H-M "C 2/M"
_symmetry_group_IT_number 12
_symmetry_cell_setting 'monoclinic'
loop_
_space_group_symop_operation_xyz
x,y,z
-x,y,-z
-x,-y,-z
x,-y,z
1/2+x,1/2+y,z
1/2-x,1/2+y,-z
1/2-x,1/2-y,-z
1/2+x,1/2-y,z
loop_
_atom_site_type_symbol
_atom_site_label
_atom_site_fract_x
_atom_site_fract_y
_atom_site_fract_z
Si Si1 0.881811 0.189632 0.168685
Si Si2 0.464659 0.199628 0.440521
Si Si3 0.319167 0.310423 0.823197
Si Si4 0.740304 0.198761 0.558289
Si Si5 0.000000 0.500000 0.000000
Si Si6 0.982227 0.800312 0.914405
Si Si7 0.543458 0.813889 0.246750
Si Si8 0.094479 0.806853 0.361938
O O1 0.787060 0.281424 0.172974
O O2 0.936614 0.231683 0.120698
O O3 0.959819 0.207040 0.218123
O O4 0.854112 0.000000 0.162226
O O5 0.500000 0.244562 0.500000
O O6 0.359226 0.244209 0.430361
O O7 0.518088 0.286360 0.399363
O O8 0.475291 0.000000 0.436299
O O9 0.331203 0.500000 0.808291
O O10 0.385155 0.284803 0.877379
O O11 0.366210 0.209043 0.781011
O O12 0.750000 0.250000 0.500000
O O13 0.816687 0.264966 0.602547
O O14 0.747726 0.000000 0.559178
O O15 0.987990 0.651552 0.955575
O O16 0.989462 0.000000 0.930398
O O17 0.567088 0.777969 0.307140
O O18 0.510425 0.000000 0.238091
O O19 0.109461 0.000000 0.351478
#
# Coordination Sequence:
#
# PCOD9198275 Si02
#       8
#     8   8   8   8   2   8   8   8
#     4  10  21  39  66  92 124 160 209 259 311 378
#     4  10  20  36  57  79 107 147 191 233 288 362
#     4  10  21  39  66  92 125 162 209 258 309 377
#     4  10  21  36  56  79 106 146 187 232 286 354
#     4  12  22  36  72  86 136 178 222 260 326 360
#     4   9  22  40  61  94 131 173 219 267 312 371
#     4  11  23  39  61  89 119 158 202 255 316 367
#     4  11  23  38  56  82 119 147 191 249 302 362
#
# _framework density 18.772732000000001
#
# number of rings (size 3 to 8) (size 9 to 14) (size 15 to 20)
#    0.000    1.793    1.379    3.517    5.793    2.483 
#    0.000    4.828    0.000    0.000    0.000    0.000 
#    0.000    0.000    0.000    0.000    0.000    0.000 
#
# Total GULP energy -161445.735177 kJ/mol
# GULP energy per Si atom -5567.094316 kJ/mol
# Density = 1.873000 g / cm^3
# Si number density = 18.772732 Si / 1000 Ang^3
#
#
#
# Elastic Constant Matrix: (Units=GPa)
#
#
# Indices 1 2 3 4 5 6 
#
# 1 94.9177 17.1643 34.8694 0.0000 -16.3978 0.0000
# 2 17.1643 46.6831 30.7384 0.0000 7.8996 0.0000
# 3 34.8694 30.7384 102.5706 0.0000 4.8592 0.0000
# 4 0.0000 0.0000 0.0000 30.1813 0.0000 0.9520
# 5 -16.3978 7.8996 4.8592 0.0000 -40.7248 0.0000
# 6 0.0000 0.0000 0.0000 0.9520 0.0000 23.8516
#
#
#
# Elastic Compliance Matrix: (Units=1/GPa)
#
#
# Indices 1 2 3 4 5 6 
#
# 1 0.011034 -0.001111 -0.003179 0.000000 -0.005038 0.000000
# 2 -0.001111 0.026096 -0.007660 0.000000 0.004595 0.000000
# 3 -0.003179 -0.007660 0.013062 0.000000 0.001353 0.000000
# 4 0.000000 0.000000 0.000000 0.033175 0.000000 -0.001324
# 5 -0.005038 0.004595 0.001353 0.000000 -0.021474 0.000000
# 6 0.000000 0.000000 0.000000 -0.001324 0.000000 0.041979
#
#
# Mechanical properties :
#
#
# Convention : Reuss Voigt Hill
#
# Bulk Modulus (GPa) = 38.03727 45.52399 41.78063
# Shear Modulus (GPa) = 36.62014 13.42156 25.02085
#
# Velocity S-wave (km/s) = 4.42147 2.67676 3.65475
# Velocity P-wave (km/s) = 6.80969 5.81860 6.33356
#
# Compressibility (1/GPa) = 0.02629000
#
# Stress axis : x y z
#
# Youngs Moduli (GPa) = 90.62842 38.32017 76.55871
#
# Poissons Ratio (x) = 0.04257 0.24342
# Poissons Ratio (y) = 0.10069 0.58648
# Poissons Ratio (z) = 0.28815 0.29355
#
# Static dielectric constant tensor:
#      x y z
#    x 1.643120 0.000000 0.019660 
#    y 0.000000 1.672750 0.000000 
#    z 0.019660 0.000000 1.637660 
# 
# From -- ./inp_files/338131.got.cif
#   From: 2010.05.17/outbox.cif.g08.bks.cpg/sg12_170_cif.got.tgz:338131.got - 2010.06.03 13:09:07.
