data_PCOD9198804
_publ_section_title
;
Structure prediction by ZEFSAII (Michael W. Deem and Ramdas Pophale) SiO2 
 PCOD9198804
Probable space group: C 2/M
;
_chemical_formula_sum "Si O2"
_cell_formula_units_Z 56
_cell_length_a 29.988435
_cell_length_b 7.630043
_cell_length_c 11.440932
_cell_angle_alpha 90.000000
_cell_angle_beta 67.679600
_cell_angle_gamma 90.000000
_cell_volume 2421.692113
_symmetry_space_group_name_H-M "C 2/M"
_symmetry_group_IT_number 12
_symmetry_cell_setting 'monoclinic'
loop_
_space_group_symop_operation_xyz
x,y,z
-x,y,-z
-x,-y,-z
x,-y,z
1/2+x,1/2+y,z
1/2-x,1/2+y,-z
1/2-x,1/2-y,-z
1/2+x,1/2-y,z
loop_
_atom_site_type_symbol
_atom_site_label
_atom_site_fract_x
_atom_site_fract_y
_atom_site_fract_z
Si Si1 0.797112 0.789995 0.877993
Si Si2 0.166533 0.708002 0.767594
Si Si3 0.629109 0.288826 0.570712
Si Si4 0.618739 0.701075 0.051016
Si Si5 0.988296 0.301433 0.882055
Si Si6 0.970886 0.791788 0.415055
Si Si7 0.273830 0.286192 0.639756
O O1 0.786541 0.733050 0.758360
O O2 0.802454 0.000000 0.871111
O O3 0.750000 0.750000 0.000000
O O4 0.846627 0.721655 0.883887
O O5 0.169918 0.500000 0.785200
O O6 0.126539 0.744279 0.709759
O O7 0.151524 0.795768 0.902769
O O8 0.219155 0.772849 0.672309
O O9 0.629729 0.500000 0.559289
O O10 0.583734 0.222032 0.542820
O O11 0.681119 0.219833 0.479026
O O12 0.605662 0.500000 0.093078
O O13 0.569415 0.797790 0.073333
O O14 0.007157 0.500000 0.868136
O O15 0.006965 0.229217 0.738011
O O16 0.000000 0.221397 0.000000
O O17 0.000000 0.722209 0.500000
O O18 0.967095 0.000000 0.438220
O O19 0.273344 0.500000 0.631839
#
# Coordination Sequence:
#
# PCOD9198804 Si02
#       7
#     8   8   8   8   8   8   8
#     4  10  20  36  58  85 119 156 195 241 294 352
#     4  11  21  36  58  86 124 160 195 241 295 355
#     4  10  21  38  61  85 116 155 199 246 295 353
#     4  11  23  37  62  92 120 155 200 249 299 359
#     4  11  25  44  66  92 125 163 206 259 318 376
#     4  10  23  42  66  93 122 160 209 261 311 367
#     4   9  19  35  57  84 117 156 194 237 288 347
#
# _framework density 23.124327000000001
#
# number of rings (size 3 to 8) (size 9 to 14) (size 15 to 20)
#    0.000    1.714    1.429    2.571    2.000    4.857 
#    0.000    1.429    0.000    0.000    0.000    0.000 
#    0.000    0.000    0.000    0.000    0.000    0.000 
#
# Total GULP energy -156357.468990 kJ/mol
# GULP energy per Si atom -5584.195321 kJ/mol
# Density = 2.307170 g / cm^3
# Si number density = 23.124327 Si / 1000 Ang^3
#
#
#
# Elastic Constant Matrix: (Units=GPa)
#
#
# Indices 1 2 3 4 5 6 
#
# 1 151.8218 -3.8113 47.5192 0.0000 24.6778 0.0000
# 2 -3.8113 50.8440 -12.2882 0.0000 0.7345 0.0000
# 3 47.5192 -12.2882 87.3588 0.0000 19.0055 0.0000
# 4 0.0000 0.0000 0.0000 18.0931 0.0000 -0.2141
# 5 24.6778 0.7345 19.0055 0.0000 47.0740 0.0000
# 6 0.0000 0.0000 0.0000 -0.2141 0.0000 10.1454
#
#
#
# Elastic Compliance Matrix: (Units=1/GPa)
#
#
# Indices 1 2 3 4 5 6 
#
# 1 0.008256 -0.000293 -0.003937 0.000000 -0.002734 0.000000
# 2 -0.000293 0.020483 0.003373 0.000000 -0.001528 0.000000
# 3 -0.003937 0.003373 0.014938 0.000000 -0.004019 0.000000
# 4 0.000000 0.000000 0.000000 0.055284 0.000000 0.001167
# 5 -0.002734 -0.001528 -0.004019 0.000000 0.024323 0.000000
# 6 0.000000 0.000000 0.000000 0.001167 0.000000 0.098591
#
#
# Mechanical properties :
#
#
# Convention : Reuss Voigt Hill
#
# Bulk Modulus (GPa) = 23.83101 39.20711 31.51906
# Shear Modulus (GPa) = 21.04576 32.30281 26.67429
#
# Velocity S-wave (km/s) = 3.02008 3.74159 3.40003
# Velocity P-wave (km/s) = 4.74227 5.97141 5.39198
#
# Compressibility (1/GPa) = 0.04196213
#
# Stress axis : x y z
#
# Youngs Moduli (GPa) = 121.12317 48.82020 66.94453
#
# Poissons Ratio (x) = 0.01432 0.26359
# Poissons Ratio (y) = 0.03552 -0.22581
# Poissons Ratio (z) = 0.47691 -0.16468
#
# Static dielectric constant tensor:
#      x y z
#    x 1.856710 0.000000 0.001650 
#    y 0.000000 1.826150 0.000000 
#    z 0.001650 0.000000 1.867200 
# 
# From -- ./inp_files/180730.got.cif
#   From: 2010.05.17/outbox.cif.g08.bks.cpg/sg12_91_cif.got.tgz:180730.got - 2010.06.03 13:09:07.
