data_PCOD9198198
_publ_section_title
;
Structure prediction by ZEFSAII (Michael W. Deem and Ramdas Pophale) SiO2 
 PCOD9198198
Probable space group: C 2/M
;
_chemical_formula_sum "Si O2"
_cell_formula_units_Z 44
_cell_length_a 17.072150
_cell_length_b 12.979896
_cell_length_c 16.476191
_cell_angle_alpha 90.000000
_cell_angle_beta 141.707097
_cell_angle_gamma 90.000000
_cell_volume 2262.481328
_symmetry_space_group_name_H-M "C 2/M"
_symmetry_group_IT_number 12
_symmetry_cell_setting 'monoclinic'
loop_
_space_group_symop_operation_xyz
x,y,z
-x,y,-z
-x,-y,-z
x,-y,z
1/2+x,1/2+y,z
1/2-x,1/2+y,-z
1/2-x,1/2-y,-z
1/2+x,1/2-y,z
loop_
_atom_site_type_symbol
_atom_site_label
_atom_site_fract_x
_atom_site_fract_y
_atom_site_fract_z
Si Si1 0.970993 0.384450 0.840554
Si Si2 0.500000 0.786477 0.500000
Si Si3 0.736506 0.618571 0.258032
Si Si4 0.641734 0.294142 0.352359
Si Si5 0.690658 0.824535 0.138447
Si Si6 0.515636 0.617032 0.638226
O O1 0.975727 0.500000 0.812796
O O2 0.936567 0.303230 0.744284
O O3 0.864672 0.376705 0.824946
O O4 0.100785 0.356320 0.991808
O O5 0.614184 0.856533 0.622262
O O6 0.455461 0.705455 0.532353
O O7 0.708899 0.500000 0.217604
O O8 0.693029 0.648432 0.313850
O O9 0.680194 0.702705 0.149955
O O10 0.750000 0.250000 0.500000
O O11 0.549540 0.367264 0.328382
O O12 0.834685 0.858081 0.240972
O O13 0.494941 0.500000 0.593356
#
# Coordination Sequence:
#
# PCOD9198198 Si02
#       6
#     8   4   8   8   8   8
#     4  10  20  39  64  85 115 154 191 242 290 336
#     4  10  20  36  56  84 112 146 204 234 270 354
#     4  10  20  37  58  81 116 155 187 237 291 337
#     4  11  23  39  52  86 123 151 196 233 281 357
#     4   9  20  38  61  90 113 142 203 244 279 348
#     4  11  21  36  58  84 118 152 188 245 293 331
#
# _framework density 19.447673999999999
#
# number of rings (size 3 to 8) (size 9 to 14) (size 15 to 20)
#    0.000    1.818    1.818    3.273    0.000    2.182 
#    0.000    9.091    0.000    0.000    0.000    0.000 
#    0.000    0.000    0.000    0.000    0.000    0.000 
#
# Total GULP energy -122826.270052 kJ/mol
# GULP energy per Si atom -5583.012275 kJ/mol
# Density = 1.940341 g / cm^3
# Si number density = 19.447674 Si / 1000 Ang^3
#
#
#
# Elastic Constant Matrix: (Units=GPa)
#
#
# Indices 1 2 3 4 5 6 
#
# 1 44.9925 7.9266 -1.7370 0.0000 3.7454 0.0000
# 2 7.9266 132.6178 -4.4021 0.0000 -3.5051 0.0000
# 3 -1.7370 -4.4021 23.9004 0.0000 2.7740 0.0000
# 4 0.0000 0.0000 0.0000 14.9773 0.0000 2.2434
# 5 3.7454 -3.5051 2.7740 0.0000 22.3281 0.0000
# 6 0.0000 0.0000 0.0000 2.2434 0.0000 13.6004
#
#
#
# Elastic Compliance Matrix: (Units=1/GPa)
#
#
# Indices 1 2 3 4 5 6 
#
# 1 0.022908 -0.001420 0.001903 0.000000 -0.004302 0.000000
# 2 -0.001420 0.007698 0.001164 0.000000 0.001302 0.000000
# 3 0.001903 0.001164 0.042826 0.000000 -0.005457 0.000000
# 4 0.000000 0.000000 0.000000 0.068459 0.000000 -0.011293
# 5 -0.004302 0.001302 -0.005457 0.000000 0.046391 0.000000
# 6 0.000000 0.000000 0.000000 -0.011293 0.000000 0.075390
#
#
# Mechanical properties :
#
#
# Convention : Reuss Voigt Hill
#
# Bulk Modulus (GPa) = 13.03351 22.78731 17.91041
# Shear Modulus (GPa) = 17.48532 23.49603 20.49067
#
# Velocity S-wave (km/s) = 3.00175 3.47964 3.24949
# Velocity P-wave (km/s) = 4.32786 5.28077 4.82788
#
# Compressibility (1/GPa) = 0.07672528
#
# Stress axis : x y z
#
# Youngs Moduli (GPa) = 43.65361 129.89772 23.35014
#
# Poissons Ratio (x) = 0.18442 -0.04443
# Poissons Ratio (y) = 0.06198 -0.02717
# Poissons Ratio (z) = -0.08306 -0.15115
#
# Static dielectric constant tensor:
#      x y z
#    x 1.692700 0.000000 0.001600 
#    y 0.000000 1.676830 0.000000 
#    z 0.001600 0.000000 1.670450 
# 
# From -- ./inp_files/153455.got.cif
#   From: 2010.05.17/outbox.cif.g08.bks.cpg/sg12_77_cif.got.tgz:153455.got - 2010.06.03 13:09:07.
