data_PCOD9198831
_publ_section_title
;
Structure prediction by ZEFSAII (Michael W. Deem and Ramdas Pophale) SiO2 
 PCOD9198831
Probable space group: C 2/M
;
_chemical_formula_sum "Si O2"
_cell_formula_units_Z 64
_cell_length_a 14.733343
_cell_length_b 8.514578
_cell_length_c 30.541250
_cell_angle_alpha 90.000000
_cell_angle_beta 130.088437
_cell_angle_gamma 90.000000
_cell_volume 2931.175603
_symmetry_space_group_name_H-M "C 2/M"
_symmetry_group_IT_number 12
_symmetry_cell_setting 'monoclinic'
loop_
_space_group_symop_operation_xyz
x,y,z
-x,y,-z
-x,-y,-z
x,-y,z
1/2+x,1/2+y,z
1/2-x,1/2+y,-z
1/2-x,1/2-y,-z
1/2+x,1/2-y,z
loop_
_atom_site_type_symbol
_atom_site_label
_atom_site_fract_x
_atom_site_fract_y
_atom_site_fract_z
Si Si1 0.119160 0.683327 0.456363
Si Si2 0.429219 0.186477 0.246095
Si Si3 0.755226 0.313480 0.275338
Si Si4 0.710515 0.185936 0.940816
Si Si5 0.371262 0.189321 0.400981
Si Si6 0.278071 0.815727 0.871792
Si Si7 0.946682 0.188245 0.848837
Si Si8 0.147086 0.685024 0.366260
O O1 0.128913 0.500000 0.470325
O O2 0.250000 0.750000 0.500000
O O3 0.086313 0.698746 0.394674
O O4 0.005529 0.749903 0.446679
O O5 0.349170 0.201931 0.265068
O O6 0.355410 0.276175 0.186463
O O7 0.558683 0.245450 0.301026
O O8 0.434867 0.000000 0.237381
O O9 0.738725 0.500000 0.277337
O O10 0.810354 0.249158 0.337095
O O11 0.631686 0.252542 0.216910
O O12 0.783552 0.262457 0.923617
O O13 0.572924 0.230629 0.891545
O O14 0.725644 0.000000 0.943803
O O15 0.750000 0.250000 0.000000
O O16 0.274567 0.233788 0.406760
O O17 0.379755 0.000000 0.401321
O O18 0.367654 0.724829 0.867395
O O19 0.300136 0.000000 0.874339
O O20 0.961678 0.000000 0.850032
O O21 0.164807 0.500000 0.364267
#
# Coordination Sequence:
#
# PCOD9198831 Si02
#       8
#     8   8   8   8   8   8   8   8
#     4  10  22  41  62  81 114 158 201 245 297 355
#     4   9  17  35  60  85 118 159 199 244 303 364
#     4   8  15  32  59  85 116 154 193 236 294 359
#     4  12  26  45  66  92 125 165 212 259 307 366
#     4  10  20  36  58  86 116 154 196 242 297 360
#     4  11  23  40  62  93 128 166 208 253 306 366
#     4  10  21  40  65  94 126 164 205 254 312 367
#     4  10  21  37  58  86 117 154 196 246 302 358
#
# _framework density 21.834244000000002
#
# number of rings (size 3 to 8) (size 9 to 14) (size 15 to 20)
#    0.000    2.000    1.250    3.375    1.750    2.500 
#    0.000    7.500    0.000    0.000    0.000    0.000 
#    0.000    0.000    0.000    0.000    0.000    0.000 
#
# Total GULP energy -178774.309119 kJ/mol
# GULP energy per Si atom -5586.697160 kJ/mol
# Density = 2.178455 g / cm^3
# Si number density = 21.834244 Si / 1000 Ang^3
#
#
#
# Elastic Constant Matrix: (Units=GPa)
#
#
# Indices 1 2 3 4 5 6 
#
# 1 59.2605 -3.6026 5.0358 0.0000 12.5506 0.0000
# 2 -3.6026 36.0547 3.8222 0.0000 -0.3785 0.0000
# 3 5.0358 3.8222 58.0703 0.0000 1.3343 0.0000
# 4 0.0000 0.0000 0.0000 26.3197 0.0000 4.2438
# 5 12.5506 -0.3785 1.3343 0.0000 33.6268 0.0000
# 6 0.0000 0.0000 0.0000 4.2438 0.0000 28.4663
#
#
#
# Elastic Compliance Matrix: (Units=1/GPa)
#
#
# Indices 1 2 3 4 5 6 
#
# 1 0.018578 0.001952 -0.001582 0.000000 -0.006849 0.000000
# 2 0.001952 0.028141 -0.002014 0.000000 -0.000332 0.000000
# 3 -0.001582 -0.002014 0.017493 0.000000 -0.000126 0.000000
# 4 0.000000 0.000000 0.000000 0.038930 0.000000 -0.005804
# 5 -0.006849 -0.000332 -0.000126 0.000000 0.032296 0.000000
# 6 0.000000 0.000000 0.000000 -0.005804 0.000000 0.035994
#
#
# Mechanical properties :
#
#
# Convention : Reuss Voigt Hill
#
# Bulk Modulus (GPa) = 16.41376 18.21068 17.31222
# Shear Modulus (GPa) = 25.63726 27.55791 26.59759
#
# Velocity S-wave (km/s) = 3.43034 3.55652 3.49400
# Velocity P-wave (km/s) = 4.81907 5.02231 4.92174
#
# Compressibility (1/GPa) = 0.06092450
#
# Stress axis : x y z
#
# Youngs Moduli (GPa) = 53.82606 35.53569 57.16517
#
# Poissons Ratio (x) = -0.06937 0.09045
# Poissons Ratio (y) = -0.10508 0.11512
# Poissons Ratio (z) = 0.08516 0.07156
#
# Static dielectric constant tensor:
#      x y z
#    x 1.827350 0.000000 -0.000050 
#    y 0.000000 1.742900 0.000000 
#    z -0.000050 0.000000 1.831960 
# 
# From -- ./inp_files/375645.got.cif
#   From: 2010.05.17/outbox.cif.g08.bks.cpg/sg12_188_cif.got.tgz:375645.got - 2010.06.03 13:09:07.
