data_PCOD9198459
_publ_section_title
;
Structure prediction by ZEFSAII (Michael W. Deem and Ramdas Pophale) SiO2 
 PCOD9198459
Probable space group: C 2/M
;
_chemical_formula_sum "Si O2"
_cell_formula_units_Z 48
_cell_length_a 24.775778
_cell_length_b 8.679570
_cell_length_c 11.914563
_cell_angle_alpha 90.000000
_cell_angle_beta 111.539654
_cell_angle_gamma 90.000000
_cell_volume 2383.213841
_symmetry_space_group_name_H-M "C 2/M"
_symmetry_group_IT_number 12
_symmetry_cell_setting 'monoclinic'
loop_
_space_group_symop_operation_xyz
x,y,z
-x,y,-z
-x,-y,-z
x,-y,z
1/2+x,1/2+y,z
1/2-x,1/2+y,-z
1/2-x,1/2-y,-z
1/2+x,1/2-y,z
loop_
_atom_site_type_symbol
_atom_site_label
_atom_site_fract_x
_atom_site_fract_y
_atom_site_fract_z
Si Si1 0.768184 0.684035 0.134178
Si Si2 0.938292 0.182207 0.014081
Si Si3 0.666663 0.183185 0.204355
Si Si4 0.880970 0.314218 0.349869
Si Si5 0.017728 0.816097 0.707992
Si Si6 0.111919 0.685655 0.393921
O O1 0.769446 0.500000 0.126746
O O2 0.721254 0.734091 0.190674
O O3 0.831135 0.737785 0.225797
O O4 0.750000 0.750000 0.000000
O O5 0.888808 0.278658 0.915692
O O6 0.923336 0.000000 0.995302
O O7 0.948490 0.223858 0.151150
O O8 0.000000 0.203237 0.000000
O O9 0.650034 0.237593 0.317096
O O10 0.676680 0.000000 0.213321
O O11 0.884464 0.500000 0.348023
O O12 0.942929 0.246753 0.362314
O O13 0.865632 0.269544 0.465719
O O14 0.953654 0.746607 0.665397
O O15 0.012935 0.000000 0.697871
O O16 0.109879 0.500000 0.387294
#
# Coordination Sequence:
#
# PCOD9198459 Si02
#       6
#     8   8   8   8   8   8
#     4  11  24  43  66  89 117 154 197 245 296 352
#     4  10  20  36  57  84 120 156 192 240 295 347
#     4  11  23  38  61  91 121 155 198 245 293 349
#     4  10  23  42  61  83 116 160 201 238 292 355
#     4  11  22  36  59  90 121 154 197 247 296 345
#     4  10  22  40  60  85 120 159 197 239 291 354
#
# _framework density 20.14087
#
# number of rings (size 3 to 8) (size 9 to 14) (size 15 to 20)
#    0.000    1.500    1.667    3.000    0.000    9.667 
#    0.000    0.000    0.000    0.000    0.000    0.000 
#    0.000    0.000    0.000    0.000    0.000    0.000 
#
# Total GULP energy -134182.256154 kJ/mol
# GULP energy per Si atom -5590.927340 kJ/mol
# Density = 2.009503 g / cm^3
# Si number density = 20.140870 Si / 1000 Ang^3
#
#
#
# Elastic Constant Matrix: (Units=GPa)
#
#
# Indices 1 2 3 4 5 6 
#
# 1 103.8552 13.3372 43.8961 0.0000 -19.7433 0.0000
# 2 13.3372 16.2932 23.6262 0.0000 -4.5218 0.0000
# 3 43.8961 23.6262 109.4944 0.0000 -17.4786 0.0000
# 4 0.0000 0.0000 0.0000 22.8602 0.0000 -2.5165
# 5 -19.7433 -4.5218 -17.4786 0.0000 28.1362 0.0000
# 6 0.0000 0.0000 0.0000 -2.5165 0.0000 30.5425
#
#
#
# Elastic Compliance Matrix: (Units=1/GPa)
#
#
# Indices 1 2 3 4 5 6 
#
# 1 0.012695 -0.003964 -0.003235 0.000000 0.006262 0.000000
# 2 -0.003964 0.090739 -0.017879 0.000000 0.000694 0.000000
# 3 -0.003235 -0.017879 0.014949 0.000000 0.004143 0.000000
# 4 0.000000 0.000000 0.000000 0.044145 0.000000 0.003637
# 5 0.006262 0.000694 0.004143 0.000000 0.042621 0.000000
# 6 0.000000 0.000000 0.000000 0.003637 0.000000 0.033041
#
#
# Mechanical properties :
#
#
# Convention : Reuss Voigt Hill
#
# Bulk Modulus (GPa) = 14.65678 43.48464 29.07071
# Shear Modulus (GPa) = 16.07262 26.22666 21.14964
#
# Velocity S-wave (km/s) = 2.82797 3.61246 3.24402
# Velocity P-wave (km/s) = 4.23747 6.24796 5.33822
#
# Compressibility (1/GPa) = 0.06822783
#
# Stress axis : x y z
#
# Youngs Moduli (GPa) = 78.76839 11.02062 66.89415
#
# Poissons Ratio (x) = 0.04368 0.21638
# Poissons Ratio (y) = 0.31222 1.19602
# Poissons Ratio (z) = 0.25479 0.19704
#
# Static dielectric constant tensor:
#      x y z
#    x 1.686620 0.000000 -0.012910 
#    y 0.000000 1.681940 0.000000 
#    z -0.012910 0.000000 1.731340 
# 
# From -- ./inp_files/172923.got.cif
#   From: 2010.05.17/outbox.cif.g08.bks.cpg/sg12_87_cif.got.tgz:172923.got - 2010.06.03 13:09:07.
