data_PCOD9198299
_publ_section_title
;
Structure prediction by ZEFSAII (Michael W. Deem and Ramdas Pophale) SiO2 
 PCOD9198299
Probable space group: C 2/M
;
_chemical_formula_sum "Si O2"
_cell_formula_units_Z 48
_cell_length_a 20.702536
_cell_length_b 8.683402
_cell_length_c 15.951057
_cell_angle_alpha 90.000000
_cell_angle_beta 70.812193
_cell_angle_gamma 90.000000
_cell_volume 2708.196722
_symmetry_space_group_name_H-M "C 2/M"
_symmetry_group_IT_number 12
_symmetry_cell_setting 'monoclinic'
loop_
_space_group_symop_operation_xyz
x,y,z
-x,y,-z
-x,-y,-z
x,-y,z
1/2+x,1/2+y,z
1/2-x,1/2+y,-z
1/2-x,1/2-y,-z
1/2+x,1/2-y,z
loop_
_atom_site_type_symbol
_atom_site_label
_atom_site_fract_x
_atom_site_fract_y
_atom_site_fract_z
Si Si1 0.680018 0.184149 0.066682
Si Si2 0.961051 0.184853 0.930973
Si Si3 0.650599 0.683468 0.604375
Si Si4 0.011381 0.316606 0.735385
Si Si5 0.871344 0.814847 0.736678
Si Si6 0.208738 0.814921 0.397868
O O1 0.614625 0.243683 0.042079
O O2 0.667184 0.246106 0.166180
O O3 0.681039 0.000000 0.066469
O O4 0.750000 0.250000 0.000000
O O5 0.001154 0.247860 0.832860
O O6 0.955717 0.000000 0.926815
O O7 0.000000 0.223752 0.000000
O O8 0.641352 0.500000 0.614163
O O9 0.583379 0.766424 0.666478
O O10 0.717845 0.734324 0.626826
O O11 0.667294 0.723685 0.500374
O O12 0.005390 0.500000 0.741858
O O13 0.948344 0.248875 0.708602
O O14 0.833000 0.773268 0.667342
O O15 0.873145 0.000000 0.743106
O O16 0.219121 0.000000 0.393519
#
# Coordination Sequence:
#
# PCOD9198299 Si02
#       6
#     8   8   8   8   8   8
#     4  11  22  37  57  81 110 143 180 220 266 318
#     4  10  21  38  59  82 108 139 178 223 270 319
#     4  10  20  36  57  80 109 143 180 222 267 317
#     4  11  22  36  55  80 111 144 180 220 265 318
#     4  10  20  37  58  80 109 141 178 223 270 319
#     4   9  20  37  57  81 108 141 179 222 271 319
#
# _framework density 17.723970999999999
#
# number of rings (size 3 to 8) (size 9 to 14) (size 15 to 20)
#    0.000    1.833    0.000    6.500    0.000    5.333 
#    0.000    3.333    0.000    0.000    0.000    0.000 
#    0.000    0.000    0.000    0.000    0.000    0.000 
#
# Total GULP energy -134071.107304 kJ/mol
# GULP energy per Si atom -5586.296138 kJ/mol
# Density = 1.768363 g / cm^3
# Si number density = 17.723971 Si / 1000 Ang^3
#
#
#
# Elastic Constant Matrix: (Units=GPa)
#
#
# Indices 1 2 3 4 5 6 
#
# 1 161.7260 76.0466 115.7540 0.0000 6.4897 0.0000
# 2 76.0466 105.3791 58.7492 0.0000 4.5670 0.0000
# 3 115.7540 58.7492 95.0971 0.0000 5.2801 0.0000
# 4 0.0000 0.0000 0.0000 23.8588 0.0000 -5.0517
# 5 6.4897 4.5670 5.2801 0.0000 42.2333 0.0000
# 6 0.0000 0.0000 0.0000 -5.0517 0.0000 35.6862
#
#
#
# Elastic Compliance Matrix: (Units=1/GPa)
#
#
# Indices 1 2 3 4 5 6 
#
# 1 0.048709 -0.003199 -0.057315 0.000000 0.000027 0.000000
# 2 -0.003199 0.014693 -0.005159 0.000000 -0.000452 0.000000
# 3 -0.057315 -0.005159 0.083527 0.000000 -0.001078 0.000000
# 4 0.000000 0.000000 0.000000 0.043208 0.000000 0.006117
# 5 0.000027 -0.000452 -0.001078 0.000000 0.023858 0.000000
# 6 0.000000 0.000000 0.000000 0.006117 0.000000 0.028888
#
#
# Mechanical properties :
#
#
# Convention : Reuss Voigt Hill
#
# Bulk Modulus (GPa) = 64.16431 95.92242 80.04337
# Shear Modulus (GPa) = 13.17790 27.79918 20.48854
#
# Velocity S-wave (km/s) = 2.72969 3.96466 3.40366
# Velocity P-wave (km/s) = 6.79820 8.67155 7.79138
#
# Compressibility (1/GPa) = 0.01558499
#
# Stress axis : x y z
#
# Youngs Moduli (GPa) = 20.53010 68.05741 11.97213
#
# Poissons Ratio (x) = 0.21769 0.68618
# Poissons Ratio (y) = 0.06567 0.06176
# Poissons Ratio (z) = 1.17668 0.35110
#
# Static dielectric constant tensor:
#      x y z
#    x 1.577990 0.000000 0.008460 
#    y 0.000000 1.593470 0.000000 
#    z 0.008460 0.000000 1.583260 
# 
# From -- ./inp_files/229879.got.cif
#   From: 2010.05.17/outbox.cif.g08.bks.cpg/sg12_115_cif.got.tgz:229879.got - 2010.06.03 13:09:07.
