data_PCOD9198085
_publ_section_title
;
Structure prediction by ZEFSAII (Michael W. Deem and Ramdas Pophale) SiO2 
 PCOD9198085
Probable space group: C 2/M
;
_chemical_formula_sum "Si O2"
_cell_formula_units_Z 64
_cell_length_a 32.398737
_cell_length_b 8.669334
_cell_length_c 24.842815
_cell_angle_alpha 90.000000
_cell_angle_beta 150.587085
_cell_angle_gamma 90.000000
_cell_volume 3426.767678
_symmetry_space_group_name_H-M "C 2/M"
_symmetry_group_IT_number 12
_symmetry_cell_setting 'monoclinic'
loop_
_space_group_symop_operation_xyz
x,y,z
-x,y,-z
-x,-y,-z
x,-y,z
1/2+x,1/2+y,z
1/2-x,1/2+y,-z
1/2-x,1/2-y,-z
1/2+x,1/2-y,z
loop_
_atom_site_type_symbol
_atom_site_label
_atom_site_fract_x
_atom_site_fract_y
_atom_site_fract_z
Si Si1 0.387611 0.177790 0.260078
Si Si2 0.371643 0.315675 0.846717
Si Si3 0.598814 0.331383 0.617633
Si Si4 0.691692 0.683461 0.610622
Si Si5 0.971495 0.187297 0.169837
Si Si6 0.519394 0.184643 0.939094
Si Si7 0.717578 0.314347 0.018920
Si Si8 0.959618 0.813991 0.636380
O O1 0.394361 0.199099 0.331052
O O2 0.293135 0.235603 0.142846
O O3 0.460773 0.262986 0.309827
O O4 0.393075 0.000000 0.249907
O O5 0.378336 0.500000 0.856013
O O6 0.280310 0.266103 0.721253
O O7 0.441052 0.246617 0.885012
O O8 0.398098 0.250276 0.935809
O O9 0.500000 0.348473 0.500000
O O10 0.631719 0.500000 0.674267
O O11 0.640144 0.298759 0.607501
O O12 0.707323 0.500000 0.620379
O O13 0.628041 0.737706 0.490948
O O14 0.991868 0.256940 0.134752
O O15 0.025069 0.232836 0.283908
O O16 0.975143 0.000000 0.170102
O O17 0.875669 0.237449 0.073144
O O18 0.522091 0.000000 0.943790
O O19 0.713731 0.500000 0.013125
O O20 0.750000 0.250000 0.000000
O O21 0.958946 0.000000 0.634385
#
# Coordination Sequence:
#
# PCOD9198085 Si02
#       8
#     8   8   8   8   8   8   8   8
#     4  11  22  33  49  79 117 154 197 248 296 339
#     4  11  23  42  67  92 120 151 186 235 297 355
#     4  10  20  36  56  78 110 155 202 240 285 344
#     4  10  21  38  60  88 117 152 202 247 290 347
#     4  10  21  38  60  87 118 157 200 243 294 347
#     4  11  23  42  67  93 120 150 188 237 291 349
#     4  10  21  35  53  79 114 154 197 242 285 340
#     4  10  20  38  61  81 114 163 204 241 289 346
#
# _framework density 18.676490999999999
#
# number of rings (size 3 to 8) (size 9 to 14) (size 15 to 20)
#    0.000    1.625    2.500    3.375    1.750    2.750 
#    0.000    0.625    0.000    0.000    0.000    0.000 
#    0.000    0.000    0.000    0.000    0.000    0.000 
#
# Total GULP energy -178387.619045 kJ/mol
# GULP energy per Si atom -5574.613095 kJ/mol
# Density = 1.863398 g / cm^3
# Si number density = 18.676491 Si / 1000 Ang^3
#
#
#
# Elastic Constant Matrix: (Units=GPa)
#
#
# Indices 1 2 3 4 5 6 
#
# 1 86.7497 33.1800 52.4216 0.0000 -13.5996 0.0000
# 2 33.1800 55.1715 46.6989 0.0000 -7.7659 0.0000
# 3 52.4216 46.6989 149.7109 0.0000 -10.8577 0.0000
# 4 0.0000 0.0000 0.0000 23.4305 0.0000 -1.3359
# 5 -13.5996 -7.7659 -10.8577 0.0000 27.9213 0.0000
# 6 0.0000 0.0000 0.0000 -1.3359 0.0000 30.6777
#
#
#
# Elastic Compliance Matrix: (Units=1/GPa)
#
#
# Indices 1 2 3 4 5 6 
#
# 1 0.016941 -0.006474 -0.003545 0.000000 0.005072 0.000000
# 2 -0.006474 0.027538 -0.006170 0.000000 0.002107 0.000000
# 3 -0.003545 -0.006170 0.009874 0.000000 0.000397 0.000000
# 4 0.000000 0.000000 0.000000 0.042786 0.000000 0.001863
# 5 0.005072 0.002107 0.000397 0.000000 0.039026 0.000000
# 6 0.000000 0.000000 0.000000 0.001863 0.000000 0.032678
#
#
# Mechanical properties :
#
#
# Convention : Reuss Voigt Hill
#
# Bulk Modulus (GPa) = 45.50545 61.80367 53.65456
# Shear Modulus (GPa) = 23.97568 27.02800 25.50184
#
# Velocity S-wave (km/s) = 3.58681 3.80829 3.69921
# Velocity P-wave (km/s) = 6.44761 7.24576 6.85830
#
# Compressibility (1/GPa) = 0.02197539
#
# Stress axis : x y z
#
# Youngs Moduli (GPa) = 59.02960 36.31365 101.27471
#
# Poissons Ratio (x) = 0.23509 0.35897
# Poissons Ratio (y) = 0.38215 0.62488
# Poissons Ratio (z) = 0.20923 0.22406
#
# Static dielectric constant tensor:
#      x y z
#    x 1.606150 0.000000 -0.012910 
#    y 0.000000 1.597540 0.000000 
#    z -0.012910 0.000000 1.660150 
# 
# From -- ./inp_files/353458.got.cif
#   From: 2010.05.17/outbox.cif.g08.bks.cpg/sg12_177_cif.got.tgz:353458.got - 2010.06.03 13:09:07.
