data_PCOD9198881
_publ_section_title
;
Structure prediction by ZEFSAII (Michael W. Deem and Ramdas Pophale) SiO2 
 PCOD9198881
Probable space group: C 2/M
;
_chemical_formula_sum "Si O2"
_cell_formula_units_Z 32
_cell_length_a 24.696538
_cell_length_b 13.028313
_cell_length_c 9.500426
_cell_angle_alpha 90.000000
_cell_angle_beta 34.438716
_cell_angle_gamma 90.000000
_cell_volume 1728.696310
_symmetry_space_group_name_H-M "C 2/M"
_symmetry_group_IT_number 12
_symmetry_cell_setting 'monoclinic'
loop_
_space_group_symop_operation_xyz
x,y,z
-x,y,-z
-x,-y,-z
x,-y,z
1/2+x,1/2+y,z
1/2-x,1/2+y,-z
1/2-x,1/2-y,-z
1/2+x,1/2-y,z
loop_
_atom_site_type_symbol
_atom_site_label
_atom_site_fract_x
_atom_site_fract_y
_atom_site_fract_z
Si Si1 0.181287 0.379621 0.031749
Si Si2 0.132074 0.760280 0.377209
Si Si3 0.522133 0.619604 0.116069
Si Si4 0.215621 0.226017 0.729605
O O1 0.165858 0.500000 0.066626
O O2 0.118011 0.316151 0.278199
O O3 0.291870 0.348854 0.833760
O O4 0.171858 0.327923 0.898375
O O5 0.193618 0.702038 0.366100
O O6 0.041658 0.812422 0.642705
O O7 0.498561 0.500000 0.185855
O O8 0.500000 0.645964 0.000000
O O9 0.633376 0.641606 0.904447
O O10 0.250000 0.250000 0.500000
#
# Coordination Sequence:
#
# PCOD9198881 Si02
#       4
#     8   8   8   8
#     4   9  19  39  59  78 118 163 188 230 299 348
#     4   9  20  37  59  87 118 150 192 243 281 346
#     4  11  21  36  62  89 114 151 194 241 292 341
#     4  10  20  36  58  88 119 148 189 245 290 340
#
# _framework density 18.511058999999999
#
# number of rings (size 3 to 8) (size 9 to 14) (size 15 to 20)
#    1.500    0.750    2.500    0.750    0.000    3.000 
#    0.000    3.750    0.000    1.500    0.000    0.000 
#    0.000    0.000    0.000    0.000    0.000    0.000 
#
# Total GULP energy -89081.268738 kJ/mol
# GULP energy per Si atom -5567.579296 kJ/mol
# Density = 1.846893 g / cm^3
# Si number density = 18.511059 Si / 1000 Ang^3
#
#
#
# Elastic Constant Matrix: (Units=GPa)
#
#
# Indices 1 2 3 4 5 6 
#
# 1 51.9952 22.8744 41.6896 0.0000 14.2212 0.0000
# 2 22.8744 92.6929 51.6790 0.0000 28.2251 0.0000
# 3 41.6896 51.6790 138.8947 0.0000 27.3977 0.0000
# 4 0.0000 0.0000 0.0000 15.2350 0.0000 0.3279
# 5 14.2212 28.2251 27.3977 0.0000 38.3559 0.0000
# 6 0.0000 0.0000 0.0000 0.3279 0.0000 23.1805
#
#
#
# Elastic Compliance Matrix: (Units=1/GPa)
#
#
# Indices 1 2 3 4 5 6 
#
# 1 0.026227 -0.001683 -0.006486 0.000000 -0.003853 0.000000
# 2 -0.001683 0.015832 -0.003737 0.000000 -0.008357 0.000000
# 3 -0.006486 -0.003737 0.011082 0.000000 -0.002761 0.000000
# 4 0.000000 0.000000 0.000000 0.065659 0.000000 -0.000929
# 5 -0.003853 -0.008357 -0.002761 0.000000 0.035622 0.000000
# 6 0.000000 0.000000 0.000000 -0.000929 0.000000 0.043153
#
#
# Mechanical properties :
#
#
# Convention : Reuss Voigt Hill
#
# Bulk Modulus (GPa) = 34.09635 57.34098 45.71866
# Shear Modulus (GPa) = 21.62988 26.51025 24.07007
#
# Velocity S-wave (km/s) = 3.42202 3.78846 3.60989
# Velocity P-wave (km/s) = 5.83721 7.08381 6.49051
#
# Compressibility (1/GPa) = 0.02932866
#
# Stress axis : x y z
#
# Youngs Moduli (GPa) = 38.12838 63.16403 90.24041
#
# Poissons Ratio (x) = 0.10630 0.58530
# Poissons Ratio (y) = 0.06417 0.33723
# Poissons Ratio (z) = 0.24730 0.23605
#
# Static dielectric constant tensor:
#      x y z
#    x 1.682380 0.000000 -0.011230 
#    y 0.000000 1.597210 0.000000 
#    z -0.011230 0.000000 1.644910 
# 
# From -- ./inp_files/101775.got.cif
#   From: 2010.05.17/outbox.cif.g08.bks.cpg/sg12_51_cif.got.tgz:101775.got - 2010.06.03 13:09:07.
