data_PCOD9198225
_publ_section_title
;
Structure prediction by ZEFSAII (Michael W. Deem and Ramdas Pophale) SiO2 
 PCOD9198225
Probable space group: C 2/M
;
_chemical_formula_sum "Si O2"
_cell_formula_units_Z 40
_cell_length_a 19.433782
_cell_length_b 11.139846
_cell_length_c 19.674242
_cell_angle_alpha 90.000000
_cell_angle_beta 28.619898
_cell_angle_gamma 90.000000
_cell_volume 2040.173398
_symmetry_space_group_name_H-M "C 2/M"
_symmetry_group_IT_number 12
_symmetry_cell_setting 'monoclinic'
loop_
_space_group_symop_operation_xyz
x,y,z
-x,y,-z
-x,-y,-z
x,-y,z
1/2+x,1/2+y,z
1/2-x,1/2+y,-z
1/2-x,1/2-y,-z
1/2+x,1/2-y,z
loop_
_atom_site_type_symbol
_atom_site_label
_atom_site_fract_x
_atom_site_fract_y
_atom_site_fract_z
Si Si1 0.425752 0.267325 0.635793
Si Si2 0.862611 0.361481 0.168571
Si Si3 0.890665 0.000000 0.032572
Si Si4 0.437917 0.741677 0.903995
Si Si5 0.372879 0.362936 0.821324
Si Si6 0.934951 0.500000 0.632358
O O1 0.500000 0.298628 0.500000
O O2 0.258609 0.277064 0.758562
O O3 0.441878 0.350489 0.687221
O O4 0.475565 0.135560 0.618414
O O5 0.811602 0.500000 0.217676
O O6 0.925041 0.310198 0.184571
O O7 0.000000 0.360554 0.000000
O O8 0.733339 0.000000 0.202792
O O9 0.915282 0.882095 0.965112
O O10 0.000000 0.000000 0.000000
O O11 0.446955 0.713630 0.816291
O O12 0.292198 0.818346 0.040566
O O13 0.372725 0.500000 0.843277
O O14 0.000000 0.500000 0.500000
#
# Coordination Sequence:
#
# PCOD9198225 Si02
#       6
#     8   8   4   8   8   4
#     4  11  23  40  64  90 119 157 202 246 296 361
#     4  11  21  38  60  89 122 156 199 248 294 348
#     4  12  20  36  62  90 119 153 201 248 292 349
#     4  11  22  36  58  91 121 157 197 251 297 353
#     4  11  22  38  57  87 125 157 196 248 305 351
#     4  10  20  36  56  88 120 148 190 241 293 344
#
# _framework density 19.606176000000001
#
# number of rings (size 3 to 8) (size 9 to 14) (size 15 to 20)
#    0.000    1.000    5.000    3.000    0.000    1.600 
#    1.800    1.000    0.000    0.000    0.000    0.000 
#    0.000    0.000    0.000    0.000    0.000    0.000 
#
# Total GULP energy -111515.169713 kJ/mol
# GULP energy per Si atom -5575.758486 kJ/mol
# Density = 1.956155 g / cm^3
# Si number density = 19.606176 Si / 1000 Ang^3
#
#
#
# Elastic Constant Matrix: (Units=GPa)
#
#
# Indices 1 2 3 4 5 6 
#
# 1 103.5230 2.8036 16.2058 0.0000 22.3400 0.0000
# 2 2.8036 73.9812 -0.7393 0.0000 7.8214 0.0000
# 3 16.2058 -0.7393 53.3437 0.0001 25.4379 0.0000
# 4 0.0000 0.0000 0.0001 19.5844 0.0000 6.9205
# 5 22.3400 7.8214 25.4379 0.0000 21.5854 0.0000
# 6 0.0000 0.0000 0.0000 6.9205 0.0000 32.0604
#
#
#
# Elastic Compliance Matrix: (Units=1/GPa)
#
#
# Indices 1 2 3 4 5 6 
#
# 1 0.013398 0.001923 0.006623 0.000000 -0.022368 0.000000
# 2 0.001923 0.015223 0.007320 0.000000 -0.016133 0.000000
# 3 0.006623 0.007320 0.048786 0.000000 -0.066999 0.000000
# 4 0.000000 0.000000 0.000000 0.055277 0.000000 -0.011932
# 5 -0.022368 -0.016133 -0.066999 0.000000 0.154280 0.000000
# 6 0.000000 0.000000 0.000000 -0.011932 0.000000 0.033767
#
#
# Mechanical properties :
#
#
# Convention : Reuss Voigt Hill
#
# Bulk Modulus (GPa) = 9.16270 29.70980 19.43625
# Shear Modulus (GPa) = 15.36676 28.81790 22.09233
#
# Velocity S-wave (km/s) = 2.80263 3.83801 3.36043
# Velocity P-wave (km/s) = 3.89313 5.90140 4.99915
#
# Compressibility (1/GPa) = 0.10913811
#
# Stress axis : x y z
#
# Youngs Moduli (GPa) = 74.63924 65.69108 20.49788
#
# Poissons Ratio (x) = -0.12634 -0.13576
# Poissons Ratio (y) = -0.14355 -0.15004
# Poissons Ratio (z) = -0.49434 -0.48084
#
# Static dielectric constant tensor:
#      x y z
#    x 1.677780 0.000000 0.013620 
#    y 0.000000 1.728720 0.000000 
#    z 0.013620 0.000000 1.696840 
# 
# From -- ./inp_files/83681.got.cif
#   From: 2010.05.17/outbox.cif.g08.bks.cpg/sg12_42_cif.got.tgz:83681.got - 2010.06.03 13:09:07.
