data_PCOD9198440
_publ_section_title
;
Structure prediction by ZEFSAII (Michael W. Deem and Ramdas Pophale) SiO2 
 PCOD9198440
Probable space group: C 2/M
;
_chemical_formula_sum "Si O2"
_cell_formula_units_Z 56
_cell_length_a 19.853578
_cell_length_b 13.750870
_cell_length_c 18.758791
_cell_angle_alpha 90.000000
_cell_angle_beta 30.759581
_cell_angle_gamma 90.000000
_cell_volume 2619.182571
_symmetry_space_group_name_H-M "C 2/M"
_symmetry_group_IT_number 12
_symmetry_cell_setting 'monoclinic'
loop_
_space_group_symop_operation_xyz
x,y,z
-x,y,-z
-x,-y,-z
x,-y,z
1/2+x,1/2+y,z
1/2-x,1/2+y,-z
1/2-x,1/2-y,-z
1/2+x,1/2-y,z
loop_
_atom_site_type_symbol
_atom_site_label
_atom_site_fract_x
_atom_site_fract_y
_atom_site_fract_z
Si Si1 0.621696 0.116006 0.149694
Si Si2 0.376653 0.615228 0.388318
Si Si3 0.636384 0.116662 0.700384
Si Si4 0.293551 0.260619 0.669372
Si Si5 0.592880 0.617680 0.090769
Si Si6 0.850679 0.106084 0.113712
Si Si7 0.539723 0.268229 0.347072
O O1 0.513065 0.134837 0.187775
O O2 0.585572 0.184119 0.250435
O O3 0.612273 0.000000 0.176040
O O4 0.772509 0.134229 0.987443
O O5 0.366453 0.500000 0.389409
O O6 0.233580 0.647329 0.546118
O O7 0.453934 0.652992 0.248280
O O8 0.481465 0.643034 0.354247
O O9 0.694436 0.169245 0.717136
O O10 0.651257 0.000000 0.695899
O O11 0.221613 0.164421 0.760213
O O12 0.413071 0.234569 0.508011
O O13 0.355240 0.298975 0.688124
O O14 0.579177 0.500000 0.095564
O O15 0.634353 0.656901 0.976234
O O16 0.787605 0.000000 0.161923
O O17 0.000000 0.094598 0.000000
#
# Coordination Sequence:
#
# PCOD9198440 Si02
#       7
#     8   8   8   8   8   8   8
#     4  10  20  36  57  84 115 148 190 240 291 341
#     4   9  19  36  57  83 113 148 194 240 285 337
#     4   9  20  38  61  86 114 151 194 242 289 334
#     4  10  21  38  55  84 120 149 191 238 285 347
#     4   9  18  35  57  81 111 144 186 236 287 342
#     4  10  21  37  57  82 115 154 189 230 287 349
#     4  10  21  35  58  85 112 152 195 236 287 343
#
# _framework density 21.380716
#
# number of rings (size 3 to 8) (size 9 to 14) (size 15 to 20)
#    0.000    2.429    1.429    0.000    0.000    6.286 
#    2.571    7.143    0.000    0.429    0.000    0.000 
#    0.000    0.000    0.000    0.000    0.000    0.000 
#
# Total GULP energy -156066.016535 kJ/mol
# GULP energy per Si atom -5573.786305 kJ/mol
# Density = 2.133205 g / cm^3
# Si number density = 21.380716 Si / 1000 Ang^3
#
#
#
# Elastic Constant Matrix: (Units=GPa)
#
#
# Indices 1 2 3 4 5 6 
#
# 1 85.2196 -6.5071 20.9403 -0.0001 -8.3619 0.0000
# 2 -6.5071 29.8858 -9.5966 -0.0001 9.3072 0.0000
# 3 20.9403 -9.5966 63.0139 -0.0001 0.9196 0.0001
# 4 -0.0001 -0.0001 -0.0001 20.3518 0.0001 -0.4995
# 5 -8.3619 9.3072 0.9196 0.0001 28.6947 0.0000
# 6 0.0000 0.0000 0.0001 -0.4995 0.0000 30.5128
#
#
#
# Elastic Compliance Matrix: (Units=1/GPa)
#
#
# Indices 1 2 3 4 5 6 
#
# 1 0.013222 0.000242 -0.004414 0.000000 0.003916 0.000000
# 2 0.000242 0.039511 0.006126 0.000000 -0.012941 0.000000
# 3 -0.004414 0.006126 0.018326 0.000000 -0.003860 0.000000
# 4 0.000000 0.000000 0.000000 0.049156 0.000000 0.000805
# 5 0.003916 -0.012941 -0.003860 0.000000 0.040312 0.000000
# 6 0.000000 0.000000 0.000000 0.000805 0.000000 0.032786
#
#
# Mechanical properties :
#
#
# Convention : Reuss Voigt Hill
#
# Bulk Modulus (GPa) = 13.33955 20.86581 17.10268
# Shear Modulus (GPa) = 23.32165 27.46404 25.39284
#
# Velocity S-wave (km/s) = 3.30628 3.58791 3.44997
# Velocity P-wave (km/s) = 4.56376 5.19081 4.88735
#
# Compressibility (1/GPa) = 0.07496503
#
# Stress axis : x y z
#
# Youngs Moduli (GPa) = 75.63306 25.30964 54.56850
#
# Poissons Ratio (x) = -0.00612 0.24087
# Poissons Ratio (y) = -0.01830 -0.33427
# Poissons Ratio (z) = 0.33385 -0.15504
#
# Static dielectric constant tensor:
#      x y z
#    x 1.842550 0.000000 -0.007610 
#    y 0.000000 1.809850 0.000000 
#    z -0.007610 0.000000 1.792880 
# 
# From -- ./inp_files/284535.got.cif
#   From: 2010.05.17/outbox.cif.g08.bks.cpg/sg12_143_cif.got.tgz:284535.got - 2010.06.03 13:09:07.
