data_PCOD9198116
_publ_section_title
;
Structure prediction by ZEFSAII (Michael W. Deem and Ramdas Pophale) SiO2 
 PCOD9198116
Probable space group: C 2/M
;
_chemical_formula_sum "Si O2"
_cell_formula_units_Z 64
_cell_length_a 34.168793
_cell_length_b 9.256190
_cell_length_c 19.114913
_cell_angle_alpha 90.000000
_cell_angle_beta 36.247905
_cell_angle_gamma 90.000000
_cell_volume 3574.600662
_symmetry_space_group_name_H-M "C 2/M"
_symmetry_group_IT_number 12
_symmetry_cell_setting 'monoclinic'
loop_
_space_group_symop_operation_xyz
x,y,z
-x,y,-z
-x,-y,-z
x,-y,z
1/2+x,1/2+y,z
1/2-x,1/2+y,-z
1/2-x,1/2-y,-z
1/2+x,1/2-y,z
loop_
_atom_site_type_symbol
_atom_site_label
_atom_site_fract_x
_atom_site_fract_y
_atom_site_fract_z
Si Si1 0.813785 0.827917 0.319164
Si Si2 0.166428 0.663897 0.178663
Si Si3 0.177211 0.827990 0.528838
Si Si4 0.570374 0.171470 0.931095
Si Si5 0.961729 0.826563 0.344455
Si Si6 0.924936 0.672739 0.909880
Si Si7 0.214015 0.336340 0.949236
Si Si8 0.017395 0.329050 0.393698
O O1 0.830785 0.798731 0.376541
O O2 0.741683 0.758307 0.410667
O O3 0.869568 0.757199 0.190413
O O4 0.811499 0.000000 0.312755
O O5 0.159934 0.500000 0.214106
O O6 0.218472 0.747852 0.151231
O O7 0.092914 0.725397 0.278287
O O8 0.194528 0.659012 0.059365
O O9 0.109880 0.791363 0.585278
O O10 0.189210 0.000000 0.503857
O O11 0.579711 0.000000 0.904048
O O12 0.500000 0.215470 0.000000
O O13 0.566783 0.191960 0.019480
O O14 0.019305 0.756093 0.213824
O O15 0.971557 0.759324 0.407119
O O16 0.968621 0.000000 0.335730
O O17 0.928848 0.500000 0.887812
O O18 0.851022 0.722236 0.995319
O O19 0.225159 0.500000 0.908623
O O20 0.015541 0.500000 0.377015
O O21 0.000000 0.316616 0.500000
#
# Coordination Sequence:
#
# PCOD9198116 Si02
#       8
#     8   8   8   8   8   8   8   8
#     4  10  20  36  59  84 112 148 190 233 275 325
#     4   9  17  32  53  76 102 133 172 218 266 318
#     4   9  20  38  58  82 113 149 186 229 280 329
#     4  10  21  36  56  83 116 153 186 223 277 335
#     4  11  22  36  58  85 111 140 183 235 280 326
#     4  10  20  36  56  79 111 148 185 224 274 333
#     4   9  17  31  52  76 101 135 174 217 265 316
#     4  10  21  39  59  78 108 146 181 225 277 333
#
# _framework density 17.904098000000001
#
# number of rings (size 3 to 8) (size 9 to 14) (size 15 to 20)
#    0.000    2.250    1.250    1.500    0.000    3.500 
#    2.250    0.000    0.000    0.000    0.000    0.000 
#    0.000    0.000    0.000    0.000    0.000    0.000 
#
# Total GULP energy -178514.865601 kJ/mol
# GULP energy per Si atom -5578.589550 kJ/mol
# Density = 1.786335 g / cm^3
# Si number density = 17.904098 Si / 1000 Ang^3
#
#
#
# Elastic Constant Matrix: (Units=GPa)
#
#
# Indices 1 2 3 4 5 6 
#
# 1 139.4670 53.9167 43.5817 -0.0029 -30.3553 0.0014
# 2 53.9167 50.2492 36.1312 -0.0082 -9.0192 0.0076
# 3 43.5817 36.1312 53.1712 -0.0056 -6.3062 0.0041
# 4 -0.0029 -0.0082 -0.0056 27.9720 0.0030 -3.5198
# 5 -30.3553 -9.0192 -6.3062 0.0030 26.9100 -0.0019
# 6 0.0014 0.0076 0.0041 -3.5198 -0.0019 27.4064
#
#
#
# Elastic Compliance Matrix: (Units=1/GPa)
#
#
# Indices 1 2 3 4 5 6 
#
# 1 0.015673 -0.012458 -0.002859 -0.000004 0.012834 0.000004
# 2 -0.012458 0.050159 -0.024219 0.000008 -0.002917 -0.000009
# 3 -0.002859 -0.024219 0.037299 0.000001 -0.002601 0.000001
# 4 -0.000004 0.000008 0.000001 0.036337 -0.000005 0.004667
# 5 0.012834 -0.002917 -0.002601 -0.000005 0.050051 0.000003
# 6 0.000004 -0.000009 0.000001 0.004667 0.000003 0.037087
#
#
# Mechanical properties :
#
#
# Convention : Reuss Voigt Hill
#
# Bulk Modulus (GPa) = 41.56316 56.68294 49.12305
# Shear Modulus (GPa) = 15.93890 23.74152 19.84021
#
# Velocity S-wave (km/s) = 2.98692 3.64543 3.33248
# Velocity P-wave (km/s) = 5.92961 7.03184 6.50412
#
# Compressibility (1/GPa) = 0.02405977
#
# Stress axis : x y z
#
# Youngs Moduli (GPa) = 63.80424 19.93672 26.81007
#
# Poissons Ratio (x) = 0.24836 0.07665
# Poissons Ratio (y) = 0.79485 0.64932
# Poissons Ratio (z) = 0.18241 0.48285
#
# Static dielectric constant tensor:
#      x y z
#    x 1.614930 0.000000 -0.004890 
#    y 0.000000 1.612410 0.000000 
#    z -0.004890 0.000000 1.592640 
# 
# From -- ./inp_files/295442.got.cif
#   From: 2010.05.17/outbox.cif.g08.bks.cpg/sg12_148_cif.got.tgz:295442.got - 2010.06.03 13:09:07.
