data_PCOD9198075
_publ_section_title
;
Structure prediction by ZEFSAII (Michael W. Deem and Ramdas Pophale) SiO2 
 PCOD9198075
Probable space group: C 2/M
;
_chemical_formula_sum "Si O2"
_cell_formula_units_Z 64
_cell_length_a 28.777584
_cell_length_b 8.763877
_cell_length_c 15.737858
_cell_angle_alpha 90.000000
_cell_angle_beta 66.124723
_cell_angle_gamma 90.000000
_cell_volume 3629.493883
_symmetry_space_group_name_H-M "C 2/M"
_symmetry_group_IT_number 12
_symmetry_cell_setting 'monoclinic'
loop_
_space_group_symop_operation_xyz
x,y,z
-x,y,-z
-x,-y,-z
x,-y,z
1/2+x,1/2+y,z
1/2-x,1/2+y,-z
1/2-x,1/2-y,-z
1/2+x,1/2-y,z
loop_
_atom_site_type_symbol
_atom_site_label
_atom_site_fract_x
_atom_site_fract_y
_atom_site_fract_z
Si Si1 0.056231 0.683848 0.486360
Si Si2 0.219949 0.317861 0.146197
Si Si3 0.676448 0.817919 0.992170
Si Si4 0.405304 0.816828 0.355293
Si Si5 0.841110 0.182661 0.650996
Si Si6 0.197094 0.817895 0.508593
Si Si7 0.532228 0.816036 0.858321
Si Si8 0.928927 0.182487 0.994191
O O1 0.060110 0.500000 0.475139
O O2 0.066651 0.723360 0.577208
O O3 0.101057 0.759124 0.398734
O O4 0.000000 0.730261 0.500000
O O5 0.226141 0.500000 0.146987
O O6 0.275099 0.240437 0.096986
O O7 0.188815 0.256448 0.249087
O O8 0.190090 0.283682 0.080446
O O9 0.671251 0.000000 0.986716
O O10 0.624957 0.737320 0.001347
O O11 0.349925 0.742240 0.400807
O O12 0.438024 0.773406 0.249192
O O13 0.399187 0.000000 0.358411
O O14 0.815296 0.226170 0.579902
O O15 0.840182 0.000000 0.659054
O O16 0.250000 0.750000 0.500000
O O17 0.198832 0.000000 0.511476
O O18 0.475531 0.748314 0.904053
O O19 0.529606 0.000000 0.866270
O O20 0.561120 0.750713 0.919316
O O21 0.931801 0.000000 0.995076
#
# Coordination Sequence:
#
# PCOD9198075 Si02
#       8
#     8   8   8   8   8   8   8   8
#     4   9  18  34  55  79 107 139 177 220 263 310
#     4  10  21  37  58  82 107 139 178 219 264 316
#     4  10  21  38  58  80 108 140 176 219 267 318
#     4   9  19  35  55  78 105 138 176 218 264 313
#     4  10  21  36  54  79 110 142 176 216 264 316
#     4  10  21  36  55  78 106 140 177 218 263 312
#     4  10  20  36  56  78 108 144 181 223 270 317
#     4  11  22  36  55  80 109 141 180 222 266 318
#
# _framework density 17.633312
#
# number of rings (size 3 to 8) (size 9 to 14) (size 15 to 20)
#    0.000    2.125    0.000    3.750    0.000    6.250 
#    0.000    3.750    0.000    0.000    0.000    0.000 
#    0.000    0.000    0.000    0.000    0.000    0.000 
#
# Total GULP energy -178683.116750 kJ/mol
# GULP energy per Si atom -5583.847398 kJ/mol
# Density = 1.759318 g / cm^3
# Si number density = 17.633312 Si / 1000 Ang^3
#
#
#
# Elastic Constant Matrix: (Units=GPa)
#
#
# Indices 1 2 3 4 5 6 
#
# 1 162.7405 56.9470 75.4755 0.0000 -24.3639 0.0000
# 2 56.9470 64.8375 55.2533 0.0000 -10.6747 0.0000
# 3 75.4755 55.2533 159.2388 0.0000 -32.1491 0.0000
# 4 0.0000 0.0000 0.0000 26.9131 0.0000 -7.2147
# 5 -24.3639 -10.6747 -32.1491 0.0000 13.5435 0.0000
# 6 0.0000 0.0000 0.0000 -7.2147 0.0000 32.6533
#
#
#
# Elastic Compliance Matrix: (Units=1/GPa)
#
#
# Indices 1 2 3 4 5 6 
#
# 1 0.010686 -0.007348 0.000378 0.000000 0.014328 0.000000
# 2 -0.007348 0.026967 -0.008165 0.000000 -0.011346 0.000000
# 3 0.000378 -0.008165 0.014924 0.000000 0.029671 0.000000
# 4 0.000000 0.000000 0.000000 0.039496 0.000000 0.008727
# 5 0.014328 -0.011346 0.029671 0.000000 0.161100 0.000000
# 6 0.000000 0.000000 0.000000 0.008727 0.000000 0.032553
#
#
# Mechanical properties :
#
#
# Convention : Reuss Voigt Hill
#
# Bulk Modulus (GPa) = 44.83080 84.68536 64.75808
# Shear Modulus (GPa) = 15.45914 27.89805 21.67860
#
# Velocity S-wave (km/s) = 2.96413 3.98191 3.51010
# Velocity P-wave (km/s) = 6.09868 8.32291 7.29605
#
# Compressibility (1/GPa) = 0.02230609
#
# Stress axis : x y z
#
# Youngs Moduli (GPa) = 93.57950 37.08191 67.00485
#
# Poissons Ratio (x) = 0.27249 -0.02530
# Poissons Ratio (y) = 0.68766 0.54709
# Poissons Ratio (z) = -0.03533 0.30277
#
# Static dielectric constant tensor:
#      x y z
#    x 1.575030 0.000000 0.010330 
#    y 0.000000 1.590350 0.000000 
#    z 0.010330 0.000000 1.580790 
# 
# From -- ./inp_files/243734.got.cif
#   From: 2010.05.17/outbox.cif.g08.bks.cpg/sg12_122_cif.got.tgz:243734.got - 2010.06.03 13:09:07.
