data_PCOD9198319
_publ_section_title
;
Structure prediction by ZEFSAII (Michael W. Deem and Ramdas Pophale) SiO2 
 PCOD9198319
Probable space group: C 2/M
;
_chemical_formula_sum "Si O2"
_cell_formula_units_Z 32
_cell_length_a 5.662114
_cell_length_b 34.202367
_cell_length_c 7.470941
_cell_angle_alpha 90.000000
_cell_angle_beta 115.643887
_cell_angle_gamma 90.000000
_cell_volume 1304.296816
_symmetry_space_group_name_H-M "C 2/M"
_symmetry_group_IT_number 12
_symmetry_cell_setting 'monoclinic'
loop_
_space_group_symop_operation_xyz
x,y,z
-x,y,-z
-x,-y,-z
x,-y,z
1/2+x,1/2+y,z
1/2-x,1/2+y,-z
1/2-x,1/2-y,-z
1/2+x,1/2-y,z
loop_
_atom_site_type_symbol
_atom_site_label
_atom_site_fract_x
_atom_site_fract_y
_atom_site_fract_z
Si Si1 0.500000 0.107584 0.500000
Si Si2 0.729850 0.357587 0.721337
Si Si3 0.846012 0.230014 0.259668
Si Si4 0.267399 0.543624 0.778890
Si Si5 0.000000 0.578875 0.000000
O O1 0.527096 0.134798 0.335008
O O2 0.734336 0.077047 0.620211
O O3 0.500000 0.360921 0.500000
O O4 0.710689 0.315217 0.801812
O O5 0.764557 0.391005 0.880170
O O6 0.565449 0.250804 0.203305
O O7 0.000000 0.229903 0.500000
O O8 0.267780 0.500000 0.703611
O O9 0.025706 0.552243 0.834158
O O10 0.500000 0.546131 0.000000
#
# Coordination Sequence:
#
# PCOD9198319 Si02
#       5
#     4   8   8   8   4
#     4  10  21  34  54  84 110 146 190 234 290 350
#     4  10  21  35  58  79 115 149 190 241 291 348
#     4   9  19  34  57  86 117 159 203 246 300 360
#     4  10  20  36  57  80 112 147 186 235 288 349
#     4  10  21  38  54  86 110 148 192 234 292 350
#
# _framework density 24.534292000000001
#
# number of rings (size 3 to 8) (size 9 to 14) (size 15 to 20)
#    0.000    2.250    0.000    2.250    8.750    0.000 
#    0.000    1.250    0.000   12.000    0.000    0.000 
#    0.000    0.000    0.000    0.000    0.000    0.000 
#
# Total GULP energy -89215.146949 kJ/mol
# GULP energy per Si atom -5575.946684 kJ/mol
# Density = 2.447845 g / cm^3
# Si number density = 24.534292 Si / 1000 Ang^3
#
#
#
# Elastic Constant Matrix: (Units=GPa)
#
#
# Indices 1 2 3 4 5 6 
#
# 1 77.1280 59.7495 8.0184 0.0000 17.0955 0.0000
# 2 59.7495 119.4471 1.2509 0.0000 18.8622 0.0000
# 3 8.0184 1.2509 84.6923 0.0000 10.0971 0.0000
# 4 0.0000 0.0000 0.0000 23.8849 0.0000 6.5910
# 5 17.0955 18.8622 10.0971 0.0000 29.6923 0.0000
# 6 0.0000 0.0000 0.0000 6.5910 0.0000 12.7040
#
#
#
# Elastic Compliance Matrix: (Units=1/GPa)
#
#
# Indices 1 2 3 4 5 6 
#
# 1 0.022328 -0.010218 -0.001255 0.000000 -0.005937 0.000000
# 2 -0.010218 0.014010 0.001167 0.000000 -0.003414 0.000000
# 3 -0.001255 0.001167 0.012415 0.000000 -0.004241 0.000000
# 4 0.000000 0.000000 0.000000 0.048863 0.000000 -0.025350
# 5 -0.005937 -0.003414 -0.004241 0.000000 0.040708 0.000000
# 6 0.000000 0.000000 0.000000 -0.025350 0.000000 0.091867
#
#
# Mechanical properties :
#
#
# Convention : Reuss Voigt Hill
#
# Bulk Modulus (GPa) = 35.53529 46.58946 41.06237
# Shear Modulus (GPa) = 19.21734 27.40615 23.31174
#
# Velocity S-wave (km/s) = 2.80176 3.34586 3.08583
# Velocity P-wave (km/s) = 4.99818 5.82728 5.42858
#
# Compressibility (1/GPa) = 0.02814104
#
# Stress axis : x y z
#
# Youngs Moduli (GPa) = 44.78769 71.37791 80.55025
#
# Poissons Ratio (x) = 0.72933 0.10110
# Poissons Ratio (y) = 0.45764 -0.09404
# Poissons Ratio (z) = 0.05621 -0.08333
#
# Static dielectric constant tensor:
#      x y z
#    x 2.156690 0.000000 0.052710 
#    y 0.000000 1.883250 0.000000 
#    z 0.052710 0.000000 1.957430 
# 
# From -- ./inp_files/34661.got.cif
#   From: 2010.05.17/outbox.cif.g08.bks.cpg/sg12_18_cif.got.tgz:34661.got - 2010.06.03 13:09:07.
