data_PCOD9198203
_publ_section_title
;
Structure prediction by ZEFSAII (Michael W. Deem and Ramdas Pophale) SiO2 
 PCOD9198203
Probable space group: C 2/M
;
_chemical_formula_sum "Si O2"
_cell_formula_units_Z 56
_cell_length_a 8.276188
_cell_length_b 26.169136
_cell_length_c 14.137257
_cell_angle_alpha 90.000000
_cell_angle_beta 111.603627
_cell_angle_gamma 90.000000
_cell_volume 2846.771160
_symmetry_space_group_name_H-M "C 2/M"
_symmetry_group_IT_number 12
_symmetry_cell_setting 'monoclinic'
loop_
_space_group_symop_operation_xyz
x,y,z
-x,y,-z
-x,-y,-z
x,-y,z
1/2+x,1/2+y,z
1/2-x,1/2+y,-z
1/2-x,1/2-y,-z
1/2+x,1/2-y,z
loop_
_atom_site_type_symbol
_atom_site_label
_atom_site_fract_x
_atom_site_fract_y
_atom_site_fract_z
Si Si1 0.250999 0.313389 0.349476
Si Si2 0.160130 0.857849 0.106781
Si Si3 0.645195 0.218745 0.731160
Si Si4 0.206243 0.333987 0.548841
Si Si5 0.015613 0.088071 0.608144
Si Si6 0.002038 0.944974 0.190872
Si Si7 0.674295 0.057233 0.979452
O O1 0.351377 0.278616 0.294174
O O2 0.267801 0.304283 0.466909
O O3 0.329092 0.370063 0.358036
O O4 0.046709 0.303171 0.290135
O O5 0.234805 0.804652 0.161146
O O6 0.295614 0.895130 0.082835
O O7 0.103258 0.894095 0.181894
O O8 0.000000 0.850298 0.000000
O O9 0.718159 0.197595 0.647278
O O10 0.333287 0.381931 0.581068
O O11 0.000000 0.346952 0.500000
O O12 0.040731 0.056230 0.707930
O O13 0.000000 0.064153 0.500000
O O14 0.089308 0.000000 0.189476
O O15 0.833452 0.943188 0.087669
O O16 0.670482 0.000000 0.934763
O O17 0.500000 0.063888 0.000000
#
# Coordination Sequence:
#
# PCOD9198203 Si02
#       7
#     8   8   8   8   8   8   8
#     4  10  22  33  55  82 113 149 193 229 281 333
#     4  10  21  37  59  83 115 150 191 232 288 342
#     4  11  20  35  56  82 113 149 187 239 280 334
#     4   9  18  34  55  82 109 146 187 236 279 327
#     4  10  20  36  56  84 118 150 190 234 282 341
#     4  10  20  36  61  84 113 152 188 233 288 342
#     4   9  19  36  60  88 113 140 188 243 288 337
#
# _framework density 19.671409000000001
#
# number of rings (size 3 to 8) (size 9 to 14) (size 15 to 20)
#    0.000    2.143    1.429    1.714    2.000    6.000 
#    0.000    0.714    0.000    0.429    0.000    0.000 
#    0.000    0.000    0.000    0.000    0.000    0.000 
#
# Total GULP energy -155945.564023 kJ/mol
# GULP energy per Si atom -5569.484429 kJ/mol
# Density = 1.962664 g / cm^3
# Si number density = 19.671409 Si / 1000 Ang^3
#
#
#
# Elastic Constant Matrix: (Units=GPa)
#
#
# Indices 1 2 3 4 5 6 
#
# 1 74.6652 17.0582 15.6913 0.0000 -10.1158 0.0000
# 2 17.0582 54.9491 24.2735 0.0000 -2.5455 0.0000
# 3 15.6913 24.2735 73.9532 0.0000 -13.2937 0.0000
# 4 0.0000 0.0000 0.0000 47.7924 0.0000 -5.0164
# 5 -10.1158 -2.5455 -13.2937 0.0000 19.5303 0.0000
# 6 0.0000 0.0000 0.0000 -5.0164 0.0000 16.2897
#
#
#
# Elastic Compliance Matrix: (Units=1/GPa)
#
#
# Indices 1 2 3 4 5 6 
#
# 1 0.015434 -0.004183 -0.000641 0.000000 0.007012 0.000000
# 2 -0.004183 0.022506 -0.007249 0.000000 -0.004167 0.000000
# 3 -0.000641 -0.007249 0.018012 0.000000 0.010983 0.000000
# 4 0.000000 0.000000 0.000000 0.021623 0.000000 0.006659
# 5 0.007012 -0.004167 0.010983 0.000000 0.061767 0.000000
# 6 0.000000 0.000000 0.000000 0.006659 0.000000 0.063439
#
#
# Mechanical properties :
#
#
# Convention : Reuss Voigt Hill
#
# Bulk Modulus (GPa) = 31.44101 35.29038 33.36569
# Shear Modulus (GPa) = 21.05013 26.49212 23.77113
#
# Velocity S-wave (km/s) = 3.27477 3.67377 3.47999
# Velocity P-wave (km/s) = 5.50605 5.99786 5.75721
#
# Compressibility (1/GPa) = 0.03180560
#
# Stress axis : x y z
#
# Youngs Moduli (GPa) = 64.79378 44.43205 55.51971
#
# Poissons Ratio (x) = 0.18586 0.03560
# Poissons Ratio (y) = 0.27104 0.40245
# Poissons Ratio (z) = 0.04154 0.32207
#
# Static dielectric constant tensor:
#      x y z
#    x 1.689020 0.000000 -0.015540 
#    y 0.000000 1.734130 0.000000 
#    z -0.015540 0.000000 1.679090 
# 
# From -- ./inp_files/198537.got.cif
#   From: 2010.05.17/outbox.cif.g08.bks.cpg/sg12_100_cif.got.tgz:198537.got - 2010.06.03 13:09:07.
