data_PCOD9198210
_publ_section_title
;
Structure prediction by ZEFSAII (Michael W. Deem and Ramdas Pophale) SiO2 
 PCOD9198210
Probable space group: C 2/M
;
_chemical_formula_sum "Si O2"
_cell_formula_units_Z 56
_cell_length_a 18.158843
_cell_length_b 15.340421
_cell_length_c 21.882878
_cell_angle_alpha 90.000000
_cell_angle_beta 152.478122
_cell_angle_gamma 90.000000
_cell_volume 2816.786326
_symmetry_space_group_name_H-M "C 2/M"
_symmetry_group_IT_number 12
_symmetry_cell_setting 'monoclinic'
loop_
_space_group_symop_operation_xyz
x,y,z
-x,y,-z
-x,-y,-z
x,-y,z
1/2+x,1/2+y,z
1/2-x,1/2+y,-z
1/2-x,1/2-y,-z
1/2+x,1/2-y,z
loop_
_atom_site_type_symbol
_atom_site_label
_atom_site_fract_x
_atom_site_fract_y
_atom_site_fract_z
Si Si1 0.838057 0.395297 0.039045
Si Si2 0.653845 0.605546 0.220268
Si Si3 0.093151 0.750338 0.011049
Si Si4 0.471844 0.398834 0.747234
Si Si5 0.867079 0.813470 0.548514
Si Si6 0.554477 0.898822 0.308296
Si Si7 0.399022 0.182042 0.308523
O O1 0.870819 0.500000 0.051051
O O2 0.885793 0.325808 0.022579
O O3 0.929865 0.362855 0.167115
O O4 0.647369 0.389303 0.904997
O O5 0.626338 0.500000 0.194095
O O6 0.512567 0.666236 0.088632
O O7 0.652517 0.628436 0.291576
O O8 0.813059 0.632708 0.300728
O O9 0.258236 0.784632 0.160357
O O10 0.000000 0.710840 0.000000
O O11 0.440806 0.500000 0.712840
O O12 0.465117 0.354450 0.676693
O O13 0.750000 0.750000 0.500000
O O14 0.735567 0.876458 0.423458
O O15 0.986661 0.763538 0.591942
O O16 0.508994 0.874264 0.344041
O O17 0.532715 0.000000 0.288441
#
# Coordination Sequence:
#
# PCOD9198210 Si02
#       7
#     8   8   8   8   8   8   8
#     4  10  21  37  61  91 117 152 203 252 301 352
#     4  10  22  36  58  93 127 158 195 244 303 363
#     4  10  21  35  59  88 121 160 193 246 304 355
#     4  10  20  37  62  89 118 155 201 249 297 353
#     4  10  21  36  57  84 116 160 202 241 290 355
#     4  10  21  36  58  86 117 154 196 251 301 352
#     4  10  20  36  56  84 123 157 196 236 302 362
#
# _framework density 19.880813
#
# number of rings (size 3 to 8) (size 9 to 14) (size 15 to 20)
#    0.000    2.000    1.429    1.714    4.000    5.714 
#    0.000    2.857    0.000    7.714    0.000    8.000 
#    0.000    0.000    0.000    0.000    0.000    0.000 
#
# Total GULP energy -155993.872459 kJ/mol
# GULP energy per Si atom -5571.209731 kJ/mol
# Density = 1.983556 g / cm^3
# Si number density = 19.880813 Si / 1000 Ang^3
#
#
#
# Elastic Constant Matrix: (Units=GPa)
#
#
# Indices 1 2 3 4 5 6 
#
# 1 47.3729 83.1249 4.8128 -0.0163 14.8583 0.0771
# 2 83.1249 32.6206 4.3617 0.0131 1.1136 -0.0645
# 3 4.8128 4.3617 48.2419 0.0009 6.0352 -0.0140
# 4 -0.0163 0.0131 0.0009 27.0866 0.0031 8.7508
# 5 14.8583 1.1136 6.0352 0.0031 21.5764 -0.0127
# 6 0.0771 -0.0645 -0.0140 8.7508 -0.0127 -2.0770
#
#
#
# Elastic Compliance Matrix: (Units=1/GPa)
#
#
# Indices 1 2 3 4 5 6 
#
# 1 -0.005776 0.014757 -0.001202 0.000089 0.003552 -0.000310
# 2 0.014757 -0.006658 0.000371 -0.000106 -0.009922 0.000368
# 3 -0.001202 0.000371 0.021465 0.000023 -0.005195 -0.000073
# 4 0.000089 -0.000106 0.000023 0.015635 -0.000026 0.065880
# 5 0.003552 -0.009922 -0.005195 -0.000026 0.045866 0.000086
# 6 -0.000310 0.000368 -0.000073 0.065880 0.000086 -0.203920
#
#
# Mechanical properties :
#
#
# Convention : Reuss Voigt Hill
#
# Bulk Modulus (GPa) = 27.11335 34.75935 30.93635
# Shear Modulus (GPa) = -33.56964 11.71294 -10.92835
#
# Velocity S-wave (km/s) = -4.11365 2.42989 -2.34710
# Velocity P-wave (km/s) = 2.98249 5.03928 2.87220
#
# Compressibility (1/GPa) = 0.03688220
#
# Stress axis : x y z
#
# Youngs Moduli (GPa) = -173.13904 -150.19050 46.58704
#
# Poissons Ratio (x) = 2.21632 0.05602
# Poissons Ratio (y) = 2.55496 -0.01729
# Poissons Ratio (z) = -0.20819 0.05575
#
# Static dielectric constant tensor:
#      x y z
#    x 1.668710 0.000000 0.076570 
#    y 0.000000 1.751040 0.000000 
#    z 0.076570 0.000000 1.579700 
# 
# From -- ./inp_files/316787.got.cif
#   From: 2010.05.17/outbox.cif.g08.bks.cpg/sg12_159_cif.got.tgz:316787.got - 2010.06.03 13:09:07.
