data_PCOD9198026
_publ_section_title
;
Structure prediction by ZEFSAII (Michael W. Deem and Ramdas Pophale) SiO2 
 PCOD9198026
Probable space group: C 2/M
;
_chemical_formula_sum "Si O2"
_cell_formula_units_Z 58
_cell_length_a 25.809827
_cell_length_b 19.605969
_cell_length_c 12.017838
_cell_angle_alpha 90.000000
_cell_angle_beta 150.085295
_cell_angle_gamma 90.000000
_cell_volume 3032.829618
_symmetry_space_group_name_H-M "C 2/M"
_symmetry_group_IT_number 12
_symmetry_cell_setting 'monoclinic'
loop_
_space_group_symop_operation_xyz
x,y,z
-x,y,-z
-x,-y,-z
x,-y,z
1/2+x,1/2+y,z
1/2-x,1/2+y,-z
1/2-x,1/2-y,-z
1/2+x,1/2-y,z
loop_
_atom_site_type_symbol
_atom_site_label
_atom_site_fract_x
_atom_site_fract_y
_atom_site_fract_z
Si Si1 0.861735 0.576644 0.529791
Si Si2 0.983157 0.345795 0.337622
Si Si3 0.116369 0.779751 0.503587
Si Si4 0.181682 0.922833 0.007219
Si Si5 0.240641 0.803370 0.383137
Si Si6 0.750663 0.824421 0.059968
Si Si7 0.533417 0.631731 0.905748
Si Si8 0.500000 0.500000 0.000000
O O1 0.876550 0.500000 0.600774
O O2 0.767953 0.574809 0.265564
O O3 0.818457 0.631377 0.538357
O O4 0.960529 0.602915 0.643356
O O5 0.000000 0.363122 0.500000
O O6 0.036610 0.273450 0.409907
O O7 0.860905 0.338747 0.094023
O O8 0.213273 0.735391 0.638877
O O9 0.160940 0.826935 0.682679
O O10 0.063111 0.820008 0.303276
O O11 0.084022 0.886057 0.880757
O O12 0.157732 0.000000 0.929760
O O13 0.227822 0.879539 0.993960
O O14 0.250000 0.750000 0.500000
O O15 0.124000 0.829421 0.143468
O O16 0.750000 0.750000 0.000000
O O17 0.508508 0.561092 0.920603
#
# Coordination Sequence:
#
# PCOD9198026 Si02
#       8
#     8   8   8   8   8   8   8   2
#     4   9  19  35  58  88 124 156 203 255 307 369
#     4  11  19  33  56  89 122 161 206 241 294 368
#     4  11  23  38  58  93 125 160 204 256 313 366
#     4  10  20  36  55  87 123 161 202 243 303 367
#     4  10  21  40  64  93 116 153 210 272 318 358
#     4  12  21  35  58  88 127 167 202 247 302 371
#     4  11  23  41  63  91 121 157 211 262 314 380
#     4  12  24  44  68  86 112 164 220 260 324 380
#
# _framework density 19.124054999999998
#
# number of rings (size 3 to 8) (size 9 to 14) (size 15 to 20)
#    0.000    1.379    3.448    4.138    0.966    0.828 
#    1.241    0.690    0.000    0.000    0.000    3.862 
#    0.000    0.000    0.000    0.000    0.000    0.000 
#
# Total GULP energy -161641.784356 kJ/mol
# GULP energy per Si atom -5573.854633 kJ/mol
# Density = 1.908053 g / cm^3
# Si number density = 19.124055 Si / 1000 Ang^3
#
#
#
# Elastic Constant Matrix: (Units=GPa)
#
#
# Indices 1 2 3 4 5 6 
#
# 1 57.7108 29.4261 20.5609 0.0000 -3.3485 0.0000
# 2 29.4261 120.0249 35.3909 0.0000 -3.8545 0.0000
# 3 20.5609 35.3909 57.7759 0.0000 4.8547 0.0000
# 4 0.0000 0.0000 0.0000 14.2929 0.0000 -1.3796
# 5 -3.3485 -3.8545 4.8547 0.0000 14.4960 0.0000
# 6 0.0000 0.0000 0.0000 -1.3796 0.0000 25.6535
#
#
#
# Elastic Compliance Matrix: (Units=1/GPa)
#
#
# Indices 1 2 3 4 5 6 
#
# 1 0.021556 -0.003260 -0.006194 0.000000 0.006187 0.000000
# 2 -0.003260 0.011015 -0.005937 0.000000 0.004164 0.000000
# 3 -0.006194 -0.005937 0.024080 0.000000 -0.011074 0.000000
# 4 0.000000 0.000000 0.000000 0.070330 0.000000 0.003782
# 5 0.006187 0.004164 -0.011074 0.000000 0.075230 0.000000
# 6 0.000000 0.000000 0.000000 0.003782 0.000000 0.039184
#
#
# Mechanical properties :
#
#
# Convention : Reuss Voigt Hill
#
# Bulk Modulus (GPa) = 38.65698 45.14082 41.89890
# Shear Modulus (GPa) = 17.80624 20.89738 19.35181
#
# Velocity S-wave (km/s) = 3.05469 3.30923 3.18450
# Velocity P-wave (km/s) = 5.71832 6.18521 5.95634
#
# Compressibility (1/GPa) = 0.02586855
#
# Stress axis : x y z
#
# Youngs Moduli (GPa) = 46.39156 90.78378 41.52810
#
# Poissons Ratio (x) = 0.29592 0.25724
# Poissons Ratio (y) = 0.15122 0.24657
# Poissons Ratio (z) = 0.28736 0.53901
#
# Static dielectric constant tensor:
#      x y z
#    x 1.681660 0.000000 0.004550 
#    y 0.000000 1.676910 0.000000 
#    z 0.004550 0.000000 1.698180 
# 
# From -- ./inp_files/145569.got.cif
#   From: 2010.05.17/outbox.cif.g08.bks.cpg/sg12_73_cif.got.tgz:145569.got - 2010.06.03 13:09:07.
