data_PCOD9198231
_publ_section_title
;
Structure prediction by ZEFSAII (Michael W. Deem and Ramdas Pophale) SiO2 
 PCOD9198231
Probable space group: C 2/M
;
_chemical_formula_sum "Si O2"
_cell_formula_units_Z 56
_cell_length_a 16.824125
_cell_length_b 17.230845
_cell_length_c 11.731556
_cell_angle_alpha 90.000000
_cell_angle_beta 54.125704
_cell_angle_gamma 90.000000
_cell_volume 2755.770163
_symmetry_space_group_name_H-M "C 2/M"
_symmetry_group_IT_number 12
_symmetry_cell_setting 'monoclinic'
loop_
_space_group_symop_operation_xyz
x,y,z
-x,y,-z
-x,-y,-z
x,-y,z
1/2+x,1/2+y,z
1/2-x,1/2+y,-z
1/2-x,1/2-y,-z
1/2+x,1/2-y,z
loop_
_atom_site_type_symbol
_atom_site_label
_atom_site_fract_x
_atom_site_fract_y
_atom_site_fract_z
Si Si1 0.607846 0.368244 0.945118
Si Si2 0.759838 0.584733 0.006067
Si Si3 0.421352 0.219448 0.879712
Si Si4 0.359609 0.830481 0.331142
Si Si5 0.248622 0.824373 0.648022
Si Si6 0.800469 0.085677 0.680470
Si Si7 0.406701 0.732051 0.641334
O O1 0.669181 0.405747 0.996022
O O2 0.674795 0.378844 0.776914
O O3 0.500000 0.395378 0.000000
O O4 0.595077 0.277904 0.000308
O O5 0.807012 0.500000 0.944248
O O6 0.834895 0.656659 0.938454
O O7 0.720797 0.584096 0.167562
O O8 0.525479 0.174602 0.792262
O O9 0.422562 0.270546 0.762617
O O10 0.322844 0.853626 0.488709
O O11 0.319623 0.742677 0.348628
O O12 0.297767 0.884425 0.298440
O O13 0.313300 0.784468 0.691939
O O14 0.883221 0.150937 0.598592
O O15 0.827709 0.000000 0.617332
O O16 0.500000 0.767345 0.500000
#
# Coordination Sequence:
#
# PCOD9198231 Si02
#       7
#     8   8   8   8   8   8   8
#     4  12  23  38  67  93 121 157 209 262 309 364
#     4  11  25  42  61  89 129 168 203 252 312 373
#     4  12  21  37  66  97 120 159 210 259 307 367
#     4  10  21  36  61  90 125 158 201 255 313 354
#     4  10  20  36  56  93 124 150 200 261 308 356
#     4  10  23  41  59  86 132 171 203 249 307 376
#     4  11  20  35  65  93 121 162 207 262 308 356
#
# _framework density 20.320997999999999
#
# number of rings (size 3 to 8) (size 9 to 14) (size 15 to 20)
#    0.000    1.143    5.714    2.143    0.000    1.143 
#    0.000    2.143    0.000    1.286    0.000    0.000 
#    0.000    0.000    0.000    0.000    0.000    0.000 
#
# Total GULP energy -156203.258998 kJ/mol
# GULP energy per Si atom -5578.687821 kJ/mol
# Density = 2.027475 g / cm^3
# Si number density = 20.320998 Si / 1000 Ang^3
#
#
#
# Elastic Constant Matrix: (Units=GPa)
#
#
# Indices 1 2 3 4 5 6 
#
# 1 99.2636 6.2359 15.3179 0.0000 -4.6379 0.0000
# 2 6.2359 41.2935 -11.8828 0.0000 -3.1917 0.0000
# 3 15.3179 -11.8828 68.7503 0.0000 2.1581 0.0000
# 4 0.0000 0.0000 0.0000 -7.9274 0.0000 -1.7019
# 5 -4.6379 -3.1917 2.1581 0.0000 37.5807 0.0000
# 6 0.0000 0.0000 0.0000 -1.7019 0.0000 8.2801
#
#
#
# Elastic Compliance Matrix: (Units=1/GPa)
#
#
# Indices 1 2 3 4 5 6 
#
# 1 0.010718 -0.002334 -0.002832 0.000000 0.001287 0.000000
# 2 -0.002334 0.026131 0.004985 0.000000 0.001645 0.000000
# 3 -0.002832 0.004985 0.016065 0.000000 -0.000849 0.000000
# 4 0.000000 0.000000 0.000000 -0.120813 0.000000 -0.024832
# 5 0.001287 0.001645 -0.000849 0.000000 0.026957 0.000000
# 6 0.000000 0.000000 0.000000 -0.024832 0.000000 0.115667
#
#
# Mechanical properties :
#
#
# Convention : Reuss Voigt Hill
#
# Bulk Modulus (GPa) = 19.02891 25.40548 22.21720
# Shear Modulus (GPa) = 53.99416 20.89577 37.44497
#
# Velocity S-wave (km/s) = 5.16026 3.21017 4.29729
# Velocity P-wave (km/s) = 6.69992 5.12537 5.96483
#
# Compressibility (1/GPa) = 0.05255163
#
# Stress axis : x y z
#
# Youngs Moduli (GPa) = 93.30149 38.26876 62.24883
#
# Poissons Ratio (x) = 0.08932 0.17628
# Poissons Ratio (y) = 0.21776 -0.31030
# Poissons Ratio (z) = 0.26421 -0.19076
#
# Static dielectric constant tensor:
#      x y z
#    x 1.721780 0.000000 0.013700 
#    y 0.000000 1.739710 0.000000 
#    z 0.013700 0.000000 1.747600 
# 
# From -- ./inp_files/158184.got.cif
#   From: 2010.05.17/outbox.cif.g08.bks.cpg/sg12_80_cif.got.tgz:158184.got - 2010.06.03 13:09:07.
