data_PCOD9198331
_publ_section_title
;
Structure prediction by ZEFSAII (Michael W. Deem and Ramdas Pophale) SiO2 
 PCOD9198331
Probable space group: C 2/M
;
_chemical_formula_sum "Si O2"
_cell_formula_units_Z 56
_cell_length_a 18.942261
_cell_length_b 8.919181
_cell_length_c 25.637548
_cell_angle_alpha 90.000000
_cell_angle_beta 139.390210
_cell_angle_gamma 90.000000
_cell_volume 2819.357718
_symmetry_space_group_name_H-M "C 2/M"
_symmetry_group_IT_number 12
_symmetry_cell_setting 'monoclinic'
loop_
_space_group_symop_operation_xyz
x,y,z
-x,y,-z
-x,-y,-z
x,-y,z
1/2+x,1/2+y,z
1/2-x,1/2+y,-z
1/2-x,1/2-y,-z
1/2+x,1/2-y,z
loop_
_atom_site_type_symbol
_atom_site_label
_atom_site_fract_x
_atom_site_fract_y
_atom_site_fract_z
Si Si1 0.135805 0.822154 0.921553
Si Si2 0.416075 0.178355 0.827443
Si Si3 0.310942 0.323570 0.486020
Si Si4 0.709934 0.176990 0.751218
Si Si5 0.657361 0.678113 0.322031
Si Si6 0.454252 0.323440 0.417482
Si Si7 0.573944 0.675159 0.765469
O O1 0.113736 0.800581 0.847261
O O2 0.036434 0.747371 0.897242
O O3 0.135787 0.000000 0.931105
O O4 0.250000 0.750000 0.000000
O O5 0.326873 0.242938 0.817048
O O6 0.371840 0.233663 0.746479
O O7 0.420498 0.000000 0.832633
O O8 0.286474 0.500000 0.469282
O O9 0.250000 0.250000 0.500000
O O10 0.263704 0.242052 0.408622
O O11 0.440333 0.308517 0.560368
O O12 0.642495 0.231946 0.662592
O O13 0.638522 0.225434 0.760801
O O14 0.724653 0.000000 0.757331
O O15 0.664018 0.500000 0.315191
O O16 0.555319 0.701067 0.303880
O O17 0.500000 0.279629 0.500000
O O18 0.423653 0.500000 0.403395
O O19 0.591214 0.500000 0.761523
#
# Coordination Sequence:
#
# PCOD9198331 Si02
#       7
#     8   8   8   8   8   8   8
#     4  10  21  40  66  95 124 152 187 230 278 336
#     4  11  22  38  61  85 114 152 189 228 280 341
#     4  11  22  34  51  76 107 145 189 239 293 344
#     4  12  24  37  57  85 116 150 194 245 289 338
#     4  10  20  36  57  81 110 144 190 243 290 343
#     4  10  22  39  56  75 105 149 196 241 292 346
#     4   9  20  38  59  84 117 155 189 229 284 342
#
# _framework density 19.862680999999998
#
# number of rings (size 3 to 8) (size 9 to 14) (size 15 to 20)
#    0.000    1.571    0.000    6.429    0.000    9.429 
#    0.000    0.714    0.000    4.286    0.000    0.000 
#    0.000    0.000    0.000    0.000    0.000    0.000 
#
# Total GULP energy -156554.035604 kJ/mol
# GULP energy per Si atom -5591.215557 kJ/mol
# Density = 1.981747 g / cm^3
# Si number density = 19.862681 Si / 1000 Ang^3
#
#
#
# Elastic Constant Matrix: (Units=GPa)
#
#
# Indices 1 2 3 4 5 6 
#
# 1 82.0159 53.6378 13.1334 0.0000 22.2277 0.0000
# 2 53.6378 137.1270 47.9428 0.0000 25.4447 0.0000
# 3 13.1334 47.9428 77.2403 0.0000 30.9589 0.0000
# 4 0.0000 0.0000 0.0000 32.5604 0.0000 3.1419
# 5 22.2277 25.4447 30.9589 0.0000 27.3628 0.0000
# 6 0.0000 0.0000 0.0000 3.1419 0.0000 29.8059
#
#
#
# Elastic Compliance Matrix: (Units=1/GPa)
#
#
# Indices 1 2 3 4 5 6 
#
# 1 0.021528 -0.007894 0.009710 0.000000 -0.021133 0.000000
# 2 -0.007894 0.012439 -0.007891 0.000000 0.003774 0.000000
# 3 0.009710 -0.007891 0.030034 0.000000 -0.034531 0.000000
# 4 0.000000 0.000000 0.000000 0.031028 0.000000 -0.003271
# 5 -0.021133 0.003774 -0.034531 0.000000 0.089272 0.000000
# 6 0.000000 0.000000 0.000000 -0.003271 0.000000 0.033895
#
#
# Mechanical properties :
#
#
# Convention : Reuss Voigt Hill
#
# Bulk Modulus (GPa) = 19.28654 58.42348 38.85501
# Shear Modulus (GPa) = 20.19137 30.05711 25.12424
#
# Velocity S-wave (km/s) = 3.19179 3.89427 3.56040
# Velocity P-wave (km/s) = 4.82850 7.04968 6.04203
#
# Compressibility (1/GPa) = 0.05184964
#
# Stress axis : x y z
#
# Youngs Moduli (GPa) = 46.45115 80.39207 33.29561
#
# Poissons Ratio (x) = 0.63463 -0.32329
# Poissons Ratio (y) = 0.36669 0.26274
# Poissons Ratio (z) = -0.45103 0.63439
#
# Static dielectric constant tensor:
#      x y z
#    x 1.730960 0.000000 0.008890 
#    y 0.000000 1.653860 0.000000 
#    z 0.008890 0.000000 1.674420 
# 
# From -- ./inp_files/363172.got.cif
#   From: 2010.05.17/outbox.cif.g08.bks.cpg/sg12_182_cif.got.tgz:363172.got - 2010.06.03 13:09:07.
