data_PCOD9198797
_publ_section_title
;
Structure prediction by ZEFSAII (Michael W. Deem and Ramdas Pophale) SiO2 
 PCOD9198797
Probable space group: C 2/M
;
_chemical_formula_sum "Si O2"
_cell_formula_units_Z 56
_cell_length_a 23.942608
_cell_length_b 13.874666
_cell_length_c 8.588970
_cell_angle_alpha 90.000000
_cell_angle_beta 78.519421
_cell_angle_gamma 90.000000
_cell_volume 2796.132252
_symmetry_space_group_name_H-M "C 2/M"
_symmetry_group_IT_number 12
_symmetry_cell_setting 'monoclinic'
loop_
_space_group_symop_operation_xyz
x,y,z
-x,y,-z
-x,-y,-z
x,-y,z
1/2+x,1/2+y,z
1/2-x,1/2+y,-z
1/2-x,1/2-y,-z
1/2+x,1/2-y,z
loop_
_atom_site_type_symbol
_atom_site_label
_atom_site_fract_x
_atom_site_fract_y
_atom_site_fract_z
Si Si1 0.614845 0.607117 0.611164
Si Si2 0.928634 0.106703 0.711395
Si Si3 0.056267 0.613085 0.574674
Si Si4 0.308700 0.614188 0.959029
Si Si5 0.976997 0.228373 0.184443
Si Si6 0.271486 0.767338 0.222272
Si Si7 0.824857 0.291557 0.503015
O O1 0.632697 0.500000 0.641637
O O2 0.579144 0.605486 0.469759
O O3 0.575348 0.655009 0.762865
O O4 0.665267 0.678361 0.538818
O O5 0.867677 0.121050 0.828878
O O6 0.972297 0.187432 0.737738
O O7 0.950167 0.000000 0.746962
O O8 0.065429 0.500000 0.588312
O O9 0.115020 0.661838 0.482827
O O10 0.000000 0.626640 0.500000
O O11 0.043315 0.669310 0.740742
O O12 0.300823 0.500000 0.001152
O O13 0.258459 0.656672 0.876944
O O14 0.308027 0.689076 0.104322
O O15 0.000000 0.231651 0.000000
O O16 0.221773 0.706089 0.336891
O O17 0.303742 0.823869 0.343791
#
# Coordination Sequence:
#
# PCOD9198797 Si02
#       7
#     8   8   8   8   8   8   8
#     4  10  20  36  58  85 117 154 194 234 293 362
#     4  10  20  36  59  85 118 158 194 235 297 367
#     4  10  23  43  65  87 116 160 210 249 292 356
#     4  10  22  39  60  88 122 158 196 244 300 363
#     4  11  23  36  58  87 121 152 190 245 304 353
#     4  10  22  39  62  89 122 157 203 246 304 358
#     4  10  21  39  63  90 118 158 199 254 300 350
#
# _framework density 20.027664999999999
#
# number of rings (size 3 to 8) (size 9 to 14) (size 15 to 20)
#    0.000    1.857    1.429    2.571    4.000    4.286 
#    0.000    2.857    0.000    0.000    0.000    0.000 
#    0.000    0.000    0.000    0.000    0.000    0.000 
#
# Total GULP energy -156289.953156 kJ/mol
# GULP energy per Si atom -5581.784041 kJ/mol
# Density = 1.998208 g / cm^3
# Si number density = 20.027665 Si / 1000 Ang^3
#
#
#
# Elastic Constant Matrix: (Units=GPa)
#
#
# Indices 1 2 3 4 5 6 
#
# 1 72.4058 20.6234 5.0801 0.0000 -7.7408 0.0000
# 2 20.6234 100.4061 16.4801 0.0000 -17.7495 0.0000
# 3 5.0801 16.4801 86.3743 0.0000 -23.5529 0.0000
# 4 0.0000 0.0000 0.0000 11.4102 0.0000 -2.2911
# 5 -7.7408 -17.7495 -23.5529 0.0000 27.6349 0.0000
# 6 0.0000 0.0000 0.0000 -2.2911 0.0000 10.3925
#
#
#
# Elastic Compliance Matrix: (Units=1/GPa)
#
#
# Indices 1 2 3 4 5 6 
#
# 1 0.014828 -0.002613 0.000393 0.000000 0.002810 0.000000
# 2 -0.002613 0.011699 -0.000298 0.000000 0.006528 0.000000
# 3 0.000393 -0.000298 0.015098 0.000000 0.012786 0.000000
# 4 0.000000 0.000000 0.000000 0.091701 0.000000 0.020216
# 5 0.002810 0.006528 0.012786 0.000000 0.052063 0.000000
# 6 0.000000 0.000000 0.000000 0.020216 0.000000 0.100680
#
#
# Mechanical properties :
#
#
# Convention : Reuss Voigt Hill
#
# Bulk Modulus (GPa) = 27.33212 38.17259 32.75236
# Shear Modulus (GPa) = 16.48511 24.35434 20.41973
#
# Velocity S-wave (km/s) = 2.87211 3.49095 3.19654
# Velocity P-wave (km/s) = 4.96745 5.94561 5.47840
#
# Compressibility (1/GPa) = 0.03658699
#
# Stress axis : x y z
#
# Youngs Moduli (GPa) = 67.43875 85.47495 66.23414
#
# Poissons Ratio (x) = 0.22339 -0.02601
# Poissons Ratio (y) = 0.17625 0.01977
# Poissons Ratio (z) = -0.02648 0.02551
#
# Static dielectric constant tensor:
#      x y z
#    x 1.755650 0.000000 0.044650 
#    y 0.000000 1.699710 0.000000 
#    z 0.044650 0.000000 1.711580 
# 
# From -- ./inp_files/96293.got.cif
#   From: 2010.05.17/outbox.cif.g08.bks.cpg/sg12_49_cif.got.tgz:96293.got - 2010.06.03 13:09:07.
