data_PCOD9198941
_publ_section_title
;
Structure prediction by ZEFSAII (Michael W. Deem and Ramdas Pophale) SiO2 
 PCOD9198941
Probable space group: C 2/M
;
_chemical_formula_sum "Si O2"
_cell_formula_units_Z 64
_cell_length_a 11.809500
_cell_length_b 13.935792
_cell_length_c 19.964806
_cell_angle_alpha 90.000000
_cell_angle_beta 99.428278
_cell_angle_gamma 90.000000
_cell_volume 3241.317534
_symmetry_space_group_name_H-M "C 2/M"
_symmetry_group_IT_number 12
_symmetry_cell_setting 'monoclinic'
loop_
_space_group_symop_operation_xyz
x,y,z
-x,y,-z
-x,-y,-z
x,-y,z
1/2+x,1/2+y,z
1/2-x,1/2+y,-z
1/2-x,1/2-y,-z
1/2+x,1/2-y,z
loop_
_atom_site_type_symbol
_atom_site_label
_atom_site_fract_x
_atom_site_fract_y
_atom_site_fract_z
Si Si1 0.895710 0.389546 0.842157
Si Si2 0.423677 0.609015 0.405154
Si Si3 0.204983 0.604728 0.652883
Si Si4 0.769449 0.891435 0.044030
Si Si5 0.253954 0.135975 0.494617
Si Si6 0.220712 0.305938 0.300161
Si Si7 0.918118 0.290355 0.057030
Si Si8 0.957864 0.316659 0.595200
O O1 0.926149 0.500000 0.831805
O O2 0.811059 0.387889 0.898043
O O3 0.830386 0.346397 0.772628
O O4 0.008655 0.331474 0.874768
O O5 0.471164 0.500000 0.399292
O O6 0.343587 0.602090 0.463803
O O7 0.333774 0.637450 0.337272
O O8 0.503252 0.705699 0.418670
O O9 0.222144 0.500000 0.684126
O O10 0.259208 0.607195 0.583295
O O11 0.250627 0.693189 0.700304
O O12 0.072366 0.628111 0.625976
O O13 0.870362 0.815671 0.063370
O O14 0.808166 0.000000 0.037716
O O15 0.690253 0.856090 0.974491
O O16 0.250000 0.250000 0.500000
O O17 0.384298 0.123299 0.533561
O O18 0.126731 0.313694 0.349731
O O19 0.000000 0.290521 0.000000
#
# Coordination Sequence:
#
# PCOD9198941 Si02
#       8
#     8   8   8   8   8   8   8   8
#     4  10  20  36  59  81 106 148 190 223 263 314
#     4  10  21  36  56  79 102 134 174 219 271 330
#     4  11  23  37  56  77 102 138 177 218 275 333
#     4   9  18  34  57  85 118 150 183 222 266 314
#     4  11  19  37  55  76 107 132 166 222 277 328
#     4  10  22  39  55  73 110 139 178 226 267 313
#     4   9  18  33  56  89 120 147 182 224 266 310
#     4  10  21  36  56  75 104 134 171 223 270 324
#
# _framework density 19.745056999999999
#
# number of rings (size 3 to 8) (size 9 to 14) (size 15 to 20)
#    0.000    2.000    3.750    1.500    0.000    7.750 
#    0.000    1.250    0.000    3.000    0.000    0.000 
#    0.000    0.000    0.000    0.000    0.000    0.000 
#
# Total GULP energy -178598.840638 kJ/mol
# GULP energy per Si atom -5581.213770 kJ/mol
# Density = 1.970012 g / cm^3
# Si number density = 19.745057 Si / 1000 Ang^3
#
#
#
# Elastic Constant Matrix: (Units=GPa)
#
#
# Indices 1 2 3 4 5 6 
#
# 1 41.3963 10.3876 10.8902 0.0000 13.9754 0.0000
# 2 10.3876 148.4824 39.1337 0.0000 15.5103 0.0000
# 3 10.8902 39.1337 82.0913 0.0000 30.9057 0.0000
# 4 0.0000 0.0000 0.0000 9.6812 0.0000 -11.2738
# 5 13.9754 15.5103 30.9057 0.0000 20.4412 0.0000
# 6 0.0000 0.0000 0.0000 -11.2738 0.0000 12.5026
#
#
#
# Elastic Compliance Matrix: (Units=1/GPa)
#
#
# Indices 1 2 3 4 5 6 
#
# 1 0.034804 -0.001160 0.010592 0.000000 -0.038929 0.000000
# 2 -0.001160 0.007745 -0.003771 0.000000 0.000617 0.000000
# 3 0.010592 -0.003771 0.033017 0.000000 -0.054299 0.000000
# 4 0.000000 0.000000 0.000000 -2.063588 0.000000 -1.860776
# 5 -0.038929 0.000617 -0.054299 0.000000 0.157165 0.000000
# 6 0.000000 0.000000 0.000000 -1.860776 0.000000 -1.597912
#
#
# Mechanical properties :
#
#
# Convention : Reuss Voigt Hill
#
# Bulk Modulus (GPa) = 11.50899 43.64366 27.57632
# Shear Modulus (GPa) = -1.46579 22.62889 10.58155
#
# Velocity S-wave (km/s) = -0.86254 3.38901 2.31748
# Velocity P-wave (km/s) = 2.20216 6.12090 4.59973
#
# Compressibility (1/GPa) = 0.08688862
#
# Stress axis : x y z
#
# Youngs Moduli (GPa) = 28.73234 129.11077 30.28778
#
# Poissons Ratio (x) = 0.14976 -0.32081
# Poissons Ratio (y) = 0.03333 0.11421
# Poissons Ratio (z) = -0.30433 0.48684
#
# Static dielectric constant tensor:
#      x y z
#    x 1.733210 0.000000 0.028820 
#    y 0.000000 1.715770 0.000000 
#    z 0.028820 0.000000 1.690160 
# 
# From -- ./inp_files/305449.got.cif
#   From: 2010.05.17/outbox.cif.g08.bks.cpg/sg12_153_cif.got.tgz:305449.got - 2010.06.03 13:09:07.
