data_PCOD9198175
_publ_section_title
;
Structure prediction by ZEFSAII (Michael W. Deem and Ramdas Pophale) SiO2 
 PCOD9198175
Probable space group: C 2/M
;
_chemical_formula_sum "Si O2"
_cell_formula_units_Z 64
_cell_length_a 30.323604
_cell_length_b 8.259466
_cell_length_c 26.721131
_cell_angle_alpha 90.000000
_cell_angle_beta 149.886667
_cell_angle_gamma 90.000000
_cell_volume 3357.702028
_symmetry_space_group_name_H-M "C 2/M"
_symmetry_group_IT_number 12
_symmetry_cell_setting 'monoclinic'
loop_
_space_group_symop_operation_xyz
x,y,z
-x,y,-z
-x,-y,-z
x,-y,z
1/2+x,1/2+y,z
1/2-x,1/2+y,-z
1/2-x,1/2-y,-z
1/2+x,1/2-y,z
loop_
_atom_site_type_symbol
_atom_site_label
_atom_site_fract_x
_atom_site_fract_y
_atom_site_fract_z
Si Si1 0.251784 0.801857 0.174103
Si Si2 0.263100 0.195493 0.299702
Si Si3 0.916331 0.695224 0.268394
Si Si4 0.148590 0.305657 0.903034
Si Si5 0.394948 0.306600 0.509964
Si Si6 0.612564 0.694330 0.227547
Si Si7 0.743190 0.806236 0.436757
Si Si8 0.917443 0.804292 0.054192
O O1 0.259488 0.748253 0.239024
O O2 0.334543 0.749394 0.222037
O O3 0.251652 0.000000 0.174051
O O4 0.161941 0.748744 0.059288
O O5 0.350779 0.245943 0.415332
O O6 0.179067 0.254801 0.249652
O O7 0.260094 0.000000 0.296494
O O8 0.914352 0.500000 0.265649
O O9 0.900779 0.750968 0.195972
O O10 0.008059 0.747568 0.382215
O O11 0.147628 0.500000 0.902557
O O12 0.104106 0.244098 0.910126
O O13 0.250000 0.250000 0.000000
O O14 0.394904 0.500000 0.509096
O O15 0.327995 0.251219 0.488023
O O16 0.609377 0.500000 0.219539
O O17 0.658782 0.737096 0.325237
O O18 0.512828 0.755320 0.129871
O O19 0.750000 0.750000 0.500000
O O20 0.739276 0.000000 0.431053
O O21 0.918604 0.000000 0.053506
#
# Coordination Sequence:
#
# PCOD9198175 Si02
#       8
#     8   8   8   8   8   8   8   8
#     4   9  18  35  58  82 109 144 185 227 272 321
#     4   9  18  36  60  82 108 144 185 227 273 326
#     4  10  21  37  56  80 110 146 186 224 269 327
#     4  11  22  37  57  81 112 149 186 226 276 327
#     4  10  22  38  55  79 110 143 180 227 280 325
#     4   9  19  34  55  83 111 142 180 225 274 321
#     4  10  21  36  54  76 106 143 182 226 275 328
#     4  10  20  36  56  82 117 148 182 227 271 325
#
# _framework density 19.060655000000001
#
# number of rings (size 3 to 8) (size 9 to 14) (size 15 to 20)
#    0.000    2.250    1.250    1.125    1.750    4.000 
#    0.000    6.250    0.000    0.000    0.000    4.375 
#    0.000    0.000    0.000    0.000    0.000    0.000 
#
# Total GULP energy -178625.276623 kJ/mol
# GULP energy per Si atom -5582.039894 kJ/mol
# Density = 1.901727 g / cm^3
# Si number density = 19.060655 Si / 1000 Ang^3
#
#
#
# Elastic Constant Matrix: (Units=GPa)
#
#
# Indices 1 2 3 4 5 6 
#
# 1 83.4878 6.8327 107.1692 0.0000 -22.0017 0.0000
# 2 6.8327 7.7026 12.6622 0.0000 0.3974 0.0000
# 3 107.1692 12.6622 202.5088 0.0000 0.0170 0.0000
# 4 0.0000 0.0000 0.0000 20.4700 0.0000 -1.0606
# 5 -22.0017 0.3974 0.0170 0.0000 40.4875 0.0000
# 6 0.0000 0.0000 0.0000 -1.0606 0.0000 22.0646
#
#
#
# Elastic Compliance Matrix: (Units=1/GPa)
#
#
# Indices 1 2 3 4 5 6 
#
# 1 0.067615 -0.003399 -0.035573 0.000000 0.036792 0.000000
# 2 -0.003399 0.144951 -0.007264 0.000000 -0.003267 0.000000
# 3 -0.035573 -0.007264 0.024219 0.000000 -0.019270 0.000000
# 4 0.000000 0.000000 0.000000 0.048974 0.000000 0.002354
# 5 0.036792 -0.003267 -0.019270 0.000000 0.044733 0.000000
# 6 0.000000 0.000000 0.000000 0.002354 0.000000 0.045435
#
#
# Mechanical properties :
#
#
# Convention : Reuss Voigt Hill
#
# Bulk Modulus (GPa) = 6.92940 60.78083 33.85512
# Shear Modulus (GPa) = 9.68048 27.74008 18.71028
#
# Velocity S-wave (km/s) = 2.25606 3.81905 3.13648
# Velocity P-wave (km/s) = 3.22951 7.16968 5.56031
#
# Compressibility (1/GPa) = 0.14431259
#
# Stress axis : x y z
#
# Youngs Moduli (GPa) = 14.78956 6.89890 41.28919
#
# Poissons Ratio (x) = 0.02345 1.46878
# Poissons Ratio (y) = 0.05027 0.29993
# Poissons Ratio (z) = 0.52611 0.05011
#
# Static dielectric constant tensor:
#      x y z
#    x 1.655870 0.000000 0.006170 
#    y 0.000000 1.673740 0.000000 
#    z 0.006170 0.000000 1.636590 
# 
# From -- ./inp_files/249163.got.cif
#   From: 2010.05.17/outbox.cif.g08.bks.cpg/sg12_125_cif.got.tgz:249163.got - 2010.06.03 13:09:07.
