data_PCOD9198903
_publ_section_title
;
Structure prediction by ZEFSAII (Michael W. Deem and Ramdas Pophale) SiO2 
 PCOD9198903
Probable space group: C 2/M
;
_chemical_formula_sum "Si O2"
_cell_formula_units_Z 60
_cell_length_a 14.759890
_cell_length_b 20.450614
_cell_length_c 9.091232
_cell_angle_alpha 90.000000
_cell_angle_beta 114.557968
_cell_angle_gamma 90.000000
_cell_volume 2495.942705
_symmetry_space_group_name_H-M "C 2/M"
_symmetry_group_IT_number 12
_symmetry_cell_setting 'monoclinic'
loop_
_space_group_symop_operation_xyz
x,y,z
-x,y,-z
-x,-y,-z
x,-y,z
1/2+x,1/2+y,z
1/2-x,1/2+y,-z
1/2-x,1/2-y,-z
1/2+x,1/2-y,z
loop_
_atom_site_type_symbol
_atom_site_label
_atom_site_fract_x
_atom_site_fract_y
_atom_site_fract_z
Si Si1 0.000000 0.106193 0.000000
Si Si2 0.015704 0.248414 0.679932
Si Si3 0.344133 0.687136 0.701588
Si Si4 0.583976 0.071012 0.653898
Si Si5 0.557772 0.926639 0.168185
Si Si6 0.629895 0.382548 0.825070
Si Si7 0.208000 0.674919 0.849713
Si Si8 0.723789 0.577448 0.582748
O O1 0.917112 0.150029 0.864340
O O2 0.066190 0.077840 0.907456
O O3 0.056993 0.174910 0.722952
O O4 0.101018 0.293343 0.809632
O O5 0.000000 0.262461 0.500000
O O6 0.907476 0.246578 0.678910
O O7 0.259425 0.715260 0.753095
O O8 0.315573 0.632940 0.558134
O O9 0.500000 0.104410 0.500000
O O10 0.527400 0.065854 0.768671
O O11 0.684554 0.107945 0.747459
O O12 0.603260 0.000000 0.600382
O O13 0.660446 0.904418 0.308505
O O14 0.585885 0.000000 0.130597
O O15 0.500000 0.889566 0.000000
O O16 0.668624 0.417760 0.704479
O O17 0.722677 0.345206 0.968384
O O18 0.716718 0.500000 0.529519
#
# Coordination Sequence:
#
# PCOD9198903 Si02
#       8
#     4   8   8   8   8   8   8   8
#     4   8  20  40  65  82 124 176 211 276 338 364
#     4  11  22  42  64  87 130 174 217 275 325 371
#     4  10  22  43  65  95 131 172 223 277 325 388
#     4  10  20  36  58  88 125 159 199 259 323 389
#     4   9  18  33  54  84 123 163 201 251 314 379
#     4  10  21  42  63  92 126 172 220 275 321 387
#     4  11  23  39  67  95 129 172 223 263 331 395
#     4  11  22  39  68  98 133 175 216 266 333 397
#
# _framework density 24.039013000000001
#
# number of rings (size 3 to 8) (size 9 to 14) (size 15 to 20)
#    0.000    1.867    1.333    2.400    0.000    3.733 
#    2.400    8.000    5.867    0.000    0.000    0.000 
#    0.000    0.000    0.000    0.000    0.000    0.000 
#
# Total GULP energy -167286.137365 kJ/mol
# GULP energy per Si atom -5576.204579 kJ/mol
# Density = 2.398430 g / cm^3
# Si number density = 24.039013 Si / 1000 Ang^3
#
#
#
# Elastic Constant Matrix: (Units=GPa)
#
#
# Indices 1 2 3 4 5 6 
#
# 1 89.9321 26.7758 26.2129 0.0000 -11.4157 0.0000
# 2 26.7758 77.2327 20.9997 0.0000 1.5572 0.0000
# 3 26.2129 20.9997 120.8048 0.0000 6.5764 0.0000
# 4 0.0000 0.0000 0.0000 0.3634 0.0000 -5.4227
# 5 -11.4157 1.5572 6.5764 0.0000 46.2080 0.0000
# 6 0.0000 0.0000 0.0000 -5.4227 0.0000 29.2206
#
#
#
# Elastic Compliance Matrix: (Units=1/GPa)
#
#
# Indices 1 2 3 4 5 6 
#
# 1 0.013538 -0.004109 -0.002432 0.000000 0.003829 0.000000
# 2 -0.004109 0.014838 -0.001618 0.000000 -0.001285 0.000000
# 3 -0.002432 -0.001618 0.009188 0.000000 -0.001854 0.000000
# 4 0.000000 0.000000 0.000000 -1.555320 0.000000 -0.288633
# 5 0.003829 -0.001285 -0.001854 0.000000 0.022894 0.000000
# 6 0.000000 0.000000 0.000000 -0.288633 0.000000 -0.019342
#
#
# Mechanical properties :
#
#
# Convention : Reuss Voigt Hill
#
# Bulk Modulus (GPa) = 47.06734 48.43849 47.75292
# Shear Modulus (GPa) = -3.35390 29.42382 13.03496
#
# Velocity S-wave (km/s) = -1.18246 3.50237 2.33114
# Velocity P-wave (km/s) = 4.21400 6.04559 5.21090
#
# Compressibility (1/GPa) = 0.02124615
#
# Stress axis : x y z
#
# Youngs Moduli (GPa) = 73.86708 67.39289 108.84277
#
# Poissons Ratio (x) = 0.27695 0.26466
# Poissons Ratio (y) = 0.30356 0.17608
# Poissons Ratio (z) = 0.17962 0.10902
#
# Static dielectric constant tensor:
#      x y z
#    x 1.970640 0.000000 0.028010 
#    y 0.000000 1.979900 0.000000 
#    z 0.028010 0.000000 1.863990 
# 
# From -- ./inp_files/65923.got.cif
#   From: 2010.05.17/outbox.cif.g08.bks.cpg/sg12_33_cif.got.tgz:65923.got - 2010.06.03 13:09:07.
