data_PCOD9198399
_publ_section_title
;
Structure prediction by ZEFSAII (Michael W. Deem and Ramdas Pophale) SiO2 
 PCOD9198399
Probable space group: C 2/M
;
_chemical_formula_sum "Si O2"
_cell_formula_units_Z 56
_cell_length_a 9.683388
_cell_length_b 28.859387
_cell_length_c 13.624226
_cell_angle_alpha 90.000000
_cell_angle_beta 61.579507
_cell_angle_gamma 90.000000
_cell_volume 3348.508861
_symmetry_space_group_name_H-M "C 2/M"
_symmetry_group_IT_number 12
_symmetry_cell_setting 'monoclinic'
loop_
_space_group_symop_operation_xyz
x,y,z
-x,y,-z
-x,-y,-z
x,-y,z
1/2+x,1/2+y,z
1/2-x,1/2+y,-z
1/2-x,1/2-y,-z
1/2+x,1/2-y,z
loop_
_atom_site_type_symbol
_atom_site_label
_atom_site_fract_x
_atom_site_fract_y
_atom_site_fract_z
Si Si1 0.116069 0.054389 0.552263
Si Si2 0.931334 0.206387 0.863195
Si Si3 0.325828 0.944307 0.017590
Si Si4 0.476573 0.603094 0.790612
Si Si5 0.249584 0.294017 0.128746
Si Si6 0.539647 0.947342 0.601312
Si Si7 0.718058 0.101463 0.180533
O O1 0.283965 0.071445 0.455864
O O2 0.000000 0.055635 0.500000
O O3 0.052078 0.083327 0.665592
O O4 0.135771 0.000000 0.576262
O O5 0.941570 0.158132 0.801578
O O6 0.868559 0.251168 0.827911
O O7 0.100359 0.216015 0.853948
O O8 0.813918 0.199930 0.995642
O O9 0.184608 0.923549 0.130605
O O10 0.313860 0.000000 0.018806
O O11 0.500000 0.932547 0.000000
O O12 0.300141 0.923269 0.918017
O O13 0.606976 0.596046 0.832832
O O14 0.185723 0.343960 0.180263
O O15 0.500000 0.948742 0.500000
O O16 0.408401 0.919756 0.703147
O O17 0.540887 0.000000 0.640088
#
# Coordination Sequence:
#
# PCOD9198399 Si02
#       7
#     8   8   8   8   8   8   8
#     4  10  22  38  57  81 112 150 190 232 274 323
#     4   9  18  34  55  80 110 139 183 228 274 340
#     4  11  25  37  50  82 120 150 179 226 286 336
#     4  11  21  38  60  82 111 148 189 230 279 336
#     4   9  18  34  54  81 110 142 180 227 279 332
#     4  10  20  36  57  83 108 143 194 233 268 322
#     4  11  21  37  60  83 112 146 188 234 277 333
#
# _framework density 16.723862
#
# number of rings (size 3 to 8) (size 9 to 14) (size 15 to 20)
#    0.000    1.857    2.857    1.286    2.000    3.429 
#    0.000    0.000    0.000    1.714    0.000    0.000 
#    0.000    0.000    0.000    0.000    0.000    0.000 
#
# Total GULP energy -156208.126417 kJ/mol
# GULP energy per Si atom -5578.861658 kJ/mol
# Density = 1.668580 g / cm^3
# Si number density = 16.723862 Si / 1000 Ang^3
#
#
#
# Elastic Constant Matrix: (Units=GPa)
#
#
# Indices 1 2 3 4 5 6 
#
# 1 79.1143 49.4006 28.8675 0.0000 -15.9550 0.0000
# 2 49.4006 114.0424 49.7234 0.0000 -11.5541 0.0000
# 3 28.8675 49.7234 65.0331 0.0000 -17.7129 0.0000
# 4 0.0000 0.0000 0.0000 18.5952 0.0000 -1.6677
# 5 -15.9550 -11.5541 -17.7129 0.0000 27.4242 0.0000
# 6 0.0000 0.0000 0.0000 -1.6677 0.0000 39.6973
#
#
#
# Elastic Compliance Matrix: (Units=1/GPa)
#
#
# Indices 1 2 3 4 5 6 
#
# 1 0.018855 -0.006971 -0.001034 0.000000 0.007365 0.000000
# 2 -0.006971 0.015761 -0.010014 0.000000 -0.003883 0.000000
# 3 -0.001034 -0.010014 0.026914 0.000000 0.012563 0.000000
# 4 0.000000 0.000000 0.000000 0.053981 0.000000 0.002268
# 5 0.007365 -0.003883 0.012563 0.000000 0.047227 0.000000
# 6 0.000000 0.000000 0.000000 0.002268 0.000000 0.025286
#
#
# Mechanical properties :
#
#
# Convention : Reuss Voigt Hill
#
# Bulk Modulus (GPa) = 39.22663 57.13032 48.17847
# Shear Modulus (GPa) = 21.49993 25.82323 23.66158
#
# Velocity S-wave (km/s) = 3.58939 3.93376 3.76552
# Velocity P-wave (km/s) = 6.37846 7.40728 6.91204
#
# Compressibility (1/GPa) = 0.02549289
#
# Stress axis : x y z
#
# Youngs Moduli (GPa) = 53.03604 63.44779 37.15524
#
# Poissons Ratio (x) = 0.44227 0.03842
# Poissons Ratio (y) = 0.36969 0.37208
# Poissons Ratio (z) = 0.05484 0.63537
#
# Static dielectric constant tensor:
#      x y z
#    x 1.614910 0.000000 -0.003290 
#    y 0.000000 1.554520 0.000000 
#    z -0.003290 0.000000 1.539700 
# 
# From -- ./inp_files/178676.got.cif
#   From: 2010.05.17/outbox.cif.g08.bks.cpg/sg12_90_cif.got.tgz:178676.got - 2010.06.03 13:09:07.
