data_PCOD9198019
_publ_section_title
;
Structure prediction by ZEFSAII (Michael W. Deem and Ramdas Pophale) SiO2 
 PCOD9198019
Probable space group: C 2/M
;
_chemical_formula_sum "Si O2"
_cell_formula_units_Z 40
_cell_length_a 10.080917
_cell_length_b 26.601441
_cell_length_c 17.575135
_cell_angle_alpha 90.000000
_cell_angle_beta 150.024051
_cell_angle_gamma 90.000000
_cell_volume 2354.821347
_symmetry_space_group_name_H-M "C 2/M"
_symmetry_group_IT_number 12
_symmetry_cell_setting 'monoclinic'
loop_
_space_group_symop_operation_xyz
x,y,z
-x,y,-z
-x,-y,-z
x,-y,z
1/2+x,1/2+y,z
1/2-x,1/2+y,-z
1/2-x,1/2-y,-z
1/2+x,1/2-y,z
loop_
_atom_site_type_symbol
_atom_site_label
_atom_site_fract_x
_atom_site_fract_y
_atom_site_fract_z
Si Si1 0.474013 0.318226 0.151126
Si Si2 0.696779 0.558165 0.525678
Si Si3 0.436052 0.147083 0.286014
Si Si4 0.921892 0.850634 0.626911
Si Si5 0.571009 0.199922 0.195082
O O1 0.639907 0.346691 0.168546
O O2 0.539176 0.341143 0.265345
O O3 0.565408 0.260116 0.194311
O O4 0.162191 0.317783 0.977703
O O5 0.500000 0.561819 0.500000
O O6 0.742044 0.500000 0.530686
O O7 0.569576 0.590764 0.393977
O O8 0.962502 0.590032 0.676146
O O9 0.496876 0.178597 0.241012
O O10 0.634711 0.166099 0.451911
O O11 0.149363 0.821344 0.694001
#
# Coordination Sequence:
#
# PCOD9198019 Si02
#       5
#     8   8   8   8   8
#     4  11  23  33  53  78 124 146 171 223 275 313
#     4   9  18  37  62  82 103 138 185 231 286 328
#     4  10  20  36  55  85 100 145 189 226 262 317
#     4  10  20  36  55  85 100 145 189 226 262 317
#     4  11  21  37  51  78 114 162 177 201 269 339
#
# _framework density 16.986426999999999
#
# number of rings (size 3 to 8) (size 9 to 14) (size 15 to 20)
#    1.200    0.600    2.000    3.600    0.000    8.000 
#    0.000    2.000    0.000    7.200    0.000    0.000 
#    0.000    0.000    0.000    0.000    0.000    0.000 
#
# Total GULP energy -111447.460652 kJ/mol
# GULP energy per Si atom -5572.373033 kJ/mol
# Density = 1.694776 g / cm^3
# Si number density = 16.986427 Si / 1000 Ang^3
#
#
#
# Elastic Constant Matrix: (Units=GPa)
#
#
# Indices 1 2 3 4 5 6 
#
# 1 56.5835 8.2641 -9.3771 0.0004 -5.1497 -0.0001
# 2 8.2641 89.2238 19.3193 0.0003 -1.3715 0.0000
# 3 -9.3771 19.3193 35.8628 -0.0013 -2.1915 -0.0004
# 4 0.0004 0.0003 -0.0013 -5.5997 -0.0015 -7.5849
# 5 -5.1497 -1.3715 -2.1915 -0.0015 27.5016 -0.0015
# 6 -0.0001 0.0000 -0.0004 -7.5849 -0.0015 25.1305
#
#
#
# Elastic Compliance Matrix: (Units=1/GPa)
#
#
# Indices 1 2 3 4 5 6 
#
# 1 0.019724 -0.003322 0.007198 -0.000002 0.004101 0.000000
# 2 -0.003322 0.013248 -0.008042 0.000002 -0.000602 0.000000
# 3 0.007198 -0.008042 0.034323 -0.000007 0.003682 -0.000001
# 4 -0.000002 0.000002 -0.000007 -0.126760 -0.000010 -0.038259
# 5 0.004101 -0.000602 0.003682 -0.000010 0.037393 -0.000001
# 6 0.000000 0.000000 -0.000001 -0.038259 -0.000001 0.028245
#
#
# Mechanical properties :
#
#
# Convention : Reuss Voigt Hill
#
# Bulk Modulus (GPa) = 16.96010 24.23141 20.59575
# Shear Modulus (GPa) = 146.36723 20.30406 83.33565
#
# Velocity S-wave (km/s) = 9.29270 3.46108 7.01189
# Velocity P-wave (km/s) = 11.18683 5.50166 8.81514
#
# Compressibility (1/GPa) = 0.05896193
#
# Stress axis : x y z
#
# Youngs Moduli (GPa) = 50.69878 75.48568 29.13476
#
# Poissons Ratio (x) = 0.25079 -0.20970
# Poissons Ratio (y) = 0.16844 0.23430
# Poissons Ratio (z) = -0.36492 0.60705
#
# Static dielectric constant tensor:
#      x y z
#    x 1.561010 0.000000 -0.006190 
#    y 0.000000 1.551720 0.000000 
#    z -0.006190 0.000000 1.578340 
# 
# From -- ./inp_files/259772.got.cif
#   From: 2010.05.17/outbox.cif.g08.bks.cpg/sg12_130_cif.got.tgz:259772.got - 2010.06.03 13:09:07.
