data_PCOD9198189
_publ_section_title
;
Structure prediction by ZEFSAII (Michael W. Deem and Ramdas Pophale) SiO2 
 PCOD9198189
Probable space group: C 2/M
;
_chemical_formula_sum "Si O2"
_cell_formula_units_Z 56
_cell_length_a 16.431348
_cell_length_b 30.649146
_cell_length_c 8.587816
_cell_angle_alpha 90.000000
_cell_angle_beta 38.908551
_cell_angle_gamma 90.000000
_cell_volume 2716.368667
_symmetry_space_group_name_H-M "C 2/M"
_symmetry_group_IT_number 12
_symmetry_cell_setting 'monoclinic'
loop_
_space_group_symop_operation_xyz
x,y,z
-x,y,-z
-x,-y,-z
x,-y,z
1/2+x,1/2+y,z
1/2-x,1/2+y,-z
1/2-x,1/2-y,-z
1/2+x,1/2-y,z
loop_
_atom_site_type_symbol
_atom_site_label
_atom_site_fract_x
_atom_site_fract_y
_atom_site_fract_z
Si Si1 0.061735 0.610045 0.078848
Si Si2 0.910882 0.204806 0.791372
Si Si3 0.480595 0.612108 0.711629
Si Si4 0.618856 0.547494 0.702642
Si Si5 0.249034 0.549799 0.972012
Si Si6 0.598723 0.801696 0.203214
Si Si7 0.619141 0.953087 0.489725
O O1 0.956631 0.589197 0.349409
O O2 0.184336 0.578193 0.930902
O O3 0.085777 0.658799 0.101624
O O4 0.000000 0.607613 0.000000
O O5 0.953005 0.160498 0.816647
O O6 0.931736 0.253823 0.822797
O O7 0.000000 0.205965 0.500000
O O8 0.754085 0.199510 0.008976
O O9 0.500000 0.618246 0.500000
O O10 0.597390 0.588104 0.622522
O O11 0.363649 0.577390 0.881628
O O12 0.612290 0.500000 0.631590
O O13 0.748145 0.548681 0.610389
O O14 0.500000 0.549200 0.000000
O O15 0.285827 0.500000 0.875508
O O16 0.148537 0.546522 0.264149
O O17 0.500000 0.807825 0.500000
O O18 0.556849 0.000000 0.627831
#
# Coordination Sequence:
#
# PCOD9198189 Si02
#       7
#     8   8   8   8   8   8   8
#     4  12  26  39  59  89 127 161 206 259 317 374
#     4   9  20  38  66  96 125 157 207 264 318 375
#     4  11  22  36  60  92 124 160 201 259 319 374
#     4  10  20  36  56  83 118 158 205 251 301 364
#     4  11  22  39  61  87 118 162 213 254 302 374
#     4  10  20  40  69  94 119 165 214 256 310 385
#     4  10  22  40  61  84 120 166 210 258 307 371
#
# _framework density 20.615758
#
# number of rings (size 3 to 8) (size 9 to 14) (size 15 to 20)
#    0.000    1.571    2.857    2.143    2.000    3.429 
#    0.000    0.714    0.000    8.571    0.000    0.000 
#    0.000    0.000    0.000    0.000    0.000    0.000 
#
# Total GULP energy -156045.175569 kJ/mol
# GULP energy per Si atom -5573.041985 kJ/mol
# Density = 2.056884 g / cm^3
# Si number density = 20.615758 Si / 1000 Ang^3
#
#
#
# Elastic Constant Matrix: (Units=GPa)
#
#
# Indices 1 2 3 4 5 6 
#
# 1 97.2138 61.6955 1.0889 0.0000 4.5620 0.0000
# 2 61.6955 206.6544 13.5610 0.0000 4.4918 0.0000
# 3 1.0889 13.5610 66.1348 0.0000 -8.9798 0.0000
# 4 0.0000 0.0000 0.0000 27.0958 0.0000 -13.1075
# 5 4.5620 4.4918 -8.9798 0.0000 26.9677 0.0000
# 6 0.0000 0.0000 0.0000 -13.1075 0.0000 34.9808
#
#
#
# Elastic Compliance Matrix: (Units=1/GPa)
#
#
# Indices 1 2 3 4 5 6 
#
# 1 0.012763 -0.003805 0.000380 0.000000 -0.001399 0.000000
# 2 -0.003805 0.006077 -0.001292 0.000000 -0.000799 0.000000
# 3 0.000380 -0.001292 0.016129 0.000000 0.005522 0.000000
# 4 0.000000 0.000000 0.000000 0.045077 0.000000 0.016890
# 5 -0.001399 -0.000799 0.005522 0.000000 0.039290 0.000000
# 6 0.000000 0.000000 0.000000 0.016890 0.000000 0.034916
#
#
# Mechanical properties :
#
#
# Convention : Reuss Voigt Hill
#
# Bulk Modulus (GPa) = 39.16107 58.07708 48.61908
# Shear Modulus (GPa) = 29.03668 37.38604 33.21136
#
# Velocity S-wave (km/s) = 3.75703 4.26310 4.01804
# Velocity P-wave (km/s) = 6.15283 7.24323 6.72018
#
# Compressibility (1/GPa) = 0.02553556
#
# Stress axis : x y z
#
# Youngs Moduli (GPa) = 78.35378 164.55422 62.00017
#
# Poissons Ratio (x) = 0.62609 -0.02357
# Poissons Ratio (y) = 0.29812 0.08010
# Poissons Ratio (z) = -0.02978 0.21259
#
# Static dielectric constant tensor:
#      x y z
#    x 1.764470 0.000000 -0.109580 
#    y 0.000000 1.804750 0.000000 
#    z -0.109580 0.000000 1.946070 
# 
# From -- ./inp_files/80421.got.cif
#   From: 2010.05.17/outbox.cif.g08.bks.cpg/sg12_41_cif.got.tgz:80421.got - 2010.06.03 13:09:07.
