data_PCOD9198268
_publ_section_title
;
Structure prediction by ZEFSAII (Michael W. Deem and Ramdas Pophale) SiO2 
 PCOD9198268
Probable space group: C 2/M
;
_chemical_formula_sum "Si O2"
_cell_formula_units_Z 56
_cell_length_a 17.357934
_cell_length_b 22.316174
_cell_length_c 15.039813
_cell_angle_alpha 90.000000
_cell_angle_beta 150.048890
_cell_angle_gamma 90.000000
_cell_volume 2908.624891
_symmetry_space_group_name_H-M "C 2/M"
_symmetry_group_IT_number 12
_symmetry_cell_setting 'monoclinic'
loop_
_space_group_symop_operation_xyz
x,y,z
-x,y,-z
-x,-y,-z
x,-y,z
1/2+x,1/2+y,z
1/2-x,1/2+y,-z
1/2-x,1/2-y,-z
1/2+x,1/2-y,z
loop_
_atom_site_type_symbol
_atom_site_label
_atom_site_fract_x
_atom_site_fract_y
_atom_site_fract_z
Si Si1 0.563922 0.641870 0.969378
Si Si2 0.935629 0.780497 0.340836
Si Si3 0.064371 0.280497 0.969578
Si Si4 0.566533 0.500000 0.467140
Si Si5 0.563198 0.609057 0.776882
Si Si6 0.563921 0.858130 0.658465
Si Si7 0.936802 0.390943 0.150486
Si Si8 0.566533 0.000000 0.165926
O O1 0.750000 0.641191 0.159172
O O2 0.500000 0.620604 0.000000
O O3 0.514311 0.711585 0.907574
O O4 0.516006 0.606744 0.832945
O O5 0.979799 0.826367 0.307715
O O6 0.985690 0.711585 0.378953
O O7 0.000000 0.801869 0.500000
O O8 0.750000 0.780083 0.159075
O O9 0.020201 0.326367 0.848118
O O10 0.000000 0.301869 0.000000
O O11 0.500000 0.500000 0.500000
O O12 0.508167 0.557753 0.354806
O O13 0.750000 0.500000 0.655517
O O14 0.750000 0.604296 0.960090
O O15 0.500000 0.879396 0.500000
O O16 0.516006 0.893256 0.699068
O O17 0.008167 0.442247 0.161528
O O18 0.500000 0.000000 0.000000
#
# Coordination Sequence:
#
# PCOD9198268 Si02
#       8
#     8   8   8   4   8   8   8   4
#     4   9  18  33  54  81 112 143 176 218 266 317
#     4   9  17  30  51  80 111 142 175 214 264 319
#     4   9  17  30  51  80 111 142 175 214 264 319
#     4  12  26  42  59  80 107 138 177 222 266 314
#     4  10  20  36  57  79 107 144 183 221 265 315
#     4   9  18  33  54  81 112 143 176 218 266 317
#     4  10  20  36  57  79 107 144 183 221 265 315
#     4  12  26  42  59  80 107 138 177 222 266 314
#
# _framework density 19.253084000000001
#
# number of rings (size 3 to 8) (size 9 to 14) (size 15 to 20)
#    0.000    2.286    0.000    3.000    0.000    8.000 
#    0.000    0.714    0.000    8.571    0.000    0.000 
#    0.000    0.000    0.000    0.000    0.000    0.000 
#
# Total GULP energy -156286.247749 kJ/mol
# GULP energy per Si atom -5581.651705 kJ/mol
# Density = 1.920926 g / cm^3
# Si number density = 19.253084 Si / 1000 Ang^3
#
#
#
# Elastic Constant Matrix: (Units=GPa)
#
#
# Indices 1 2 3 4 5 6 
#
# 1 155.1526 50.1683 49.8085 0.0000 -42.7242 0.0000
# 2 50.1683 45.0277 32.7254 0.0000 -17.7403 0.0000
# 3 49.8085 32.7254 74.0986 0.0000 -39.7124 0.0000
# 4 0.0000 0.0000 0.0000 24.0534 0.0000 -5.3662
# 5 -42.7242 -17.7403 -39.7124 0.0000 34.7315 0.0000
# 6 0.0000 0.0000 0.0000 -5.3662 0.0000 29.3296
#
#
#
# Elastic Compliance Matrix: (Units=1/GPa)
#
#
# Indices 1 2 3 4 5 6 
#
# 1 0.012979 -0.011858 0.004709 0.000000 0.015293 0.000000
# 2 -0.011858 0.043543 -0.018486 0.000000 -0.013482 0.000000
# 3 0.004709 -0.018486 0.042713 0.000000 0.045188 0.000000
# 4 0.000000 0.000000 0.000000 0.043343 0.000000 0.007930
# 5 0.015293 -0.013482 0.045188 0.000000 0.092387 0.000000
# 6 0.000000 0.000000 0.000000 0.007930 0.000000 0.035546
#
#
# Mechanical properties :
#
#
# Convention : Reuss Voigt Hill
#
# Bulk Modulus (GPa) = 20.84815 59.96482 40.40648
# Shear Modulus (GPa) = 14.80300 27.06134 20.93217
#
# Velocity S-wave (km/s) = 2.77585 3.75315 3.30087
# Velocity P-wave (km/s) = 4.59628 7.07069 5.96324
#
# Compressibility (1/GPa) = 0.04796590
#
# Stress axis : x y z
#
# Youngs Moduli (GPa) = 77.04726 22.96560 23.41231
#
# Poissons Ratio (x) = 0.27232 -0.11024
# Poissons Ratio (y) = 0.91360 0.43279
# Poissons Ratio (z) = -0.36279 0.42453
#
# Static dielectric constant tensor:
#      x y z
#    x 1.666300 0.000000 -0.006280 
#    y 0.000000 1.670120 0.000000 
#    z -0.006280 0.000000 1.660130 
# 
# From -- ./inp_files/227667.got.cif
#   From: 2010.05.17/outbox.cif.g08.bks.cpg/sg12_114_cif.got.tgz:227667.got - 2010.06.03 13:09:07.
