data_PCOD9198992
_publ_section_title
;
Structure prediction by ZEFSAII (Michael W. Deem and Ramdas Pophale) SiO2 
 PCOD9198992
Probable space group: C 2/M
;
_chemical_formula_sum "Si O2"
_cell_formula_units_Z 48
_cell_length_a 31.358284
_cell_length_b 8.624038
_cell_length_c 9.640405
_cell_angle_alpha 90.000000
_cell_angle_beta 91.535872
_cell_angle_gamma 90.000000
_cell_volume 2606.166615
_symmetry_space_group_name_H-M "C 2/M"
_symmetry_group_IT_number 12
_symmetry_cell_setting 'monoclinic'
loop_
_space_group_symop_operation_xyz
x,y,z
-x,y,-z
-x,-y,-z
x,-y,z
1/2+x,1/2+y,z
1/2-x,1/2+y,-z
1/2-x,1/2-y,-z
1/2+x,1/2-y,z
loop_
_atom_site_type_symbol
_atom_site_label
_atom_site_fract_x
_atom_site_fract_y
_atom_site_fract_z
Si Si1 0.708683 0.312968 0.666929
Si Si2 0.198322 0.184998 0.345237
Si Si3 0.544591 0.188488 0.335329
Si Si4 0.447584 0.187585 0.345913
Si Si5 0.877797 0.685696 0.846236
Si Si6 0.128959 0.185605 0.845398
O O1 0.713235 0.500000 0.672651
O O2 0.754571 0.237545 0.697245
O O3 0.695019 0.272313 0.508099
O O4 0.672265 0.263747 0.770888
O O5 0.161918 0.264288 0.251842
O O6 0.194411 0.000000 0.333130
O O7 0.495587 0.235418 0.306688
O O8 0.557506 0.234380 0.493051
O O9 0.578929 0.241505 0.226281
O O10 0.544623 0.000000 0.334664
O O11 0.411263 0.256340 0.246588
O O12 0.445509 0.000000 0.339646
O O13 0.879369 0.500000 0.854403
O O14 0.873346 0.752292 0.999272
O O15 0.128932 0.000000 0.847308
#
# Coordination Sequence:
#
# PCOD9198992 Si02
#       6
#     8   8   8   8   8   8
#     4   9  20  38  58  79 106 140 176 215 262 318
#     4  10  20  36  59  84 106 132 173 224 270 311
#     4   8  17  34  58  83 105 135 178 223 262 311
#     4   9  17  35  60  82 104 135 178 223 266 311
#     4  11  22  36  54  78 109 145 180 214 261 317
#     4  11  23  37  52  77 112 145 177 215 262 314
#
# _framework density 18.417854999999999
#
# number of rings (size 3 to 8) (size 9 to 14) (size 15 to 20)
#    0.000    2.333    0.000    3.500    0.000    3.333 
#    0.000    7.500    0.000    0.000    0.000    0.000 
#    0.000    0.000    0.000    0.000    0.000    0.000 
#
# Total GULP energy -133995.466633 kJ/mol
# GULP energy per Si atom -5583.144443 kJ/mol
# Density = 1.837594 g / cm^3
# Si number density = 18.417855 Si / 1000 Ang^3
#
#
#
# Elastic Constant Matrix: (Units=GPa)
#
#
# Indices 1 2 3 4 5 6 
#
# 1 117.6782 26.7656 82.6897 0.0000 -44.8956 0.0000
# 2 26.7656 28.8516 26.5457 0.0000 -11.8730 0.0000
# 3 82.6897 26.5457 98.6446 0.0000 -46.6666 0.0000
# 4 0.0000 0.0000 0.0000 29.9596 0.0000 5.4398
# 5 -44.8956 -11.8730 -46.6666 0.0000 12.1761 0.0000
# 6 0.0000 0.0000 0.0000 5.4398 0.0000 29.6954
#
#
#
# Elastic Compliance Matrix: (Units=1/GPa)
#
#
# Indices 1 2 3 4 5 6 
#
# 1 0.019625 -0.003711 -0.020991 0.000000 -0.011707 0.000000
# 2 -0.003711 0.046667 -0.006896 0.000000 0.005395 0.000000
# 3 -0.020991 -0.006896 0.012552 0.000000 -0.036011 0.000000
# 4 0.000000 0.000000 0.000000 0.034527 0.000000 -0.006325
# 5 -0.011707 0.005395 -0.036011 0.000000 -0.093798 0.000000
# 6 0.000000 0.000000 0.000000 -0.006325 0.000000 0.034834
#
#
# Mechanical properties :
#
#
# Convention : Reuss Voigt Hill
#
# Bulk Modulus (GPa) = 63.89620 57.46405 60.68013
# Shear Modulus (GPa) = 40.71049 21.64446 31.17747
#
# Velocity S-wave (km/s) = 4.70657 3.43182 4.11881
# Velocity P-wave (km/s) = 8.01895 6.85355 7.45904
#
# Compressibility (1/GPa) = 0.01565038
#
# Stress axis : x y z
#
# Youngs Moduli (GPa) = 50.95564 21.42834 79.66564
#
# Poissons Ratio (x) = 0.07952 1.67224
# Poissons Ratio (y) = 0.18909 0.54934
# Poissons Ratio (z) = 1.06960 0.14776
#
# Static dielectric constant tensor:
#      x y z
#    x 1.619400 0.000000 -0.022920 
#    y 0.000000 1.625210 0.000000 
#    z -0.022920 0.000000 1.609120 
# 
# From -- ./inp_files/108705.got.cif
#   From: 2010.05.17/outbox.cif.g08.bks.cpg/sg12_55_cif.got.tgz:108705.got - 2010.06.03 13:09:07.
