data_PCOD9198110
_publ_section_title
;
Structure prediction by ZEFSAII (Michael W. Deem and Ramdas Pophale) SiO2 
 PCOD9198110
Probable space group: C 2/M
;
_chemical_formula_sum "Si O2"
_cell_formula_units_Z 64
_cell_length_a 18.938066
_cell_length_b 15.042299
_cell_length_c 24.537491
_cell_angle_alpha 90.000000
_cell_angle_beta 152.992474
_cell_angle_gamma 90.000000
_cell_volume 3174.232267
_symmetry_space_group_name_H-M "C 2/M"
_symmetry_group_IT_number 12
_symmetry_cell_setting 'monoclinic'
loop_
_space_group_symop_operation_xyz
x,y,z
-x,y,-z
-x,-y,-z
x,-y,z
1/2+x,1/2+y,z
1/2-x,1/2+y,-z
1/2-x,1/2-y,-z
1/2+x,1/2-y,z
loop_
_atom_site_type_symbol
_atom_site_label
_atom_site_fract_x
_atom_site_fract_y
_atom_site_fract_z
Si Si1 0.056047 0.282980 0.756353
Si Si2 0.772200 0.599815 0.553292
Si Si3 0.027519 0.101086 0.783069
Si Si4 0.686119 0.897839 0.548489
Si Si5 0.543146 0.400346 0.593850
Si Si6 0.380432 0.207144 0.325979
Si Si7 0.277551 0.598678 0.977842
Si Si8 0.421792 0.398285 0.890738
O O1 0.102939 0.309044 0.727649
O O2 0.886406 0.323108 0.651221
O O3 0.054769 0.177425 0.758509
O O4 0.168256 0.326685 0.877875
O O5 0.833792 0.500000 0.606939
O O6 0.771435 0.608151 0.487124
O O7 0.609577 0.606590 0.472633
O O8 0.856045 0.117392 0.691393
O O9 0.165640 0.109041 0.921502
O O10 0.023812 0.000000 0.759448
O O11 0.542201 0.832714 0.461251
O O12 0.638227 0.000000 0.526660
O O13 0.500000 0.396637 0.500000
O O14 0.610510 0.500000 0.649717
O O15 0.636471 0.310945 0.671786
O O16 0.225115 0.154152 0.233137
O O17 0.206489 0.500000 0.921884
O O18 0.437513 0.599493 0.054437
O O19 0.371243 0.500000 0.868181
O O20 0.500000 0.361011 0.000000
#
# Coordination Sequence:
#
# PCOD9198110 Si02
#       8
#     8   8   8   8   8   8   8   8
#     4  11  20  33  56  83 108 136 180 227 267 316
#     4   9  18  33  56  83 107 138 177 222 272 318
#     4  10  21  35  50  74 111 147 175 214 270 323
#     4   9  18  33  54  84 117 139 167 216 276 334
#     4  10  22  39  55  77 112 151 187 223 266 315
#     4  11  21  33  58  86 107 139 184 224 269 323
#     4  10  21  37  56  78 106 142 180 219 268 325
#     4  10  20  36  56  79 110 142 174 218 273 331
#
# _framework density 20.162355999999999
#
# number of rings (size 3 to 8) (size 9 to 14) (size 15 to 20)
#    0.000    2.000    1.250    2.625    0.000    6.500 
#    0.000    0.000    0.000    4.875    0.000    0.000 
#    0.000    0.000    0.000    0.000    0.000    0.000 
#
# Total GULP energy -178575.258903 kJ/mol
# GULP energy per Si atom -5580.476841 kJ/mol
# Density = 2.011647 g / cm^3
# Si number density = 20.162356 Si / 1000 Ang^3
#
#
#
# Elastic Constant Matrix: (Units=GPa)
#
#
# Indices 1 2 3 4 5 6 
#
# 1 32.2630 0.8677 -10.6106 -0.0033 -3.9665 -0.0004
# 2 0.8677 108.9290 43.0285 -0.0118 1.7145 0.0022
# 3 -10.6106 43.0285 72.3331 -0.0166 -0.7606 0.0024
# 4 -0.0033 -0.0118 -0.0166 24.7958 -0.0034 -4.2363
# 5 -3.9665 1.7145 -0.7606 -0.0034 10.3882 0.0007
# 6 -0.0004 0.0022 0.0024 -4.2363 0.0007 17.1015
#
#
#
# Elastic Compliance Matrix: (Units=1/GPa)
#
#
# Indices 1 2 3 4 5 6 
#
# 1 0.035303 -0.003421 0.007367 0.000010 0.014583 0.000002
# 2 -0.003421 0.012397 -0.007918 0.000000 -0.003932 -0.000001
# 3 0.007367 -0.007918 0.019674 0.000011 0.005560 0.000001
# 4 0.000010 0.000000 0.000011 0.042112 0.000018 0.010432
# 5 0.014583 -0.003932 0.005560 0.000018 0.102888 0.000000
# 6 0.000002 -0.000001 0.000001 0.010432 0.000000 0.061058
#
#
# Mechanical properties :
#
#
# Convention : Reuss Voigt Hill
#
# Bulk Modulus (GPa) = 16.82629 31.12183 23.97406
# Shear Modulus (GPa) = 16.60107 22.47305 19.53706
#
# Velocity S-wave (km/s) = 2.87255 3.34219 3.11623
# Velocity P-wave (km/s) = 4.40064 5.51024 4.98640
#
# Compressibility (1/GPa) = 0.05943081
#
# Stress axis : x y z
#
# Youngs Moduli (GPa) = 28.32623 80.66432 50.82836
#
# Poissons Ratio (x) = 0.27594 -0.37445
# Poissons Ratio (y) = 0.09690 0.40245
# Poissons Ratio (z) = -0.20868 0.63868
#
# Static dielectric constant tensor:
#      x y z
#    x 1.723280 0.000000 -0.040880 
#    y 0.000000 1.740190 0.000000 
#    z -0.040880 0.000000 1.730490 
# 
# From -- ./inp_files/344067.got.cif
#   From: 2010.05.17/outbox.cif.g08.bks.cpg/sg12_173_cif.got.tgz:344067.got - 2010.06.03 13:09:07.
