data_PCOD9198634
_publ_section_title
;
Structure prediction by ZEFSAII (Michael W. Deem and Ramdas Pophale) SiO2 
 PCOD9198634
Probable space group: C 2/M
;
_chemical_formula_sum "Si O2"
_cell_formula_units_Z 64
_cell_length_a 29.977661
_cell_length_b 9.443583
_cell_length_c 19.606954
_cell_angle_alpha 90.000000
_cell_angle_beta 143.056180
_cell_angle_gamma 90.000000
_cell_volume 3336.122728
_symmetry_space_group_name_H-M "C 2/M"
_symmetry_group_IT_number 12
_symmetry_cell_setting 'monoclinic'
loop_
_space_group_symop_operation_xyz
x,y,z
-x,y,-z
-x,-y,-z
x,-y,z
1/2+x,1/2+y,z
1/2-x,1/2+y,-z
1/2-x,1/2-y,-z
1/2+x,1/2-y,z
loop_
_atom_site_type_symbol
_atom_site_label
_atom_site_fract_x
_atom_site_fract_y
_atom_site_fract_z
Si Si1 0.380305 0.170397 0.474599
Si Si2 0.191321 0.830765 0.880243
Si Si3 0.539528 0.831840 0.721719
Si Si4 0.608840 0.661346 0.209583
Si Si5 0.218937 0.167634 0.753868
Si Si6 0.009877 0.665331 0.183295
Si Si7 0.612367 0.833122 0.080796
Si Si8 0.772031 0.662295 0.460650
O O1 0.467664 0.200642 0.587647
O O2 0.339442 0.244669 0.362016
O O3 0.338726 0.214718 0.494147
O O4 0.371350 0.000000 0.459144
O O5 0.110449 0.763431 0.793356
O O6 0.211286 0.808458 0.825203
O O7 0.192416 0.000000 0.894880
O O8 0.250000 0.750000 0.000000
O O9 0.513604 0.809468 0.768011
O O10 0.557337 0.000000 0.736176
O O11 0.583042 0.500000 0.175321
O O12 0.575173 0.738074 0.234353
O O13 0.587600 0.745641 0.116008
O O14 0.697835 0.662392 0.324135
O O15 0.302883 0.202662 0.834139
O O16 0.207583 0.000000 0.727360
O O17 0.031032 0.500000 0.203018
O O18 0.940184 0.691130 0.048155
O O19 0.608687 0.000000 0.092927
O O20 0.788574 0.500000 0.500925
O O21 0.750000 0.750000 0.500000
#
# Coordination Sequence:
#
# PCOD9198634 Si02
#       8
#     8   8   8   8   8   8   8   8
#     4  10  21  39  61  87 121 160 202 248 302 359
#     4  11  24  43  67  95 125 156 198 248 303 364
#     4  10  22  41  64  89 121 159 200 247 298 357
#     4  11  22  35  53  83 119 151 193 248 303 354
#     4  10  22  40  63  89 118 157 202 250 301 360
#     4  10  21  38  59  82 115 159 203 244 293 359
#     4  10  20  36  58  82 111 154 202 241 289 357
#     4  10  21  36  55  81 115 157 202 247 294 348
#
# _framework density 19.183947
#
# number of rings (size 3 to 8) (size 9 to 14) (size 15 to 20)
#    0.000    1.750    1.250    2.625    0.000    9.000 
#    0.000    3.750    0.000    0.000    0.000    0.000 
#    0.000    0.000    0.000    0.000    0.000    0.000 
#
# Total GULP energy -178815.540183 kJ/mol
# GULP energy per Si atom -5587.985631 kJ/mol
# Density = 1.914028 g / cm^3
# Si number density = 19.183947 Si / 1000 Ang^3
#
#
#
# Elastic Constant Matrix: (Units=GPa)
#
#
# Indices 1 2 3 4 5 6 
#
# 1 85.1142 51.2787 33.9822 0.0000 9.2043 0.0000
# 2 51.2787 56.3411 44.1291 0.0000 3.8469 0.0000
# 3 33.9822 44.1291 95.3175 0.0000 6.9888 0.0000
# 4 0.0000 0.0000 0.0000 30.3224 0.0000 -0.1165
# 5 9.2043 3.8469 6.9888 0.0000 30.6309 0.0000
# 6 0.0000 0.0000 0.0000 -0.1165 0.0000 34.3095
#
#
#
# Elastic Compliance Matrix: (Units=1/GPa)
#
#
# Indices 1 2 3 4 5 6 
#
# 1 0.027341 -0.026969 0.003145 0.000000 -0.005546 0.000000
# 2 -0.026969 0.054459 -0.015958 0.000000 0.004905 0.000000
# 3 0.003145 -0.015958 0.016964 0.000000 -0.002812 0.000000
# 4 0.000000 0.000000 0.000000 0.032979 0.000000 0.000112
# 5 -0.005546 0.004905 -0.002812 0.000000 0.034339 0.000000
# 6 0.000000 0.000000 0.000000 0.000112 0.000000 0.029147
#
#
# Mechanical properties :
#
#
# Convention : Reuss Voigt Hill
#
# Bulk Modulus (GPa) = 52.08168 55.06143 53.57156
# Shear Modulus (GPa) = 17.78144 26.21140 21.99642
#
# Velocity S-wave (km/s) = 3.04779 3.70039 3.38983
# Velocity P-wave (km/s) = 6.29229 6.85721 6.58081
#
# Compressibility (1/GPa) = 0.01920061
#
# Stress axis : x y z
#
# Youngs Moduli (GPa) = 36.57501 18.36255 58.94835
#
# Poissons Ratio (x) = 0.49522 -0.18539
# Poissons Ratio (y) = 0.98639 0.94067
# Poissons Ratio (z) = -0.11503 0.29302
#
# Static dielectric constant tensor:
#      x y z
#    x 1.646460 0.000000 0.014950 
#    y 0.000000 1.648430 0.000000 
#    z 0.014950 0.000000 1.674160 
# 
# From -- ./inp_files/295728.got.cif
#   From: 2010.05.17/outbox.cif.g08.bks.cpg/sg12_148_cif.got.tgz:295728.got - 2010.06.03 13:09:07.
