data_PCOD9198161
_publ_section_title
;
Structure prediction by ZEFSAII (Michael W. Deem and Ramdas Pophale) SiO2 
 PCOD9198161
Probable space group: C 2/M
;
_chemical_formula_sum "Si O2"
_cell_formula_units_Z 48
_cell_length_a 24.153311
_cell_length_b 8.601968
_cell_length_c 17.808138
_cell_angle_alpha 90.000000
_cell_angle_beta 133.441365
_cell_angle_gamma 90.000000
_cell_volume 2686.436297
_symmetry_space_group_name_H-M "C 2/M"
_symmetry_group_IT_number 12
_symmetry_cell_setting 'monoclinic'
loop_
_space_group_symop_operation_xyz
x,y,z
-x,y,-z
-x,-y,-z
x,-y,z
1/2+x,1/2+y,z
1/2-x,1/2+y,-z
1/2-x,1/2-y,-z
1/2+x,1/2-y,z
loop_
_atom_site_type_symbol
_atom_site_label
_atom_site_fract_x
_atom_site_fract_y
_atom_site_fract_z
Si Si1 0.733363 0.185989 0.101090
Si Si2 0.540059 0.813678 0.313395
Si Si3 0.309193 0.686264 0.617178
Si Si4 0.126941 0.814193 0.873131
Si Si5 0.568837 0.189340 0.511770
Si Si6 0.739343 0.188023 0.711490
O O1 0.815047 0.231686 0.140197
O O2 0.729182 0.241865 0.182445
O O3 0.727358 0.000000 0.091064
O O4 0.669066 0.260519 0.988259
O O5 0.606554 0.744090 0.324106
O O6 0.455567 0.760970 0.212768
O O7 0.556749 0.762270 0.414635
O O8 0.544874 0.000000 0.315341
O O9 0.306111 0.500000 0.611195
O O10 0.250000 0.750000 0.500000
O O11 0.283234 0.734273 0.676498
O O12 0.119559 0.000000 0.865690
O O13 0.500000 0.243864 0.500000
O O14 0.651263 0.237199 0.618788
O O15 0.568006 0.000000 0.511500
O O16 0.741484 0.000000 0.718720
#
# Coordination Sequence:
#
# PCOD9198161 Si02
#       6
#     8   8   8   8   8   8
#     4  10  21  37  59  87 116 149 189 235 285 336
#     4  11  21  36  58  84 114 150 193 237 283 337
#     4  11  22  38  58  81 114 155 196 236 283 338
#     4  10  21  38  59  85 117 152 188 230 286 345
#     4   9  17  30  51  80 112 145 182 224 276 338
#     4  10  20  36  56  81 113 152 192 230 282 341
#
# _framework density 17.867536999999999
#
# number of rings (size 3 to 8) (size 9 to 14) (size 15 to 20)
#    0.000    1.833    1.667    3.000    0.000    4.667 
#    0.000    0.833    0.000    8.500    0.000    0.000 
#    0.000    0.000    0.000    0.000    0.000    0.000 
#
# Total GULP energy -134053.542088 kJ/mol
# GULP energy per Si atom -5585.564254 kJ/mol
# Density = 1.782687 g / cm^3
# Si number density = 17.867537 Si / 1000 Ang^3
#
#
#
# Elastic Constant Matrix: (Units=GPa)
#
#
# Indices 1 2 3 4 5 6 
#
# 1 86.4288 16.2821 27.1125 0.0000 -27.2411 0.0000
# 2 16.2821 30.9873 11.5209 0.0000 -8.0102 0.0000
# 3 27.1125 11.5209 70.2075 0.0000 -19.4753 0.0000
# 4 0.0000 0.0000 0.0000 28.3831 0.0000 0.4571
# 5 -27.2411 -8.0102 -19.4753 0.0000 30.4531 0.0000
# 6 0.0000 0.0000 0.0000 0.4571 0.0000 26.5927
#
#
#
# Elastic Compliance Matrix: (Units=1/GPa)
#
#
# Indices 1 2 3 4 5 6 
#
# 1 0.017200 -0.004911 -0.002342 0.000000 0.012597 0.000000
# 2 -0.004911 0.036899 -0.003264 0.000000 0.003226 0.000000
# 3 -0.002342 -0.003264 0.018070 0.000000 0.008602 0.000000
# 4 0.000000 0.000000 0.000000 0.035242 0.000000 -0.000606
# 5 0.012597 0.003226 0.008602 0.000000 0.050455 0.000000
# 6 0.000000 0.000000 0.000000 -0.000606 0.000000 0.037615
#
#
# Mechanical properties :
#
#
# Convention : Reuss Voigt Hill
#
# Bulk Modulus (GPa) = 19.55599 33.05050 26.30324
# Shear Modulus (GPa) = 21.40781 25.93299 23.67040
#
# Velocity S-wave (km/s) = 3.46517 3.81386 3.64369
# Velocity P-wave (km/s) = 5.19409 6.15887 5.69694
#
# Compressibility (1/GPa) = 0.05113523
#
# Stress axis : x y z
#
# Youngs Moduli (GPa) = 58.13832 27.10110 55.34086
#
# Poissons Ratio (x) = 0.13309 0.12963
# Poissons Ratio (y) = 0.28550 0.18062
# Poissons Ratio (z) = 0.13618 0.08845
#
# Static dielectric constant tensor:
#      x y z
#    x 1.602460 0.000000 -0.003540 
#    y 0.000000 1.607020 0.000000 
#    z -0.003540 0.000000 1.574730 
# 
# From -- ./inp_files/281814.got.cif
#   From: 2010.05.17/outbox.cif.g08.bks.cpg/sg12_141_cif.got.tgz:281814.got - 2010.06.03 13:09:07.
