data_PCOD9198153
_publ_section_title
;
Structure prediction by ZEFSAII (Michael W. Deem and Ramdas Pophale) SiO2 
 PCOD9198153
Probable space group: C 2/M
;
_chemical_formula_sum "Si O2"
_cell_formula_units_Z 64
_cell_length_a 20.060291
_cell_length_b 25.986283
_cell_length_c 11.626697
_cell_angle_alpha 90.000000
_cell_angle_beta 142.837172
_cell_angle_gamma 90.000000
_cell_volume 3661.287225
_symmetry_space_group_name_H-M "C 2/M"
_symmetry_group_IT_number 12
_symmetry_cell_setting 'monoclinic'
loop_
_space_group_symop_operation_xyz
x,y,z
-x,y,-z
-x,-y,-z
x,-y,z
1/2+x,1/2+y,z
1/2-x,1/2+y,-z
1/2-x,1/2-y,-z
1/2+x,1/2-y,z
loop_
_atom_site_type_symbol
_atom_site_label
_atom_site_fract_x
_atom_site_fract_y
_atom_site_fract_z
Si Si1 0.205280 0.561273 0.463258
Si Si2 0.386837 0.088123 0.899788
Si Si3 0.240373 0.715482 0.744662
Si Si4 0.920070 0.699263 0.045491
Si Si5 0.629379 0.261633 0.384567
Si Si6 0.034352 0.558993 0.754895
Si Si7 0.597115 0.842390 0.720369
Si Si8 0.116549 0.857652 0.222791
O O1 0.214027 0.500000 0.487476
O O2 0.197529 0.575616 0.317077
O O3 0.310458 0.592004 0.654063
O O4 0.088610 0.576611 0.367531
O O5 0.500000 0.067802 0.000000
O O6 0.399236 0.148985 0.939840
O O7 0.384733 0.063320 0.022830
O O8 0.143568 0.742833 0.535781
O O9 0.200976 0.682156 0.799021
O O10 0.307219 0.676856 0.755186
O O11 0.324390 0.760009 0.894388
O O12 0.916028 0.681013 0.171732
O O13 0.038277 0.726852 0.194876
O O14 0.750000 0.250000 0.500000
O O15 0.602110 0.320895 0.316028
O O16 0.025231 0.500000 0.705960
O O17 0.083682 0.596707 0.726791
O O18 0.500000 0.828730 0.500000
O O19 0.000000 0.866812 0.000000
#
# Coordination Sequence:
#
# PCOD9198153 Si02
#       8
#     8   8   8   8   8   8   8   8
#     4  10  20  36  56  81 110 142 178 229 281 320
#     4   9  19  29  55  82 111 134 173 218 276 326
#     4  11  22  36  54  75 112 146 183 221 269 319
#     4  11  21  35  52  81 109 149 178 221 267 330
#     4  10  22  33  54  80 109 144 182 218 264 323
#     4   9  19  35  55  81 109 138 179 227 277 327
#     4  11  21  35  52  75 109 143 181 221 271 322
#     4  11  22  36  54  80 108 143 183 223 265 327
#
# _framework density 17.480191000000001
#
# number of rings (size 3 to 8) (size 9 to 14) (size 15 to 20)
#    0.000    1.750    2.500    2.250   12.250    2.000 
#    0.000    0.625    0.000    0.000    0.000    0.000 
#    0.000    3.250    0.000    0.000    0.000    0.000 
#
# Total GULP energy -178341.097022 kJ/mol
# GULP energy per Si atom -5573.159282 kJ/mol
# Density = 1.744040 g / cm^3
# Si number density = 17.480191 Si / 1000 Ang^3
#
#
#
# Elastic Constant Matrix: (Units=GPa)
#
#
# Indices 1 2 3 4 5 6 
#
# 1 46.6608 33.0451 2.9056 0.0000 -4.5035 0.0000
# 2 33.0451 111.4615 53.8754 0.0000 2.5548 0.0000
# 3 2.9056 53.8754 98.1190 0.0000 2.5304 0.0000
# 4 0.0000 0.0000 0.0000 50.7386 0.0000 2.6654
# 5 -4.5035 2.5548 2.5304 0.0000 19.1460 0.0000
# 6 0.0000 0.0000 0.0000 2.6654 0.0000 20.6186
#
#
#
# Elastic Compliance Matrix: (Units=1/GPa)
#
#
# Indices 1 2 3 4 5 6 
#
# 1 0.030148 -0.011693 0.005323 0.000000 0.007948 0.000000
# 2 -0.011693 0.016759 -0.008757 0.000000 -0.003829 0.000000
# 3 0.005323 -0.008757 0.014830 0.000000 0.000460 0.000000
# 4 0.000000 0.000000 0.000000 0.019844 0.000000 -0.002565
# 5 0.007948 -0.003829 0.000460 0.000000 0.054550 0.000000
# 6 0.000000 0.000000 0.000000 -0.002565 0.000000 0.048832
#
#
# Mechanical properties :
#
#
# Convention : Reuss Voigt Hill
#
# Bulk Modulus (GPa) = 31.76348 48.43261 40.09805
# Shear Modulus (GPa) = 22.15227 29.19499 25.67363
#
# Velocity S-wave (km/s) = 3.56375 4.09121 3.83655
# Velocity P-wave (km/s) = 5.92826 7.07705 6.52798
#
# Compressibility (1/GPa) = 0.03148270
#
# Stress axis : x y z
#
# Youngs Moduli (GPa) = 33.16992 59.67030 67.42874
#
# Poissons Ratio (x) = 0.69771 -0.35889
# Poissons Ratio (y) = 0.38785 0.59047
# Poissons Ratio (z) = -0.17655 0.52253
#
# Static dielectric constant tensor:
#      x y z
#    x 1.658390 0.000000 -0.020710 
#    y 0.000000 1.628610 0.000000 
#    z -0.020710 0.000000 1.625300 
# 
# From -- ./inp_files/170622.got.cif
#   From: 2010.05.17/outbox.cif.g08.bks.cpg/sg12_86_cif.got.tgz:170622.got - 2010.06.03 13:09:07.
