data_PCOD9198658
_publ_section_title
;
Structure prediction by ZEFSAII (Michael W. Deem and Ramdas Pophale) SiO2 
 PCOD9198658
Probable space group: C 2/M
;
_chemical_formula_sum "Si O2"
_cell_formula_units_Z 48
_cell_length_a 23.055020
_cell_length_b 14.845842
_cell_length_c 13.546062
_cell_angle_alpha 90.000000
_cell_angle_beta 28.203673
_cell_angle_gamma 90.000000
_cell_volume 2191.208914
_symmetry_space_group_name_H-M "C 2/M"
_symmetry_group_IT_number 12
_symmetry_cell_setting 'monoclinic'
loop_
_space_group_symop_operation_xyz
x,y,z
-x,y,-z
-x,-y,-z
x,-y,z
1/2+x,1/2+y,z
1/2-x,1/2+y,-z
1/2-x,1/2-y,-z
1/2+x,1/2-y,z
loop_
_atom_site_type_symbol
_atom_site_label
_atom_site_fract_x
_atom_site_fract_y
_atom_site_fract_z
Si Si1 0.811810 0.272473 0.167348
Si Si2 0.487315 0.903496 0.138347
Si Si3 0.624867 0.780345 0.276519
Si Si4 0.054070 0.099459 0.050511
Si Si5 0.160836 0.896257 0.112639
Si Si6 0.726723 0.650683 0.495672
O O1 0.711265 0.246728 0.238360
O O2 0.751280 0.336122 0.341213
O O3 0.928598 0.324838 0.945502
O O4 0.874888 0.180069 0.111510
O O5 0.341858 0.900532 0.371281
O O6 0.537211 0.000000 0.094200
O O7 0.500000 0.894572 0.000000
O O8 0.500000 0.823354 0.500000
O O9 0.593375 0.685666 0.269959
O O10 0.702789 0.852581 0.097133
O O11 0.908396 0.115588 0.278979
O O12 0.107147 0.101246 0.082413
O O13 0.079216 0.000000 0.972034
O O14 0.156632 0.000000 0.156656
O O15 0.750000 0.750000 0.500000
#
# Coordination Sequence:
#
# PCOD9198658 Si02
#       6
#     8   8   8   8   8   8
#     4  10  21  36  56  79 113 144 184 231 278 325
#     4   9  18  33  52  75 104 138 177 223 275 323
#     4  10  20  36  58  83 110 147 183 228 278 332
#     4  10  20  37  59  83 113 148 183 225 278 333
#     4   9  20  37  57  84 115 144 181 228 278 332
#     4  11  20  34  57  80 109 147 187 227 273 327
#
# _framework density 21.905715000000001
#
# number of rings (size 3 to 8) (size 9 to 14) (size 15 to 20)
#    0.000    2.167    1.667    1.500    0.000    2.000 
#    0.000    2.500    0.000    0.000    0.000    0.000 
#    0.000    0.000    0.000    0.000    0.000    0.000 
#
# Total GULP energy -133841.440046 kJ/mol
# GULP energy per Si atom -5576.726669 kJ/mol
# Density = 2.185586 g / cm^3
# Si number density = 21.905715 Si / 1000 Ang^3
#
#
#
# Elastic Constant Matrix: (Units=GPa)
#
#
# Indices 1 2 3 4 5 6 
#
# 1 52.7244 6.0622 4.4644 0.0000 -12.7403 0.0000
# 2 6.0622 111.0527 5.7542 0.0000 -17.4072 0.0000
# 3 4.4644 5.7542 49.6839 0.0000 -14.7844 0.0000
# 4 0.0000 0.0000 0.0000 13.0096 0.0000 -0.1590
# 5 -12.7403 -17.4072 -14.7844 0.0000 23.1039 0.0000
# 6 0.0000 0.0000 0.0000 -0.1590 0.0000 19.1864
#
#
#
# Elastic Compliance Matrix: (Units=1/GPa)
#
#
# Indices 1 2 3 4 5 6 
#
# 1 0.022127 0.000917 0.002152 0.000000 0.014270 0.000000
# 2 0.000917 0.010324 0.001466 0.000000 0.009223 0.000000
# 3 0.002152 0.001466 0.025255 0.000000 0.018452 0.000000
# 4 0.000000 0.000000 0.000000 0.076874 0.000000 0.000637
# 5 0.014270 0.009223 0.018452 0.000000 0.069908 0.000000
# 6 0.000000 0.000000 0.000000 0.000637 0.000000 0.052125
#
#
# Mechanical properties :
#
#
# Convention : Reuss Voigt Hill
#
# Bulk Modulus (GPa) = 14.97519 27.33585 21.15552
# Shear Modulus (GPa) = 18.53208 24.20533 21.36871
#
# Velocity S-wave (km/s) = 2.91175 3.32773 3.12666
# Velocity P-wave (km/s) = 4.26092 5.22216 4.76584
#
# Compressibility (1/GPa) = 0.06677709
#
# Stress axis : x y z
#
# Youngs Moduli (GPa) = 45.19361 96.85853 39.59630
#
# Poissons Ratio (x) = -0.08886 -0.08520
# Poissons Ratio (y) = -0.04146 -0.05806
# Poissons Ratio (z) = -0.09725 -0.14202
#
# Static dielectric constant tensor:
#      x y z
#    x 1.829750 0.000000 0.045030 
#    y 0.000000 1.978660 0.000000 
#    z 0.045030 0.000000 1.835580 
# 
# From -- ./inp_files/142725.got.cif
#   From: 2010.05.17/outbox.cif.g08.bks.cpg/sg12_72_cif.got.tgz:142725.got - 2010.06.03 13:09:07.
