data_PCOD9198448
_publ_section_title
;
Structure prediction by ZEFSAII (Michael W. Deem and Ramdas Pophale) SiO2 
 PCOD9198448
Probable space group: C 2/M
;
_chemical_formula_sum "Si O2"
_cell_formula_units_Z 56
_cell_length_a 19.348018
_cell_length_b 7.750583
_cell_length_c 18.459831
_cell_angle_alpha 90.000000
_cell_angle_beta 111.970291
_cell_angle_gamma 90.000000
_cell_volume 2567.174264
_symmetry_space_group_name_H-M "C 2/M"
_symmetry_group_IT_number 12
_symmetry_cell_setting 'monoclinic'
loop_
_space_group_symop_operation_xyz
x,y,z
-x,y,-z
-x,-y,-z
x,-y,z
1/2+x,1/2+y,z
1/2-x,1/2+y,-z
1/2-x,1/2-y,-z
1/2+x,1/2-y,z
loop_
_atom_site_type_symbol
_atom_site_label
_atom_site_fract_x
_atom_site_fract_y
_atom_site_fract_z
Si Si1 0.827809 0.196861 0.993204
Si Si2 0.231344 0.709184 0.707837
Si Si3 0.867911 0.297015 0.852254
Si Si4 0.088117 0.288297 0.737956
Si Si5 0.474046 0.209792 0.570072
Si Si6 0.814621 0.706913 0.470652
Si Si7 0.529033 0.200203 0.868264
O O1 0.828694 0.213746 0.906828
O O2 0.840301 0.000000 0.018414
O O3 0.750000 0.250000 0.000000
O O4 0.901313 0.294016 0.050117
O O5 0.232946 0.500000 0.707636
O O6 0.312851 0.771599 0.762841
O O7 0.170053 0.764845 0.743409
O O8 0.203484 0.768950 0.617750
O O9 0.873735 0.500000 0.870992
O O10 0.951293 0.226987 0.868833
O O11 0.089912 0.500000 0.740257
O O12 0.060091 0.226193 0.804881
O O13 0.029263 0.231180 0.654024
O O14 0.500000 0.255451 0.500000
O O15 0.389760 0.272346 0.537778
O O16 0.475464 0.000000 0.575452
O O17 0.823028 0.500000 0.466855
O O18 0.750000 0.750000 0.500000
O O19 0.510957 0.000000 0.846000
#
# Coordination Sequence:
#
# PCOD9198448 Si02
#       7
#     8   8   8   8   8   8   8
#     4  12  25  43  68  93 121 158 198 242 294 355
#     4  10  20  36  57  84 116 155 202 252 303 360
#     4  11  24  40  61  91 126 160 197 244 295 357
#     4   9  17  32  56  83 111 148 196 248 296 345
#     4   9  15  29  54  82 109 144 198 250 289 341
#     4  10  21  34  54  82 115 153 198 251 305 362
#     4  10  22  39  61  91 123 156 199 248 296 354
#
# _framework density 21.813866999999998
#
# number of rings (size 3 to 8) (size 9 to 14) (size 15 to 20)
#    0.000    1.857    1.429    3.000    2.000    4.571 
#    0.000    0.000    0.000    1.286    0.000    0.000 
#    0.000    0.000    0.000    0.000    0.000    0.000 
#
# Total GULP energy -156366.685485 kJ/mol
# GULP energy per Si atom -5584.524482 kJ/mol
# Density = 2.176422 g / cm^3
# Si number density = 21.813867 Si / 1000 Ang^3
#
#
#
# Elastic Constant Matrix: (Units=GPa)
#
#
# Indices 1 2 3 4 5 6 
#
# 1 149.3650 5.8716 21.4634 0.0000 12.6244 0.0000
# 2 5.8716 36.1286 -5.3207 0.0000 -6.0211 0.0000
# 3 21.4634 -5.3207 82.0837 0.0000 10.5570 0.0000
# 4 0.0000 0.0000 0.0000 14.1741 0.0000 -1.7896
# 5 12.6244 -6.0211 10.5570 0.0000 39.7432 0.0000
# 6 0.0000 0.0000 0.0000 -1.7896 0.0000 16.7807
#
#
#
# Elastic Compliance Matrix: (Units=1/GPa)
#
#
# Indices 1 2 3 4 5 6 
#
# 1 0.007190 -0.001772 -0.001725 0.000000 -0.002094 0.000000
# 2 -0.001772 0.028974 0.001765 0.000000 0.004484 0.000000
# 3 -0.001725 0.001765 0.013091 0.000000 -0.002662 0.000000
# 4 0.000000 0.000000 0.000000 0.071514 0.000000 0.007627
# 5 -0.002094 0.004484 -0.002662 0.000000 0.027213 0.000000
# 6 0.000000 0.000000 0.000000 0.007627 0.000000 0.060406
#
#
# Mechanical properties :
#
#
# Convention : Reuss Voigt Hill
#
# Bulk Modulus (GPa) = 21.83907 34.62287 28.23097
# Shear Modulus (GPa) = 22.01534 30.51048 26.26291
#
# Velocity S-wave (km/s) = 3.18029 3.74394 3.47357
# Velocity P-wave (km/s) = 4.84964 5.88183 5.39049
#
# Compressibility (1/GPa) = 0.04578950
#
# Stress axis : x y z
#
# Youngs Moduli (GPa) = 139.09046 34.51378 76.39066
#
# Poissons Ratio (x) = 0.06114 0.13181
# Poissons Ratio (y) = 0.24640 -0.13481
# Poissons Ratio (z) = 0.24000 -0.06091
#
# Static dielectric constant tensor:
#      x y z
#    x 1.637920 0.000000 -0.062860 
#    y 0.000000 1.841250 0.000000 
#    z -0.062860 0.000000 1.726950 
# 
# From -- ./inp_files/275613.got.cif
#   From: 2010.05.17/outbox.cif.g08.bks.cpg/sg12_138_cif.got.tgz:275613.got - 2010.06.03 13:09:07.
