data_PCOD9198004
_publ_section_title
;
Structure prediction by ZEFSAII (Michael W. Deem and Ramdas Pophale) SiO2 
 PCOD9198004
Probable space group: C 2/M
;
_chemical_formula_sum "Si O2"
_cell_formula_units_Z 52
_cell_length_a 9.804155
_cell_length_b 14.082194
_cell_length_c 33.192232
_cell_angle_alpha 90.000000
_cell_angle_beta 32.913208
_cell_angle_gamma 90.000000
_cell_volume 2490.066796
_symmetry_space_group_name_H-M "C 2/M"
_symmetry_group_IT_number 12
_symmetry_cell_setting 'monoclinic'
loop_
_space_group_symop_operation_xyz
x,y,z
-x,y,-z
-x,-y,-z
x,-y,z
1/2+x,1/2+y,z
1/2-x,1/2+y,-z
1/2-x,1/2-y,-z
1/2+x,1/2-y,z
loop_
_atom_site_type_symbol
_atom_site_label
_atom_site_fract_x
_atom_site_fract_y
_atom_site_fract_z
Si Si1 0.134892 0.721530 0.877504
Si Si2 0.835368 0.811752 0.215210
Si Si3 0.987602 0.500000 0.702697
Si Si4 0.926362 0.156626 0.573698
Si Si5 0.368462 0.392491 0.989065
Si Si6 0.039248 0.206893 0.635159
Si Si7 0.169717 0.000000 0.614861
Si Si8 0.792561 0.500000 0.487514
O O1 0.204053 0.746596 0.814443
O O2 0.373909 0.690169 0.844219
O O3 0.915043 0.644104 0.935150
O O4 0.016408 0.818482 0.924624
O O5 0.719259 0.915362 0.237509
O O6 0.684172 0.764941 0.289617
O O7 0.204347 0.582085 0.638947
O O8 0.799560 0.241697 0.581015
O O9 0.013612 0.201017 0.594032
O O10 0.160780 0.092236 0.500875
O O11 0.376635 0.500000 0.971513
O O12 0.500000 0.390195 0.000000
O O13 0.030544 0.099425 0.654387
O O14 0.235621 0.000000 0.550173
O O15 0.408387 0.000000 0.585580
#
# Coordination Sequence:
#
# PCOD9198004 Si02
#       8
#     8   8   4   8   8   8   4   4
#     4  11  23  40  60  88 111 149 189 236 278 345
#     4  11  22  38  57  86 113 148 194 230 279 350
#     4   9  20  35  57  79 113 146 188 233 279 326
#     4   9  18  36  57  82 114 153 188 242 289 328
#     4  10  22  43  61  84 118 147 180 241 289 330
#     4  10  20  36  55  82 120 149 187 240 289 330
#     4   9  18  34  56  85 112 158 197 237 281 336
#     4   8  16  33  59  82 111 152 209 232 274 351
#
# _framework density 20.882973
#
# number of rings (size 3 to 8) (size 9 to 14) (size 15 to 20)
#    0.000    2.154    1.538    2.308    2.154    0.615 
#    2.769    7.692    0.000    0.923    0.000    0.000 
#    0.000    0.000    0.000    0.000    0.000    0.000 
#
# Total GULP energy -144759.679360 kJ/mol
# GULP energy per Si atom -5567.679975 kJ/mol
# Density = 2.083544 g / cm^3
# Si number density = 20.882973 Si / 1000 Ang^3
#
#
#
# Elastic Constant Matrix: (Units=GPa)
#
#
# Indices 1 2 3 4 5 6 
#
# 1 78.3344 26.4447 13.7717 -0.0022 -11.6017 0.0004
# 2 26.4447 98.4750 6.4964 0.0034 -9.2025 0.0056
# 3 13.7717 6.4964 32.4609 -0.0029 -10.6286 0.0219
# 4 -0.0022 0.0034 -0.0029 13.9482 0.0054 -10.7044
# 5 -11.6017 -9.2025 -10.6286 0.0054 28.3723 -0.0053
# 6 0.0004 0.0056 0.0219 -10.7044 -0.0053 21.2025
#
#
#
# Elastic Compliance Matrix: (Units=1/GPa)
#
#
# Indices 1 2 3 4 5 6 
#
# 1 0.015259 -0.003475 -0.004678 0.000010 0.003360 0.000011
# 2 -0.003475 0.011300 -0.000060 -0.000010 0.002222 -0.000007
# 3 -0.004678 -0.000060 0.036668 -0.000040 0.011804 -0.000055
# 4 0.000010 -0.000010 -0.000040 0.117043 -0.000026 0.059091
# 5 0.003360 0.002222 0.011804 -0.000026 0.041762 -0.000015
# 6 0.000011 -0.000007 -0.000055 0.059091 -0.000015 0.076997
#
#
# Mechanical properties :
#
#
# Convention : Reuss Voigt Hill
#
# Bulk Modulus (GPa) = 21.36709 33.63287 27.49998
# Shear Modulus (GPa) = 15.10326 23.54175 19.32251
#
# Velocity S-wave (km/s) = 2.69222 3.36120 3.04513
# Velocity P-wave (km/s) = 4.46297 5.58605 5.05579
#
# Compressibility (1/GPa) = 0.04680095
#
# Stress axis : x y z
#
# Youngs Moduli (GPa) = 65.53509 88.49850 27.27177
#
# Poissons Ratio (x) = 0.30754 0.12758
# Poissons Ratio (y) = 0.22774 0.00163
# Poissons Ratio (z) = 0.30658 0.00528
#
# Static dielectric constant tensor:
#      x y z
#    x 1.760560 0.000000 0.022100 
#    y 0.000000 1.735640 0.000000 
#    z 0.022100 0.000000 1.788400 
# 
# From -- ./inp_files/372515.got.cif
#   From: 2010.05.17/outbox.cif.g08.bks.cpg/sg12_187_cif.got.tgz:372515.got - 2010.06.03 13:09:07.
