data_PCOD9198395
_publ_section_title
;
Structure prediction by ZEFSAII (Michael W. Deem and Ramdas Pophale) SiO2 
 PCOD9198395
Probable space group: C 2/M
;
_chemical_formula_sum "Si O2"
_cell_formula_units_Z 64
_cell_length_a 14.566904
_cell_length_b 13.784361
_cell_length_c 17.338910
_cell_angle_alpha 90.000000
_cell_angle_beta 119.628941
_cell_angle_gamma 90.000000
_cell_volume 3026.342315
_symmetry_space_group_name_H-M "C 2/M"
_symmetry_group_IT_number 12
_symmetry_cell_setting 'monoclinic'
loop_
_space_group_symop_operation_xyz
x,y,z
-x,y,-z
-x,-y,-z
x,-y,z
1/2+x,1/2+y,z
1/2-x,1/2+y,-z
1/2-x,1/2-y,-z
1/2+x,1/2-y,z
loop_
_atom_site_type_symbol
_atom_site_label
_atom_site_fract_x
_atom_site_fract_y
_atom_site_fract_z
Si Si1 0.435866 0.252058 0.663756
Si Si2 0.741524 0.116289 0.783518
Si Si3 0.293660 0.109307 0.689363
Si Si4 0.692649 0.109722 0.128187
Si Si5 0.125445 0.229955 0.842380
Si Si6 0.601937 0.388204 0.490440
Si Si7 0.446058 0.884541 0.398263
Si Si8 0.541654 0.283779 0.095019
O O1 0.367522 0.200290 0.700944
O O2 0.537229 0.303038 0.743429
O O3 0.384057 0.321307 0.578684
O O4 0.480222 0.159900 0.635995
O O5 0.682505 0.175429 0.828287
O O6 0.673260 0.141822 0.677649
O O7 0.862158 0.152317 0.830520
O O8 0.736030 0.000000 0.791796
O O9 0.260434 0.114189 0.764761
O O10 0.199598 0.116770 0.589320
O O11 0.341598 0.000000 0.700152
O O12 0.782512 0.151752 0.110438
O O13 0.596078 0.183197 0.092002
O O14 0.663375 0.000000 0.098547
O O15 0.056224 0.239808 0.890089
O O16 0.500000 0.362649 0.500000
O O17 0.589058 0.500000 0.460018
O O18 0.500000 0.851594 0.500000
O O19 0.449714 0.000000 0.399839
O O20 0.500000 0.333630 0.000000
#
# Coordination Sequence:
#
# PCOD9198395 Si02
#       8
#     8   8   8   8   8   8   8   8
#     4  11  19  33  57  83 112 160 203 254 310 368
#     4   9  21  41  65  92 126 169 210 252 315 377
#     4  10  20  36  57  82 116 157 206 257 305 370
#     4  10  22  41  65  91 124 163 206 257 313 374
#     4  10  22  40  63  91 121 159 210 259 311 377
#     4  10  21  35  51  79 119 162 208 255 306 365
#     4   9  18  34  57  88 123 159 205 259 306 362
#     4  11  24  43  65  95 130 161 204 265 320 381
#
# _framework density 21.147641
#
# number of rings (size 3 to 8) (size 9 to 14) (size 15 to 20)
#    0.000    2.000    1.250    1.875    0.000    7.500 
#    2.250    1.250    0.000    0.000    0.000    0.000 
#    0.000    0.000    0.000    0.000    0.000    0.000 
#
# Total GULP energy -178540.724092 kJ/mol
# GULP energy per Si atom -5579.397628 kJ/mol
# Density = 2.109951 g / cm^3
# Si number density = 21.147641 Si / 1000 Ang^3
#
#
#
# Elastic Constant Matrix: (Units=GPa)
#
#
# Indices 1 2 3 4 5 6 
#
# 1 100.4086 32.6982 24.0188 0.0000 -4.4904 0.0000
# 2 32.6982 77.3864 18.5695 0.0000 15.9099 0.0000
# 3 24.0188 18.5695 65.8713 0.0000 1.4870 0.0000
# 4 0.0000 0.0000 0.0000 6.0542 0.0000 3.3034
# 5 -4.4904 15.9099 1.4870 0.0000 12.4578 0.0000
# 6 0.0000 0.0000 0.0000 3.3034 0.0000 -1.0317
#
#
#
# Elastic Compliance Matrix: (Units=1/GPa)
#
#
# Indices 1 2 3 4 5 6 
#
# 1 0.014288 -0.008708 -0.003131 0.000000 0.016645 0.000000
# 2 -0.008708 0.024233 -0.002895 0.000000 -0.033741 0.000000
# 3 -0.003131 -0.002895 0.017127 0.000000 0.000524 0.000000
# 4 0.000000 0.000000 0.000000 0.060126 0.000000 0.192525
# 5 0.016645 -0.033741 0.000524 0.000000 0.129299 0.000000
# 6 0.000000 0.000000 0.000000 0.192525 0.000000 -0.352842
#
#
# Mechanical properties :
#
#
# Convention : Reuss Voigt Hill
#
# Bulk Modulus (GPa) = 38.19508 43.80437 40.99972
# Shear Modulus (GPa) = -71.86616 14.72137 -28.57240
#
# Velocity S-wave (km/s) = -5.83582 2.64128 -3.67971
# Velocity P-wave (km/s) = 5.22578 5.48273 1.17295
#
# Compressibility (1/GPa) = 0.02618138
#
# Stress axis : x y z
#
# Youngs Moduli (GPa) = 69.98645 41.26585 58.38762
#
# Poissons Ratio (x) = 0.35935 0.18281
# Poissons Ratio (y) = 0.60945 0.16900
# Poissons Ratio (z) = 0.21912 0.11944
#
# Static dielectric constant tensor:
#      x y z
#    x 1.765860 0.000000 -0.007410 
#    y 0.000000 1.758140 0.000000 
#    z -0.007410 0.000000 1.851000 
# 
# From -- ./inp_files/270315.got.cif
#   From: 2010.05.17/outbox.cif.g08.bks.cpg/sg12_136_cif.got.tgz:270315.got - 2010.06.03 13:09:07.
