data_PCOD9198990
_publ_section_title
;
Structure prediction by ZEFSAII (Michael W. Deem and Ramdas Pophale) SiO2 
 PCOD9198990
Probable space group: C 2/M
;
_chemical_formula_sum "Si O2"
_cell_formula_units_Z 48
_cell_length_a 7.791199
_cell_length_b 20.651870
_cell_length_c 12.464145
_cell_angle_alpha 90.000000
_cell_angle_beta 79.094949
_cell_angle_gamma 90.000000
_cell_volume 1969.300657
_symmetry_space_group_name_H-M "C 2/M"
_symmetry_group_IT_number 12
_symmetry_cell_setting 'monoclinic'
loop_
_space_group_symop_operation_xyz
x,y,z
-x,y,-z
-x,-y,-z
x,-y,z
1/2+x,1/2+y,z
1/2-x,1/2+y,-z
1/2-x,1/2-y,-z
1/2+x,1/2-y,z
loop_
_atom_site_type_symbol
_atom_site_label
_atom_site_fract_x
_atom_site_fract_y
_atom_site_fract_z
Si Si1 0.889705 0.096216 0.284616
Si Si2 0.303904 0.071286 0.480276
Si Si3 0.811550 0.726572 0.171716
Si Si4 0.391405 0.308768 0.610501
Si Si5 0.666894 0.855301 0.128048
Si Si6 0.140854 0.109328 0.076978
O O1 0.820504 0.064584 0.400988
O O2 0.724038 0.104461 0.225458
O O3 0.965780 0.161842 0.326268
O O4 0.051798 0.073385 0.189487
O O5 0.500000 0.085438 0.500000
O O6 0.222414 0.130116 0.420934
O O7 0.306816 0.000000 0.425379
O O8 0.731481 0.733630 0.300155
O O9 0.808038 0.795800 0.115386
O O10 0.683704 0.679694 0.120210
O O11 0.987699 0.684396 0.156216
O O12 0.500000 0.277789 0.500000
O O13 0.688127 0.898735 0.019069
O O14 0.000000 0.101297 0.000000
#
# Coordination Sequence:
#
# PCOD9198990 Si02
#       6
#     8   8   8   8   8   8
#     4   9  19  34  51  76 106 137 173 216 261 307
#     4  10  20  36  59  84 106 132 169 214 266 320
#     4  11  20  32  50  76 106 145 184 220 260 303
#     4   9  19  35  52  75 108 137 174 217 263 313
#     4  11  20  32  50  73 106 143 182 218 260 307
#     4   9  18  32  49  71 103 138 177 218 252 299
#
# _framework density 24.374133
#
# number of rings (size 3 to 8) (size 9 to 14) (size 15 to 20)
#    0.000    2.167    0.000    5.000    0.000    4.333 
#    0.000    8.333    0.000    4.500    0.000    0.000 
#    0.000   49.333    0.000    0.000    0.000    0.000 
#
# Total GULP energy -133614.730241 kJ/mol
# GULP energy per Si atom -5567.280427 kJ/mol
# Density = 2.431866 g / cm^3
# Si number density = 24.374133 Si / 1000 Ang^3
#
#
#
# Elastic Constant Matrix: (Units=GPa)
#
#
# Indices 1 2 3 4 5 6 
#
# 1 118.7225 10.8870 26.3506 0.0000 -9.0905 0.0000
# 2 10.8870 52.7110 7.3932 0.0000 5.3327 0.0000
# 3 26.3506 7.3932 148.1685 0.0000 -17.2870 0.0000
# 4 0.0000 0.0000 0.0000 -5.5679 0.0000 -0.8931
# 5 -9.0905 5.3327 -17.2870 0.0000 37.6289 0.0000
# 6 0.0000 0.0000 0.0000 -0.8931 0.0000 -58.2761
#
#
#
# Elastic Compliance Matrix: (Units=1/GPa)
#
#
# Indices 1 2 3 4 5 6 
#
# 1 0.009024 -0.001869 -0.001296 0.000000 0.001850 0.000000
# 2 -0.001869 0.019894 -0.001101 0.000000 -0.003777 0.000000
# 3 -0.001296 -0.001101 0.007413 0.000000 0.003249 0.000000
# 4 0.000000 0.000000 0.000000 -0.180042 0.000000 0.002759
# 5 0.001850 -0.003777 0.003249 0.000000 0.029050 0.000000
# 6 0.000000 0.000000 0.000000 0.002759 0.000000 -0.017202
#
#
# Mechanical properties :
#
#
# Convention : Reuss Voigt Hill
#
# Bulk Modulus (GPa) = 35.97181 45.42930 40.70056
# Shear Modulus (GPa) = -43.83455 13.08839 -15.37308
#
# Velocity S-wave (km/s) = -4.24536 2.31979 -2.51412
# Velocity P-wave (km/s) = 3.03983 5.08469 2.88214
#
# Compressibility (1/GPa) = 0.02779954
#
# Stress axis : x y z
#
# Youngs Moduli (GPa) = 110.82034 50.26669 134.88948
#
# Poissons Ratio (x) = 0.09396 0.17478
# Poissons Ratio (y) = 0.20714 0.14850
# Poissons Ratio (z) = 0.14359 0.05534
#
# Static dielectric constant tensor:
#      x y z
#    x 2.061670 0.000000 -0.039660 
#    y 0.000000 1.940070 0.000000 
#    z -0.039660 0.000000 2.015010 
# 
# From -- ./inp_files/123009.got.cif
#   From: 2010.05.17/outbox.cif.g08.bks.cpg/sg12_62_cif.got.tgz:123009.got - 2010.06.03 13:09:07.
