data_PCOD9198332
_publ_section_title
;
Structure prediction by ZEFSAII (Michael W. Deem and Ramdas Pophale) SiO2 
 PCOD9198332
Probable space group: C 2/M
;
_chemical_formula_sum "Si O2"
_cell_formula_units_Z 56
_cell_length_a 27.792173
_cell_length_b 7.796531
_cell_length_c 14.091217
_cell_angle_alpha 90.000000
_cell_angle_beta 119.776329
_cell_angle_gamma 90.000000
_cell_volume 2650.192870
_symmetry_space_group_name_H-M "C 2/M"
_symmetry_group_IT_number 12
_symmetry_cell_setting 'monoclinic'
loop_
_space_group_symop_operation_xyz
x,y,z
-x,y,-z
-x,-y,-z
x,-y,z
1/2+x,1/2+y,z
1/2-x,1/2+y,-z
1/2-x,1/2-y,-z
1/2+x,1/2-y,z
loop_
_atom_site_type_symbol
_atom_site_label
_atom_site_fract_x
_atom_site_fract_y
_atom_site_fract_z
Si Si1 0.048687 0.790052 0.977200
Si Si2 0.235376 0.706753 0.877773
Si Si3 0.028848 0.800525 0.744124
Si Si4 0.688310 0.294697 0.406262
Si Si5 0.380821 0.798992 0.317073
Si Si6 0.168623 0.790345 0.171014
Si Si7 0.589064 0.201014 0.446380
O O1 0.038382 0.731851 0.859535
O O2 0.047609 0.000000 0.975482
O O3 0.108629 0.736731 0.074117
O O4 0.000000 0.733848 0.000000
O O5 0.234564 0.500000 0.871830
O O6 0.175191 0.772356 0.785230
O O7 0.282893 0.767684 0.852096
O O8 0.250000 0.750000 0.000000
O O9 0.068283 0.715416 0.705144
O O10 0.964863 0.785421 0.652485
O O11 0.044780 0.000000 0.760517
O O12 0.681890 0.500000 0.401399
O O13 0.750000 0.250000 0.500000
O O14 0.678749 0.234980 0.288892
O O15 0.642286 0.220090 0.431491
O O16 0.396748 0.725931 0.435519
O O17 0.369523 0.000000 0.323615
O O18 0.169240 0.000000 0.171646
O O19 0.575129 0.000000 0.442626
#
# Coordination Sequence:
#
# PCOD9198332 Si02
#       7
#     8   8   8   8   8   8   8
#     4   9  17  31  53  81 111 143 182 228 279 335
#     4  10  20  36  57  81 110 146 189 232 277 331
#     4  11  22  36  59  88 113 142 186 238 284 329
#     4  11  22  38  61  87 115 149 190 234 280 330
#     4  10  22  39  57  78 111 154 191 227 280 344
#     4   9  18  34  56  80 110 150 190 226 272 336
#     4  11  23  40  60  82 113 153 191 228 278 337
#
# _framework density 21.130537
#
# number of rings (size 3 to 8) (size 9 to 14) (size 15 to 20)
#    0.000    1.857    0.000    4.286    0.000    9.143 
#    0.000    2.857    0.000   11.143    0.000    0.000 
#    0.000    0.000    0.000    0.000    0.000    0.000 
#
# Total GULP energy -156536.795797 kJ/mol
# GULP energy per Si atom -5590.599850 kJ/mol
# Density = 2.108244 g / cm^3
# Si number density = 21.130537 Si / 1000 Ang^3
#
#
#
# Elastic Constant Matrix: (Units=GPa)
#
#
# Indices 1 2 3 4 5 6 
#
# 1 162.0546 -18.4244 100.5129 0.0000 1.9190 0.0000
# 2 -18.4244 30.1270 -4.4978 0.0000 -0.2231 0.0000
# 3 100.5129 -4.4978 225.8518 0.0000 -2.2623 0.0000
# 4 0.0000 0.0000 0.0000 17.1041 0.0000 -2.5482
# 5 1.9190 -0.2231 -2.2623 0.0000 44.9516 0.0000
# 6 0.0000 0.0000 0.0000 -2.5482 0.0000 13.8009
#
#
#
# Elastic Compliance Matrix: (Units=1/GPa)
#
#
# Indices 1 2 3 4 5 6 
#
# 1 0.009245 0.005049 -0.004019 0.000000 -0.000572 0.000000
# 2 0.005049 0.036051 -0.001530 0.000000 -0.000114 0.000000
# 3 -0.004019 -0.001530 0.006191 0.000000 0.000476 0.000000
# 4 0.000000 0.000000 0.000000 0.060119 0.000000 0.011101
# 5 -0.000572 -0.000114 0.000476 0.000000 0.022294 0.000000
# 6 0.000000 0.000000 0.000000 0.011101 0.000000 0.074509
#
#
# Mechanical properties :
#
#
# Convention : Reuss Voigt Hill
#
# Bulk Modulus (GPa) = 19.80748 63.69053 41.74901
# Shear Modulus (GPa) = 22.10063 37.86752 29.98407
#
# Velocity S-wave (km/s) = 3.23756 4.23788 3.77104
# Velocity P-wave (km/s) = 4.83425 7.35888 6.22588
#
# Compressibility (1/GPa) = 0.05048598
#
# Stress axis : x y z
#
# Youngs Moduli (GPa) = 108.17159 27.73814 161.53146
#
# Poissons Ratio (x) = -0.14006 0.64925
# Poissons Ratio (y) = -0.54619 0.24719
# Poissons Ratio (z) = 0.43478 0.04245
#
# Static dielectric constant tensor:
#      x y z
#    x 1.707310 0.000000 0.005670 
#    y 0.000000 1.785070 0.000000 
#    z 0.005670 0.000000 1.739440 
# 
# From -- ./inp_files/181113.got.cif
#   From: 2010.05.17/outbox.cif.g08.bks.cpg/sg12_91_cif.got.tgz:181113.got - 2010.06.03 13:09:07.
