data_PCOD9198965
_publ_section_title
;
Structure prediction by ZEFSAII (Michael W. Deem and Ramdas Pophale) SiO2 
 PCOD9198965
Probable space group: C 2/M
;
_chemical_formula_sum "Si O2"
_cell_formula_units_Z 48
_cell_length_a 24.538791
_cell_length_b 8.580616
_cell_length_c 10.021970
_cell_angle_alpha 90.000000
_cell_angle_beta 97.068670
_cell_angle_gamma 90.000000
_cell_volume 2094.166508
_symmetry_space_group_name_H-M "C 2/M"
_symmetry_group_IT_number 12
_symmetry_cell_setting 'monoclinic'
loop_
_space_group_symop_operation_xyz
x,y,z
-x,y,-z
-x,-y,-z
x,-y,z
1/2+x,1/2+y,z
1/2-x,1/2+y,-z
1/2-x,1/2-y,-z
1/2+x,1/2-y,z
loop_
_atom_site_type_symbol
_atom_site_label
_atom_site_fract_x
_atom_site_fract_y
_atom_site_fract_z
Si Si1 0.201198 0.183046 0.692363
Si Si2 0.838132 0.314102 0.039496
Si Si3 0.812361 0.184374 0.759191
Si Si4 0.954659 0.683493 0.162309
Si Si5 0.434520 0.687053 0.733007
Si Si6 0.416999 0.684664 0.431408
O O1 0.185031 0.275297 0.821762
O O2 0.261223 0.239142 0.668630
O O3 0.149240 0.204241 0.579089
O O4 0.203684 0.000000 0.724801
O O5 0.835763 0.500000 0.015965
O O6 0.902141 0.259339 0.062264
O O7 0.806676 0.223988 0.914288
O O8 0.873425 0.245708 0.746315
O O9 0.811031 0.000000 0.735435
O O10 0.958076 0.500000 0.143397
O O11 0.937352 0.722084 0.309717
O O12 0.015046 0.753070 0.164417
O O13 0.433494 0.500000 0.742050
O O14 0.443647 0.727404 0.579829
O O15 0.427283 0.500000 0.409507
#
# Coordination Sequence:
#
# PCOD9198965 Si02
#       6
#     8   8   8   8   8   8
#     4  10  20  36  59  83 107 139 180 223 267 316
#     4  10  21  38  58  80 108 141 179 223 270 318
#     4  11  23  37  54  79 111 145 181 220 266 319
#     4  10  21  36  57  84 109 137 178 227 271 312
#     4  10  22  38  55  78 111 148 180 215 264 322
#     4   9  19  37  59  81 107 142 181 218 263 321
#
# _framework density 22.920815000000001
#
# number of rings (size 3 to 8) (size 9 to 14) (size 15 to 20)
#    0.000    2.000    0.000    3.000    0.000    8.000 
#    0.000    3.333    0.000    0.000    0.000    0.000 
#    0.000    0.000    0.000    0.000    0.000    0.000 
#
# Total GULP energy -134188.588916 kJ/mol
# GULP energy per Si atom -5591.191205 kJ/mol
# Density = 2.286865 g / cm^3
# Si number density = 22.920815 Si / 1000 Ang^3
#
#
#
# Elastic Constant Matrix: (Units=GPa)
#
#
# Indices 1 2 3 4 5 6 
#
# 1 136.8888 13.4837 10.4651 0.0000 33.1264 0.0000
# 2 13.4837 19.7969 -1.1719 0.0000 12.2398 0.0000
# 3 10.4651 -1.1719 54.5625 0.0000 22.1421 0.0000
# 4 0.0000 0.0000 0.0000 0.2708 0.0000 2.5882
# 5 33.1264 12.2398 22.1421 0.0000 39.2864 0.0000
# 6 0.0000 0.0000 0.0000 2.5882 0.0000 37.6679
#
#
#
# Elastic Compliance Matrix: (Units=1/GPa)
#
#
# Indices 1 2 3 4 5 6 
#
# 1 0.009330 -0.001027 0.001622 0.000000 -0.008461 0.000000
# 2 -0.001027 0.069385 0.013106 0.000000 -0.028138 0.000000
# 3 0.001622 0.013106 0.026592 0.000000 -0.020439 0.000000
# 4 0.000000 0.000000 0.000000 10.752711 0.000000 -0.738837
# 5 -0.008461 -0.028138 -0.020439 0.000000 0.052874 0.000000
# 6 0.000000 0.000000 0.000000 -0.738837 0.000000 0.077314
#
#
# Mechanical properties :
#
#
# Convention : Reuss Voigt Hill
#
# Bulk Modulus (GPa) = 7.53531 28.53354 18.03442
# Shear Modulus (GPa) = 0.45434 28.00978 14.23206
#
# Velocity S-wave (km/s) = 0.44570 3.49954 2.49454
# Velocity P-wave (km/s) = 1.88668 5.36701 4.02271
#
# Compressibility (1/GPa) = 0.13270858
#
# Stress axis : x y z
#
# Youngs Moduli (GPa) = 107.18164 14.41233 37.60503
#
# Poissons Ratio (x) = 0.01481 -0.06100
# Poissons Ratio (y) = 0.11011 -0.49285
# Poissons Ratio (z) = -0.17386 -0.18889
#
# Static dielectric constant tensor:
#      x y z
#    x 1.947490 0.000000 -0.021290 
#    y 0.000000 1.769280 0.000000 
#    z -0.021290 0.000000 1.829370 
# 
# From -- ./inp_files/172051.got.cif
#   From: 2010.05.17/outbox.cif.g08.bks.cpg/sg12_87_cif.got.tgz:172051.got - 2010.06.03 13:09:07.
