data_PCOD9198188
_publ_section_title
;
Structure prediction by ZEFSAII (Michael W. Deem and Ramdas Pophale) SiO2 
 PCOD9198188
Probable space group: C 2/M
;
_chemical_formula_sum "Si O2"
_cell_formula_units_Z 56
_cell_length_a 22.714558
_cell_length_b 8.706521
_cell_length_c 30.262488
_cell_angle_alpha 90.000000
_cell_angle_beta 152.376297
_cell_angle_gamma 90.000000
_cell_volume 2774.953127
_symmetry_space_group_name_H-M "C 2/M"
_symmetry_group_IT_number 12
_symmetry_cell_setting 'monoclinic'
loop_
_space_group_symop_operation_xyz
x,y,z
-x,y,-z
-x,-y,-z
x,-y,z
1/2+x,1/2+y,z
1/2-x,1/2+y,-z
1/2-x,1/2-y,-z
1/2+x,1/2-y,z
loop_
_atom_site_type_symbol
_atom_site_label
_atom_site_fract_x
_atom_site_fract_y
_atom_site_fract_z
Si Si1 0.734690 0.183936 0.702378
Si Si2 0.463448 0.815717 0.188919
Si Si3 0.364083 0.817391 0.547008
Si Si4 0.754487 0.814145 0.887568
Si Si5 0.132619 0.182417 0.723992
Si Si6 0.259717 0.315723 0.389076
Si Si7 0.468383 0.316001 0.097369
O O1 0.658000 0.247062 0.692779
O O2 0.699819 0.261189 0.632648
O O3 0.883467 0.222341 0.809683
O O4 0.722188 0.000000 0.690747
O O5 0.364942 0.767559 0.161000
O O6 0.610249 0.771672 0.295047
O O7 0.425773 0.752977 0.115826
O O8 0.460237 0.000000 0.184990
O O9 0.250000 0.750000 0.500000
O O10 0.497514 0.746618 0.650385
O O11 0.337790 0.766354 0.479282
O O12 0.368240 0.000000 0.554082
O O13 0.737114 0.739967 0.828346
O O14 0.753442 0.000000 0.882231
O O15 0.880058 0.767853 0.998030
O O16 0.130151 0.000000 0.719913
O O17 0.270432 0.500000 0.400279
O O18 0.458164 0.500000 0.093912
#
# Coordination Sequence:
#
# PCOD9198188 Si02
#       7
#     8   8   8   8   8   8   8
#     4  10  21  40  61  85 117 156 200 247 295 349
#     4   9  18  32  55  85 119 153 189 235 289 344
#     4  12  25  43  66  93 122 154 190 234 288 349
#     4  10  20  36  56  83 118 158 197 240 295 352
#     4  12  26  42  60  85 115 153 198 247 295 349
#     4  10  20  37  61  90 121 156 196 243 292 345
#     4   9  19  34  57  85 116 154 197 241 290 347
#
# _framework density 20.180520999999999
#
# number of rings (size 3 to 8) (size 9 to 14) (size 15 to 20)
#    0.000    1.714    0.000    4.714    0.000    4.571 
#    0.000    5.714    0.000    0.000    0.000    0.000 
#    0.000    0.000    0.000    0.000    0.000    0.000 
#
# Total GULP energy -156578.005994 kJ/mol
# GULP energy per Si atom -5592.071643 kJ/mol
# Density = 2.013459 g / cm^3
# Si number density = 20.180521 Si / 1000 Ang^3
#
#
#
# Elastic Constant Matrix: (Units=GPa)
#
#
# Indices 1 2 3 4 5 6 
#
# 1 70.3713 9.5950 6.4818 -0.0002 -3.9281 -0.0001
# 2 9.5950 41.4399 8.9141 -0.0002 2.6958 -0.0009
# 3 6.4818 8.9141 62.6056 -0.0017 -22.0475 -0.0001
# 4 -0.0002 -0.0002 -0.0017 25.4626 -0.0002 -9.1895
# 5 -3.9281 2.6958 -22.0475 -0.0002 25.8165 0.0000
# 6 -0.0001 -0.0009 -0.0001 -9.1895 0.0000 34.8806
#
#
#
# Elastic Compliance Matrix: (Units=1/GPa)
#
#
# Indices 1 2 3 4 5 6 
#
# 1 0.014851 -0.003570 -0.000146 0.000000 0.002508 0.000000
# 2 -0.003570 0.026978 -0.006657 0.000000 -0.009046 0.000001
# 3 -0.000146 -0.006657 0.024559 0.000002 0.021647 0.000000
# 4 0.000000 0.000000 0.000002 0.043400 0.000002 0.011434
# 5 0.002508 -0.009046 0.021647 0.000002 0.058547 0.000000
# 6 0.000000 0.000001 0.000000 0.011434 0.000000 0.031682
#
#
# Mechanical properties :
#
#
# Convention : Reuss Voigt Hill
#
# Bulk Modulus (GPa) = 21.91006 24.93317 23.42161
# Shear Modulus (GPa) = 21.18844 27.19367 24.19106
#
# Velocity S-wave (km/s) = 3.24380 3.67484 3.46603
# Velocity P-wave (km/s) = 4.99102 5.51252 5.25824
#
# Compressibility (1/GPa) = 0.04564114
#
# Stress axis : x y z
#
# Youngs Moduli (GPa) = 67.33748 37.06664 40.71792
#
# Poissons Ratio (x) = 0.13234 0.00595
# Poissons Ratio (y) = 0.24041 0.27107
# Poissons Ratio (z) = 0.00984 0.24676
#
# Static dielectric constant tensor:
#      x y z
#    x 1.639910 0.000000 -0.017430 
#    y 0.000000 1.674080 0.000000 
#    z -0.017430 0.000000 1.714380 
# 
# From -- ./inp_files/380775.got.cif
#   From: 2010.05.17/outbox.cif.g08.bks.cpg/sg12_191_cif.got.tgz:380775.got - 2010.06.03 13:09:07.
