data_PCOD9198704
_publ_section_title
;
Structure prediction by ZEFSAII (Michael W. Deem and Ramdas Pophale) SiO2 
 PCOD9198704
Probable space group: C 2/M
;
_chemical_formula_sum "Si O2"
_cell_formula_units_Z 40
_cell_length_a 19.776980
_cell_length_b 13.404920
_cell_length_c 10.909276
_cell_angle_alpha 90.000000
_cell_angle_beta 37.101522
_cell_angle_gamma 90.000000
_cell_volume 1744.626511
_symmetry_space_group_name_H-M "C 2/M"
_symmetry_group_IT_number 12
_symmetry_cell_setting 'monoclinic'
loop_
_space_group_symop_operation_xyz
x,y,z
-x,y,-z
-x,-y,-z
x,-y,z
1/2+x,1/2+y,z
1/2-x,1/2+y,-z
1/2-x,1/2-y,-z
1/2+x,1/2-y,z
loop_
_atom_site_type_symbol
_atom_site_label
_atom_site_fract_x
_atom_site_fract_y
_atom_site_fract_z
Si Si1 0.914649 0.799489 0.344913
Si Si2 0.401405 0.109522 0.069732
Si Si3 0.843315 0.880198 0.966113
Si Si4 0.204334 0.203136 0.230873
Si Si5 0.713871 0.890688 0.508796
O O1 0.872703 0.828061 0.543317
O O2 0.834384 0.837630 0.349388
O O3 0.884645 0.681428 0.394978
O O4 0.038396 0.842325 0.149342
O O5 0.328539 0.155950 0.069221
O O6 0.315572 0.097392 0.305414
O O7 0.444899 0.000000 0.968673
O O8 0.500000 0.165700 0.000000
O O9 0.843184 0.839040 0.826516
O O10 0.835048 0.000000 0.982713
O O11 0.737807 0.820605 0.178230
O O12 0.720093 0.000000 0.442706
#
# Coordination Sequence:
#
# PCOD9198704 Si02
#       5
#     8   8   8   8   8
#     4  10  20  36  58  83 115 152 190 232 282 338
#     4   9  16  29  52  78 105 141 183 227 276 328
#     4  11  23  39  59  83 113 151 193 235 282 337
#     4  10  22  37  55  82 114 146 189 236 279 332
#     4   9  18  32  53  82 113 146 187 232 279 335
#
# _framework density 22.927541999999999
#
# number of rings (size 3 to 8) (size 9 to 14) (size 15 to 20)
#    0.000    2.200    0.000    3.000    0.000    4.000 
#    0.000    4.000    0.000   18.600    0.000    0.000 
#    0.000    0.000    0.000    0.000    0.000    0.000 
#
# Total GULP energy -111361.748965 kJ/mol
# GULP energy per Si atom -5568.087448 kJ/mol
# Density = 2.287536 g / cm^3
# Si number density = 22.927542 Si / 1000 Ang^3
#
#
#
# Elastic Constant Matrix: (Units=GPa)
#
#
# Indices 1 2 3 4 5 6 
#
# 1 72.0803 28.1634 -0.3383 0.0000 -26.2428 0.0000
# 2 28.1634 144.3558 8.2452 0.0000 -30.0171 0.0000
# 3 -0.3383 8.2452 51.8897 0.0000 -4.0745 0.0000
# 4 0.0000 0.0000 0.0000 21.1599 0.0000 -4.1107
# 5 -26.2428 -30.0171 -4.0745 0.0000 32.5564 0.0000
# 6 0.0000 0.0000 0.0000 -4.1107 0.0000 23.5218
#
#
#
# Elastic Compliance Matrix: (Units=1/GPa)
#
#
# Indices 1 2 3 4 5 6 
#
# 1 0.019797 -0.000729 0.001460 0.000000 0.015468 0.000000
# 2 -0.000729 0.008626 -0.000805 0.000000 0.007265 0.000000
# 3 0.001460 -0.000805 0.019636 0.000000 0.002892 0.000000
# 4 0.000000 0.000000 0.000000 0.048920 0.000000 0.008549
# 5 0.015468 0.007265 0.002892 0.000000 0.050244 0.000000
# 6 0.000000 0.000000 0.000000 0.008549 0.000000 0.044008
#
#
# Mechanical properties :
#
#
# Convention : Reuss Voigt Hill
#
# Bulk Modulus (GPa) = 20.87266 37.82959 29.35113
# Shear Modulus (GPa) = 24.11378 30.93134 27.52256
#
# Velocity S-wave (km/s) = 3.24657 3.67698 3.46846
# Velocity P-wave (km/s) = 4.81426 5.87898 5.37306
#
# Compressibility (1/GPa) = 0.04790956
#
# Stress axis : x y z
#
# Youngs Moduli (GPa) = 50.51351 115.92571 50.92651
#
# Poissons Ratio (x) = 0.08454 -0.07433
# Poissons Ratio (y) = 0.03684 0.04100
# Poissons Ratio (z) = -0.07373 0.09332
#
# Static dielectric constant tensor:
#      x y z
#    x 1.850240 0.000000 0.047060 
#    y 0.000000 1.982830 0.000000 
#    z 0.047060 0.000000 1.983610 
# 
# From -- ./inp_files/142543.got.cif
#   From: 2010.05.17/outbox.cif.g08.bks.cpg/sg12_72_cif.got.tgz:142543.got - 2010.06.03 13:09:07.
