data_PCOD9198745
_publ_section_title
;
Structure prediction by ZEFSAII (Michael W. Deem and Ramdas Pophale) SiO2 
 PCOD9198745
Probable space group: C 2/M
;
_chemical_formula_sum "Si O2"
_cell_formula_units_Z 44
_cell_length_a 15.838454
_cell_length_b 9.692367
_cell_length_c 13.933150
_cell_angle_alpha 90.000000
_cell_angle_beta 100.455167
_cell_angle_gamma 90.000000
_cell_volume 2103.395397
_symmetry_space_group_name_H-M "C 2/M"
_symmetry_group_IT_number 12
_symmetry_cell_setting 'monoclinic'
loop_
_space_group_symop_operation_xyz
x,y,z
-x,y,-z
-x,-y,-z
x,-y,z
1/2+x,1/2+y,z
1/2-x,1/2+y,-z
1/2-x,1/2-y,-z
1/2+x,1/2-y,z
loop_
_atom_site_type_symbol
_atom_site_label
_atom_site_fract_x
_atom_site_fract_y
_atom_site_fract_z
Si Si1 0.944617 0.149926 0.791154
Si Si2 0.359266 0.659658 0.432976
Si Si3 0.197977 0.844879 0.377216
Si Si4 0.579064 0.836187 0.724690
Si Si5 0.000000 0.749919 0.000000
Si Si6 0.324719 0.159826 0.064801
O O1 0.848077 0.156658 0.734080
O O2 0.993462 0.277441 0.754649
O O3 0.959067 0.161788 0.906365
O O4 0.978983 0.000000 0.765162
O O5 0.367931 0.500000 0.407344
O O6 0.263349 0.720115 0.399936
O O7 0.371144 0.668077 0.550452
O O8 0.411130 0.758258 0.373700
O O9 0.237149 0.000000 0.398303
O O10 0.652553 0.800672 0.819696
O O11 0.578541 0.000000 0.713198
O O12 0.917194 0.672159 0.028538
O O13 0.298527 0.000000 0.058118
O O14 0.250000 0.250000 0.000000
#
# Coordination Sequence:
#
# PCOD9198745 Si02
#       6
#     8   8   8   8   4   8
#     4  10  21  38  60  85 114 153 195 240 293 354
#     4  10  20  36  58  84 114 151 195 241 287 351
#     4   9  20  37  57  83 116 152 191 239 297 348
#     4  10  22  39  57  82 118 153 189 242 297 350
#     4  10  22  40  62  92 124 162 200 254 302 364
#     4  10  23  41  62  88 121 161 205 250 306 363
#
# _framework density 20.918558999999998
#
# number of rings (size 3 to 8) (size 9 to 14) (size 15 to 20)
#    0.000    2.182    0.000    1.636    2.545    7.273 
#    0.000    3.636    0.000    0.000    0.000    0.000 
#    0.000    0.000    0.000    0.000    0.000    0.000 
#
# Total GULP energy -122637.173603 kJ/mol
# GULP energy per Si atom -5574.416982 kJ/mol
# Density = 2.087095 g / cm^3
# Si number density = 20.918559 Si / 1000 Ang^3
#
#
#
# Elastic Constant Matrix: (Units=GPa)
#
#
# Indices 1 2 3 4 5 6 
#
# 1 37.0546 10.1782 12.9912 0.0000 3.4019 0.0000
# 2 10.1782 77.0277 15.6889 0.0000 6.5484 0.0000
# 3 12.9912 15.6889 64.4933 0.0000 6.4531 0.0000
# 4 0.0000 0.0000 0.0000 28.7006 0.0000 -2.1224
# 5 3.4019 6.5484 6.4531 0.0000 34.7463 0.0000
# 6 0.0000 0.0000 0.0000 -2.1224 0.0000 25.0497
#
#
#
# Elastic Compliance Matrix: (Units=1/GPa)
#
#
# Indices 1 2 3 4 5 6 
#
# 1 0.029685 -0.002748 -0.005168 0.000000 -0.001429 0.000000
# 2 -0.002748 0.014051 -0.002676 0.000000 -0.001882 0.000000
# 3 -0.005168 -0.002676 0.017420 0.000000 -0.002225 0.000000
# 4 0.000000 0.000000 0.000000 0.035062 0.000000 0.002971
# 5 -0.001429 -0.001882 -0.002225 0.000000 0.029688 0.000000
# 6 0.000000 0.000000 0.000000 0.002971 0.000000 0.040172
#
#
# Mechanical properties :
#
#
# Convention : Reuss Voigt Hill
#
# Bulk Modulus (GPa) = 25.01830 28.47691 26.74760
# Shear Modulus (GPa) = 24.92683 27.01381 25.97032
#
# Velocity S-wave (km/s) = 3.45572 3.59748 3.52731
# Velocity P-wave (km/s) = 5.28285 5.55865 5.42250
#
# Compressibility (1/GPa) = 0.03997074
#
# Stress axis : x y z
#
# Youngs Moduli (GPa) = 33.68674 71.17163 57.40483
#
# Poissons Ratio (x) = 0.19561 0.29668
# Poissons Ratio (y) = 0.09259 0.15362
# Poissons Ratio (z) = 0.17410 0.19046
#
# Static dielectric constant tensor:
#      x y z
#    x 1.803910 0.000000 -0.029840 
#    y 0.000000 1.722890 0.000000 
#    z -0.029840 0.000000 1.794770 
# 
# From -- ./inp_files/220938.got.cif
#   From: 2010.05.17/outbox.cif.g08.bks.cpg/sg12_111_cif.got.tgz:220938.got - 2010.06.03 13:09:07.
