data_PCOD9198665
_publ_section_title
;
Structure prediction by ZEFSAII (Michael W. Deem and Ramdas Pophale) SiO2 
 PCOD9198665
Probable space group: C 2/M
;
_chemical_formula_sum "Si O2"
_cell_formula_units_Z 40
_cell_length_a 24.915242
_cell_length_b 13.375084
_cell_length_c 20.458720
_cell_angle_alpha 90.000000
_cell_angle_beta 17.780159
_cell_angle_gamma 90.000000
_cell_volume 2081.901411
_symmetry_space_group_name_H-M "C 2/M"
_symmetry_group_IT_number 12
_symmetry_cell_setting 'monoclinic'
loop_
_space_group_symop_operation_xyz
x,y,z
-x,y,-z
-x,-y,-z
x,-y,z
1/2+x,1/2+y,z
1/2-x,1/2+y,-z
1/2-x,1/2-y,-z
1/2+x,1/2-y,z
loop_
_atom_site_type_symbol
_atom_site_label
_atom_site_fract_x
_atom_site_fract_y
_atom_site_fract_z
Si Si1 0.938156 0.231364 0.250721
Si Si2 0.840053 0.884326 0.236269
Si Si3 0.995309 0.708220 0.580818
Si Si4 0.231463 0.615376 0.906631
Si Si5 0.784376 0.888506 0.999443
O O1 0.750000 0.250000 0.500000
O O2 0.912202 0.154438 0.221632
O O3 0.053571 0.326170 0.092252
O O4 0.056041 0.184463 0.171194
O O5 0.687274 0.809788 0.388475
O O6 0.775737 0.000000 0.315242
O O7 0.000000 0.882561 0.000000
O O8 0.901293 0.817474 0.690624
O O9 0.867852 0.642945 0.774374
O O10 0.000000 0.674587 0.500000
O O11 0.239863 0.500000 0.874893
O O12 0.227658 0.615021 0.990180
O O13 0.842495 0.000000 0.947248
#
# Coordination Sequence:
#
# PCOD9198665 Si02
#       5
#     8   8   8   8   8
#     4  11  21  35  56  85 119 148 184 233 284 336
#     4  11  23  38  58  87 119 147 180 232 296 348
#     4  11  22  38  60  83 113 150 191 234 278 336
#     4  10  22  40  60  82 113 155 198 233 270 327
#     4  10  20  36  58  83 111 147 189 232 282 337
#
# _framework density 19.213206
#
# number of rings (size 3 to 8) (size 9 to 14) (size 15 to 20)
#    0.000    1.400    0.000    8.400    0.000    6.800 
#    0.000    1.000    0.000    2.400    0.000    0.000 
#    0.000    0.000    0.000    0.000    0.000    0.000 
#
# Total GULP energy -111621.361075 kJ/mol
# GULP energy per Si atom -5581.068054 kJ/mol
# Density = 1.916948 g / cm^3
# Si number density = 19.213206 Si / 1000 Ang^3
#
#
#
# Elastic Constant Matrix: (Units=GPa)
#
#
# Indices 1 2 3 4 5 6 
#
# 1 49.5226 -4.8575 7.7936 0.0000 7.9807 0.0001
# 2 -4.8575 110.0469 43.3555 0.0031 -14.3802 -0.0027
# 3 7.7936 43.3555 105.4791 0.0027 -8.1474 -0.0030
# 4 0.0000 0.0031 0.0027 13.8836 -0.0005 -3.8056
# 5 7.9807 -14.3802 -8.1474 -0.0005 33.4100 0.0006
# 6 0.0001 -0.0027 -0.0030 -3.8056 0.0006 14.4744
#
#
#
# Elastic Compliance Matrix: (Units=1/GPa)
#
#
# Indices 1 2 3 4 5 6 
#
# 1 0.021553 0.001260 -0.002513 0.000000 -0.005219 0.000000
# 2 0.001260 0.011371 -0.004497 -0.000001 0.003497 0.000001
# 3 -0.002513 -0.004497 0.011631 -0.000001 0.001501 0.000001
# 4 0.000000 -0.000001 -0.000001 0.077621 0.000000 0.020408
# 5 -0.005219 0.003497 0.001501 0.000000 0.033049 0.000000
# 6 0.000000 0.000001 0.000001 0.020408 0.000000 0.074453
#
#
# Mechanical properties :
#
#
# Convention : Reuss Voigt Hill
#
# Bulk Modulus (GPa) = 30.25416 39.73687 34.99551
# Shear Modulus (GPa) = 19.82572 26.93740 23.38156
#
# Velocity S-wave (km/s) = 3.21577 3.74843 3.49227
# Velocity P-wave (km/s) = 5.43774 6.28182 5.87496
#
# Compressibility (1/GPa) = 0.03305331
#
# Stress axis : x y z
#
# Youngs Moduli (GPa) = 46.39734 87.94112 85.98014
#
# Poissons Ratio (x) = -0.11076 0.21610
# Poissons Ratio (y) = -0.05844 0.38665
# Poissons Ratio (z) = 0.11661 0.39546
#
# Static dielectric constant tensor:
#      x y z
#    x 1.633100 0.000000 -0.026970 
#    y 0.000000 1.708380 0.000000 
#    z -0.026970 0.000000 1.656880 
# 
# From -- ./inp_files/85507.got.cif
#   From: 2010.05.17/outbox.cif.g08.bks.cpg/sg12_43_cif.got.tgz:85507.got - 2010.06.03 13:09:07.
