data_PCOD9198509
_publ_section_title
;
Structure prediction by ZEFSAII (Michael W. Deem and Ramdas Pophale) SiO2 
 PCOD9198509
Probable space group: C 2/M
;
_chemical_formula_sum "Si O2"
_cell_formula_units_Z 64
_cell_length_a 25.668670
_cell_length_b 19.559868
_cell_length_c 19.804926
_cell_angle_alpha 90.000000
_cell_angle_beta 18.690539
_cell_angle_gamma 90.000000
_cell_volume 3186.483694
_symmetry_space_group_name_H-M "C 2/M"
_symmetry_group_IT_number 12
_symmetry_cell_setting 'monoclinic'
loop_
_space_group_symop_operation_xyz
x,y,z
-x,y,-z
-x,-y,-z
x,-y,z
1/2+x,1/2+y,z
1/2-x,1/2+y,-z
1/2-x,1/2-y,-z
1/2+x,1/2-y,z
loop_
_atom_site_type_symbol
_atom_site_label
_atom_site_fract_x
_atom_site_fract_y
_atom_site_fract_z
Si Si1 0.373067 0.181564 0.107911
Si Si2 0.821663 0.579270 0.498433
Si Si3 0.467469 0.073332 0.895175
Si Si4 0.399103 0.330570 0.463231
Si Si5 0.253404 0.296224 0.168657
Si Si6 0.877786 0.814290 0.335138
Si Si7 0.591466 0.422840 0.317663
Si Si8 0.564043 0.176680 0.529558
O O1 0.250150 0.143054 0.308032
O O2 0.259048 0.221360 0.195465
O O3 0.500000 0.223158 0.000000
O O4 0.485162 0.133749 0.925620
O O5 0.776103 0.500000 0.567972
O O6 0.681194 0.632253 0.649219
O O7 0.929358 0.580045 0.298683
O O8 0.920330 0.614352 0.438037
O O9 0.503738 0.000000 0.882679
O O10 0.280684 0.074996 0.101845
O O11 0.382939 0.344711 0.404332
O O12 0.552369 0.367493 0.308665
O O13 0.400160 0.248443 0.475477
O O14 0.112573 0.311547 0.287702
O O15 0.194450 0.336169 0.308848
O O16 0.434575 0.299981 0.915750
O O17 0.750000 0.750000 0.500000
O O18 0.500000 0.407255 0.500000
O O19 0.540818 0.500000 0.358684
#
# Coordination Sequence:
#
# PCOD9198509 Si02
#       8
#     8   8   8   8   8   8   8   8
#     4  11  21  35  57  89 128 168 204 256 307 377
#     4  11  25  45  67  93 128 166 213 269 331 390
#     4  10  21  37  58  86 127 171 209 253 309 377
#     4  11  22  34  62  92 130 165 213 254 311 372
#     4  10  24  41  66  94 128 160 217 273 322 379
#     4  12  24  43  63  99 133 169 212 265 324 387
#     4  10  20  36  57  88 129 170 212 256 306 370
#     4  10  23  44  66  97 122 167 217 272 322 378
#
# _framework density 20.084835000000002
#
# number of rings (size 3 to 8) (size 9 to 14) (size 15 to 20)
#    0.000    1.375    2.500    3.000    5.250    1.250 
#    0.000    3.125    0.000    0.000    0.000    0.000 
#    0.000    0.000    0.000    0.000    0.000    0.000 
#
# Total GULP energy -178339.580027 kJ/mol
# GULP energy per Si atom -5573.111876 kJ/mol
# Density = 2.003912 g / cm^3
# Si number density = 20.084835 Si / 1000 Ang^3
#
#
#
# Elastic Constant Matrix: (Units=GPa)
#
#
# Indices 1 2 3 4 5 6 
#
# 1 103.6504 49.5691 17.1255 0.0116 -9.3151 -0.0046
# 2 49.5691 80.9457 0.4404 0.0174 2.7763 -0.0156
# 3 17.1255 0.4404 87.0929 0.0142 0.2346 -0.0128
# 4 0.0116 0.0174 0.0142 19.8026 -0.0133 4.9868
# 5 -9.3151 2.7763 0.2346 -0.0133 21.7733 0.0127
# 6 -0.0046 -0.0156 -0.0128 4.9868 0.0127 31.6180
#
#
#
# Elastic Compliance Matrix: (Units=1/GPa)
#
#
# Indices 1 2 3 4 5 6 
#
# 1 0.015530 -0.009765 -0.003026 0.000009 0.007922 -0.000008
# 2 -0.009765 0.018549 0.001844 -0.000020 -0.006563 0.000014
# 3 -0.003026 0.001844 0.012072 -0.000012 -0.001660 0.000008
# 4 0.000009 -0.000020 -0.000012 0.052587 0.000043 -0.008294
# 5 0.007922 -0.006563 -0.001660 0.000043 0.050172 -0.000030
# 6 -0.000008 0.000014 0.000008 -0.008294 -0.000030 0.032936
#
#
# Mechanical properties :
#
#
# Convention : Reuss Voigt Hill
#
# Bulk Modulus (GPa) = 41.22489 45.10656 43.16572
# Shear Modulus (GPa) = 23.60443 28.27572 25.94008
#
# Velocity S-wave (km/s) = 3.43189 3.75616 3.59768
# Velocity P-wave (km/s) = 6.02277 6.42794 6.22865
#
# Compressibility (1/GPa) = 0.02425719
#
# Stress axis : x y z
#
# Youngs Moduli (GPa) = 64.39271 53.91119 82.83573
#
# Poissons Ratio (x) = 0.52646 0.25063
# Poissons Ratio (y) = 0.62881 -0.15275
# Poissons Ratio (z) = 0.19483 -0.09942
#
# Static dielectric constant tensor:
#      x y z
#    x 1.716510 0.000000 -0.017500 
#    y 0.000000 1.767580 0.000000 
#    z -0.017500 0.000000 1.759680 
# 
# From -- ./inp_files/290915.got.cif
#   From: 2010.05.17/outbox.cif.g08.bks.cpg/sg12_146_cif.got.tgz:290915.got - 2010.06.03 13:09:07.
