data_PCOD9198877
_publ_section_title
;
Structure prediction by ZEFSAII (Michael W. Deem and Ramdas Pophale) SiO2 
 PCOD9198877
Probable space group: C 2/M
;
_chemical_formula_sum "Si O2"
_cell_formula_units_Z 60
_cell_length_a 17.498020
_cell_length_b 14.429677
_cell_length_c 11.954116
_cell_angle_alpha 90.000000
_cell_angle_beta 115.082851
_cell_angle_gamma 90.000000
_cell_volume 2733.665058
_symmetry_space_group_name_H-M "C 2/M"
_symmetry_group_IT_number 12
_symmetry_cell_setting 'monoclinic'
loop_
_space_group_symop_operation_xyz
x,y,z
-x,y,-z
-x,-y,-z
x,-y,z
1/2+x,1/2+y,z
1/2-x,1/2+y,-z
1/2-x,1/2-y,-z
1/2+x,1/2-y,z
loop_
_atom_site_type_symbol
_atom_site_label
_atom_site_fract_x
_atom_site_fract_y
_atom_site_fract_z
Si Si1 0.580311 0.394797 0.723241
Si Si2 0.701852 0.678224 0.608884
Si Si3 0.248423 0.894653 0.978945
Si Si4 0.500000 0.751290 0.000000
Si Si5 0.311017 0.727189 0.868716
Si Si6 0.012617 0.707525 0.760042
Si Si7 0.581427 0.896449 0.620066
Si Si8 0.843654 0.647477 0.551866
O O1 0.547197 0.500000 0.694730
O O2 0.628010 0.366349 0.637201
O O3 0.656805 0.394063 0.860821
O O4 0.515656 0.315746 0.724773
O O5 0.761879 0.740127 0.727692
O O6 0.768124 0.614642 0.583606
O O7 0.665795 0.745387 0.491628
O O8 0.300752 0.817521 0.943377
O O9 0.281206 0.000000 0.995073
O O10 0.231820 0.857463 0.092843
O O11 0.590019 0.703685 0.084204
O O12 0.480701 0.802528 0.103936
O O13 0.088891 0.666621 0.732771
O O14 0.930952 0.648649 0.673179
O O15 0.500000 0.858912 0.500000
O O16 0.650203 0.899017 0.565646
O O17 0.562457 0.000000 0.645036
#
# Coordination Sequence:
#
# PCOD9198877 Si02
#       8
#     8   8   8   4   8   8   8   8
#     4  10  20  36  61  89 121 162 202 240 296 358
#     4  10  20  36  58  88 113 156 196 245 297 350
#     4   9  19  37  61  86 116 160 202 243 299 360
#     4  12  22  38  62  88 120 160 194 248 308 346
#     4  10  20  37  59  84 119 153 200 248 298 359
#     4  11  21  39  59  88 121 158 197 247 295 355
#     4   9  19  36  60  86 114 155 197 238 294 353
#     4  10  20  36  62  85 119 155 195 243 300 346
#
# _framework density 21.948557000000001
#
# number of rings (size 3 to 8) (size 9 to 14) (size 15 to 20)
#    0.000    2.000    4.000    0.000    0.000    0.533 
#    0.000    6.667    0.000    1.600    0.000    0.000 
#    0.000    0.000    0.000    0.000    0.000    0.000 
#
# Total GULP energy -167172.619513 kJ/mol
# GULP energy per Si atom -5572.420650 kJ/mol
# Density = 2.189860 g / cm^3
# Si number density = 21.948557 Si / 1000 Ang^3
#
#
#
# Elastic Constant Matrix: (Units=GPa)
#
#
# Indices 1 2 3 4 5 6 
#
# 1 65.3678 19.5989 24.7064 0.0000 -11.2888 0.0000
# 2 19.5989 83.5247 7.2535 0.0000 -13.4544 0.0000
# 3 24.7064 7.2535 83.7815 0.0000 -33.8519 0.0000
# 4 0.0000 0.0000 0.0000 1.4120 0.0000 4.5059
# 5 -11.2888 -13.4544 -33.8519 0.0000 44.3196 0.0000
# 6 0.0000 0.0000 0.0000 4.5059 0.0000 5.0848
#
#
#
# Elastic Compliance Matrix: (Units=1/GPa)
#
#
# Indices 1 2 3 4 5 6 
#
# 1 0.018390 -0.003946 -0.005312 0.000000 -0.000571 0.000000
# 2 -0.003946 0.013460 0.001798 0.000000 0.004454 0.000000
# 3 -0.005312 0.001798 0.018833 0.000000 0.013577 0.000000
# 4 0.000000 0.000000 0.000000 -0.387478 0.000000 0.343360
# 5 -0.000571 0.004454 0.013577 0.000000 0.034141 0.000000
# 6 0.000000 0.000000 0.000000 0.343360 0.000000 -0.107602
#
#
# Mechanical properties :
#
#
# Convention : Reuss Voigt Hill
#
# Bulk Modulus (GPa) = 27.96227 37.31017 32.63622
# Shear Modulus (GPa) = -13.04069 22.23765 4.59848
#
# Velocity S-wave (km/s) = -2.44016 3.18649 1.44902
# Velocity P-wave (km/s) = 2.19736 5.52939 4.20729
#
# Compressibility (1/GPa) = 0.03576248
#
# Stress axis : x y z
#
# Youngs Moduli (GPa) = 54.37641 74.29538 53.09944
#
# Poissons Ratio (x) = 0.29316 0.28208
# Poissons Ratio (y) = 0.21457 -0.09548
# Poissons Ratio (z) = 0.28887 -0.13359
#
# Static dielectric constant tensor:
#      x y z
#    x 1.895410 0.000000 -0.002240 
#    y 0.000000 1.815100 0.000000 
#    z -0.002240 0.000000 1.829210 
# 
# From -- ./inp_files/156689.got.cif
#   From: 2010.05.17/outbox.cif.g08.bks.cpg/sg12_79_cif.got.tgz:156689.got - 2010.06.03 13:09:07.
