data_PCOD9198636
_publ_section_title
;
Structure prediction by ZEFSAII (Michael W. Deem and Ramdas Pophale) SiO2 
 PCOD9198636
Probable space group: C 2/M
;
_chemical_formula_sum "Si O2"
_cell_formula_units_Z 56
_cell_length_a 18.231713
_cell_length_b 7.621065
_cell_length_c 19.176477
_cell_angle_alpha 90.000000
_cell_angle_beta 102.993089
_cell_angle_gamma 90.000000
_cell_volume 2596.258842
_symmetry_space_group_name_H-M "C 2/M"
_symmetry_group_IT_number 12
_symmetry_cell_setting 'monoclinic'
loop_
_space_group_symop_operation_xyz
x,y,z
-x,y,-z
-x,-y,-z
x,-y,z
1/2+x,1/2+y,z
1/2-x,1/2+y,-z
1/2-x,1/2-y,-z
1/2+x,1/2-y,z
loop_
_atom_site_type_symbol
_atom_site_label
_atom_site_fract_x
_atom_site_fract_y
_atom_site_fract_z
Si Si1 0.772636 0.210558 0.425886
Si Si2 0.914217 0.785384 0.995657
Si Si3 0.941487 0.784645 0.428122
Si Si4 0.648091 0.797032 0.292190
Si Si5 0.801860 0.208276 0.850359
Si Si6 0.021044 0.204129 0.718320
Si Si7 0.867286 0.788091 0.139271
O O1 0.750000 0.250000 0.500000
O O2 0.856692 0.273500 0.426922
O O3 0.709370 0.278700 0.359047
O O4 0.774863 0.000000 0.417542
O O5 0.886383 0.725322 0.065538
O O6 0.912748 0.000000 0.995328
O O7 0.858956 0.726735 0.922180
O O8 0.000000 0.732217 0.000000
O O9 0.000000 0.727738 0.500000
O O10 0.965320 0.723468 0.356181
O O11 0.942701 0.000000 0.429169
O O12 0.680141 0.786288 0.221146
O O13 0.566223 0.712522 0.280164
O O14 0.636183 0.000000 0.308288
O O15 0.716851 0.242996 0.855790
O O16 0.812944 0.000000 0.845930
O O17 0.073436 0.279596 0.790574
O O18 0.043048 0.000000 0.717976
O O19 0.873381 0.000000 0.138109
#
# Coordination Sequence:
#
# PCOD9198636 Si02
#       7
#     8   8   8   8   8   8   8
#     4  10  21  37  57  82 111 144 182 226 277 329
#     4   9  18  34  56  81 109 144 187 233 279 329
#     4   9  17  31  53  79 106 137 176 220 264 319
#     4  11  23  38  56  81 115 149 183 230 283 329
#     4  11  22  36  57  83 111 147 190 230 275 336
#     4  10  20  36  59  82 106 145 191 229 275 335
#     4  10  20  36  58  82 112 147 184 233 286 332
#
# _framework density 21.569496999999998
#
# number of rings (size 3 to 8) (size 9 to 14) (size 15 to 20)
#    0.000    2.000    0.000    3.857    0.000    7.429 
#    0.000    1.429    0.000    5.571    0.000    0.000 
#    0.000    0.000    0.000    0.000    0.000    0.000 
#
# Total GULP energy -156532.668939 kJ/mol
# GULP energy per Si atom -5590.452462 kJ/mol
# Density = 2.152040 g / cm^3
# Si number density = 21.569497 Si / 1000 Ang^3
#
#
#
# Elastic Constant Matrix: (Units=GPa)
#
#
# Indices 1 2 3 4 5 6 
#
# 1 178.0437 -18.3757 106.5252 0.0000 9.2556 0.0000
# 2 -18.3757 41.7903 -4.3419 0.0000 4.8610 0.0000
# 3 106.5252 -4.3419 213.1291 0.0000 15.2454 0.0000
# 4 0.0000 0.0000 0.0000 -2.9525 0.0000 -11.5913
# 5 9.2556 4.8610 15.2454 0.0000 48.8982 0.0000
# 6 0.0000 0.0000 0.0000 -11.5913 0.0000 16.4842
#
#
#
# Elastic Compliance Matrix: (Units=1/GPa)
#
#
# Indices 1 2 3 4 5 6 
#
# 1 0.008459 0.003368 -0.004112 0.000000 -0.000654 0.000000
# 2 0.003368 0.025647 -0.000954 0.000000 -0.002890 0.000000
# 3 -0.004112 -0.000954 0.006818 0.000000 -0.001252 0.000000
# 4 0.000000 0.000000 0.000000 -0.090063 0.000000 -0.063331
# 5 -0.000654 -0.002890 -0.001252 0.000000 0.021252 0.000000
# 6 0.000000 0.000000 0.000000 -0.063331 0.000000 0.016131
#
#
# Mechanical properties :
#
#
# Convention : Reuss Voigt Hill
#
# Bulk Modulus (GPa) = 26.64804 66.73093 46.68949
# Shear Modulus (GPa) = 1205.05854 35.76300 620.41077
#
# Velocity S-wave (km/s) = 23.66219 4.07632 16.97816
# Velocity P-wave (km/s) = 27.54839 7.29109 20.15036
#
# Compressibility (1/GPa) = 0.03752621
#
# Stress axis : x y z
#
# Youngs Moduli (GPa) = 118.22134 38.99096 146.67967
#
# Poissons Ratio (x) = -0.13133 0.60321
# Poissons Ratio (y) = -0.39819 0.13998
# Poissons Ratio (z) = 0.48618 0.03721
#
# Static dielectric constant tensor:
#      x y z
#    x 1.717350 0.000000 0.012720 
#    y 0.000000 1.854720 0.000000 
#    z 0.012720 0.000000 1.760650 
# 
# From -- ./inp_files/275668.got.cif
#   From: 2010.05.17/outbox.cif.g08.bks.cpg/sg12_138_cif.got.tgz:275668.got - 2010.06.03 13:09:07.
