data_PCOD9198905
_publ_section_title
;
Structure prediction by ZEFSAII (Michael W. Deem and Ramdas Pophale) SiO2 
 PCOD9198905
Probable space group: C 2/M
;
_chemical_formula_sum "Si O2"
_cell_formula_units_Z 58
_cell_length_a 19.384864
_cell_length_b 20.707845
_cell_length_c 9.193481
_cell_angle_alpha 90.000000
_cell_angle_beta 132.996530
_cell_angle_gamma 90.000000
_cell_volume 2699.166259
_symmetry_space_group_name_H-M "C 2/M"
_symmetry_group_IT_number 12
_symmetry_cell_setting 'monoclinic'
loop_
_space_group_symop_operation_xyz
x,y,z
-x,y,-z
-x,-y,-z
x,-y,z
1/2+x,1/2+y,z
1/2-x,1/2+y,-z
1/2-x,1/2-y,-z
1/2+x,1/2-y,z
loop_
_atom_site_type_symbol
_atom_site_label
_atom_site_fract_x
_atom_site_fract_y
_atom_site_fract_z
Si Si1 0.908157 0.315113 0.768723
Si Si2 0.858815 0.574331 0.485579
Si Si3 0.364785 0.572681 0.759285
Si Si4 0.917994 0.815835 0.606687
Si Si5 0.000000 0.000000 0.500000
Si Si6 0.760355 0.711671 0.803835
Si Si7 0.788696 0.347591 0.139298
Si Si8 0.913778 0.104318 0.154197
O O1 0.906494 0.380979 0.675108
O O2 0.906513 0.254134 0.659803
O O3 0.818027 0.306408 0.743723
O O4 0.000000 0.311229 0.000000
O O5 0.890114 0.500000 0.526193
O O6 0.746992 0.574825 0.365157
O O7 0.862970 0.610498 0.335819
O O8 0.385504 0.500000 0.734949
O O9 0.387364 0.628085 0.675909
O O10 0.416647 0.584848 0.987568
O O11 0.844658 0.817357 0.368254
O O12 0.027876 0.829730 0.739995
O O13 0.963322 0.944767 0.332481
O O14 0.747039 0.788082 0.811169
O O15 0.814060 0.683567 0.021586
O O16 0.696943 0.390639 0.975198
#
# Coordination Sequence:
#
# PCOD9198905 Si02
#       8
#     8   8   8   8   2   8   8   8
#     4  12  23  41  66  96 120 155 212 273 324 368
#     4  10  21  41  65  89 121 168 211 259 318 379
#     4  10  20  36  58  88 125 168 212 250 304 376
#     4  12  22  37  63  94 128 162 212 258 313 373
#     4  12  24  40  54  88 144 176 212 238 296 368
#     4  11  22  40  66  94 123 163 205 273 313 371
#     4  10  22  42  63  89 129 166 213 248 319 382
#     4  11  23  38  57  91 130 179 205 247 299 375
#
# _framework density 21.488118
#
# number of rings (size 3 to 8) (size 9 to 14) (size 15 to 20)
#    0.000    1.103    3.448    4.966    1.931    0.828 
#    0.000    1.379    0.000    0.828    0.000    0.000 
#    0.000    0.000    0.000    0.000    0.000    0.000 
#
# Total GULP energy -161893.343924 kJ/mol
# GULP energy per Si atom -5582.529101 kJ/mol
# Density = 2.143921 g / cm^3
# Si number density = 21.488118 Si / 1000 Ang^3
#
#
#
# Elastic Constant Matrix: (Units=GPa)
#
#
# Indices 1 2 3 4 5 6 
#
# 1 13.9712 5.5474 2.8687 0.0000 -5.3314 0.0000
# 2 5.5474 124.0133 27.5325 0.0000 -31.0986 0.0000
# 3 2.8687 27.5325 103.9363 0.0000 -19.7336 0.0000
# 4 0.0000 0.0000 0.0000 12.7240 0.0000 -10.9348
# 5 -5.3314 -31.0986 -19.7336 0.0000 26.0658 0.0000
# 6 0.0000 0.0000 0.0000 -10.9348 0.0000 19.1948
#
#
#
# Elastic Compliance Matrix: (Units=1/GPa)
#
#
# Indices 1 2 3 4 5 6 
#
# 1 0.077768 0.000682 0.000990 0.000000 0.017470 0.000000
# 2 0.000682 0.011536 -0.000508 0.000000 0.013518 0.000000
# 3 0.000990 -0.000508 0.011272 0.000000 0.008130 0.000000
# 4 0.000000 0.000000 0.000000 0.153971 0.000000 0.087714
# 5 0.017470 0.013518 0.008130 0.000000 0.064221 0.000000
# 6 0.000000 0.000000 0.000000 0.087714 0.000000 0.102066
#
#
# Mechanical properties :
#
#
# Convention : Reuss Voigt Hill
#
# Bulk Modulus (GPa) = 9.71776 34.86866 22.29321
# Shear Modulus (GPa) = 11.04223 25.32840 18.18531
#
# Velocity S-wave (km/s) = 2.26934 3.43697 2.91227
# Velocity P-wave (km/s) = 3.37620 5.65796 4.65893
#
# Compressibility (1/GPa) = 0.10290442
#
# Stress axis : x y z
#
# Youngs Moduli (GPa) = 12.85870 86.68635 88.71427
#
# Poissons Ratio (x) = -0.05916 -0.08780
# Poissons Ratio (y) = -0.00877 0.04507
# Poissons Ratio (z) = -0.01273 0.04404
#
# Static dielectric constant tensor:
#      x y z
#    x 1.844780 0.000000 -0.001530 
#    y 0.000000 1.748200 0.000000 
#    z -0.001530 0.000000 1.757810 
# 
# From -- ./inp_files/99294.got.cif
#   From: 2010.05.17/outbox.cif.g08.bks.cpg/sg12_50_cif.got.tgz:99294.got - 2010.06.03 13:09:07.
