data_PCOD9198984
_publ_section_title
;
Structure prediction by ZEFSAII (Michael W. Deem and Ramdas Pophale) SiO2 
 PCOD9198984
Probable space group: C 2/M
;
_chemical_formula_sum "Si O2"
_cell_formula_units_Z 56
_cell_length_a 9.751341
_cell_length_b 17.254950
_cell_length_c 21.806272
_cell_angle_alpha 90.000000
_cell_angle_beta 52.961032
_cell_angle_gamma 90.000000
_cell_volume 2928.770583
_symmetry_space_group_name_H-M "C 2/M"
_symmetry_group_IT_number 12
_symmetry_cell_setting 'monoclinic'
loop_
_space_group_symop_operation_xyz
x,y,z
-x,y,-z
-x,-y,-z
x,-y,z
1/2+x,1/2+y,z
1/2-x,1/2+y,-z
1/2-x,1/2-y,-z
1/2+x,1/2-y,z
loop_
_atom_site_type_symbol
_atom_site_label
_atom_site_fract_x
_atom_site_fract_y
_atom_site_fract_z
Si Si1 0.104845 0.347393 0.408906
Si Si2 0.218905 0.808218 0.813571
Si Si3 0.435266 0.207408 0.951226
Si Si4 0.150044 0.151932 0.281308
Si Si5 0.394760 0.417582 0.260736
Si Si6 0.976250 0.593152 0.824768
Si Si7 0.367447 0.255240 0.408619
O O1 0.231893 0.412256 0.350271
O O2 0.235294 0.275611 0.389947
O O3 0.000000 0.363778 0.500000
O O4 0.980263 0.321809 0.387168
O O5 0.322554 0.733769 0.761025
O O6 0.127812 0.848777 0.780833
O O7 0.338950 0.869508 0.815377
O O8 0.073596 0.773068 0.896080
O O9 0.447515 0.139458 0.896826
O O10 0.500000 0.178069 0.000000
O O11 0.250000 0.250000 0.000000
O O12 0.333652 0.118357 0.249882
O O13 0.062236 0.094839 0.256490
O O14 0.004410 0.174027 0.370232
O O15 0.398390 0.500000 0.227640
O O16 0.963219 0.500000 0.833514
O O17 0.250000 0.250000 0.500000
#
# Coordination Sequence:
#
# PCOD9198984 Si02
#       7
#     8   8   8   8   8   8   8
#     4   9  18  32  51  78 111 147 191 242 290 339
#     4  11  22  39  64  85 118 155 199 240 287 357
#     4  11  23  44  68  91 118 156 199 242 292 358
#     4  10  20  36  59  83 114 155 201 244 290 349
#     4  11  22  35  54  85 118 151 192 241 294 344
#     4  11  24  40  61  92 124 155 194 246 303 357
#     4   9  17  30  52  81 108 144 198 249 287 337
#
# _framework density 19.120650999999999
#
# number of rings (size 3 to 8) (size 9 to 14) (size 15 to 20)
#    0.000    1.714    2.857    2.571    4.000    0.571 
#    0.000    2.143    0.000    0.000    0.000    1.000 
#    0.000    0.000    0.000    0.000    0.000    0.000 
#
# Total GULP energy -156007.157960 kJ/mol
# GULP energy per Si atom -5571.684213 kJ/mol
# Density = 1.907713 g / cm^3
# Si number density = 19.120651 Si / 1000 Ang^3
#
#
#
# Elastic Constant Matrix: (Units=GPa)
#
#
# Indices 1 2 3 4 5 6 
#
# 1 83.6043 25.2318 19.2283 0.0000 -10.4067 0.0000
# 2 25.2318 96.1417 13.7997 0.0000 -5.7601 0.0000
# 3 19.2283 13.7997 61.2752 0.0000 -13.5295 0.0000
# 4 0.0000 0.0000 0.0000 6.9369 0.0000 2.3304
# 5 -10.4067 -5.7601 -13.5295 0.0000 30.2377 0.0000
# 6 0.0000 0.0000 0.0000 2.3304 0.0000 21.3654
#
#
#
# Elastic Compliance Matrix: (Units=1/GPa)
#
#
# Indices 1 2 3 4 5 6 
#
# 1 0.013939 -0.003049 -0.003059 0.000000 0.002848 0.000000
# 2 -0.003049 0.011447 -0.001522 0.000000 0.000450 0.000000
# 3 -0.003059 -0.001522 0.019225 0.000000 0.007259 0.000000
# 4 0.000000 0.000000 0.000000 0.149639 0.000000 -0.016322
# 5 0.002848 0.000450 0.007259 0.000000 0.037385 0.000000
# 6 0.000000 0.000000 0.000000 -0.016322 0.000000 0.048585
#
#
# Mechanical properties :
#
#
# Convention : Reuss Voigt Hill
#
# Bulk Modulus (GPa) = 34.06808 39.72675 36.89742
# Shear Modulus (GPa) = 16.37930 23.89209 20.13570
#
# Velocity S-wave (km/s) = 2.93000 3.53872 3.24865
# Velocity P-wave (km/s) = 5.41319 6.12525 5.78020
#
# Compressibility (1/GPa) = 0.02935299
#
# Stress axis : x y z
#
# Youngs Moduli (GPa) = 71.74026 87.36047 52.01489
#
# Poissons Ratio (x) = 0.26633 0.15910
# Poissons Ratio (y) = 0.21871 0.07916
# Poissons Ratio (z) = 0.21943 0.13295
#
# Static dielectric constant tensor:
#      x y z
#    x 1.736670 0.000000 0.047630 
#    y 0.000000 1.628010 0.000000 
#    z 0.047630 0.000000 1.802440 
# 
# From -- ./inp_files/300677.got.cif
#   From: 2010.05.17/outbox.cif.g08.bks.cpg/sg12_151_cif.got.tgz:300677.got - 2010.06.03 13:09:07.
