data_PCOD9198764
_publ_section_title
;
Structure prediction by ZEFSAII (Michael W. Deem and Ramdas Pophale) SiO2 
 PCOD9198764
Probable space group: C 2/M
;
_chemical_formula_sum "Si O2"
_cell_formula_units_Z 46
_cell_length_a 8.806705
_cell_length_b 18.053287
_cell_length_c 14.453201
_cell_angle_alpha 90.000000
_cell_angle_beta 60.557312
_cell_angle_gamma 90.000000
_cell_volume 2001.133436
_symmetry_space_group_name_H-M "C 2/M"
_symmetry_group_IT_number 12
_symmetry_cell_setting 'monoclinic'
loop_
_space_group_symop_operation_xyz
x,y,z
-x,y,-z
-x,-y,-z
x,-y,z
1/2+x,1/2+y,z
1/2-x,1/2+y,-z
1/2-x,1/2-y,-z
1/2+x,1/2-y,z
loop_
_atom_site_type_symbol
_atom_site_label
_atom_site_fract_x
_atom_site_fract_y
_atom_site_fract_z
Si Si1 0.230612 0.000000 0.831038
Si Si2 0.195225 0.000000 0.060364
Si Si3 0.494043 0.631513 0.629677
Si Si4 0.000000 0.000000 0.500000
Si Si5 0.742335 0.863264 0.299276
Si Si6 0.000000 0.737799 0.500000
Si Si7 0.288881 0.150380 0.135232
Si Si8 0.479699 0.729034 0.903303
O O1 0.309483 0.072556 0.756820
O O2 0.018424 0.000000 0.876259
O O3 0.251738 0.000000 0.935661
O O4 0.266089 0.928632 0.094333
O O5 0.424975 0.565502 0.588604
O O6 0.639595 0.600263 0.655451
O O7 0.578435 0.700321 0.548124
O O8 0.331440 0.656528 0.738782
O O9 0.603103 0.815364 0.398246
O O10 0.871839 0.808953 0.204667
O O11 0.475307 0.183872 0.105191
O O12 0.199029 0.208145 0.091594
O O13 0.500000 0.695786 0.000000
#
# Coordination Sequence:
#
# PCOD9198764 Si02
#       8
#     4   4   8   2   8   4   8   8
#     4  11  21  36  61  90 121 168 220 262 313 393
#     4  11  21  39  67  94 129 171 219 270 315 401
#     4  10  20  36  60  90 118 161 206 268 310 383
#     4  10  20  36  58  84 116 152 214 256 312 360
#     4  11  22  38  61  90 124 161 216 261 324 378
#     4  11  22  38  58  85 132 162 208 259 328 374
#     4  11  22  40  68  96 132 167 218 268 331 382
#     4  11  22  39  65 100 128 167 212 270 324 392
#
# _framework density 22.986972999999999
#
# number of rings (size 3 to 8) (size 9 to 14) (size 15 to 20)
#    0.000    1.217    5.217    3.130    0.000    0.348 
#    0.000    0.435    0.000    4.174    0.000    0.000 
#    0.000    0.000    0.000    0.000    0.000    0.000 
#
# Total GULP energy -128157.990131 kJ/mol
# GULP energy per Si atom -5572.086527 kJ/mol
# Density = 2.293465 g / cm^3
# Si number density = 22.986973 Si / 1000 Ang^3
#
#
#
# Elastic Constant Matrix: (Units=GPa)
#
#
# Indices 1 2 3 4 5 6 
#
# 1 37.9202 36.5570 15.2024 0.0000 -4.4565 0.0000
# 2 36.5570 150.4357 50.3541 0.0000 -8.4516 0.0000
# 3 15.2024 50.3541 145.0082 0.0000 0.0752 0.0000
# 4 0.0000 0.0000 0.0000 41.3873 0.0000 7.5702
# 5 -4.4565 -8.4516 0.0752 0.0000 15.2568 0.0000
# 6 0.0000 0.0000 0.0000 7.5702 0.0000 17.0490
#
#
#
# Elastic Compliance Matrix: (Units=1/GPa)
#
#
# Indices 1 2 3 4 5 6 
#
# 1 0.035022 -0.007865 -0.000944 0.000000 0.005878 0.000000
# 2 -0.007865 0.009564 -0.002498 0.000000 0.003013 0.000000
# 3 -0.000944 -0.002498 0.007863 0.000000 -0.001698 0.000000
# 4 0.000000 0.000000 0.000000 0.026298 0.000000 -0.011677
# 5 0.005878 0.003013 -0.001698 0.000000 0.068939 0.000000
# 6 0.000000 0.000000 0.000000 -0.011677 0.000000 0.063839
#
#
# Mechanical properties :
#
#
# Convention : Reuss Voigt Hill
#
# Bulk Modulus (GPa) = 33.51575 59.73234 46.62404
# Shear Modulus (GPa) = 20.48472 30.15531 25.32001
#
# Velocity S-wave (km/s) = 2.98844 3.62587 3.32248
# Velocity P-wave (km/s) = 5.14973 6.60083 5.91991
#
# Compressibility (1/GPa) = 0.02983672
#
# Stress axis : x y z
#
# Youngs Moduli (GPa) = 28.55338 104.55919 127.17038
#
# Poissons Ratio (x) = 0.82231 0.12002
# Poissons Ratio (y) = 0.22456 0.31769
# Poissons Ratio (z) = 0.02695 0.26120
#
# Static dielectric constant tensor:
#      x y z
#    x 1.904030 0.000000 0.003230 
#    y 0.000000 1.827540 0.000000 
#    z 0.003230 0.000000 2.455600 
# 
# From -- ./inp_files/204901.got.cif
#   From: 2010.05.17/outbox.cif.g08.bks.cpg/sg12_103_cif.got.tgz:204901.got - 2010.06.03 13:09:07.
