data_PCOD9198272
_publ_section_title
;
Structure prediction by ZEFSAII (Michael W. Deem and Ramdas Pophale) SiO2 
 PCOD9198272
Probable space group: C 2/M
;
_chemical_formula_sum "Si O2"
_cell_formula_units_Z 56
_cell_length_a 22.515072
_cell_length_b 8.956461
_cell_length_c 17.420932
_cell_angle_alpha 90.000000
_cell_angle_beta 119.263989
_cell_angle_gamma 90.000000
_cell_volume 3064.680561
_symmetry_space_group_name_H-M "C 2/M"
_symmetry_group_IT_number 12
_symmetry_cell_setting 'monoclinic'
loop_
_space_group_symop_operation_xyz
x,y,z
-x,y,-z
-x,-y,-z
x,-y,z
1/2+x,1/2+y,z
1/2-x,1/2+y,-z
1/2-x,1/2-y,-z
1/2+x,1/2-y,z
loop_
_atom_site_type_symbol
_atom_site_label
_atom_site_fract_x
_atom_site_fract_y
_atom_site_fract_z
Si Si1 0.682217 0.169272 0.547543
Si Si2 0.038463 0.322884 0.943132
Si Si3 0.918395 0.678729 0.257555
Si Si4 0.425857 0.323487 0.423305
Si Si5 0.680951 0.171302 0.361737
Si Si6 0.324838 0.821754 0.051999
Si Si7 0.961584 0.823196 0.755647
O O1 0.626536 0.282204 0.543450
O O2 0.681173 0.169171 0.454664
O O3 0.755225 0.228068 0.621284
O O4 0.668865 0.000000 0.565222
O O5 0.031971 0.500000 0.918141
O O6 0.119107 0.287488 0.980084
O O7 0.998824 0.221194 0.857757
O O8 0.000000 0.304774 0.000000
O O9 0.925101 0.500000 0.261848
O O10 0.902596 0.739277 0.331751
O O11 0.863502 0.718437 0.156467
O O12 0.989815 0.753337 0.278655
O O13 0.500000 0.274769 0.500000
O O14 0.427958 0.500000 0.409727
O O15 0.812366 0.500000 0.660594
O O16 0.611034 0.244148 0.291471
O O17 0.315615 0.000000 0.045670
O O18 0.250000 0.750000 0.000000
O O19 0.955499 0.000000 0.742065
#
# Coordination Sequence:
#
# PCOD9198272 Si02
#       7
#     8   8   8   8   8   8   8
#     4  10  21  36  55  79 109 144 185 232 278 327
#     4   9  19  38  60  82 111 146 190 236 282 342
#     4  10  21  38  58  81 111 149 192 232 276 336
#     4  11  23  37  55  82 114 148 188 233 281 333
#     4  10  20  36  57  79 107 146 186 225 276 333
#     4   9  19  36  59  85 111 147 187 233 289 345
#     4  11  21  34  56  84 112 143 182 229 279 333
#
# _framework density 18.272703
#
# number of rings (size 3 to 8) (size 9 to 14) (size 15 to 20)
#    0.000    2.000    0.000    4.714    0.000    8.286 
#    2.571    0.000    0.000    0.000    0.000    0.000 
#    0.000    0.000    0.000    0.000    0.000    0.000 
#
# Total GULP energy -156201.261921 kJ/mol
# GULP energy per Si atom -5578.616497 kJ/mol
# Density = 1.823111 g / cm^3
# Si number density = 18.272703 Si / 1000 Ang^3
#
#
#
# Elastic Constant Matrix: (Units=GPa)
#
#
# Indices 1 2 3 4 5 6 
#
# 1 77.8969 8.0767 27.2647 0.0000 24.5213 0.0000
# 2 8.0767 50.8028 25.9042 0.0000 4.4464 0.0000
# 3 27.2647 25.9042 41.2152 0.0000 18.9682 0.0000
# 4 0.0000 0.0000 0.0000 14.9667 0.0000 1.9333
# 5 24.5213 4.4464 18.9682 0.0000 35.3529 0.0000
# 6 0.0000 0.0000 0.0000 1.9333 0.0000 33.2661
#
#
#
# Elastic Compliance Matrix: (Units=1/GPa)
#
#
# Indices 1 2 3 4 5 6 
#
# 1 0.018700 0.003286 -0.010990 0.000000 -0.007488 0.000000
# 2 0.003286 0.031420 -0.025302 0.000000 0.007344 0.000000
# 3 -0.010990 -0.025302 0.056386 0.000000 -0.019448 0.000000
# 4 0.000000 0.000000 0.000000 0.067321 0.000000 -0.003912
# 5 -0.007488 0.007344 -0.019448 0.000000 0.042991 0.000000
# 6 0.000000 0.000000 0.000000 -0.003912 0.000000 0.030288
#
#
# Mechanical properties :
#
#
# Convention : Reuss Voigt Hill
#
# Bulk Modulus (GPa) = 24.69440 32.48956 28.59198
# Shear Modulus (GPa) = 15.30853 23.96175 19.63514
#
# Velocity S-wave (km/s) = 2.89759 3.62517 3.28161
# Velocity P-wave (km/s) = 4.97377 5.94487 5.48087
#
# Compressibility (1/GPa) = 0.04049501
#
# Stress axis : x y z
#
# Youngs Moduli (GPa) = 53.47466 31.82688 17.73492
#
# Poissons Ratio (x) = -0.10459 0.19491
# Poissons Ratio (y) = -0.17573 0.44872
# Poissons Ratio (z) = 0.58770 0.80527
#
# Static dielectric constant tensor:
#      x y z
#    x 1.652290 0.000000 -0.010450 
#    y 0.000000 1.610350 0.000000 
#    z -0.010450 0.000000 1.623890 
# 
# From -- ./inp_files/281741.got.cif
#   From: 2010.05.17/outbox.cif.g08.bks.cpg/sg12_141_cif.got.tgz:281741.got - 2010.06.03 13:09:07.
