data_PCOD9198996
_publ_section_title
;
Structure prediction by ZEFSAII (Michael W. Deem and Ramdas Pophale) SiO2 
 PCOD9198996
Probable space group: C 2/M
;
_chemical_formula_sum "Si O2"
_cell_formula_units_Z 56
_cell_length_a 12.390194
_cell_length_b 15.284944
_cell_length_c 20.158441
_cell_angle_alpha 90.000000
_cell_angle_beta 37.115458
_cell_angle_gamma 90.000000
_cell_volume 2303.673183
_symmetry_space_group_name_H-M "C 2/M"
_symmetry_group_IT_number 12
_symmetry_cell_setting 'monoclinic'
loop_
_space_group_symop_operation_xyz
x,y,z
-x,y,-z
-x,-y,-z
x,-y,z
1/2+x,1/2+y,z
1/2-x,1/2+y,-z
1/2-x,1/2-y,-z
1/2+x,1/2-y,z
loop_
_atom_site_type_symbol
_atom_site_label
_atom_site_fract_x
_atom_site_fract_y
_atom_site_fract_z
Si Si1 0.608148 0.141962 0.883106
Si Si2 0.199775 0.600230 0.055207
Si Si3 0.038795 0.817778 0.844087
Si Si4 0.461399 0.602632 0.661641
Si Si5 0.687461 0.099892 0.209797
Si Si6 0.817630 0.229337 0.616253
Si Si7 0.182717 0.605570 0.564439
O O1 0.502965 0.100306 0.872135
O O2 0.579081 0.242994 0.879384
O O3 0.815142 0.117688 0.789817
O O4 0.500000 0.114768 0.000000
O O5 0.262424 0.500000 0.024034
O O6 0.202858 0.639055 0.128448
O O7 0.331027 0.658046 0.944883
O O8 0.138485 0.897269 0.830921
O O9 0.152237 0.786940 0.724644
O O10 0.448223 0.500000 0.649483
O O11 0.384347 0.667086 0.643475
O O12 0.672361 0.623738 0.564564
O O13 0.524216 0.133427 0.335730
O O14 0.643406 0.000000 0.215502
O O15 0.752924 0.161054 0.592217
O O16 0.000000 0.274856 0.500000
O O17 0.190990 0.500000 0.569723
#
# Coordination Sequence:
#
# PCOD9198996 Si02
#       7
#     8   8   8   8   8   8   8
#     4  11  23  37  56  85 118 147 177 224 283 341
#     4  11  23  39  59  81 108 147 191 232 273 321
#     4  11  22  37  57  82 113 148 188 228 274 327
#     4   9  17  31  52  79 110 144 182 223 271 327
#     4  10  20  36  59  84 109 142 189 237 271 312
#     4   9  18  33  53  80 111 144 181 228 281 330
#     4   9  17  32  57  84 108 139 182 231 278 322
#
# _framework density 24.309003000000001
#
# number of rings (size 3 to 8) (size 9 to 14) (size 15 to 20)
#    0.000    2.000    0.000    4.714    0.000    6.286 
#    0.000    7.857    0.000    3.429    0.000    0.000 
#    0.000    0.000    0.000    0.000    0.000    0.000 
#
# Total GULP energy -156186.349546 kJ/mol
# GULP energy per Si atom -5578.083912 kJ/mol
# Density = 2.425367 g / cm^3
# Si number density = 24.309003 Si / 1000 Ang^3
#
#
#
# Elastic Constant Matrix: (Units=GPa)
#
#
# Indices 1 2 3 4 5 6 
#
# 1 34.9889 1.0942 21.0930 0.0001 -0.4182 0.0000
# 2 1.0942 59.7877 34.9186 -0.0003 -0.1651 0.0001
# 3 21.0930 34.9186 180.7078 -0.0009 -5.3799 0.0002
# 4 0.0001 -0.0003 -0.0009 -6.7088 0.0002 -2.1852
# 5 -0.4182 -0.1651 -5.3799 0.0002 36.2453 0.0000
# 6 0.0000 0.0001 0.0002 -2.1852 0.0000 12.6429
#
#
#
# Elastic Compliance Matrix: (Units=1/GPa)
#
#
# Indices 1 2 3 4 5 6 
#
# 1 0.030905 0.001741 -0.003950 0.000001 -0.000222 0.000000
# 2 0.001741 0.018959 -0.003881 0.000000 -0.000470 0.000000
# 3 -0.003950 -0.003881 0.006773 -0.000001 0.000942 0.000000
# 4 0.000001 0.000000 -0.000001 -0.141114 0.000001 -0.024390
# 5 -0.000222 -0.000470 0.000942 0.000001 0.027725 0.000000
# 6 0.000000 0.000000 0.000000 -0.024390 0.000000 0.074880
#
#
# Mechanical properties :
#
#
# Convention : Reuss Voigt Hill
#
# Bulk Modulus (GPa) = 22.49384 43.29957 32.89671
# Shear Modulus (GPa) = 110.79791 22.99447 66.89619
#
# Velocity S-wave (km/s) = 6.75854 3.07892 5.25156
# Velocity P-wave (km/s) = 8.37719 5.52182 7.09464
#
# Compressibility (1/GPa) = 0.04445661
#
# Stress axis : x y z
#
# Youngs Moduli (GPa) = 32.35736 52.74486 147.64886
#
# Poissons Ratio (x) = -0.09183 0.58327
# Poissons Ratio (y) = -0.05633 0.57298
# Poissons Ratio (z) = 0.12782 0.20469
#
# Static dielectric constant tensor:
#      x y z
#    x 1.882750 0.000000 0.012330 
#    y 0.000000 2.008460 0.000000 
#    z 0.012330 0.000000 2.059900 
# 
# From -- ./inp_files/216435.got.cif
#   From: 2010.05.17/outbox.cif.g08.bks.cpg/sg12_109_cif.got.tgz:216435.got - 2010.06.03 13:09:07.
