data_PCOD9198077
_publ_section_title
;
Structure prediction by ZEFSAII (Michael W. Deem and Ramdas Pophale) SiO2 
 PCOD9198077
Probable space group: C 2/M
;
_chemical_formula_sum "Si O2"
_cell_formula_units_Z 52
_cell_length_a 5.669049
_cell_length_b 29.135425
_cell_length_c 16.003536
_cell_angle_alpha 90.000000
_cell_angle_beta 82.960560
_cell_angle_gamma 90.000000
_cell_volume 2623.381300
_symmetry_space_group_name_H-M "C 2/M"
_symmetry_group_IT_number 12
_symmetry_cell_setting 'monoclinic'
loop_
_space_group_symop_operation_xyz
x,y,z
-x,y,-z
-x,-y,-z
x,-y,z
1/2+x,1/2+y,z
1/2-x,1/2+y,-z
1/2-x,1/2-y,-z
1/2+x,1/2-y,z
loop_
_atom_site_type_symbol
_atom_site_label
_atom_site_fract_x
_atom_site_fract_y
_atom_site_fract_z
Si Si1 0.407151 0.051573 0.908634
Si Si2 0.572429 0.353000 0.333651
Si Si3 0.050665 0.347715 0.399949
Si Si4 0.223328 0.633975 0.852750
Si Si5 0.000000 0.109229 0.000000
Si Si6 0.038676 0.274660 0.899894
Si Si7 0.100939 0.749664 0.305690
O O1 0.587566 0.085513 0.854411
O O2 0.157865 0.077004 0.932910
O O3 0.388793 0.000000 0.875700
O O4 0.500000 0.048467 0.000000
O O5 0.819052 0.369966 0.364904
O O6 0.601702 0.359287 0.232761
O O7 0.578514 0.298215 0.353907
O O8 0.311548 0.369727 0.372266
O O9 0.074982 0.295822 0.362257
O O10 0.000000 0.346084 0.500000
O O11 0.344664 0.636840 0.939309
O O12 0.035762 0.675405 0.856154
O O13 0.307620 0.254816 0.885285
O O14 0.000000 0.283083 0.000000
O O15 0.867115 0.750294 0.259258
#
# Coordination Sequence:
#
# PCOD9198077 Si02
#       7
#     8   8   8   8   4   8   8
#     4   9  19  37  61  89 116 149 197 251 315 376
#     4  10  22  33  52  80 112 145 187 238 290 350
#     4  10  20  36  56  78 108 150 197 245 301 355
#     4  11  24  37  58  83 123 159 204 252 307 355
#     4  10  21  36  62  84 118 164 198 248 311 362
#     4  10  23  37  55  75 108 158 216 251 281 330
#     4   8  16  29  46  70  99 138 184 233 282 333
#
# _framework density 19.821746000000001
#
# number of rings (size 3 to 8) (size 9 to 14) (size 15 to 20)
#    0.000    2.308    0.000    2.077    7.538    9.846 
#    0.000    0.000    0.000    0.000    0.000    0.000 
#    0.000    3.692    0.000    0.000    0.000    0.000 
#
# Total GULP energy -144880.831412 kJ/mol
# GULP energy per Si atom -5572.339670 kJ/mol
# Density = 1.977663 g / cm^3
# Si number density = 19.821746 Si / 1000 Ang^3
#
#
#
# Elastic Constant Matrix: (Units=GPa)
#
#
# Indices 1 2 3 4 5 6 
#
# 1 171.2093 23.7563 48.0452 0.0000 -21.2178 0.0000
# 2 23.7563 67.5946 18.0522 0.0000 -6.1236 0.0000
# 3 48.0452 18.0522 91.5566 0.0000 -14.7674 0.0000
# 4 0.0000 0.0000 0.0000 8.8816 0.0000 -0.3807
# 5 -21.2178 -6.1236 -14.7674 0.0000 31.8862 0.0000
# 6 0.0000 0.0000 0.0000 -0.3807 0.0000 3.5653
#
#
#
# Elastic Compliance Matrix: (Units=1/GPa)
#
#
# Indices 1 2 3 4 5 6 
#
# 1 0.007285 -0.001466 -0.003023 0.000000 0.003166 0.000000
# 2 -0.001466 0.015997 -0.002212 0.000000 0.001072 0.000000
# 3 -0.003023 -0.002212 0.013565 0.000000 0.003846 0.000000
# 4 0.000000 0.000000 0.000000 0.113110 0.000000 0.012078
# 5 0.003166 0.001072 0.003846 0.000000 0.035455 0.000000
# 6 0.000000 0.000000 0.000000 0.012078 0.000000 0.281772
#
#
# Mechanical properties :
#
#
# Convention : Reuss Voigt Hill
#
# Bulk Modulus (GPa) = 42.65307 56.67420 49.66364
# Shear Modulus (GPa) = 10.23748 24.90042 17.56895
#
# Velocity S-wave (km/s) = 2.27508 3.54816 2.98039
# Velocity P-wave (km/s) = 5.33539 6.74091 6.07891
#
# Compressibility (1/GPa) = 0.02344497
#
# Stress axis : x y z
#
# Youngs Moduli (GPa) = 137.26943 62.51094 73.71882
#
# Poissons Ratio (x) = 0.09165 0.22286
# Poissons Ratio (y) = 0.20125 0.16306
# Poissons Ratio (z) = 0.41498 0.13827
#
# Static dielectric constant tensor:
#      x y z
#    x 1.796810 0.000000 0.000420 
#    y 0.000000 1.679310 0.000000 
#    z 0.000420 0.000000 1.713390 
# 
# From -- ./inp_files/253463.got.cif
#   From: 2010.05.17/outbox.cif.g08.bks.cpg/sg12_127_cif.got.tgz:253463.got - 2010.06.03 13:09:07.
