data_PCOD9198327
_publ_section_title
;
Structure prediction by ZEFSAII (Michael W. Deem and Ramdas Pophale) SiO2 
 PCOD9198327
Probable space group: C 2/M
;
_chemical_formula_sum "Si O2"
_cell_formula_units_Z 64
_cell_length_a 14.416928
_cell_length_b 9.162394
_cell_length_c 30.534418
_cell_angle_alpha 90.000000
_cell_angle_beta 130.895158
_cell_angle_gamma 90.000000
_cell_volume 3048.882864
_symmetry_space_group_name_H-M "C 2/M"
_symmetry_group_IT_number 12
_symmetry_cell_setting 'monoclinic'
loop_
_space_group_symop_operation_xyz
x,y,z
-x,y,-z
-x,-y,-z
x,-y,z
1/2+x,1/2+y,z
1/2-x,1/2+y,-z
1/2-x,1/2-y,-z
1/2+x,1/2-y,z
loop_
_atom_site_type_symbol
_atom_site_label
_atom_site_fract_x
_atom_site_fract_y
_atom_site_fract_z
Si Si1 0.320888 0.832135 0.964308
Si Si2 0.437278 0.829709 0.550198
Si Si3 0.067121 0.825383 0.666662
Si Si4 0.939833 0.170042 0.081215
Si Si5 0.077936 0.325397 0.763513
Si Si6 0.313566 0.173710 0.689646
Si Si7 0.326739 0.169165 0.864944
Si Si8 0.306191 0.168632 0.425317
O O1 0.173908 0.809206 0.921050
O O2 0.362099 0.819745 0.927200
O O3 0.343836 0.000000 0.986318
O O4 0.383056 0.722513 0.017248
O O5 0.465410 0.730889 0.600721
O O6 0.564868 0.828987 0.561715
O O7 0.336585 0.777263 0.483677
O O8 0.413741 0.000000 0.554441
O O9 0.061734 0.737058 0.709698
O O10 0.200889 0.791102 0.686773
O O11 0.057976 0.000000 0.670175
O O12 0.061264 0.262417 0.127298
O O13 0.971383 0.000000 0.089252
O O14 0.090389 0.500000 0.767291
O O15 0.200343 0.253562 0.819695
O O16 0.949586 0.284794 0.747516
O O17 0.285118 0.244271 0.633755
O O18 0.312287 0.000000 0.683548
O O19 0.309491 0.000000 0.848490
O O20 0.267897 0.000000 0.416774
#
# Coordination Sequence:
#
# PCOD9198327 Si02
#       8
#     8   8   8   8   8   8   8   8
#     4   9  20  38  59  86 120 153 184 221 269 322
#     4   8  14  27  48  77 108 138 172 215 269 328
#     4  10  20  36  57  81 107 139 179 225 276 327
#     4  10  20  36  60  90 120 150 185 223 267 320
#     4  11  24  41  57  77 107 144 186 229 272 324
#     4   9  20  37  56  78 107 140 177 225 278 326
#     4  11  23  39  58  81 112 149 187 229 273 318
#     4   8  14  26  49  78 106 136 174 217 267 328
#
# _framework density 20.991295000000001
#
# number of rings (size 3 to 8) (size 9 to 14) (size 15 to 20)
#    0.000    2.500    0.000    2.625    0.000    6.000 
#    0.000    5.625    0.000    0.000    0.000    0.000 
#    0.000    0.000    0.000    0.000    0.000    0.000 
#
# Total GULP energy -178719.284138 kJ/mol
# GULP energy per Si atom -5584.977629 kJ/mol
# Density = 2.094352 g / cm^3
# Si number density = 20.991295 Si / 1000 Ang^3
#
#
#
# Elastic Constant Matrix: (Units=GPa)
#
#
# Indices 1 2 3 4 5 6 
#
# 1 69.5822 30.5597 10.1707 0.0000 21.0813 0.0000
# 2 30.5597 48.0062 4.8297 0.0000 9.3142 0.0000
# 3 10.1707 4.8297 25.0531 0.0000 15.8204 0.0000
# 4 0.0000 0.0000 0.0000 36.3966 0.0000 3.5816
# 5 21.0813 9.3142 15.8204 0.0000 31.4794 0.0000
# 6 0.0000 0.0000 0.0000 3.5816 0.0000 15.6008
#
#
#
# Elastic Compliance Matrix: (Units=1/GPa)
#
#
# Indices 1 2 3 4 5 6 
#
# 1 0.023598 -0.012686 0.000695 0.000000 -0.012399 0.000000
# 2 -0.012686 0.028920 -0.000566 0.000000 0.000223 0.000000
# 3 0.000695 -0.000566 0.058494 0.000000 -0.029695 0.000000
# 4 0.000000 0.000000 0.000000 0.028110 0.000000 -0.006454
# 5 -0.012399 0.000223 -0.029695 0.000000 0.054928 0.000000
# 6 0.000000 0.000000 0.000000 -0.006454 0.000000 0.065581
#
#
# Mechanical properties :
#
#
# Convention : Reuss Voigt Hill
#
# Bulk Modulus (GPa) = 11.64172 25.97353 18.80763
# Shear Modulus (GPa) = 15.95522 23.16746 19.56134
#
# Velocity S-wave (km/s) = 2.75996 3.32576 3.05598
# Velocity P-wave (km/s) = 3.96415 5.21036 4.62938
#
# Compressibility (1/GPa) = 0.08589793
#
# Stress axis : x y z
#
# Youngs Moduli (GPa) = 42.37645 34.57807 17.09585
#
# Poissons Ratio (x) = 0.43867 -0.01189
# Poissons Ratio (y) = 0.53760 0.00968
# Poissons Ratio (z) = -0.02947 0.01957
#
# Static dielectric constant tensor:
#      x y z
#    x 1.816410 0.000000 0.027990 
#    y 0.000000 1.699510 0.000000 
#    z 0.027990 0.000000 1.748160 
# 
# From -- ./inp_files/375690.got.cif
#   From: 2010.05.17/outbox.cif.g08.bks.cpg/sg12_188_cif.got.tgz:375690.got - 2010.06.03 13:09:07.
