data_PCOD9198790
_publ_section_title
;
Structure prediction by ZEFSAII (Michael W. Deem and Ramdas Pophale) SiO2 
 PCOD9198790
Probable space group: C 2/M
;
_chemical_formula_sum "Si O2"
_cell_formula_units_Z 60
_cell_length_a 24.435417
_cell_length_b 14.753532
_cell_length_c 15.218843
_cell_angle_alpha 90.000000
_cell_angle_beta 33.047161
_cell_angle_gamma 90.000000
_cell_volume 2991.962360
_symmetry_space_group_name_H-M "C 2/M"
_symmetry_group_IT_number 12
_symmetry_cell_setting 'monoclinic'
loop_
_space_group_symop_operation_xyz
x,y,z
-x,y,-z
-x,-y,-z
x,-y,z
1/2+x,1/2+y,z
1/2-x,1/2+y,-z
1/2-x,1/2-y,-z
1/2+x,1/2-y,z
loop_
_atom_site_type_symbol
_atom_site_label
_atom_site_fract_x
_atom_site_fract_y
_atom_site_fract_z
Si Si1 0.810436 0.202844 0.099272
Si Si2 0.500000 0.793558 0.500000
Si Si3 0.592031 0.896060 0.667750
Si Si4 0.703314 0.607138 0.505170
Si Si5 0.350312 0.760277 0.557987
Si Si6 0.364293 0.099534 0.998727
Si Si7 0.989924 0.108133 0.116787
Si Si8 0.167972 0.603702 0.167277
O O1 0.739193 0.180115 0.277937
O O2 0.758246 0.165624 0.081642
O O3 0.811214 0.311345 0.104008
O O4 0.921056 0.162731 0.956559
O O5 0.427080 0.738436 0.533622
O O6 0.429666 0.856686 0.654026
O O7 0.686208 0.876865 0.603807
O O8 0.595503 0.825397 0.584412
O O9 0.482897 0.891672 0.858747
O O10 0.603233 0.000000 0.620430
O O11 0.694949 0.500000 0.495164
O O12 0.684768 0.672831 0.448421
O O13 0.617789 0.627732 0.694022
O O14 0.349091 0.103544 0.913804
O O15 0.330173 0.000000 0.075418
O O16 0.007052 0.000000 0.103163
O O17 0.000000 0.129874 0.000000
O O18 0.186466 0.500000 0.170021
#
# Coordination Sequence:
#
# PCOD9198790 Si02
#       8
#     8   4   8   8   8   8   8   8
#     4  11  23  35  56  85 118 154 192 235 288 356
#     4  10  21  34  57  90 118 154 195 248 289 344
#     4  10  20  37  63  89 111 148 198 249 299 345
#     4  10  22  40  62  85 117 158 200 243 289 347
#     4  11  22  37  58  86 119 156 196 240 295 343
#     4  10  21  38  58  82 115 155 194 241 292 341
#     4  10  21  38  59  87 119 150 189 242 300 357
#     4  10  20  36  58  85 116 149 190 242 299 346
#
# _framework density 20.053728
#
# number of rings (size 3 to 8) (size 9 to 14) (size 15 to 20)
#    0.000    1.733    1.333    3.000    0.000    5.333 
#    0.000    0.333    0.000    2.800    0.000    0.000 
#    0.000    0.000    0.000    0.000    0.000    0.000 
#
# Total GULP energy -167507.885430 kJ/mol
# GULP energy per Si atom -5583.596181 kJ/mol
# Density = 2.000808 g / cm^3
# Si number density = 20.053728 Si / 1000 Ang^3
#
#
#
# Elastic Constant Matrix: (Units=GPa)
#
#
# Indices 1 2 3 4 5 6 
#
# 1 87.8110 38.8105 23.2046 0.0000 -20.7034 0.0000
# 2 38.8105 52.5798 18.0845 0.0000 -15.8772 0.0000
# 3 23.2046 18.0845 34.8759 0.0000 -14.4490 0.0000
# 4 0.0000 0.0000 0.0000 23.6929 0.0000 -3.1808
# 5 -20.7034 -15.8772 -14.4490 0.0000 29.4946 0.0000
# 6 0.0000 0.0000 0.0000 -3.1808 0.0000 32.8583
#
#
#
# Elastic Compliance Matrix: (Units=1/GPa)
#
#
# Indices 1 2 3 4 5 6 
#
# 1 0.018455 -0.010474 -0.004789 0.000000 0.004970 0.000000
# 2 -0.010474 0.030813 -0.006503 0.000000 0.006049 0.000000
# 3 -0.004789 -0.006503 0.040636 0.000000 0.013045 0.000000
# 4 0.000000 0.000000 0.000000 0.042763 0.000000 0.004140
# 5 0.004970 0.006049 0.013045 0.000000 0.047040 0.000000
# 6 0.000000 0.000000 0.000000 0.004140 0.000000 0.030834
#
#
# Mechanical properties :
#
#
# Convention : Reuss Voigt Hill
#
# Bulk Modulus (GPa) = 21.56440 37.27399 29.41919
# Shear Modulus (GPa) = 18.55092 23.55362 21.05227
#
# Velocity S-wave (km/s) = 3.04478 3.43085 3.24357
# Velocity P-wave (km/s) = 4.81015 5.85848 5.36001
#
# Compressibility (1/GPa) = 0.04637273
#
# Stress axis : x y z
#
# Youngs Moduli (GPa) = 54.18710 32.45369 24.60902
#
# Poissons Ratio (x) = 0.33992 0.11784
# Poissons Ratio (y) = 0.56756 0.16002
# Poissons Ratio (z) = 0.25948 0.21103
#
# Static dielectric constant tensor:
#      x y z
#    x 1.698300 0.000000 -0.011790 
#    y 0.000000 1.707860 0.000000 
#    z -0.011790 0.000000 1.707710 
# 
# From -- ./inp_files/293490.got.cif
#   From: 2010.05.17/outbox.cif.g08.bks.cpg/sg12_147_cif.got.tgz:293490.got - 2010.06.03 13:09:07.
