data_PCOD9198579
_publ_section_title
;
Structure prediction by ZEFSAII (Michael W. Deem and Ramdas Pophale) SiO2 
 PCOD9198579
Probable space group: C 2/M
;
_chemical_formula_sum "Si O2"
_cell_formula_units_Z 64
_cell_length_a 29.192645
_cell_length_b 8.773742
_cell_length_c 14.674089
_cell_angle_alpha 90.000000
_cell_angle_beta 72.740202
_cell_angle_gamma 90.000000
_cell_volume 3589.209660
_symmetry_space_group_name_H-M "C 2/M"
_symmetry_group_IT_number 12
_symmetry_cell_setting 'monoclinic'
loop_
_space_group_symop_operation_xyz
x,y,z
-x,y,-z
-x,-y,-z
x,-y,z
1/2+x,1/2+y,z
1/2-x,1/2+y,-z
1/2-x,1/2-y,-z
1/2+x,1/2-y,z
loop_
_atom_site_type_symbol
_atom_site_label
_atom_site_fract_x
_atom_site_fract_y
_atom_site_fract_z
Si Si1 0.701492 0.682521 0.920106
Si Si2 0.342553 0.323307 0.559034
Si Si3 0.598390 0.183672 0.638043
Si Si4 0.101584 0.177115 0.290875
Si Si5 0.502303 0.816495 0.392376
Si Si6 0.159156 0.681606 0.768976
Si Si7 0.746110 0.319466 0.603361
Si Si8 0.810382 0.682329 0.872528
O O1 0.699637 0.500000 0.928802
O O2 0.666355 0.738757 0.861571
O O3 0.757286 0.725223 0.865772
O O4 0.689247 0.757161 0.024106
O O5 0.327439 0.500000 0.560457
O O6 0.364306 0.264361 0.451806
O O7 0.382530 0.311773 0.612940
O O8 0.297820 0.220207 0.614526
O O9 0.545559 0.227318 0.634721
O O10 0.613163 0.220260 0.733085
O O11 0.603541 0.000000 0.624092
O O12 0.050057 0.255742 0.316090
O O13 0.144769 0.249945 0.208083
O O14 0.097745 0.000000 0.268629
O O15 0.500000 0.764608 0.500000
O O16 0.504283 0.000000 0.393154
O O17 0.160418 0.500000 0.780455
O O18 0.204512 0.735799 0.682541
O O19 0.737881 0.500000 0.606569
O O20 0.750000 0.250000 0.500000
O O21 0.813373 0.500000 0.869803
#
# Coordination Sequence:
#
# PCOD9198579 Si02
#       8
#     8   8   8   8   8   8   8   8
#     4  10  21  38  61  88 117 149 185 230 281 338
#     4  11  22  34  51  76 109 148 187 227 275 333
#     4  10  21  36  54  77 108 148 191 233 276 329
#     4  11  23  36  55  84 115 147 186 237 290 339
#     4  10  20  36  58  81 108 149 196 239 286 339
#     4  11  22  36  55  80 112 151 190 229 277 336
#     4  12  23  34  49  73 107 146 187 227 272 326
#     4  10  21  38  61  87 114 148 187 232 282 338
#
# _framework density 17.831223999999999
#
# number of rings (size 3 to 8) (size 9 to 14) (size 15 to 20)
#    0.000    1.375    2.500    3.750    0.000    6.250 
#    0.000    0.000    0.000    0.750    0.000    5.250 
#    0.000    0.000    0.000    0.000    0.000    0.000 
#
# Total GULP energy -178731.460032 kJ/mol
# GULP energy per Si atom -5585.358126 kJ/mol
# Density = 1.779064 g / cm^3
# Si number density = 17.831224 Si / 1000 Ang^3
#
#
#
# Elastic Constant Matrix: (Units=GPa)
#
#
# Indices 1 2 3 4 5 6 
#
# 1 112.5683 27.4301 37.1051 0.0000 6.1458 0.0000
# 2 27.4301 31.0195 17.8225 0.0000 1.9139 0.0000
# 3 37.1051 17.8225 70.2310 0.0000 5.3104 0.0000
# 4 0.0000 0.0000 0.0000 31.1219 0.0000 -0.6599
# 5 6.1458 1.9139 5.3104 0.0000 28.0465 0.0000
# 6 0.0000 0.0000 0.0000 -0.6599 0.0000 25.5205
#
#
#
# Elastic Compliance Matrix: (Units=1/GPa)
#
#
# Indices 1 2 3 4 5 6 
#
# 1 0.012438 -0.008427 -0.004332 0.000000 -0.001330 0.000000
# 2 -0.008427 0.043467 -0.006588 0.000000 0.000128 0.000000
# 3 -0.004332 -0.006588 0.018356 0.000000 -0.002077 0.000000
# 4 0.000000 0.000000 0.000000 0.032149 0.000000 0.000831
# 5 -0.001330 0.000128 -0.002077 0.000000 0.036331 0.000000
# 6 0.000000 0.000000 0.000000 0.000831 0.000000 0.039206
#
#
# Mechanical properties :
#
#
# Convention : Reuss Voigt Hill
#
# Bulk Modulus (GPa) = 28.11628 42.05936 35.08782
# Shear Modulus (GPa) = 21.50567 25.70186 23.60377
#
# Velocity S-wave (km/s) = 3.47662 3.80069 3.64226
# Velocity P-wave (km/s) = 5.64961 6.54973 6.11625
#
# Compressibility (1/GPa) = 0.03556659
#
# Stress axis : x y z
#
# Youngs Moduli (GPa) = 80.40172 23.00589 54.47728
#
# Poissons Ratio (x) = 0.19388 0.23599
# Poissons Ratio (y) = 0.67757 0.35889
# Poissons Ratio (z) = 0.34830 0.15156
#
# Static dielectric constant tensor:
#      x y z
#    x 1.641970 0.000000 0.035070 
#    y 0.000000 1.596410 0.000000 
#    z 0.035070 0.000000 1.598300 
# 
# From -- ./inp_files/243771.got.cif
#   From: 2010.05.17/outbox.cif.g08.bks.cpg/sg12_122_cif.got.tgz:243771.got - 2010.06.03 13:09:07.
