data_PCOD9198650
_publ_section_title
;
Structure prediction by ZEFSAII (Michael W. Deem and Ramdas Pophale) SiO2 
 PCOD9198650
Probable space group: C 2/M
;
_chemical_formula_sum "Si O2"
_cell_formula_units_Z 64
_cell_length_a 11.059119
_cell_length_b 17.902563
_cell_length_c 20.912329
_cell_angle_alpha 90.000000
_cell_angle_beta 46.554923
_cell_angle_gamma 90.000000
_cell_volume 3006.041939
_symmetry_space_group_name_H-M "C 2/M"
_symmetry_group_IT_number 12
_symmetry_cell_setting 'monoclinic'
loop_
_space_group_symop_operation_xyz
x,y,z
-x,y,-z
-x,-y,-z
x,-y,z
1/2+x,1/2+y,z
1/2-x,1/2+y,-z
1/2-x,1/2-y,-z
1/2+x,1/2-y,z
loop_
_atom_site_type_symbol
_atom_site_label
_atom_site_fract_x
_atom_site_fract_y
_atom_site_fract_z
Si Si1 0.212180 0.299375 0.077630
Si Si2 0.753055 0.414735 0.756727
Si Si3 0.876192 0.265071 0.397944
Si Si4 0.386532 0.918389 0.329564
Si Si5 0.860104 0.310850 0.607803
Si Si6 0.805393 0.649977 0.091163
Si Si7 0.091607 0.413537 0.818886
Si Si8 0.919680 0.912050 0.939422
O O1 0.230832 0.234190 0.123071
O O2 0.041625 0.345563 0.136039
O O3 0.250000 0.250000 0.000000
O O4 0.346856 0.365076 0.024575
O O5 0.706123 0.500000 0.762614
O O6 0.812971 0.381809 0.667720
O O7 0.592640 0.379832 0.848551
O O8 0.911328 0.413246 0.746483
O O9 0.750000 0.250000 0.500000
O O10 0.842172 0.350137 0.389665
O O11 0.810322 0.217788 0.362143
O O12 0.055517 0.259026 0.367217
O O13 0.320513 0.912213 0.281922
O O14 0.345423 0.000000 0.371059
O O15 0.000000 0.320645 0.500000
O O16 0.711342 0.603057 0.070638
O O17 0.798324 0.605968 0.160063
O O18 0.000000 0.656557 0.000000
O O19 0.025116 0.500000 0.849771
O O20 0.930844 0.000000 0.949971
#
# Coordination Sequence:
#
# PCOD9198650 Si02
#       8
#     8   8   8   8   8   8   8   8
#     4  10  21  36  51  84 113 149 199 259 309 352
#     4   9  19  37  57  84 118 150 191 245 303 358
#     4   9  18  36  61  89 119 153 194 238 298 366
#     4   9  20  39  60  86 117 156 200 247 298 364
#     4   9  18  35  60  88 119 155 195 239 295 372
#     4  11  22  38  58  84 117 156 210 264 310 369
#     4  11  22  40  63  85 114 162 214 252 305 377
#     4  10  20  36  58  82 114 156 203 259 310 362
#
# _framework density 21.290455999999999
#
# number of rings (size 3 to 8) (size 9 to 14) (size 15 to 20)
#    0.000    2.250    2.500    0.750    0.000    3.750 
#    6.750    1.875    0.000    7.125    0.000    0.000 
#    0.000    0.000    0.000    0.000    0.000    0.000 
#
# Total GULP energy -178323.975884 kJ/mol
# GULP energy per Si atom -5572.624246 kJ/mol
# Density = 2.124200 g / cm^3
# Si number density = 21.290456 Si / 1000 Ang^3
#
#
#
# Elastic Constant Matrix: (Units=GPa)
#
#
# Indices 1 2 3 4 5 6 
#
# 1 84.9260 8.9710 15.8337 -0.0001 28.4276 0.0007
# 2 8.9710 88.7616 25.3362 -0.0001 11.4130 0.0006
# 3 15.8337 25.3362 43.0800 -0.0017 11.2865 0.0072
# 4 -0.0001 -0.0001 -0.0017 24.8856 0.0009 25.6874
# 5 28.4276 11.4130 11.2865 0.0009 28.0341 -0.0040
# 6 0.0007 0.0006 0.0072 25.6874 -0.0040 -113.0581
#
#
#
# Elastic Compliance Matrix: (Units=1/GPa)
#
#
# Indices 1 2 3 4 5 6 
#
# 1 0.018096 0.001231 -0.002724 0.000000 -0.017754 0.000001
# 2 0.001231 0.013792 -0.007563 0.000000 -0.003818 0.000000
# 3 -0.002724 -0.007563 0.030331 0.000000 -0.006370 0.000002
# 4 0.000000 0.000000 0.000000 0.032550 0.000000 0.007396
# 5 -0.017754 -0.003818 -0.006370 0.000000 0.057794 -0.000003
# 6 0.000001 0.000000 0.000002 0.007396 -0.000003 -0.007165
#
#
# Mechanical properties :
#
#
# Convention : Reuss Voigt Hill
#
# Bulk Modulus (GPa) = 22.67221 35.22774 28.94997
# Shear Modulus (GPa) = 28.05671 -0.91925 13.56873
#
# Velocity S-wave (km/s) = 3.63410 -0.65780 2.52725
# Velocity P-wave (km/s) = 5.31799 4.00066 4.70565
#
# Compressibility (1/GPa) = 0.04410686
#
# Stress axis : x y z
#
# Youngs Moduli (GPa) = 55.26170 72.50829 32.96983
#
# Poissons Ratio (x) = -0.08929 0.08980
# Poissons Ratio (y) = -0.06805 0.24936
# Poissons Ratio (z) = 0.15052 0.54840
#
# Static dielectric constant tensor:
#      x y z
#    x 1.851130 0.000000 0.016970 
#    y 0.000000 1.785460 0.000000 
#    z 0.016970 0.000000 1.742490 
# 
# From -- ./inp_files/306180.got.cif
#   From: 2010.05.17/outbox.cif.g08.bks.cpg/sg12_154_cif.got.tgz:306180.got - 2010.06.03 13:09:07.
