data_PCOD9198280
_publ_section_title
;
Structure prediction by ZEFSAII (Michael W. Deem and Ramdas Pophale) SiO2 
 PCOD9198280
Probable space group: C 2/M
;
_chemical_formula_sum "Si O2"
_cell_formula_units_Z 56
_cell_length_a 16.608818
_cell_length_b 7.526125
_cell_length_c 20.390220
_cell_angle_alpha 90.000000
_cell_angle_beta 101.640933
_cell_angle_gamma 90.000000
_cell_volume 2496.353385
_symmetry_space_group_name_H-M "C 2/M"
_symmetry_group_IT_number 12
_symmetry_cell_setting 'monoclinic'
loop_
_space_group_symop_operation_xyz
x,y,z
-x,y,-z
-x,-y,-z
x,-y,z
1/2+x,1/2+y,z
1/2-x,1/2+y,-z
1/2-x,1/2-y,-z
1/2+x,1/2-y,z
loop_
_atom_site_type_symbol
_atom_site_label
_atom_site_fract_x
_atom_site_fract_y
_atom_site_fract_z
Si Si1 0.987321 0.214391 0.423259
Si Si2 0.191634 0.206311 0.648037
Si Si3 0.132980 0.711663 0.346326
Si Si4 0.163973 0.285417 0.788814
Si Si5 0.019900 0.717751 0.212565
Si Si6 0.542658 0.203154 0.070314
Si Si7 0.773792 0.788143 0.929031
O O1 0.898710 0.282646 0.382790
O O2 0.000000 0.273105 0.500000
O O3 0.065384 0.263014 0.391563
O O4 0.984979 0.000000 0.421810
O O5 0.274527 0.283112 0.629125
O O6 0.203944 0.217380 0.728522
O O7 0.186356 0.000000 0.627328
O O8 0.142563 0.500000 0.339723
O O9 0.091206 0.780752 0.272589
O O10 0.166264 0.500000 0.787076
O O11 0.208278 0.229334 0.863324
O O12 0.068868 0.230082 0.774529
O O13 0.022979 0.500000 0.212328
O O14 0.027554 0.781640 0.139332
O O15 0.639110 0.202829 0.072922
O O16 0.510145 0.000000 0.068788
O O17 0.500000 0.288094 0.000000
O O18 0.782623 0.000000 0.923917
O O19 0.750000 0.750000 0.000000
#
# Coordination Sequence:
#
# PCOD9198280 Si02
#       7
#     8   8   8   8   8   8   8
#     4  10  22  40  59  84 122 158 189 237 299 354
#     4  10  21  37  59  88 118 151 195 243 291 346
#     4  10  20  36  59  85 114 151 198 243 285 343
#     4  10  20  36  58  83 112 149 192 238 287 343
#     4   9  17  32  55  80 108 144 186 236 287 337
#     4  10  20  36  57  79 109 151 194 236 290 349
#     4  11  23  37  54  79 112 148 190 240 293 351
#
# _framework density 22.432722999999999
#
# number of rings (size 3 to 8) (size 9 to 14) (size 15 to 20)
#    0.000    2.000    1.429    2.143    0.000    6.286 
#    0.000    1.429    0.000    0.000    0.000    0.000 
#    0.000    0.000    0.000    0.000    0.000    0.000 
#
# Total GULP energy -156420.672074 kJ/mol
# GULP energy per Si atom -5586.452574 kJ/mol
# Density = 2.238167 g / cm^3
# Si number density = 22.432723 Si / 1000 Ang^3
#
#
#
# Elastic Constant Matrix: (Units=GPa)
#
#
# Indices 1 2 3 4 5 6 
#
# 1 170.7737 -1.1495 56.9887 0.0000 -10.5453 0.0000
# 2 -1.1495 60.4907 -7.0818 0.0000 4.0441 0.0000
# 3 56.9887 -7.0818 118.1016 0.0000 -7.2685 0.0000
# 4 0.0000 0.0000 0.0000 32.4332 0.0000 -3.4164
# 5 -10.5453 4.0441 -7.2685 0.0000 29.5153 0.0000
# 6 0.0000 0.0000 0.0000 -3.4164 0.0000 15.6487
#
#
#
# Elastic Compliance Matrix: (Units=1/GPa)
#
#
# Indices 1 2 3 4 5 6 
#
# 1 0.007072 -0.000373 -0.003327 0.000000 0.001759 0.000000
# 2 -0.000373 0.016793 0.001053 0.000000 -0.002175 0.000000
# 3 -0.003327 0.001053 0.010208 0.000000 0.001181 0.000000
# 4 0.000000 0.000000 0.000000 0.031558 0.000000 0.006890
# 5 0.001759 -0.002175 0.001181 0.000000 0.035098 0.000000
# 6 0.000000 0.000000 0.000000 0.006890 0.000000 0.065407
#
#
# Mechanical properties :
#
#
# Convention : Reuss Voigt Hill
#
# Bulk Modulus (GPa) = 34.74548 49.65343 42.19945
# Shear Modulus (GPa) = 27.62079 35.56000 31.59040
#
# Velocity S-wave (km/s) = 3.51276 3.98576 3.75671
# Velocity P-wave (km/s) = 5.65464 6.58514 6.13755
#
# Compressibility (1/GPa) = 0.02878072
#
# Stress axis : x y z
#
# Youngs Moduli (GPa) = 141.40477 59.54840 97.95919
#
# Poissons Ratio (x) = 0.02219 0.32587
# Poissons Ratio (y) = 0.05269 -0.10315
# Poissons Ratio (z) = 0.47040 -0.06270
#
# Static dielectric constant tensor:
#      x y z
#    x 1.823090 0.000000 0.019610 
#    y 0.000000 1.850030 0.000000 
#    z 0.019610 0.000000 1.811540 
# 
# From -- ./inp_files/308966.got.cif
#   From: 2010.05.17/outbox.cif.g08.bks.cpg/sg12_155_cif.got.tgz:308966.got - 2010.06.03 13:09:07.
