data_PCOD9198276
_publ_section_title
;
Structure prediction by ZEFSAII (Michael W. Deem and Ramdas Pophale) SiO2 
 PCOD9198276
Probable space group: C 2/M
;
_chemical_formula_sum "Si O2"
_cell_formula_units_Z 56
_cell_length_a 18.553739
_cell_length_b 7.577225
_cell_length_c 18.969930
_cell_angle_alpha 90.000000
_cell_angle_beta 103.970316
_cell_angle_gamma 90.000000
_cell_volume 2588.019298
_symmetry_space_group_name_H-M "C 2/M"
_symmetry_group_IT_number 12
_symmetry_cell_setting 'monoclinic'
loop_
_space_group_symop_operation_xyz
x,y,z
-x,y,-z
-x,-y,-z
x,-y,z
1/2+x,1/2+y,z
1/2-x,1/2+y,-z
1/2-x,1/2-y,-z
1/2+x,1/2-y,z
loop_
_atom_site_type_symbol
_atom_site_label
_atom_site_fract_x
_atom_site_fract_y
_atom_site_fract_z
Si Si1 0.198887 0.212684 0.142238
Si Si2 0.434881 0.795126 0.436552
Si Si3 0.079689 0.710568 0.993481
Si Si4 0.135695 0.713173 0.855469
Si Si5 0.229544 0.288192 0.575596
Si Si6 0.483891 0.291089 0.293081
Si Si7 0.646806 0.716283 0.284183
O O1 0.141332 0.259012 0.067393
O O2 0.281640 0.277374 0.143705
O O3 0.170033 0.274676 0.211494
O O4 0.202500 0.000000 0.146809
O O5 0.500000 0.715043 0.500000
O O6 0.352777 0.717695 0.427169
O O7 0.458710 0.788993 0.361100
O O8 0.428175 0.000000 0.457347
O O9 0.070904 0.500000 0.982699
O O10 0.107095 0.779819 0.924399
O O11 0.000000 0.781813 0.000000
O O12 0.139770 0.500000 0.860101
O O13 0.077324 0.758840 0.781067
O O14 0.228110 0.500000 0.584751
O O15 0.250000 0.250000 0.500000
O O16 0.292443 0.223907 0.644413
O O17 0.490226 0.500000 0.306469
O O18 0.564321 0.225743 0.286333
O O19 0.646020 0.500000 0.283485
#
# Coordination Sequence:
#
# PCOD9198276 Si02
#       7
#     8   8   8   8   8   8   8
#     4  10  20  36  58  79 103 141 184 222 264 320
#     4  10  21  37  57  81 110 145 181 218 268 327
#     4  10  21  36  54  80 113 144 176 221 274 322
#     4  10  21  37  56  78 108 145 179 217 272 328
#     4  10  20  36  57  79 108 143 178 219 264 314
#     4  11  22  35  55  81 107 138 179 226 269 314
#     4   9  19  35  53  76 106 139 175 218 269 317
#
# _framework density 21.638169000000001
#
# number of rings (size 3 to 8) (size 9 to 14) (size 15 to 20)
#    0.000    2.000    0.000    3.429    0.000    4.571 
#    0.000    2.143    0.000    0.000    0.000    0.000 
#    0.000    0.000    0.000    0.000    0.000    0.000 
#
# Total GULP energy -156544.461753 kJ/mol
# GULP energy per Si atom -5590.873634 kJ/mol
# Density = 2.158892 g / cm^3
# Si number density = 21.638169 Si / 1000 Ang^3
#
#
#
# Elastic Constant Matrix: (Units=GPa)
#
#
# Indices 1 2 3 4 5 6 
#
# 1 232.0851 -4.5871 104.6559 0.0000 9.0228 0.0000
# 2 -4.5871 44.7197 -23.5275 0.0000 0.1820 0.0000
# 3 104.6559 -23.5275 181.1648 0.0000 8.4790 0.0000
# 4 0.0000 0.0000 0.0000 -80.8818 0.0000 -73.8992
# 5 9.0228 0.1820 8.4790 0.0000 45.6136 0.0000
# 6 0.0000 0.0000 0.0000 -73.8992 0.0000 -63.5803
#
#
#
# Elastic Compliance Matrix: (Units=1/GPa)
#
#
# Indices 1 2 3 4 5 6 
#
# 1 0.005905 -0.001261 -0.003551 0.000000 -0.000503 0.000000
# 2 -0.001261 0.024292 0.003910 0.000000 -0.000574 0.000000
# 3 -0.003551 0.003910 0.008118 0.000000 -0.000822 0.000000
# 4 0.000000 0.000000 0.000000 0.199554 0.000000 -0.231941
# 5 -0.000503 -0.000574 -0.000822 0.000000 0.022178 0.000000
# 6 0.000000 0.000000 0.000000 -0.231941 0.000000 0.253857
#
#
# Mechanical properties :
#
#
# Convention : Reuss Voigt Hill
#
# Bulk Modulus (GPa) = 27.38994 67.89468 47.64231
# Shear Modulus (GPa) = 9.47190 5.65886 7.56538
#
# Velocity S-wave (km/s) = 2.09449 1.61892 1.87187
# Velocity P-wave (km/s) = 4.30521 5.91100 5.17082
#
# Compressibility (1/GPa) = 0.03650976
#
# Stress axis : x y z
#
# Youngs Moduli (GPa) = 169.35352 41.16656 123.18918
#
# Poissons Ratio (x) = 0.05190 0.43748
# Poissons Ratio (y) = 0.21350 -0.48165
# Poissons Ratio (z) = 0.60142 -0.16095
#
# Static dielectric constant tensor:
#      x y z
#    x 1.769770 0.000000 -0.000510 
#    y 0.000000 1.857770 0.000000 
#    z -0.000510 0.000000 1.717870 
# 
# From -- ./inp_files/275265.got.cif
#   From: 2010.05.17/outbox.cif.g08.bks.cpg/sg12_138_cif.got.tgz:275265.got - 2010.06.03 13:09:07.
