data_PCOD9198156
_publ_section_title
;
Structure prediction by ZEFSAII (Michael W. Deem and Ramdas Pophale) SiO2 
 PCOD9198156
Probable space group: C 2/M
;
_chemical_formula_sum "Si O2"
_cell_formula_units_Z 56
_cell_length_a 32.991284
_cell_length_b 15.119999
_cell_length_c 13.072073
_cell_angle_alpha 90.000000
_cell_angle_beta 25.594344
_cell_angle_gamma 90.000000
_cell_volume 2816.928970
_symmetry_space_group_name_H-M "C 2/M"
_symmetry_group_IT_number 12
_symmetry_cell_setting 'monoclinic'
loop_
_space_group_symop_operation_xyz
x,y,z
-x,y,-z
-x,-y,-z
x,-y,z
1/2+x,1/2+y,z
1/2-x,1/2+y,-z
1/2-x,1/2-y,-z
1/2+x,1/2-y,z
loop_
_atom_site_type_symbol
_atom_site_label
_atom_site_fract_x
_atom_site_fract_y
_atom_site_fract_z
Si Si1 0.483394 0.402262 0.731259
Si Si2 0.909911 0.231021 0.638132
Si Si3 0.047894 0.399499 0.992029
Si Si4 0.609030 0.175610 0.531984
Si Si5 0.431911 0.354612 0.251707
Si Si6 0.782024 0.395266 0.260243
Si Si7 0.688731 0.280487 0.932809
O O1 0.453021 0.500000 0.767822
O O2 0.563323 0.362988 0.474356
O O3 0.523053 0.406036 0.755346
O O4 0.400345 0.330221 0.912913
O O5 0.897326 0.295828 0.571520
O O6 0.000000 0.259369 0.500000
O O7 0.828383 0.222806 0.906558
O O8 0.071121 0.500000 0.911426
O O9 0.968150 0.395350 0.260796
O O10 0.145185 0.364547 0.816769
O O11 0.000000 0.359807 0.000000
O O12 0.580392 0.258851 0.667880
O O13 0.718608 0.163203 0.304323
O O14 0.327573 0.388076 0.461915
O O15 0.500000 0.356168 0.000000
O O16 0.801447 0.500000 0.191325
O O17 0.798390 0.320446 0.135822
#
# Coordination Sequence:
#
# PCOD9198156 Si02
#       7
#     8   8   8   8   8   8   8
#     4  10  21  36  56  85 117 146 181 226 277 332
#     4   9  18  34  56  79 108 144 180 223 276 322
#     4  10  21  37  55  76 108 148 185 224 270 322
#     4  10  20  36  56  81 111 144 186 227 268 327
#     4  10  21  37  59  84 110 142 181 230 281 327
#     4  10  21  38  59  82 109 144 186 228 274 327
#     4  10  21  36  57  83 113 147 181 224 276 327
#
# _framework density 19.879807
#
# number of rings (size 3 to 8) (size 9 to 14) (size 15 to 20)
#    0.000    2.143    0.000    3.857    0.000    5.429 
#    0.000    5.714    0.000    9.429    0.000    0.000 
#    0.000    0.000    0.000    0.000    0.000    0.000 
#
# Total GULP energy -155981.984932 kJ/mol
# GULP energy per Si atom -5570.785176 kJ/mol
# Density = 1.983456 g / cm^3
# Si number density = 19.879807 Si / 1000 Ang^3
#
#
#
# Elastic Constant Matrix: (Units=GPa)
#
#
# Indices 1 2 3 4 5 6 
#
# 1 124.9073 17.6339 72.5743 0.0000 -3.6082 0.0000
# 2 17.6339 62.7819 29.2286 0.0000 0.2368 0.0000
# 3 72.5743 29.2286 123.1058 0.0000 4.8912 0.0000
# 4 0.0000 0.0000 0.0000 -4.0560 0.0000 -0.1234
# 5 -3.6082 0.2368 4.8912 0.0000 27.3384 0.0000
# 6 0.0000 0.0000 0.0000 -0.1234 0.0000 3.6727
#
#
#
# Elastic Compliance Matrix: (Units=1/GPa)
#
#
# Indices 1 2 3 4 5 6 
#
# 1 0.012412 -0.000040 -0.007425 0.000000 0.002967 0.000000
# 2 -0.000040 0.017918 -0.004254 0.000000 0.000601 0.000000
# 3 -0.007425 -0.004254 0.013645 0.000000 -0.003384 0.000000
# 4 0.000000 0.000000 0.000000 -0.246295 0.000000 -0.008276
# 5 0.002967 0.000601 -0.003384 0.000000 0.037571 0.000000
# 6 0.000000 0.000000 0.000000 -0.008276 0.000000 0.272001
#
#
# Mechanical properties :
#
#
# Convention : Reuss Voigt Hill
#
# Bulk Modulus (GPa) = 48.69808 61.07427 54.88618
# Shear Modulus (GPa) = 36.35431 18.14823 27.25127
#
# Velocity S-wave (km/s) = 4.28098 3.02470 3.70645
# Velocity P-wave (km/s) = 6.99894 6.55644 6.78130
#
# Compressibility (1/GPa) = 0.02053469
#
# Stress axis : x y z
#
# Youngs Moduli (GPa) = 80.56960 55.81033 73.28675
#
# Poissons Ratio (x) = 0.00226 0.54417
# Poissons Ratio (y) = 0.00326 0.31178
# Poissons Ratio (z) = 0.59825 0.23743
#
# Static dielectric constant tensor:
#      x y z
#    x 1.730380 0.000000 -0.022640 
#    y 0.000000 1.707870 0.000000 
#    z -0.022640 0.000000 1.719790 
# 
# From -- ./inp_files/189642.got.cif
#   From: 2010.05.17/outbox.cif.g08.bks.cpg/sg12_95_cif.got.tgz:189642.got - 2010.06.03 13:09:07.
