data_PCOD9198753
_publ_section_title
;
Structure prediction by ZEFSAII (Michael W. Deem and Ramdas Pophale) SiO2 
 PCOD9198753
Probable space group: C 2/M
;
_chemical_formula_sum "Si O2"
_cell_formula_units_Z 56
_cell_length_a 8.360267
_cell_length_b 19.308574
_cell_length_c 18.926605
_cell_angle_alpha 90.000000
_cell_angle_beta 66.412606
_cell_angle_gamma 90.000000
_cell_volume 2799.962515
_symmetry_space_group_name_H-M "C 2/M"
_symmetry_group_IT_number 12
_symmetry_cell_setting 'monoclinic'
loop_
_space_group_symop_operation_xyz
x,y,z
-x,y,-z
-x,-y,-z
x,-y,z
1/2+x,1/2+y,z
1/2-x,1/2+y,-z
1/2-x,1/2-y,-z
1/2+x,1/2-y,z
loop_
_atom_site_type_symbol
_atom_site_label
_atom_site_fract_x
_atom_site_fract_y
_atom_site_fract_z
Si Si1 0.395345 0.163256 0.248879
Si Si2 0.840514 0.918799 0.310113
Si Si3 0.366289 0.416394 0.463430
Si Si4 0.428949 0.309940 0.796293
Si Si5 0.818214 0.342024 0.041986
Si Si6 0.567141 0.919102 0.099085
Si Si7 0.423118 0.919402 0.381413
O O1 0.484707 0.237614 0.238688
O O2 0.224428 0.173131 0.231690
O O3 0.525537 0.113133 0.182080
O O4 0.356529 0.128573 0.330286
O O5 0.896466 0.892580 0.378384
O O6 0.631232 0.913760 0.347098
O O7 0.930394 0.871020 0.236037
O O8 0.887272 0.000000 0.293277
O O9 0.500000 0.392070 0.500000
O O10 0.381797 0.500000 0.456292
O O11 0.174424 0.401733 0.528510
O O12 0.337961 0.306749 0.889415
O O13 0.711667 0.122986 0.028503
O O14 0.894004 0.402211 0.081529
O O15 0.000000 0.298557 0.000000
O O16 0.600471 0.000000 0.096445
O O17 0.379065 0.000000 0.373788
#
# Coordination Sequence:
#
# PCOD9198753 Si02
#       7
#     8   8   8   8   8   8   8
#     4  11  22  35  55  79 111 152 187 233 279 331
#     4  10  21  36  57  84 115 149 185 231 281 330
#     4   9  17  32  56  86 115 145 185 228 271 328
#     4  11  22  37  54  81 114 148 193 232 280 337
#     4   7  16  32  52  81 104 140 181 233 282 326
#     4   8  15  30  52  80 106 134 180 229 277 329
#     4  10  20  36  58  84 115 149 186 229 280 331
#
# _framework density 20.000267999999998
#
# number of rings (size 3 to 8) (size 9 to 14) (size 15 to 20)
#    0.857    1.571    0.000    3.429    0.000    6.857 
#    0.000    0.714    0.000    0.000    0.000    4.000 
#    0.000    0.000    0.000    0.000    0.000    0.000 
#
# Total GULP energy -156002.594457 kJ/mol
# GULP energy per Si atom -5571.521231 kJ/mol
# Density = 1.995475 g / cm^3
# Si number density = 20.000268 Si / 1000 Ang^3
#
#
#
# Elastic Constant Matrix: (Units=GPa)
#
#
# Indices 1 2 3 4 5 6 
#
# 1 29.4149 9.1774 3.1112 0.0000 -9.9321 0.0000
# 2 9.1774 48.3457 18.3135 0.0000 -10.5485 0.0000
# 3 3.1112 18.3135 80.1375 0.0000 -18.5932 0.0000
# 4 0.0000 0.0000 0.0000 7.3492 0.0000 6.7284
# 5 -9.9321 -10.5485 -18.5932 0.0000 23.7742 0.0000
# 6 0.0000 0.0000 0.0000 6.7284 0.0000 15.4085
#
#
#
# Elastic Compliance Matrix: (Units=1/GPa)
#
#
# Indices 1 2 3 4 5 6 
#
# 1 0.041287 -0.005376 0.003756 0.000000 0.017800 0.000000
# 2 -0.005376 0.024441 -0.004131 0.000000 0.005367 0.000000
# 3 0.003756 -0.004131 0.016145 0.000000 0.012363 0.000000
# 4 0.000000 0.000000 0.000000 0.226699 0.000000 -0.098992
# 5 0.017800 0.005367 0.012363 0.000000 0.061549 0.000000
# 6 0.000000 0.000000 0.000000 -0.098992 0.000000 0.108126
#
#
# Mechanical properties :
#
#
# Convention : Reuss Voigt Hill
#
# Bulk Modulus (GPa) = 14.21081 24.34471 19.27776
# Shear Modulus (GPa) = 9.74267 17.79278 13.76773
#
# Velocity S-wave (km/s) = 2.20949 2.98590 2.62654
# Velocity P-wave (km/s) = 3.69186 4.90776 4.34258
#
# Compressibility (1/GPa) = 0.07036899
#
# Stress axis : x y z
#
# Youngs Moduli (GPa) = 24.22077 40.91485 61.93795
#
# Poissons Ratio (x) = 0.21997 -0.23262
# Poissons Ratio (y) = 0.13022 0.25589
# Poissons Ratio (z) = -0.09096 0.16903
#
# Static dielectric constant tensor:
#      x y z
#    x 1.735850 0.000000 -0.010690 
#    y 0.000000 1.661710 0.000000 
#    z -0.010690 0.000000 1.743610 
# 
# From -- ./inp_files/332840.got.cif
#   From: 2010.05.17/outbox.cif.g08.bks.cpg/sg12_167_cif.got.tgz:332840.got - 2010.06.03 13:09:07.
