data_PCOD9198361
_publ_section_title
;
Structure prediction by ZEFSAII (Michael W. Deem and Ramdas Pophale) SiO2 
 PCOD9198361
Probable space group: C 2/M
;
_chemical_formula_sum "Si O2"
_cell_formula_units_Z 64
_cell_length_a 29.459950
_cell_length_b 8.413275
_cell_length_c 19.437132
_cell_angle_alpha 90.000000
_cell_angle_beta 138.405729
_cell_angle_gamma 90.000000
_cell_volume 3198.159902
_symmetry_space_group_name_H-M "C 2/M"
_symmetry_group_IT_number 12
_symmetry_cell_setting 'monoclinic'
loop_
_space_group_symop_operation_xyz
x,y,z
-x,y,-z
-x,-y,-z
x,-y,z
1/2+x,1/2+y,z
1/2-x,1/2+y,-z
1/2-x,1/2-y,-z
1/2+x,1/2-y,z
loop_
_atom_site_type_symbol
_atom_site_label
_atom_site_fract_x
_atom_site_fract_y
_atom_site_fract_z
Si Si1 0.544175 0.805827 0.116745
Si Si2 0.466009 0.191813 0.167551
Si Si3 0.340543 0.318892 0.950980
Si Si4 0.339005 0.310180 0.392133
Si Si5 0.910320 0.306907 0.333669
Si Si6 0.708965 0.819324 0.890671
Si Si7 0.536970 0.807934 0.391024
Si Si8 0.184018 0.686733 0.221059
O O1 0.509390 0.760540 0.149129
O O2 0.622476 0.748657 0.198159
O O3 0.544914 0.000000 0.115853
O O4 0.500000 0.754490 0.000000
O O5 0.502253 0.240021 0.279556
O O6 0.460370 0.000000 0.162313
O O7 0.391158 0.262340 0.068361
O O8 0.357626 0.500000 0.951238
O O9 0.263071 0.316266 0.889808
O O10 0.343940 0.208862 0.888232
O O11 0.335275 0.500000 0.382468
O O12 0.377153 0.248231 0.366980
O O13 0.388508 0.261526 0.510547
O O14 0.261162 0.246574 0.311245
O O15 0.908738 0.500000 0.332950
O O16 0.860335 0.245748 0.216197
O O17 0.986250 0.260718 0.396360
O O18 0.692308 0.000000 0.890421
O O19 0.750000 0.750000 0.000000
O O20 0.541414 0.000000 0.396521
O O21 0.189886 0.500000 0.242975
#
# Coordination Sequence:
#
# PCOD9198361 Si02
#       8
#     8   8   8   8   8   8   8   8
#     4   9  16  31  59  87 108 139 185 231 267 319
#     4  10  20  37  60  83 110 147 189 227 271 335
#     4  11  21  33  53  82 115 146 175 223 281 328
#     4  11  23  37  57  82 110 145 186 235 278 320
#     4  10  20  37  56  77 108 145 187 229 271 327
#     4  10  21  34  50  76 111 147 182 223 271 325
#     4  10  22  38  58  80 107 148 189 229 275 327
#     4  10  20  36  57  82 109 143 185 226 272 327
#
# _framework density 20.011506000000001
#
# number of rings (size 3 to 8) (size 9 to 14) (size 15 to 20)
#    0.000    1.875    2.500    1.875    0.000    5.500 
#    0.000    1.875    0.000    0.000    0.000    0.000 
#    0.000    0.000    0.000    0.000    0.000    0.000 
#
# Total GULP energy -178559.029912 kJ/mol
# GULP energy per Si atom -5579.969685 kJ/mol
# Density = 1.996596 g / cm^3
# Si number density = 20.011506 Si / 1000 Ang^3
#
#
#
# Elastic Constant Matrix: (Units=GPa)
#
#
# Indices 1 2 3 4 5 6 
#
# 1 86.8264 12.9235 40.0875 0.0000 18.2827 0.0000
# 2 12.9235 4.9665 4.0061 0.0000 5.8576 0.0000
# 3 40.0875 4.0061 119.4953 0.0000 25.6854 0.0000
# 4 0.0000 0.0000 0.0000 24.7371 0.0000 -1.0295
# 5 18.2827 5.8576 25.6854 0.0000 29.4440 0.0000
# 6 0.0000 0.0000 0.0000 -1.0295 0.0000 12.4023
#
#
#
# Elastic Compliance Matrix: (Units=1/GPa)
#
#
# Indices 1 2 3 4 5 6 
#
# 1 0.022053 -0.055651 -0.006116 0.000000 0.002713 0.000000
# 2 -0.055651 0.404387 0.018434 0.000000 -0.061974 0.000000
# 3 -0.006116 0.018434 0.012030 0.000000 -0.010364 0.000000
# 4 0.000000 0.000000 0.000000 0.040565 0.000000 0.003367
# 5 0.002713 -0.061974 -0.010364 0.000000 0.053648 0.000000
# 6 0.000000 0.000000 0.000000 0.003367 0.000000 0.080910
#
#
# Mechanical properties :
#
#
# Convention : Reuss Voigt Hill
#
# Bulk Modulus (GPa) = 2.84249 36.14692 19.49471
# Shear Modulus (GPa) = 6.11600 23.60141 14.85870
#
# Velocity S-wave (km/s) = 1.75011 3.43795 2.72786
# Velocity P-wave (km/s) = 2.34677 5.81908 4.43672
#
# Compressibility (1/GPa) = 0.35180372
#
# Stress axis : x y z
#
# Youngs Moduli (GPa) = 45.34566 2.47288 83.12611
#
# Poissons Ratio (x) = 0.13762 0.50836
# Poissons Ratio (y) = 2.52355 -1.53232
# Poissons Ratio (z) = 0.27731 -0.04558
#
# Static dielectric constant tensor:
#      x y z
#    x 1.729320 0.000000 0.012200 
#    y 0.000000 1.711110 0.000000 
#    z 0.012200 0.000000 1.722510 
# 
# From -- ./inp_files/295674.got.cif
#   From: 2010.05.17/outbox.cif.g08.bks.cpg/sg12_148_cif.got.tgz:295674.got - 2010.06.03 13:09:07.
