data_PCOD9198876
_publ_section_title
;
Structure prediction by ZEFSAII (Michael W. Deem and Ramdas Pophale) SiO2 
 PCOD9198876
Probable space group: C 2/M
;
_chemical_formula_sum "Si O2"
_cell_formula_units_Z 64
_cell_length_a 9.615101
_cell_length_b 19.686799
_cell_length_c 26.941391
_cell_angle_alpha 90.000000
_cell_angle_beta 45.702666
_cell_angle_gamma 90.000000
_cell_volume 3650.020467
_symmetry_space_group_name_H-M "C 2/M"
_symmetry_group_IT_number 12
_symmetry_cell_setting 'monoclinic'
loop_
_space_group_symop_operation_xyz
x,y,z
-x,y,-z
-x,-y,-z
x,-y,z
1/2+x,1/2+y,z
1/2-x,1/2+y,-z
1/2-x,1/2-y,-z
1/2+x,1/2-y,z
loop_
_atom_site_type_symbol
_atom_site_label
_atom_site_fract_x
_atom_site_fract_y
_atom_site_fract_z
Si Si1 0.852766 0.181123 0.172001
Si Si2 0.800919 0.821098 0.836238
Si Si3 0.770932 0.419749 0.549948
Si Si4 0.586838 0.332676 0.678689
Si Si5 0.468133 0.923731 0.949845
Si Si6 0.802190 0.818084 0.518437
Si Si7 0.424088 0.800217 0.669498
Si Si8 0.531039 0.420134 0.050958
O O1 0.787912 0.249839 0.160292
O O2 0.684803 0.167829 0.255369
O O3 0.051904 0.189553 0.154197
O O4 0.892208 0.123290 0.121217
O O5 0.630001 0.873435 0.889657
O O6 0.932424 0.851186 0.759216
O O7 0.751559 0.500000 0.548360
O O8 0.661637 0.393043 0.625972
O O9 0.689536 0.378444 0.523424
O O10 0.000000 0.403311 0.500000
O O11 0.486642 0.275367 0.669866
O O12 0.769754 0.301153 0.663049
O O13 0.474637 0.000000 0.925438
O O14 0.500000 0.931173 0.000000
O O15 0.251820 0.895148 0.000518
O O16 0.750000 0.750000 0.500000
O O17 0.622784 0.832905 0.600355
O O18 0.000000 0.808647 0.500000
O O19 0.522780 0.500000 0.067402
O O20 0.500000 0.415403 0.000000
#
# Coordination Sequence:
#
# PCOD9198876 Si02
#       8
#     8   8   8   8   8   8   8   8
#     4  10  22  38  56  85 118 148 186 242 289 344
#     4  10  22  36  57  86 116 149 186 237 295 340
#     4  11  23  39  57  84 121 152 193 245 292 343
#     4  10  20  37  58  84 115 149 192 236 291 346
#     4  10  20  37  58  80 109 145 192 234 273 337
#     4  12  22  36  64  91 115 157 202 241 287 350
#     4  10  20  36  58  88 113 146 195 235 286 341
#     4  10  22  40  60  82 111 152 195 235 285 348
#
# _framework density 17.534147999999998
#
# number of rings (size 3 to 8) (size 9 to 14) (size 15 to 20)
#    0.000    1.625    3.750    1.125    1.750    1.750 
#    0.000    2.500    0.000    1.500    0.000    0.000 
#    0.000    0.000    0.000    0.000    0.000    0.000 
#
# Total GULP energy -178453.307639 kJ/mol
# GULP energy per Si atom -5576.665864 kJ/mol
# Density = 1.749424 g / cm^3
# Si number density = 17.534148 Si / 1000 Ang^3
#
#
#
# Elastic Constant Matrix: (Units=GPa)
#
#
# Indices 1 2 3 4 5 6 
#
# 1 83.8231 34.9388 41.8357 -0.0020 -5.6638 0.0000
# 2 34.9388 75.2546 64.9062 -0.0034 2.0173 -0.0003
# 3 41.8357 64.9062 130.7881 -0.0068 -9.5065 -0.0013
# 4 -0.0020 -0.0034 -0.0068 26.3370 -0.0003 -1.1854
# 5 -5.6638 2.0173 -9.5065 -0.0003 26.1273 0.0006
# 6 0.0000 -0.0003 -0.0013 -1.1854 0.0006 21.2989
#
#
#
# Elastic Compliance Matrix: (Units=1/GPa)
#
#
# Indices 1 2 3 4 5 6 
#
# 1 0.015430 -0.005561 -0.001953 0.000000 0.003064 0.000000
# 2 -0.005561 0.026241 -0.011790 0.000000 -0.007522 0.000000
# 3 -0.001953 -0.011790 0.014542 0.000002 0.005778 0.000001
# 4 0.000000 0.000000 0.000002 0.038065 0.000001 0.002118
# 5 0.003064 -0.007522 0.005778 0.000001 0.041621 -0.000001
# 6 0.000000 0.000000 0.000001 0.002118 -0.000001 0.047069
#
#
# Mechanical properties :
#
#
# Convention : Reuss Voigt Hill
#
# Bulk Modulus (GPa) = 56.80813 63.69191 60.25002
# Shear Modulus (GPa) = 21.98344 24.63165 23.30755
#
# Velocity S-wave (km/s) = 3.54467 3.75211 3.64987
# Velocity P-wave (km/s) = 7.01583 7.42795 7.22483
#
# Compressibility (1/GPa) = 0.01760311
#
# Stress axis : x y z
#
# Youngs Moduli (GPa) = 64.81034 38.10853 68.76719
#
# Poissons Ratio (x) = 0.21193 0.13430
# Poissons Ratio (y) = 0.36043 0.81079
# Poissons Ratio (z) = 0.12657 0.44931
#
# Static dielectric constant tensor:
#      x y z
#    x 1.580580 0.000000 -0.001890 
#    y 0.000000 1.575770 0.000000 
#    z -0.001890 0.000000 1.609090 
# 
# From -- ./inp_files/356848.got.cif
#   From: 2010.05.17/outbox.cif.g08.bks.cpg/sg12_179_cif.got.tgz:356848.got - 2010.06.03 13:09:07.
