data_PCOD9198815
_publ_section_title
;
Structure prediction by ZEFSAII (Michael W. Deem and Ramdas Pophale) SiO2 
 PCOD9198815
Probable space group: C 2/M
;
_chemical_formula_sum "Si O2"
_cell_formula_units_Z 40
_cell_length_a 16.474988
_cell_length_b 25.770393
_cell_length_c 9.651199
_cell_angle_alpha 90.000000
_cell_angle_beta 28.376541
_cell_angle_gamma 90.000000
_cell_volume 1947.432197
_symmetry_space_group_name_H-M "C 2/M"
_symmetry_group_IT_number 12
_symmetry_cell_setting 'monoclinic'
loop_
_space_group_symop_operation_xyz
x,y,z
-x,y,-z
-x,-y,-z
x,-y,z
1/2+x,1/2+y,z
1/2-x,1/2+y,-z
1/2-x,1/2-y,-z
1/2+x,1/2-y,z
loop_
_atom_site_type_symbol
_atom_site_label
_atom_site_fract_x
_atom_site_fract_y
_atom_site_fract_z
Si Si1 0.348391 0.303964 0.338110
Si Si2 0.845455 0.438592 0.840993
Si Si3 0.612092 0.443576 0.709037
Si Si4 0.488732 0.373308 0.680212
Si Si5 0.932422 0.606238 0.256830
O O1 0.250000 0.250000 0.500000
O O2 0.447746 0.323545 0.328033
O O3 0.200204 0.345900 0.520081
O O4 0.500000 0.299281 0.000000
O O5 0.798665 0.500000 0.938733
O O6 0.000000 0.439590 0.500000
O O7 0.915531 0.406269 0.867493
O O8 0.690936 0.402273 0.017682
O O9 0.536706 0.500000 0.803655
O O10 0.613460 0.416039 0.559519
O O11 0.806283 0.442704 0.463940
O O12 0.500000 0.417853 0.000000
O O13 0.500000 0.365694 0.500000
O O14 0.000000 0.612117 0.000000
#
# Coordination Sequence:
#
# PCOD9198815 Si02
#       5
#     8   8   8   8   8
#     4  11  24  46  70  89 116 158 206 255 313 377
#     4  11  22  36  57  89 128 165 200 243 296 353
#     4  10  20  36  58  85 124 177 222 251 294 359
#     4  11  23  39  61  91 125 159 202 257 313 363
#     4  11  22  37  59  89 123 160 204 250 299 362
#
# _framework density 20.539868999999999
#
# number of rings (size 3 to 8) (size 9 to 14) (size 15 to 20)
#    0.000    1.200    0.000    9.000    0.000    8.000 
#    0.000    5.000    0.000    0.000    0.000    0.000 
#    0.000    0.000    0.000    0.000    0.000    0.000 
#
# Total GULP energy -111386.040459 kJ/mol
# GULP energy per Si atom -5569.302023 kJ/mol
# Density = 2.049312 g / cm^3
# Si number density = 20.539869 Si / 1000 Ang^3
#
#
#
# Elastic Constant Matrix: (Units=GPa)
#
#
# Indices 1 2 3 4 5 6 
#
# 1 124.4294 52.8833 28.5083 0.0027 1.0639 0.0021
# 2 52.8833 151.6743 55.0367 0.0015 2.4966 -0.0009
# 3 28.5083 55.0367 116.5632 0.0118 1.4101 -0.0112
# 4 0.0027 0.0015 0.0118 17.4681 -0.0257 -19.2864
# 5 1.0639 2.4966 1.4101 -0.0257 44.2655 0.0195
# 6 0.0021 -0.0009 -0.0112 -19.2864 0.0195 7.7674
#
#
#
# Elastic Compliance Matrix: (Units=1/GPa)
#
#
# Indices 1 2 3 4 5 6 
#
# 1 0.009516 -0.002984 -0.000918 0.000003 -0.000031 0.000003
# 2 -0.002984 0.008897 -0.003467 0.000001 -0.000320 -0.000001
# 3 -0.000918 -0.003467 0.010442 -0.000006 -0.000115 0.000001
# 4 0.000003 0.000001 -0.000006 -0.032873 0.000017 -0.081624
# 5 -0.000031 -0.000320 -0.000115 0.000017 0.022613 -0.000015
# 6 0.000003 -0.000001 0.000001 -0.081624 -0.000015 -0.073929
#
#
# Mechanical properties :
#
#
# Convention : Reuss Voigt Hill
#
# Bulk Modulus (GPa) = 70.84070 73.94706 72.39388
# Shear Modulus (GPa) = -139.31180 30.98276 -54.16452
#
# Velocity S-wave (km/s) = -8.24453 3.88805 -5.14079
# Velocity P-wave (km/s) = 7.48769 7.49905 0.29180
#
# Compressibility (1/GPa) = 0.01411618
#
# Stress axis : x y z
#
# Youngs Moduli (GPa) = 105.09133 112.39922 95.76775
#
# Poissons Ratio (x) = 0.33542 0.08790
# Poissons Ratio (y) = 0.31361 0.33203
# Poissons Ratio (z) = 0.09646 0.38969
#
# Static dielectric constant tensor:
#      x y z
#    x 1.794780 0.000000 -0.010250 
#    y 0.000000 1.787140 0.000000 
#    z -0.010250 0.000000 1.768150 
# 
# From -- ./inp_files/41463.got.cif
#   From: 2010.05.17/outbox.cif.g08.bks.cpg/sg12_21_cif.got.tgz:41463.got - 2010.06.03 13:09:07.
