data_PCOD9198910
_publ_section_title
;
Structure prediction by ZEFSAII (Michael W. Deem and Ramdas Pophale) SiO2 
 PCOD9198910
Probable space group: C 2/M
;
_chemical_formula_sum "Si O2"
_cell_formula_units_Z 48
_cell_length_a 31.866579
_cell_length_b 7.592033
_cell_length_c 10.347899
_cell_angle_alpha 90.000000
_cell_angle_beta 77.067596
_cell_angle_gamma 90.000000
_cell_volume 2439.987578
_symmetry_space_group_name_H-M "C 2/M"
_symmetry_group_IT_number 12
_symmetry_cell_setting 'monoclinic'
loop_
_space_group_symop_operation_xyz
x,y,z
-x,y,-z
-x,-y,-z
x,-y,z
1/2+x,1/2+y,z
1/2-x,1/2+y,-z
1/2-x,1/2-y,-z
1/2+x,1/2-y,z
loop_
_atom_site_type_symbol
_atom_site_label
_atom_site_fract_x
_atom_site_fract_y
_atom_site_fract_z
Si Si1 0.458373 0.790456 0.118084
Si Si2 0.629375 0.798800 0.229513
Si Si3 0.970265 0.000000 0.323313
Si Si4 0.200034 0.713353 0.672351
Si Si5 0.433849 0.500000 0.629871
Si Si6 0.866227 0.713112 0.065062
Si Si7 0.298536 0.707530 0.621552
O O1 0.461606 0.671256 0.242231
O O2 0.414748 0.740838 0.072531
O O3 0.456762 0.000000 0.148225
O O4 0.500000 0.758363 0.000000
O O5 0.593172 0.670136 0.309202
O O6 0.669651 0.793938 0.298516
O O7 0.613449 0.000000 0.229719
O O8 0.642220 0.735680 0.076856
O O9 0.941521 0.000000 0.471351
O O10 0.019844 0.000000 0.333892
O O11 0.200567 0.500000 0.673412
O O12 0.167781 0.777556 0.805250
O O13 0.249220 0.773366 0.661253
O O14 0.186829 0.767235 0.536838
O O15 0.863521 0.500000 0.070535
O O16 0.298519 0.500000 0.650186
#
# Coordination Sequence:
#
# PCOD9198910 Si02
#       7
#     8   8   4   8   4   8   8
#     4  10  21  39  65  94 124 162 208 258 307 365
#     4  11  23  41  64  86 123 167 199 253 314 367
#     4  11  25  42  64  90 127 166 203 264 309 364
#     4   9  19  37  60  86 120 161 206 257 300 366
#     4  11  26  44  60  94 126 159 216 251 307 379
#     4   9  20  37  59  89 119 158 212 252 303 370
#     4  10  20  36  58  89 125 160 204 252 308 365
#
# _framework density 19.672232999999999
#
# number of rings (size 3 to 8) (size 9 to 14) (size 15 to 20)
#    0.000    2.000    0.833    1.750    2.333    4.667 
#    1.500    1.667    0.000    0.000    0.000    0.000 
#    0.000    0.000    0.000    0.000    0.000    0.000 
#
# Total GULP energy -134101.858920 kJ/mol
# GULP energy per Si atom -5587.577455 kJ/mol
# Density = 1.962746 g / cm^3
# Si number density = 19.672233 Si / 1000 Ang^3
#
#
#
# Elastic Constant Matrix: (Units=GPa)
#
#
# Indices 1 2 3 4 5 6 
#
# 1 94.7138 21.4082 94.6177 0.0000 -8.8911 0.0000
# 2 21.4082 74.5809 41.4520 0.0000 -5.0760 0.0000
# 3 94.6177 41.4520 189.8108 0.0000 -5.1006 0.0000
# 4 0.0000 0.0000 0.0000 -132.6624 0.0000 -477.8874
# 5 -8.8911 -5.0760 -5.1006 0.0000 31.8873 0.0000
# 6 0.0000 0.0000 0.0000 -477.8874 0.0000-1472.5058
#
#
#
# Elastic Compliance Matrix: (Units=1/GPa)
#
#
# Indices 1 2 3 4 5 6 
#
# 1 0.021608 0.000016 -0.010659 0.000000 0.004323 0.000000
# 2 0.000016 0.015377 -0.003314 0.000000 0.001922 0.000000
# 3 -0.010659 -0.003314 0.011260 0.000000 -0.001698 0.000000
# 4 0.000000 0.000000 0.000000 0.044581 0.000000 -0.014468
# 5 0.004323 0.001922 -0.001698 0.000000 0.032600 0.000000
# 6 0.000000 0.000000 0.000000 -0.014468 0.000000 0.004016
#
#
# Mechanical properties :
#
#
# Convention : Reuss Voigt Hill
#
# Bulk Modulus (GPa) = 49.18790 74.89568 62.04179
# Shear Modulus (GPa) = 30.46323 -301.21435 -135.37556
#
# Velocity S-wave (km/s) = 3.93942 -12.38745 -8.30451
# Velocity P-wave (km/s) = 6.76388 12.90132 7.76834
#
# Compressibility (1/GPa) = 0.02033020
#
# Stress axis : x y z
#
# Youngs Moduli (GPa) = 46.27891 65.03391 88.81254
#
# Poissons Ratio (x) = -0.00102 0.94662
# Poissons Ratio (y) = -0.00073 0.29434
# Poissons Ratio (z) = 0.49327 0.21554
#
# Static dielectric constant tensor:
#      x y z
#    x 1.671090 0.000000 -0.004160 
#    y 0.000000 2.103030 0.000000 
#    z -0.004160 0.000000 1.659680 
# 
# From -- ./inp_files/108826.got.cif
#   From: 2010.05.17/outbox.cif.g08.bks.cpg/sg12_55_cif.got.tgz:108826.got - 2010.06.03 13:09:07.
