data_PCOD9198811
_publ_section_title
;
Structure prediction by ZEFSAII (Michael W. Deem and Ramdas Pophale) SiO2 
 PCOD9198811
Probable space group: C 2/M
;
_chemical_formula_sum "Si O2"
_cell_formula_units_Z 58
_cell_length_a 31.396786
_cell_length_b 7.734516
_cell_length_c 24.513642
_cell_angle_alpha 90.000000
_cell_angle_beta 151.934676
_cell_angle_gamma 90.000000
_cell_volume 2800.692466
_symmetry_space_group_name_H-M "C 2/M"
_symmetry_group_IT_number 12
_symmetry_cell_setting 'monoclinic'
loop_
_space_group_symop_operation_xyz
x,y,z
-x,y,-z
-x,-y,-z
x,-y,z
1/2+x,1/2+y,z
1/2-x,1/2+y,-z
1/2-x,1/2-y,-z
1/2+x,1/2-y,z
loop_
_atom_site_type_symbol
_atom_site_label
_atom_site_fract_x
_atom_site_fract_y
_atom_site_fract_z
Si Si1 0.284135 0.802023 0.598302
Si Si2 0.195739 0.794438 0.883418
Si Si3 0.500000 0.000000 0.000000
Si Si4 0.655554 0.295102 0.034280
Si Si5 0.348484 0.285753 0.843289
Si Si6 0.527445 0.289460 0.228704
Si Si7 0.820967 0.306570 0.417453
Si Si8 0.505347 0.296355 0.326064
O O1 0.250000 0.750000 0.500000
O O2 0.391552 0.778789 0.716823
O O3 0.236960 0.694918 0.592117
O O4 0.258581 0.000000 0.579632
O O5 0.253819 0.739851 0.896887
O O6 0.093289 0.723430 0.770235
O O7 0.190271 0.000000 0.874997
O O8 0.250000 0.750000 0.000000
O O9 0.423251 0.156842 0.902871
O O10 0.644104 0.500000 0.022412
O O11 0.652871 0.240973 0.093916
O O12 0.568909 0.228070 0.902953
O O13 0.362527 0.500000 0.852186
O O14 0.250554 0.239626 0.707389
O O15 0.532781 0.500000 0.233294
O O16 0.536789 0.229878 0.302095
O O17 0.843447 0.500000 0.425912
O O18 0.916302 0.222985 0.540915
O O19 0.492101 0.500000 0.302300
#
# Coordination Sequence:
#
# PCOD9198811 Si02
#       8
#     8   8   2   8   8   8   8   8
#     4  12  24  36  55  85 121 162 206 254 315 385
#     4  11  22  38  63  96 129 166 215 271 334 398
#     4  12  26  44  76  94 130 180 234 264 348 382
#     4  10  22  43  65  89 130 166 207 275 335 385
#     4  10  26  46  67 100 135 174 227 281 328 394
#     4  10  20  36  58  85 120 160 201 251 318 381
#     4  11  24  42  63  88 126 170 215 265 321 391
#     4  10  21  38  60  89 124 163 208 259 318 388
#
# _framework density 20.709164999999999
#
# number of rings (size 3 to 8) (size 9 to 14) (size 15 to 20)
#    0.000    1.379    2.759    2.276    4.828    1.655 
#    0.000    0.690    0.000    4.138    0.000    0.000 
#    0.000    0.000    0.000    0.000    0.000    0.000 
#
# Total GULP energy -161627.856632 kJ/mol
# GULP energy per Si atom -5573.374367 kJ/mol
# Density = 2.066203 g / cm^3
# Si number density = 20.709165 Si / 1000 Ang^3
#
#
#
# Elastic Constant Matrix: (Units=GPa)
#
#
# Indices 1 2 3 4 5 6 
#
# 1 21.1985 -0.7153 25.2451 0.0000 6.8380 0.0000
# 2 -0.7153 43.6377 12.3555 0.0000 -7.7239 0.0000
# 3 25.2451 12.3555 127.4299 0.0000 8.2322 0.0000
# 4 0.0000 0.0000 0.0000 28.2046 0.0000 6.5038
# 5 6.8380 -7.7239 8.2322 0.0000 37.4654 0.0000
# 6 0.0000 0.0000 0.0000 6.5038 0.0000 20.5708
#
#
#
# Elastic Compliance Matrix: (Units=1/GPa)
#
#
# Indices 1 2 3 4 5 6 
#
# 1 0.065070 0.003154 -0.012651 0.000000 -0.008446 0.000000
# 2 0.003154 0.024860 -0.003377 0.000000 0.005292 0.000000
# 3 -0.012651 -0.003377 0.010729 0.000000 -0.000745 0.000000
# 4 0.000000 0.000000 0.000000 0.038243 0.000000 -0.012091
# 5 -0.008446 0.005292 -0.000745 0.000000 0.029487 0.000000
# 6 0.000000 0.000000 0.000000 -0.012091 0.000000 0.052436
#
#
# Mechanical properties :
#
#
# Convention : Reuss Voigt Hill
#
# Bulk Modulus (GPa) = 13.34917 29.55961 21.45439
# Shear Modulus (GPa) = 18.41308 27.60687 23.00998
#
# Velocity S-wave (km/s) = 2.98506 3.65509 3.33693
# Velocity P-wave (km/s) = 4.28261 5.66724 5.02287
#
# Compressibility (1/GPa) = 0.07491102
#
# Stress axis : x y z
#
# Youngs Moduli (GPa) = 15.36797 40.22455 93.20258
#
# Poissons Ratio (x) = -0.12686 1.17912
# Poissons Ratio (y) = -0.04847 0.31475
# Poissons Ratio (z) = 0.19442 0.13584
#
# Static dielectric constant tensor:
#      x y z
#    x 1.734380 0.000000 0.011520 
#    y 0.000000 1.771350 0.000000 
#    z 0.011520 0.000000 1.779040 
# 
# From -- ./inp_files/353094.got.cif
#   From: 2010.05.17/outbox.cif.g08.bks.cpg/sg12_177_cif.got.tgz:353094.got - 2010.06.03 13:09:07.
