data_PCOD9198501
_publ_section_title
;
Structure prediction by ZEFSAII (Michael W. Deem and Ramdas Pophale) SiO2 
 PCOD9198501
Probable space group: C 2/M
;
_chemical_formula_sum "Si O2"
_cell_formula_units_Z 52
_cell_length_a 23.788926
_cell_length_b 7.584040
_cell_length_c 12.510667
_cell_angle_alpha 90.000000
_cell_angle_beta 93.816775
_cell_angle_gamma 90.000000
_cell_volume 2252.120321
_symmetry_space_group_name_H-M "C 2/M"
_symmetry_group_IT_number 12
_symmetry_cell_setting 'monoclinic'
loop_
_space_group_symop_operation_xyz
x,y,z
-x,y,-z
-x,-y,-z
x,-y,z
1/2+x,1/2+y,z
1/2-x,1/2+y,-z
1/2-x,1/2-y,-z
1/2+x,1/2-y,z
loop_
_atom_site_type_symbol
_atom_site_label
_atom_site_fract_x
_atom_site_fract_y
_atom_site_fract_z
Si Si1 0.973356 0.207341 0.112562
Si Si2 0.841343 0.792695 0.047552
Si Si3 0.788131 0.207838 0.253943
Si Si4 0.989103 0.500000 0.705716
Si Si5 0.081939 0.200421 0.363267
Si Si6 0.185099 0.698191 0.514609
Si Si7 0.163996 0.212634 0.192349
O O1 0.906130 0.216911 0.089195
O O2 0.990962 0.343260 0.206031
O O3 0.987999 0.000000 0.136082
O O4 0.000000 0.250536 0.000000
O O5 0.805040 0.717842 0.140277
O O6 0.825603 0.000000 0.036513
O O7 0.834758 0.717230 0.928138
O O8 0.819806 0.290732 0.357930
O O9 0.721497 0.234325 0.256787
O O10 0.800802 0.000000 0.257840
O O11 0.964916 0.343971 0.621507
O O12 0.135236 0.198633 0.450666
O O13 0.110578 0.267953 0.255019
O O14 0.061822 0.000000 0.351545
O O15 0.178200 0.500000 0.475667
O O16 0.250000 0.750000 0.500000
O O17 0.161188 0.000000 0.189905
#
# Coordination Sequence:
#
# PCOD9198501 Si02
#       7
#     8   8   8   4   8   8   8
#     4  10  21  41  65  91 128 170 216 273 322 377
#     4   9  20  39  60  88 127 169 208 254 319 383
#     4  11  22  36  59  89 127 171 209 253 314 386
#     4  12  23  38  62  97 122 164 218 267 327 371
#     4  11  23  39  62  94 130 166 207 270 323 375
#     4  12  23  40  61  89 126 166 217 264 315 380
#     4  10  20  36  57  87 127 170 207 249 310 383
#
# _framework density 23.089352999999999
#
# number of rings (size 3 to 8) (size 9 to 14) (size 15 to 20)
#    0.000    1.385    2.308    3.923    1.077    2.462 
#    4.154    0.000    0.000    1.846    0.000    4.308 
#    0.000    0.000    0.000    0.000    0.000    0.000 
#
# Total GULP energy -144859.256016 kJ/mol
# GULP energy per Si atom -5571.509847 kJ/mol
# Density = 2.303680 g / cm^3
# Si number density = 23.089353 Si / 1000 Ang^3
#
#
#
# Elastic Constant Matrix: (Units=GPa)
#
#
# Indices 1 2 3 4 5 6 
#
# 1 12.7232 2.9629 6.0362 0.0000 11.2562 0.0000
# 2 2.9629 112.6972 7.5954 0.0000 12.1395 0.0000
# 3 6.0362 7.5954 99.1946 0.0000 21.5815 0.0000
# 4 0.0000 0.0000 0.0000 27.3401 0.0000 16.9117
# 5 11.2562 12.1395 21.5815 0.0000 36.6385 0.0000
# 6 0.0000 0.0000 0.0000 16.9117 0.0000 15.9266
#
#
#
# Elastic Compliance Matrix: (Units=1/GPa)
#
#
# Indices 1 2 3 4 5 6 
#
# 1 0.108043 0.000759 0.000738 0.000000 -0.033880 0.000000
# 2 0.000759 0.009207 -0.000042 0.000000 -0.003259 0.000000
# 3 0.000738 -0.000042 0.011568 0.000000 -0.007027 0.000000
# 4 0.000000 0.000000 0.000000 0.106582 0.000000 -0.113173
# 5 -0.033880 -0.003259 -0.007027 0.000000 0.042921 0.000000
# 6 0.000000 0.000000 0.000000 -0.113173 0.000000 0.182961
#
#
# Mechanical properties :
#
#
# Convention : Reuss Voigt Hill
#
# Bulk Modulus (GPa) = 7.59136 28.64490 18.11813
# Shear Modulus (GPa) = 9.95459 29.84909 19.90184
#
# Velocity S-wave (km/s) = 2.07863 3.59940 2.93908
# Velocity P-wave (km/s) = 3.00930 5.45044 4.40245
#
# Compressibility (1/GPa) = 0.13172872
#
# Stress axis : x y z
#
# Youngs Moduli (GPa) = 9.25561 108.60980 86.44273
#
# Poissons Ratio (x) = -0.08245 -0.06382
# Poissons Ratio (y) = -0.00703 0.00364
# Poissons Ratio (z) = -0.00683 0.00458
#
# Static dielectric constant tensor:
#      x y z
#    x 1.902070 0.000000 -0.036110 
#    y 0.000000 1.834790 0.000000 
#    z -0.036110 0.000000 1.960160 
# 
# From -- ./inp_files/180053.got.cif
#   From: 2010.05.17/outbox.cif.g08.bks.cpg/sg12_91_cif.got.tgz:180053.got - 2010.06.03 13:09:07.
