data_PCOD9198648
_publ_section_title
;
Structure prediction by ZEFSAII (Michael W. Deem and Ramdas Pophale) SiO2 
 PCOD9198648
Probable space group: C 2/M
;
_chemical_formula_sum "Si O2"
_cell_formula_units_Z 64
_cell_length_a 27.010934
_cell_length_b 7.699031
_cell_length_c 12.644335
_cell_angle_alpha 90.000000
_cell_angle_beta 95.607441
_cell_angle_gamma 90.000000
_cell_volume 2616.907994
_symmetry_space_group_name_H-M "C 2/M"
_symmetry_group_IT_number 12
_symmetry_cell_setting 'monoclinic'
loop_
_space_group_symop_operation_xyz
x,y,z
-x,y,-z
-x,-y,-z
x,-y,z
1/2+x,1/2+y,z
1/2-x,1/2+y,-z
1/2-x,1/2-y,-z
1/2+x,1/2-y,z
loop_
_atom_site_type_symbol
_atom_site_label
_atom_site_fract_x
_atom_site_fract_y
_atom_site_fract_z
Si Si1 0.306098 0.706895 0.045959
Si Si2 0.517410 0.295935 0.389367
Si Si3 0.310782 0.292572 0.434281
Si Si4 0.366043 0.199589 0.250326
Si Si5 0.396105 0.206453 0.728272
Si Si6 0.464173 0.304455 0.173107
Si Si7 0.409708 0.709562 0.963633
Si Si8 0.707043 0.196047 0.336883
O O1 0.309308 0.500000 0.048761
O O2 0.353661 0.770240 0.985328
O O3 0.250000 0.750000 0.000000
O O4 0.318202 0.776203 0.165470
O O5 0.500000 0.225533 0.500000
O O6 0.503508 0.500000 0.387870
O O7 0.575001 0.281342 0.366994
O O8 0.492159 0.217632 0.278168
O O9 0.305417 0.500000 0.451453
O O10 0.356027 0.256089 0.367225
O O11 0.311539 0.197052 0.545307
O O12 0.261619 0.226990 0.361169
O O13 0.408414 0.315043 0.208090
O O14 0.381378 0.000000 0.249891
O O15 0.421642 0.240716 0.846214
O O16 0.339927 0.279921 0.729926
O O17 0.392304 0.000000 0.712076
O O18 0.484902 0.500000 0.161415
O O19 0.450801 0.225142 0.056388
O O20 0.410130 0.500000 0.970806
O O21 0.713830 0.000000 0.296851
#
# Coordination Sequence:
#
# PCOD9198648 Si02
#       8
#     8   8   8   8   8   8   8   8
#     4  10  21  37  57  86 122 162 207 256 304 355
#     4  10  23  43  67  94 120 154 202 250 309 378
#     4  10  20  36  58  82 113 158 204 248 296 357
#     4  11  22  35  56  87 120 159 201 245 302 362
#     4  11  24  40  61  91 126 160 198 252 311 364
#     4   9  20  41  64  88 120 157 203 257 306 360
#     4   9  20  39  61  86 119 160 205 249 300 362
#     4   9  21  39  55  81 117 155 197 246 302 357
#
# _framework density 24.456344000000001
#
# number of rings (size 3 to 8) (size 9 to 14) (size 15 to 20)
#    0.000    2.125    0.000    3.000    3.500    5.250 
#    0.000    2.500    0.000    0.000    0.000    0.000 
#    0.000    0.000    0.000    0.000    0.000    0.000 
#
# Total GULP energy -178620.706747 kJ/mol
# GULP energy per Si atom -5581.897086 kJ/mol
# Density = 2.440068 g / cm^3
# Si number density = 24.456344 Si / 1000 Ang^3
#
#
#
# Elastic Constant Matrix: (Units=GPa)
#
#
# Indices 1 2 3 4 5 6 
#
# 1 56.5895 1.7002 30.2625 0.0000 9.3788 0.0000
# 2 1.7002 80.8733 0.0571 0.0000 0.3954 0.0000
# 3 30.2625 0.0571 121.9882 0.0000 -14.2747 0.0000
# 4 0.0000 0.0000 0.0000 6.5575 0.0000 -4.0604
# 5 9.3788 0.3954 -14.2747 0.0000 39.5885 0.0000
# 6 0.0000 0.0000 0.0000 -4.0604 0.0000 18.5991
#
#
#
# Elastic Compliance Matrix: (Units=1/GPa)
#
#
# Indices 1 2 3 4 5 6 
#
# 1 0.022396 -0.000429 -0.006448 0.000000 -0.007627 0.000000
# 2 -0.000429 0.012374 0.000102 0.000000 0.000015 0.000000
# 3 -0.006448 0.000102 0.010415 0.000000 0.005282 0.000000
# 4 0.000000 0.000000 0.000000 0.176333 0.000000 0.038496
# 5 -0.007627 0.000015 0.005282 0.000000 0.028971 0.000000
# 6 0.000000 0.000000 0.000000 0.038496 0.000000 0.062170
#
#
# Mechanical properties :
#
#
# Convention : Reuss Voigt Hill
#
# Bulk Modulus (GPa) = 31.60986 35.94340 33.77663
# Shear Modulus (GPa) = 14.84759 28.11110 21.47934
#
# Velocity S-wave (km/s) = 2.46662 3.39402 2.96678
# Velocity P-wave (km/s) = 4.58970 5.48525 5.05734
#
# Compressibility (1/GPa) = 0.03163570
#
# Stress axis : x y z
#
# Youngs Moduli (GPa) = 44.65012 80.81528 96.01317
#
# Poissons Ratio (x) = 0.03467 0.61912
# Poissons Ratio (y) = 0.01916 -0.00983
# Poissons Ratio (z) = 0.28792 -0.00827
#
# Static dielectric constant tensor:
#      x y z
#    x 2.042670 0.000000 0.059450 
#    y 0.000000 1.940190 0.000000 
#    z 0.059450 0.000000 1.946770 
# 
# From -- ./inp_files/187463.got.cif
#   From: 2010.05.17/outbox.cif.g08.bks.cpg/sg12_94_cif.got.tgz:187463.got - 2010.06.03 13:09:07.
