data_PCOD9198799
_publ_section_title
;
Structure prediction by ZEFSAII (Michael W. Deem and Ramdas Pophale) SiO2 
 PCOD9198799
Probable space group: C 2/M
;
_chemical_formula_sum "Si O2"
_cell_formula_units_Z 64
_cell_length_a 12.253414
_cell_length_b 18.210872
_cell_length_c 14.264832
_cell_angle_alpha 90.000000
_cell_angle_beta 92.165044
_cell_angle_gamma 90.000000
_cell_volume 3180.858709
_symmetry_space_group_name_H-M "C 2/M"
_symmetry_group_IT_number 12
_symmetry_cell_setting 'monoclinic'
loop_
_space_group_symop_operation_xyz
x,y,z
-x,y,-z
-x,-y,-z
x,-y,z
1/2+x,1/2+y,z
1/2-x,1/2+y,-z
1/2-x,1/2-y,-z
1/2+x,1/2-y,z
loop_
_atom_site_type_symbol
_atom_site_label
_atom_site_fract_x
_atom_site_fract_y
_atom_site_fract_z
Si Si1 0.338446 0.917728 0.240847
Si Si2 0.501687 0.910900 0.604970
Si Si3 0.761028 0.671928 0.803608
Si Si4 0.137407 0.173407 0.250342
Si Si5 0.955446 0.794680 0.100569
Si Si6 0.017829 0.377332 0.105168
Si Si7 0.387214 0.587935 0.554018
Si Si8 0.253023 0.087131 0.629691
O O1 0.396452 0.881678 0.333355
O O2 0.234217 0.873383 0.206346
O O3 0.437356 0.918818 0.171721
O O4 0.303604 0.000000 0.262436
O O5 0.500000 0.883109 0.500000
O O6 0.382216 0.896575 0.641303
O O7 0.513719 0.000000 0.603754
O O8 0.817261 0.743490 0.757946
O O9 0.670824 0.691998 0.878560
O O10 0.857703 0.625064 0.855407
O O11 0.703533 0.628798 0.716490
O O12 0.029096 0.170230 0.184606
O O13 0.120900 0.138409 0.353455
O O14 0.977491 0.707374 0.105216
O O15 0.000000 0.819093 0.000000
O O16 0.000000 0.405125 0.000000
O O17 0.500000 0.598155 0.500000
O O18 0.379594 0.500000 0.576950
O O19 0.293433 0.606045 0.474290
O O20 0.236659 0.000000 0.638770
#
# Coordination Sequence:
#
# PCOD9198799 Si02
#       8
#     8   8   8   8   8   8   8   8
#     4  11  21  37  60  89 125 157 197 252 306 364
#     4   9  17  31  53  81 112 149 192 233 285 354
#     4  11  22  39  64  91 123 158 201 263 309 357
#     4  11  23  38  62  92 124 157 211 257 303 360
#     4  10  23  41  64  87 117 162 207 253 309 374
#     4  10  22  37  61  90 117 155 203 248 309 372
#     4  10  21  39  61  85 121 171 212 243 293 365
#     4  10  20  36  58  85 117 160 204 243 300 364
#
# _framework density 20.120353000000001
#
# number of rings (size 3 to 8) (size 9 to 14) (size 15 to 20)
#    0.000    1.750    2.500    1.875    1.750    4.250 
#    0.000    1.250    0.000    1.875    0.000    0.000 
#    0.000    0.000    0.000    0.000    0.000    0.000 
#
# Total GULP energy -178528.874939 kJ/mol
# GULP energy per Si atom -5579.027342 kJ/mol
# Density = 2.007456 g / cm^3
# Si number density = 20.120353 Si / 1000 Ang^3
#
#
#
# Elastic Constant Matrix: (Units=GPa)
#
#
# Indices 1 2 3 4 5 6 
#
# 1 84.3020 21.6347 29.5430 0.0000 -4.1737 0.0000
# 2 21.6347 38.4849 33.7043 0.0000 3.4314 0.0000
# 3 29.5430 33.7043 121.0190 0.0000 -7.2169 0.0000
# 4 0.0000 0.0000 0.0000 9.7958 0.0000 -12.7725
# 5 -4.1737 3.4314 -7.2169 0.0000 31.2979 0.0000
# 6 0.0000 0.0000 0.0000 -12.7725 0.0000 4.0585
#
#
#
# Elastic Compliance Matrix: (Units=1/GPa)
#
#
# Indices 1 2 3 4 5 6 
#
# 1 0.014265 -0.007012 -0.001389 0.000000 0.002351 0.000000
# 2 -0.007012 0.038985 -0.009588 0.000000 -0.007420 0.000000
# 3 -0.001389 -0.009588 0.011482 0.000000 0.003514 0.000000
# 4 0.000000 0.000000 0.000000 -0.032895 0.000000 -0.103522
# 5 0.002351 -0.007420 0.003514 0.000000 0.033888 0.000000
# 6 0.000000 0.000000 0.000000 -0.103522 0.000000 -0.079396
#
#
# Mechanical properties :
#
#
# Convention : Reuss Voigt Hill
#
# Bulk Modulus (GPa) = 34.77909 45.95223 40.36566
# Shear Modulus (GPa) = 156.77525 19.62539 88.20032
#
# Velocity S-wave (km/s) = 8.83674 3.12653 6.62809
# Velocity P-wave (km/s) = 11.01999 5.99348 8.87023
#
# Compressibility (1/GPa) = 0.02875291
#
# Stress axis : x y z
#
# Youngs Moduli (GPa) = 70.10221 25.65101 87.09149
#
# Poissons Ratio (x) = 0.17987 0.12099
# Poissons Ratio (y) = 0.49156 0.83505
# Poissons Ratio (z) = 0.09739 0.24595
#
# Static dielectric constant tensor:
#      x y z
#    x 1.738760 0.000000 -0.020850 
#    y 0.000000 1.694020 0.000000 
#    z -0.020850 0.000000 1.740630 
# 
# From -- ./inp_files/206706.got.cif
#   From: 2010.05.17/outbox.cif.g08.bks.cpg/sg12_104_cif.got.tgz:206706.got - 2010.06.03 13:09:07.
