data_PCOD9198782
_publ_section_title
;
Structure prediction by ZEFSAII (Michael W. Deem and Ramdas Pophale) SiO2 
 PCOD9198782
Probable space group: C 2/M
;
_chemical_formula_sum "Si O2"
_cell_formula_units_Z 48
_cell_length_a 25.825322
_cell_length_b 11.301324
_cell_length_c 22.439618
_cell_angle_alpha 90.000000
_cell_angle_beta 159.356247
_cell_angle_gamma 90.000000
_cell_volume 2308.974172
_symmetry_space_group_name_H-M "C 2/M"
_symmetry_group_IT_number 12
_symmetry_cell_setting 'monoclinic'
loop_
_space_group_symop_operation_xyz
x,y,z
-x,y,-z
-x,-y,-z
x,-y,z
1/2+x,1/2+y,z
1/2-x,1/2+y,-z
1/2-x,1/2-y,-z
1/2+x,1/2-y,z
loop_
_atom_site_type_symbol
_atom_site_label
_atom_site_fract_x
_atom_site_fract_y
_atom_site_fract_z
Si Si1 0.863389 0.860989 0.956609
Si Si2 0.853108 0.761026 0.689704
Si Si3 0.840761 0.261744 0.158768
Si Si4 0.355853 0.133099 0.386451
Si Si5 0.580371 0.123601 0.350207
Si Si6 0.109946 0.866436 0.494840
O O1 0.759915 0.797942 0.894388
O O2 0.783711 0.853511 0.807345
O O3 0.877046 0.000000 0.986779
O O4 0.022600 0.800482 0.130988
O O5 0.738919 0.863782 0.550687
O O6 0.929238 0.724406 0.709833
O O7 0.744892 0.656004 0.594542
O O8 0.959821 0.361840 0.271045
O O9 0.949830 0.152958 0.292133
O O10 0.750000 0.250000 0.000000
O O11 0.500000 0.130492 0.500000
O O12 0.370651 0.252159 0.441268
O O13 0.346887 0.000000 0.404929
O O14 0.559666 0.000000 0.296463
O O15 0.118530 0.000000 0.528699
#
# Coordination Sequence:
#
# PCOD9198782 Si02
#       6
#     8   8   8   8   8   8
#     4  11  22  40  66  95 126 166 221 277 320 376
#     4  10  22  39  57  90 129 166 213 258 317 379
#     4  11  22  40  61  96 127 164 212 262 319 381
#     4  10  22  43  69  95 126 166 218 273 323 378
#     4  10  20  36  58  84 125 172 208 251 312 378
#     4  11  25  44  67  95 133 174 214 263 326 391
#
# _framework density 20.788453000000001
#
# number of rings (size 3 to 8) (size 9 to 14) (size 15 to 20)
#    0.000    1.500    3.333    1.500    0.000    5.667 
#    0.000    4.167    0.000    0.000    0.000    0.000 
#    0.000    0.000    0.000    0.000    0.000    0.000 
#
# Total GULP energy -133837.456428 kJ/mol
# GULP energy per Si atom -5576.560685 kJ/mol
# Density = 2.074114 g / cm^3
# Si number density = 20.788453 Si / 1000 Ang^3
#
#
#
# Elastic Constant Matrix: (Units=GPa)
#
#
# Indices 1 2 3 4 5 6 
#
# 1 52.0061 33.9838 11.9816 -0.0001 -1.8365 0.0000
# 2 33.9838 129.1468 35.9934 -0.0003 -9.9754 -0.0001
# 3 11.9816 35.9934 127.3920 -0.0002 -12.4527 -0.0001
# 4 -0.0001 -0.0003 -0.0002 7.5641 -0.0002 -7.0508
# 5 -1.8365 -9.9754 -12.4527 -0.0002 31.9198 -0.0001
# 6 0.0000 -0.0001 -0.0001 -7.0508 -0.0001 18.3615
#
#
#
# Elastic Compliance Matrix: (Units=1/GPa)
#
#
# Indices 1 2 3 4 5 6 
#
# 1 0.023268 -0.006025 -0.000561 0.000000 -0.000763 0.000000
# 2 -0.006025 0.010062 -0.002082 0.000000 0.001986 0.000000
# 3 -0.000561 -0.002082 0.008758 0.000000 0.002734 0.000000
# 4 0.000000 0.000000 0.000000 0.205905 0.000002 0.079068
# 5 -0.000763 0.001986 0.002734 0.000002 0.032972 0.000001
# 6 0.000000 0.000000 0.000000 0.079068 0.000001 0.084824
#
#
# Mechanical properties :
#
#
# Convention : Reuss Voigt Hill
#
# Bulk Modulus (GPa) = 40.40081 52.49584 46.44833
# Shear Modulus (GPa) = 12.77543 26.67484 19.72513
#
# Velocity S-wave (km/s) = 2.48169 3.58600 3.08368
# Velocity P-wave (km/s) = 5.26195 6.51561 5.92205
#
# Compressibility (1/GPa) = 0.02475198
#
# Stress axis : x y z
#
# Youngs Moduli (GPa) = 42.97725 99.38026 114.18070
#
# Poissons Ratio (x) = 0.59881 0.06401
# Poissons Ratio (y) = 0.25896 0.23775
# Poissons Ratio (z) = 0.02409 0.20693
#
# Static dielectric constant tensor:
#      x y z
#    x 1.796000 0.000000 -0.014630 
#    y 0.000000 1.784850 0.000000 
#    z -0.014630 0.000000 1.786520 
# 
# From -- ./inp_files/351923.got.cif
#   From: 2010.05.17/outbox.cif.g08.bks.cpg/sg12_176_cif.got.tgz:351923.got - 2010.06.03 13:09:07.
