data_PCOD9198249
_publ_section_title
;
Structure prediction by ZEFSAII (Michael W. Deem and Ramdas Pophale) SiO2 
 PCOD9198249
Probable space group: C 2/M
;
_chemical_formula_sum "Si O2"
_cell_formula_units_Z 40
_cell_length_a 15.035884
_cell_length_b 8.872577
_cell_length_c 31.324496
_cell_angle_alpha 90.000000
_cell_angle_beta 147.297316
_cell_angle_gamma 90.000000
_cell_volume 2257.779461
_symmetry_space_group_name_H-M "C 2/M"
_symmetry_group_IT_number 12
_symmetry_cell_setting 'monoclinic'
loop_
_space_group_symop_operation_xyz
x,y,z
-x,y,-z
-x,-y,-z
x,-y,z
1/2+x,1/2+y,z
1/2-x,1/2+y,-z
1/2-x,1/2-y,-z
1/2+x,1/2-y,z
loop_
_atom_site_type_symbol
_atom_site_label
_atom_site_fract_x
_atom_site_fract_y
_atom_site_fract_z
Si Si1 0.181615 0.319597 0.591190
Si Si2 0.906835 0.681763 0.006127
Si Si3 0.126114 0.819553 0.415619
Si Si4 0.466918 0.319626 0.122001
Si Si5 0.737012 0.680322 0.704914
O O1 0.182724 0.500000 0.600027
O O2 0.308556 0.284494 0.604905
O O3 0.227553 0.231934 0.652185
O O4 0.000000 0.281363 0.500000
O O5 0.921666 0.500000 0.014954
O O6 0.976409 0.753034 0.077899
O O7 0.711672 0.719504 0.929463
O O8 0.000000 0.728539 0.000000
O O9 0.250000 0.750000 0.500000
O O10 0.939036 0.770657 0.346854
O O11 0.132417 0.000000 0.423501
O O12 0.476247 0.500000 0.123562
O O13 0.612592 0.255013 0.209554
O O14 0.750185 0.500000 0.713366
#
# Coordination Sequence:
#
# PCOD9198249 Si02
#       5
#     8   8   8   8   8
#     4  10  20  36  57  78 104 142 187 234 280 327
#     4   9  19  38  63  86 112 146 182 224 275 330
#     4  10  21  36  55  78 105 142 185 230 279 326
#     4  10  21  37  58  85 115 147 183 226 275 328
#     4  11  23  37  55  81 115 149 185 231 277 329
#
# _framework density 17.716522999999999
#
# number of rings (size 3 to 8) (size 9 to 14) (size 15 to 20)
#    0.000    2.000    2.000    1.200    0.000    4.800 
#    0.000    8.000    0.000    0.000    0.000    0.000 
#    0.000    0.000    0.000    0.000    0.000    0.000 
#
# Total GULP energy -111637.834348 kJ/mol
# GULP energy per Si atom -5581.891717 kJ/mol
# Density = 1.767620 g / cm^3
# Si number density = 17.716523 Si / 1000 Ang^3
#
#
#
# Elastic Constant Matrix: (Units=GPa)
#
#
# Indices 1 2 3 4 5 6 
#
# 1 154.9733 45.0426 85.4484 0.0000 -1.4683 0.0000
# 2 45.0426 24.9679 46.7879 0.0000 -1.2357 0.0000
# 3 85.4484 46.7879 164.3856 0.0000 -3.5979 0.0000
# 4 0.0000 0.0000 0.0000 35.9508 0.0000 -6.5698
# 5 -1.4683 -1.2357 -3.5979 0.0000 16.8053 0.0000
# 6 0.0000 0.0000 0.0000 -6.5698 0.0000 29.2604
#
#
#
# Elastic Compliance Matrix: (Units=1/GPa)
#
#
# Indices 1 2 3 4 5 6 
#
# 1 0.013575 -0.024155 -0.000195 0.000000 -0.000632 0.000000
# 2 -0.024155 0.128832 -0.024064 0.000000 0.002211 0.000000
# 3 -0.000195 -0.024064 0.013056 0.000000 0.001009 0.000000
# 4 0.000000 0.000000 0.000000 0.029006 0.000000 0.006513
# 5 -0.000632 0.002211 0.001009 0.000000 0.059828 0.000000
# 6 0.000000 0.000000 0.000000 0.006513 0.000000 0.035638
#
#
# Mechanical properties :
#
#
# Convention : Reuss Voigt Hill
#
# Bulk Modulus (GPa) = 17.05502 77.65383 47.35442
# Shear Modulus (GPa) = 12.61646 27.53984 20.07815
#
# Velocity S-wave (km/s) = 2.67147 3.94696 3.37011
# Velocity P-wave (km/s) = 4.37758 8.04349 6.47537
#
# Compressibility (1/GPa) = 0.05863376
#
# Stress axis : x y z
#
# Youngs Moduli (GPa) = 73.66521 7.76208 76.59412
#
# Poissons Ratio (x) = 0.18750 0.01493
# Poissons Ratio (y) = 1.77941 1.84316
# Poissons Ratio (z) = 0.01436 0.18679
#
# Static dielectric constant tensor:
#      x y z
#    x 1.601700 0.000000 0.024880 
#    y 0.000000 1.598800 0.000000 
#    z 0.024880 0.000000 1.569310 
# 
# From -- ./inp_files/211206.got.cif
#   From: 2010.05.17/outbox.cif.g08.bks.cpg/sg12_106_cif.got.tgz:211206.got - 2010.06.03 13:09:07.
