data_PCOD9198489
_publ_section_title
;
Structure prediction by ZEFSAII (Michael W. Deem and Ramdas Pophale) SiO2 
 PCOD9198489
Probable space group: C 2/M
;
_chemical_formula_sum "Si O2"
_cell_formula_units_Z 36
_cell_length_a 10.232175
_cell_length_b 25.488850
_cell_length_c 5.231958
_cell_angle_alpha 90.000000
_cell_angle_beta 75.704586
_cell_angle_gamma 90.000000
_cell_volume 1322.276064
_symmetry_space_group_name_H-M "C 2/M"
_symmetry_group_IT_number 12
_symmetry_cell_setting 'monoclinic'
loop_
_space_group_symop_operation_xyz
x,y,z
-x,y,-z
-x,-y,-z
x,-y,z
1/2+x,1/2+y,z
1/2-x,1/2+y,-z
1/2-x,1/2-y,-z
1/2+x,1/2-y,z
loop_
_atom_site_type_symbol
_atom_site_label
_atom_site_fract_x
_atom_site_fract_y
_atom_site_fract_z
Si Si1 0.657812 0.107712 0.840464
Si Si2 0.410653 0.330997 0.301526
Si Si3 0.848864 0.061208 0.186055
Si Si4 0.091034 0.500000 0.698914
Si Si5 0.097289 0.718990 0.704632
O O1 0.664421 0.055699 0.663930
O O2 0.682061 0.165619 0.715400
O O3 0.500000 0.110258 0.000000
O O4 0.749231 0.090190 0.033835
O O5 0.500000 0.316604 0.500000
O O6 0.367246 0.390923 0.375256
O O7 0.328725 0.276264 0.304530
O O8 0.500000 0.334823 0.000000
O O9 0.808628 0.000000 0.248024
O O10 0.000000 0.055406 0.000000
O O11 0.000000 0.500000 0.500000
O O12 0.000000 0.500000 0.000000
O O13 0.000000 0.710573 0.500000
O O14 0.000000 0.721178 0.000000
#
# Coordination Sequence:
#
# PCOD9198489 Si02
#       5
#     8   8   8   4   8
#     4  10  20  37  63  91 125 161 205 257 313 370
#     4   9  19  38  62  88 123 164 206 256 311 369
#     4  10  21  39  63  89 126 165 212 255 310 370
#     4  10  20  36  57  86 121 158 195 246 303 360
#     4   9  18  35  61  92 123 159 205 256 312 372
#
# _framework density 27.225781999999999
#
# number of rings (size 3 to 8) (size 9 to 14) (size 15 to 20)
#    0.000    2.444    1.111    0.667    0.000    1.333 
#    0.000   17.778    0.000   24.000    0.000    0.000 
#    0.000    0.000    0.000    0.000    0.000    0.000 
#
# Total GULP energy -100500.216787 kJ/mol
# GULP energy per Si atom -5583.345377 kJ/mol
# Density = 2.716382 g / cm^3
# Si number density = 27.225782 Si / 1000 Ang^3
#
#
#
# Elastic Constant Matrix: (Units=GPa)
#
#
# Indices 1 2 3 4 5 6 
#
# 1 81.6500 43.1813 -9.4354 0.0000 4.3402 0.0000
# 2 43.1813 355.3130 16.8484 0.0000 -31.4944 0.0000
# 3 -9.4354 16.8484 90.0671 0.0000 7.3518 0.0000
# 4 0.0000 0.0000 0.0000 -9.6500 0.0000 20.2274
# 5 4.3402 -31.4944 7.3518 0.0000 48.9559 0.0000
# 6 0.0000 0.0000 0.0000 20.2274 0.0000 51.9783
#
#
#
# Elastic Compliance Matrix: (Units=1/GPa)
#
#
# Indices 1 2 3 4 5 6 
#
# 1 0.013696 -0.002011 0.002041 0.000000 -0.002814 0.000000
# 2 -0.002011 0.003327 -0.001035 0.000000 0.002474 0.000000
# 3 0.002041 -0.001035 0.011723 0.000000 -0.002607 0.000000
# 4 0.000000 0.000000 0.000000 -0.057073 0.000000 0.022210
# 5 -0.002814 0.002474 -0.002607 0.000000 0.022659 0.000000
# 6 0.000000 0.000000 0.000000 0.022210 0.000000 0.010596
#
#
# Mechanical properties :
#
#
# Convention : Reuss Voigt Hill
#
# Bulk Modulus (GPa) = 37.40231 69.80208 53.60219
# Shear Modulus (GPa) = 315.44404 50.01923 182.73164
#
# Velocity S-wave (km/s) = 10.77561 4.29091 8.20139
# Velocity P-wave (km/s) = 12.98407 7.08824 10.46014
#
# Compressibility (1/GPa) = 0.02673632
#
# Stress axis : x y z
#
# Youngs Moduli (GPa) = 73.01296 300.55635 85.30205
#
# Poissons Ratio (x) = 0.60433 -0.17407
# Poissons Ratio (y) = 0.14681 0.08829
# Poissons Ratio (z) = -0.14900 0.31107
#
# Static dielectric constant tensor:
#      x y z
#    x 2.163030 0.000000 -0.076650 
#    y 0.000000 2.031160 0.000000 
#    z -0.076650 0.000000 2.067090 
# 
# From -- ./inp_files/7420.got.cif
#   From: 2010.05.17/outbox.cif.g08.bks.cpg/sg12_4_cif.got.tgz:7420.got - 2010.06.03 13:09:07.
