data_PCOD9198595
_publ_section_title
;
Structure prediction by ZEFSAII (Michael W. Deem and Ramdas Pophale) SiO2 
 PCOD9198595
Probable space group: C 2/M
;
_chemical_formula_sum "Si O2"
_cell_formula_units_Z 40
_cell_length_a 20.671665
_cell_length_b 13.330282
_cell_length_c 14.573449
_cell_angle_alpha 90.000000
_cell_angle_beta 150.226077
_cell_angle_gamma 90.000000
_cell_volume 1994.185062
_symmetry_space_group_name_H-M "C 2/M"
_symmetry_group_IT_number 12
_symmetry_cell_setting 'monoclinic'
loop_
_space_group_symop_operation_xyz
x,y,z
-x,y,-z
-x,-y,-z
x,-y,z
1/2+x,1/2+y,z
1/2-x,1/2+y,-z
1/2-x,1/2-y,-z
1/2+x,1/2-y,z
loop_
_atom_site_type_symbol
_atom_site_label
_atom_site_fract_x
_atom_site_fract_y
_atom_site_fract_z
Si Si1 0.537354 0.688698 0.400551
Si Si2 0.524887 0.173483 0.927133
Si Si3 0.546738 0.612296 0.206357
Si Si4 0.812690 0.115393 0.237399
Si Si5 0.352346 0.885940 0.547117
O O1 0.544819 0.630288 0.313652
O O2 0.392359 0.682462 0.263399
O O3 0.629220 0.639980 0.590788
O O4 0.585325 0.801319 0.440196
O O5 0.530771 0.294662 0.931368
O O6 0.408745 0.138559 0.717747
O O7 0.500000 0.139725 0.000000
O O8 0.659422 0.132931 0.052462
O O9 0.500391 0.500000 0.127296
O O10 0.696489 0.622534 0.358609
O O11 0.841301 0.000000 0.250024
O O12 0.386912 0.000000 0.565161
#
# Coordination Sequence:
#
# PCOD9198595 Si02
#       5
#     8   8   8   8   8
#     4  10  20  38  57  80 111 145 185 223 269 326
#     4  11  22  36  55  84 112 140 184 233 272 316
#     4  10  20  36  58  81 111 150 183 218 271 328
#     4  11  22  36  58  84 110 142 182 229 274 320
#     4  10  21  37  58  82 111 147 183 222 270 325
#
# _framework density 20.058319999999998
#
# number of rings (size 3 to 8) (size 9 to 14) (size 15 to 20)
#    0.000    1.600    0.000    7.800    0.000    6.800 
#    0.000    6.000    0.000    0.000    0.000    0.000 
#    0.000    0.000    0.000    0.000    0.000    0.000 
#
# Total GULP energy -111801.599992 kJ/mol
# GULP energy per Si atom -5590.080000 kJ/mol
# Density = 2.001267 g / cm^3
# Si number density = 20.058320 Si / 1000 Ang^3
#
#
#
# Elastic Constant Matrix: (Units=GPa)
#
#
# Indices 1 2 3 4 5 6 
#
# 1 83.8920 27.2715 -0.8248 0.0000 13.1998 0.0000
# 2 27.2715 106.4266 -4.1521 0.0000 13.4063 0.0000
# 3 -0.8248 -4.1521 19.3434 0.0000 6.5773 0.0000
# 4 0.0000 0.0000 0.0000 25.2871 0.0000 12.7913
# 5 13.1998 13.4063 6.5773 0.0000 18.2878 0.0000
# 6 0.0000 0.0000 0.0000 12.7913 0.0000 17.2985
#
#
#
# Elastic Compliance Matrix: (Units=1/GPa)
#
#
# Indices 1 2 3 4 5 6 
#
# 1 0.014245 -0.002272 0.003474 0.000000 -0.009866 0.000000
# 2 -0.002272 0.011249 0.005200 0.000000 -0.008477 0.000000
# 3 0.003474 0.005200 0.062789 0.000000 -0.028902 0.000000
# 4 0.000000 0.000000 0.000000 0.063177 0.000000 -0.046716
# 5 -0.009866 -0.008477 -0.028902 0.000000 0.078411 0.000000
# 6 0.000000 0.000000 0.000000 -0.046716 0.000000 0.092352
#
#
# Mechanical properties :
#
#
# Convention : Reuss Voigt Hill
#
# Bulk Modulus (GPa) = 9.89230 28.25014 19.07122
# Shear Modulus (GPa) = 14.57236 24.66583 19.61910
#
# Velocity S-wave (km/s) = 2.69829 3.51052 3.13086
# Velocity P-wave (km/s) = 3.82755 5.52687 4.75376
#
# Compressibility (1/GPa) = 0.10108870
#
# Stress axis : x y z
#
# Youngs Moduli (GPa) = 70.19927 88.89682 15.92629
#
# Poissons Ratio (x) = 0.20197 -0.05534
# Poissons Ratio (y) = 0.15949 -0.08282
# Poissons Ratio (z) = -0.24391 -0.46227
#
# Static dielectric constant tensor:
#      x y z
#    x 1.687980 0.000000 -0.009420 
#    y 0.000000 1.723870 0.000000 
#    z -0.009420 0.000000 1.702460 
# 
# From -- ./inp_files/214578.got.cif
#   From: 2010.05.17/outbox.cif.g08.bks.cpg/sg12_108_cif.got.tgz:214578.got - 2010.06.03 13:09:07.
