data_PCOD9198920
_publ_section_title
;
Structure prediction by ZEFSAII (Michael W. Deem and Ramdas Pophale) SiO2 
 PCOD9198920
Probable space group: C 2/M
;
_chemical_formula_sum "Si O2"
_cell_formula_units_Z 44
_cell_length_a 12.334131
_cell_length_b 15.931500
_cell_length_c 12.113205
_cell_angle_alpha 90.000000
_cell_angle_beta 121.529940
_cell_angle_gamma 90.000000
_cell_volume 2028.854614
_symmetry_space_group_name_H-M "C 2/M"
_symmetry_group_IT_number 12
_symmetry_cell_setting 'monoclinic'
loop_
_space_group_symop_operation_xyz
x,y,z
-x,y,-z
-x,-y,-z
x,-y,z
1/2+x,1/2+y,z
1/2-x,1/2+y,-z
1/2-x,1/2-y,-z
1/2+x,1/2-y,z
loop_
_atom_site_type_symbol
_atom_site_label
_atom_site_fract_x
_atom_site_fract_y
_atom_site_fract_z
Si Si1 0.227260 0.596827 0.588382
Si Si2 0.003460 0.125893 0.630678
Si Si3 0.851572 0.707101 0.246685
Si Si4 0.853582 0.663825 0.898897
Si Si5 0.711832 0.500000 0.847785
Si Si6 0.565627 0.901216 0.282086
O O1 0.217502 0.500000 0.621338
O O2 0.366335 0.611628 0.611483
O O3 0.199625 0.658746 0.673625
O O4 0.127532 0.607981 0.435766
O O5 0.000000 0.102075 0.500000
O O6 0.047023 0.221984 0.664428
O O7 0.108299 0.072031 0.750925
O O8 0.737316 0.757423 0.128175
O O9 0.928081 0.641081 0.213576
O O10 0.812017 0.576072 0.930438
O O11 0.848621 0.643910 0.764022
O O12 0.000000 0.683673 0.000000
O O13 0.564527 0.000000 0.254613
#
# Coordination Sequence:
#
# PCOD9198920 Si02
#       6
#     8   8   8   8   4   8
#     4  11  22  38  62  93 131 161 192 239 305 380
#     4  11  21  33  59  90 125 158 199 242 300 363
#     4  11  24  39  60  90 128 162 198 247 306 361
#     4  11  24  42  66  86 117 159 217 260 297 345
#     4  10  20  36  58  90 111 150 198 260 296 340
#     4  11  23  39  63  93 125 163 198 243 305 366
#
# _framework density 21.687113
#
# number of rings (size 3 to 8) (size 9 to 14) (size 15 to 20)
#    0.000    1.091    1.818    6.000    2.545    4.364 
#    0.000    0.000    0.000    1.091    0.000    0.000 
#    0.000    0.000    0.000    0.000    0.000    0.000 
#
# Total GULP energy -122629.804952 kJ/mol
# GULP energy per Si atom -5574.082043 kJ/mol
# Density = 2.163775 g / cm^3
# Si number density = 21.687113 Si / 1000 Ang^3
#
#
#
# Elastic Constant Matrix: (Units=GPa)
#
#
# Indices 1 2 3 4 5 6 
#
# 1 80.7531 35.2623 24.1559 0.0000 8.4089 0.0000
# 2 35.2623 93.6248 43.5652 0.0000 3.6944 0.0000
# 3 24.1559 43.5652 62.2424 0.0000 18.7477 0.0000
# 4 0.0000 0.0000 0.0000 15.7724 0.0000 14.0127
# 5 8.4089 3.6944 18.7477 0.0000 40.4974 0.0000
# 6 0.0000 0.0000 0.0000 14.0127 0.0000 -1.0016
#
#
#
# Elastic Compliance Matrix: (Units=1/GPa)
#
#
# Indices 1 2 3 4 5 6 
#
# 1 0.015245 -0.004696 -0.002098 0.000000 -0.001766 0.000000
# 2 -0.004696 0.017953 -0.012252 0.000000 0.005009 0.000000
# 3 -0.002098 -0.012252 0.029037 0.000000 -0.011889 0.000000
# 4 0.000000 0.000000 0.000000 0.004721 0.000000 0.066050
# 5 -0.001766 0.005009 -0.011889 0.000000 0.030107 0.000000
# 6 0.000000 0.000000 0.000000 0.066050 0.000000 -0.074345
#
#
# Mechanical properties :
#
#
# Convention : Reuss Voigt Hill
#
# Bulk Modulus (GPa) = 41.41915 49.17636 45.29775
# Shear Modulus (GPa) = 72.61304 19.96278 46.28791
#
# Velocity S-wave (km/s) = 5.79265 3.03725 4.62492
# Velocity P-wave (km/s) = 7.99248 5.91815 7.03222
#
# Compressibility (1/GPa) = 0.02414342
#
# Stress axis : x y z
#
# Youngs Moduli (GPa) = 65.59316 55.70053 34.43879
#
# Poissons Ratio (x) = 0.26158 0.07224
# Poissons Ratio (y) = 0.30804 0.42195
# Poissons Ratio (z) = 0.13760 0.68245
#
# Static dielectric constant tensor:
#      x y z
#    x 1.783610 0.000000 -0.004330 
#    y 0.000000 1.795680 0.000000 
#    z -0.004330 0.000000 1.835960 
# 
# From -- ./inp_files/204638.got.cif
#   From: 2010.05.17/outbox.cif.g08.bks.cpg/sg12_103_cif.got.tgz:204638.got - 2010.06.03 13:09:07.
