data_PCOD9198707
_publ_section_title
;
Structure prediction by ZEFSAII (Michael W. Deem and Ramdas Pophale) SiO2 
 PCOD9198707
Probable space group: C 2/M
;
_chemical_formula_sum "Si O2"
_cell_formula_units_Z 40
_cell_length_a 9.433161
_cell_length_b 18.777322
_cell_length_c 12.265696
_cell_angle_alpha 90.000000
_cell_angle_beta 97.452783
_cell_angle_gamma 90.000000
_cell_volume 2154.262550
_symmetry_space_group_name_H-M "C 2/M"
_symmetry_group_IT_number 12
_symmetry_cell_setting 'monoclinic'
loop_
_space_group_symop_operation_xyz
x,y,z
-x,y,-z
-x,-y,-z
x,-y,z
1/2+x,1/2+y,z
1/2-x,1/2+y,-z
1/2-x,1/2-y,-z
1/2+x,1/2-y,z
loop_
_atom_site_type_symbol
_atom_site_label
_atom_site_fract_x
_atom_site_fract_y
_atom_site_fract_z
Si Si1 0.982346 0.668642 0.122127
Si Si2 0.491447 0.583044 0.126951
Si Si3 0.305497 0.708815 0.195078
Si Si4 0.300206 0.917319 0.270529
Si Si5 0.648610 0.212170 0.575908
O O1 0.135079 0.699954 0.174811
O O2 0.866003 0.732180 0.117169
O O3 0.922692 0.609522 0.199114
O O4 0.000000 0.643016 0.000000
O O5 0.450089 0.500000 0.132084
O O6 0.379864 0.634676 0.173550
O O7 0.648103 0.591562 0.194857
O O8 0.500000 0.601065 0.000000
O O9 0.356199 0.738215 0.317175
O O10 0.301751 0.864206 0.373083
O O11 0.318867 0.000000 0.300266
O O12 0.500000 0.203366 0.500000
O O13 0.750000 0.250000 0.500000
#
# Coordination Sequence:
#
# PCOD9198707 Si02
#       5
#     8   8   8   8   8
#     4  11  21  34  57  85 116 150 180 222 274 332
#     4  10  20  36  58  83 116 151 177 215 275 337
#     4  11  21  36  56  83 112 143 192 232 269 328
#     4  10  22  39  57  83 115 146 185 228 275 332
#     4  11  22  39  59  78 104 144 189 236 283 320
#
# _framework density 18.567838999999999
#
# number of rings (size 3 to 8) (size 9 to 14) (size 15 to 20)
#    0.000    1.400    0.000    8.400    0.000    1.600 
#    0.000    1.000    0.000    3.600    0.000    0.000 
#    0.000    0.000    0.000    0.000    0.000    0.000 
#
# Total GULP energy -111757.038248 kJ/mol
# GULP energy per Si atom -5587.851912 kJ/mol
# Density = 1.852558 g / cm^3
# Si number density = 18.567839 Si / 1000 Ang^3
#
#
#
# Elastic Constant Matrix: (Units=GPa)
#
#
# Indices 1 2 3 4 5 6 
#
# 1 81.7913 56.1207 25.5593 0.0000 -1.8811 0.0000
# 2 56.1207 126.7538 57.5346 0.0000 -7.9466 0.0000
# 3 25.5593 57.5346 102.0643 0.0000 2.0440 0.0000
# 4 0.0000 0.0000 0.0000 21.9362 0.0000 3.6499
# 5 -1.8811 -7.9466 2.0440 0.0000 35.4594 0.0000
# 6 0.0000 0.0000 0.0000 3.6499 0.0000 8.5793
#
#
#
# Elastic Compliance Matrix: (Units=1/GPa)
#
#
# Indices 1 2 3 4 5 6 
#
# 1 0.017585 -0.007857 0.000042 0.000000 -0.000830 0.000000
# 2 -0.007857 0.014382 -0.006203 0.000000 0.003164 0.000000
# 3 0.000042 -0.006203 0.013327 0.000000 -0.002156 0.000000
# 4 0.000000 0.000000 0.000000 0.049059 0.000000 -0.020871
# 5 -0.000830 0.003164 -0.002156 0.000000 0.028991 0.000000
# 6 0.000000 0.000000 0.000000 -0.020871 0.000000 0.125439
#
#
# Mechanical properties :
#
#
# Convention : Reuss Voigt Hill
#
# Bulk Modulus (GPa) = 57.94388 65.44872 61.69630
# Shear Modulus (GPa) = 17.69463 24.62129 21.15796
#
# Velocity S-wave (km/s) = 3.09037 3.64540 3.37930
# Velocity P-wave (km/s) = 6.63387 7.28310 6.96605
#
# Compressibility (1/GPa) = 0.01725808
#
# Stress axis : x y z
#
# Youngs Moduli (GPa) = 56.86650 69.53145 75.03485
#
# Poissons Ratio (x) = 0.54631 -0.00315
# Poissons Ratio (y) = 0.44680 0.46545
# Poissons Ratio (z) = -0.00239 0.43131
#
# Static dielectric constant tensor:
#      x y z
#    x 1.624160 0.000000 -0.005960 
#    y 0.000000 1.638160 0.000000 
#    z -0.005960 0.000000 1.643070 
# 
# From -- ./inp_files/118864.got.cif
#   From: 2010.05.17/outbox.cif.g08.bks.cpg/sg12_60_cif.got.tgz:118864.got - 2010.06.03 13:09:07.
