data_PCOD9198639
_publ_section_title
;
Structure prediction by ZEFSAII (Michael W. Deem and Ramdas Pophale) SiO2 
 PCOD9198639
Probable space group: C 2/M
;
_chemical_formula_sum "Si O2"
_cell_formula_units_Z 56
_cell_length_a 34.600746
_cell_length_b 8.306841
_cell_length_c 11.022928
_cell_angle_alpha 90.000000
_cell_angle_beta 57.960525
_cell_angle_gamma 90.000000
_cell_volume 2685.664141
_symmetry_space_group_name_H-M "C 2/M"
_symmetry_group_IT_number 12
_symmetry_cell_setting 'monoclinic'
loop_
_space_group_symop_operation_xyz
x,y,z
-x,y,-z
-x,-y,-z
x,-y,z
1/2+x,1/2+y,z
1/2-x,1/2+y,-z
1/2-x,1/2-y,-z
1/2+x,1/2-y,z
loop_
_atom_site_type_symbol
_atom_site_label
_atom_site_fract_x
_atom_site_fract_y
_atom_site_fract_z
Si Si1 0.999752 0.307901 0.359992
Si Si2 0.228149 0.812814 0.728765
Si Si3 0.096325 0.804689 0.581947
Si Si4 0.813354 0.189255 0.703564
Si Si5 0.906257 0.808852 0.900790
Si Si6 0.363520 0.695765 0.228842
Si Si7 0.316255 0.815518 0.958453
O O1 0.005218 0.500000 0.349262
O O2 0.042379 0.231529 0.219187
O O3 0.000000 0.253259 0.500000
O O4 0.951992 0.261621 0.378847
O O5 0.275741 0.721950 0.663077
O O6 0.188748 0.749014 0.704592
O O7 0.236757 0.000000 0.689424
O O8 0.204824 0.793842 0.900682
O O9 0.137152 0.756600 0.423944
O O10 0.112223 0.750819 0.689111
O O11 0.094096 0.000000 0.585686
O O12 0.800366 0.275561 0.850031
O O13 0.815133 0.000000 0.725522
O O14 0.870431 0.716902 0.874914
O O15 0.898604 0.000000 0.900343
O O16 0.892578 0.761723 0.060948
O O17 0.361191 0.500000 0.235923
O O18 0.305593 0.000000 0.006425
#
# Coordination Sequence:
#
# PCOD9198639 Si02
#       7
#     8   8   8   8   8   8   8
#     4  11  24  40  58  84 117 148 182 227 279 331
#     4  10  20  36  58  82 112 149 188 230 279 334
#     4  10  22  40  60  81 110 148 189 230 274 332
#     4  11  22  35  54  82 114 149 190 233 279 330
#     4  10  20  37  62  86 112 147 185 227 278 334
#     4   8  18  38  60  83 110 144 186 229 275 329
#     4  11  21  35  56  83 116 148 185 233 282 332
#
# _framework density 20.851451999999998
#
# number of rings (size 3 to 8) (size 9 to 14) (size 15 to 20)
#    0.000    1.857    0.000    5.143    0.000    5.714 
#    0.000    7.143    0.000    0.000    0.000    0.000 
#    0.000    0.000    0.000    0.000    0.000    0.000 
#
# Total GULP energy -156507.045326 kJ/mol
# GULP energy per Si atom -5589.537333 kJ/mol
# Density = 2.080399 g / cm^3
# Si number density = 20.851452 Si / 1000 Ang^3
#
#
#
# Elastic Constant Matrix: (Units=GPa)
#
#
# Indices 1 2 3 4 5 6 
#
# 1 124.1538 -7.1046 12.6228 0.0000 4.1245 0.0000
# 2 -7.1046 26.3341 -6.4060 0.0000 4.7256 0.0000
# 3 12.6228 -6.4060 26.5803 0.0000 2.1071 0.0000
# 4 0.0000 0.0000 0.0000 14.5498 0.0000 -5.1819
# 5 4.1245 4.7256 2.1071 0.0000 41.0738 0.0000
# 6 0.0000 0.0000 0.0000 -5.1819 0.0000 32.2729
#
#
#
# Elastic Compliance Matrix: (Units=1/GPa)
#
#
# Indices 1 2 3 4 5 6 
#
# 1 0.008540 0.001580 -0.003607 0.000000 -0.000854 0.000000
# 2 0.001580 0.041751 0.009745 0.000000 -0.005462 0.000000
# 3 -0.003607 0.009745 0.041914 0.000000 -0.002909 0.000000
# 4 0.000000 0.000000 0.000000 0.072898 0.000000 0.011705
# 5 -0.000854 -0.005462 -0.002909 0.000000 0.025210 0.000000
# 6 0.000000 0.000000 0.000000 0.011705 0.000000 0.032865
#
#
# Mechanical properties :
#
#
# Convention : Reuss Voigt Hill
#
# Bulk Modulus (GPa) = 9.29025 19.47694 14.38360
# Shear Modulus (GPa) = 20.52354 29.44302 24.98328
#
# Velocity S-wave (km/s) = 3.14072 3.76178 3.46519
# Velocity P-wave (km/s) = 4.19729 5.31311 4.78782
#
# Compressibility (1/GPa) = 0.10763969
#
# Stress axis : x y z
#
# Youngs Moduli (GPa) = 117.09533 23.95179 23.85835
#
# Poissons Ratio (x) = -0.03784 0.08606
# Poissons Ratio (y) = -0.18499 -0.23250
# Poissons Ratio (z) = 0.42238 -0.23341
#
# Static dielectric constant tensor:
#      x y z
#    x 1.747870 0.000000 0.002710 
#    y 0.000000 1.718790 0.000000 
#    z 0.002710 0.000000 1.742220 
# 
# From -- ./inp_files/181129.got.cif
#   From: 2010.05.17/outbox.cif.g08.bks.cpg/sg12_91_cif.got.tgz:181129.got - 2010.06.03 13:09:07.
