data_PCOD9198403
_publ_section_title
;
Structure prediction by ZEFSAII (Michael W. Deem and Ramdas Pophale) SiO2 
 PCOD9198403
Probable space group: C 2/M
;
_chemical_formula_sum "Si O2"
_cell_formula_units_Z 56
_cell_length_a 17.048709
_cell_length_b 14.755541
_cell_length_c 11.113268
_cell_angle_alpha 90.000000
_cell_angle_beta 61.805069
_cell_angle_gamma 90.000000
_cell_volume 2463.964769
_symmetry_space_group_name_H-M "C 2/M"
_symmetry_group_IT_number 12
_symmetry_cell_setting 'monoclinic'
loop_
_space_group_symop_operation_xyz
x,y,z
-x,y,-z
-x,-y,-z
x,-y,z
1/2+x,1/2+y,z
1/2-x,1/2+y,-z
1/2-x,1/2-y,-z
1/2+x,1/2-y,z
loop_
_atom_site_type_symbol
_atom_site_label
_atom_site_fract_x
_atom_site_fract_y
_atom_site_fract_z
Si Si1 0.074300 0.600611 0.341115
Si Si2 0.365834 0.594554 0.216902
Si Si3 0.856382 0.722796 0.081572
Si Si4 0.236341 0.854515 0.475751
Si Si5 0.165622 0.799143 0.273262
Si Si6 0.022588 0.182474 0.202623
Si Si7 0.928588 0.354948 0.267645
O O1 0.117052 0.500000 0.323333
O O2 0.135046 0.691854 0.303525
O O3 0.000000 0.609376 0.500000
O O4 0.016024 0.599200 0.259434
O O5 0.347666 0.500000 0.167090
O O6 0.339065 0.683354 0.164706
O O7 0.315769 0.597431 0.380534
O O8 0.470793 0.607050 0.167383
O O9 0.756731 0.689341 0.130206
O O10 0.907949 0.658365 0.140006
O O11 0.917001 0.754326 0.927912
O O12 0.250000 0.750000 0.500000
O O13 0.186957 0.846378 0.384059
O O14 0.336533 0.892006 0.386821
O O15 0.084120 0.846790 0.265668
O O16 0.945709 0.251649 0.301383
#
# Coordination Sequence:
#
# PCOD9198403 Si02
#       7
#     8   8   8   8   8   8   8
#     4  10  21  32  50  83 116 141 176 231 290 332
#     4  11  23  36  56  86 117 148 184 231 283 336
#     4  10  20  36  59  84 108 148 197 233 268 324
#     4  11  18  36  55  81 111 145 187 223 277 336
#     4  10  21  35  59  82 112 147 189 235 279 332
#     4  10  20  36  57  83 111 150 192 230 272 329
#     4   9  18  33  55  76 108 144 185 226 269 328
#
# _framework density 22.727596999999999
#
# number of rings (size 3 to 8) (size 9 to 14) (size 15 to 20)
#    0.000    1.857    4.286    3.000    2.000    2.286 
#    0.000    1.429    0.000    7.714    0.000    2.000 
#    0.000    0.000    0.000    0.000    0.000    0.000 
#
# Total GULP energy -156139.644353 kJ/mol
# GULP energy per Si atom -5576.415870 kJ/mol
# Density = 2.267587 g / cm^3
# Si number density = 22.727597 Si / 1000 Ang^3
#
#
#
# Elastic Constant Matrix: (Units=GPa)
#
#
# Indices 1 2 3 4 5 6 
#
# 1 113.6065 -12.4631 14.1545 0.0000 -5.3856 0.0000
# 2 -12.4631 56.5362 -1.3443 0.0000 -6.0982 0.0000
# 3 14.1545 -1.3443 83.8575 0.0000 -10.1513 0.0000
# 4 0.0000 0.0000 0.0000 -5.6344 0.0000 -6.0799
# 5 -5.3856 -6.0982 -10.1513 0.0000 28.6814 0.0000
# 6 0.0000 0.0000 0.0000 -6.0799 0.0000 -57.5901
#
#
#
# Elastic Compliance Matrix: (Units=1/GPa)
#
#
# Indices 1 2 3 4 5 6 
#
# 1 0.009292 0.002205 -0.001322 0.000000 0.001746 0.000000
# 2 0.002205 0.018677 0.000479 0.000000 0.004554 0.000000
# 3 -0.001322 0.000479 0.012681 0.000000 0.004342 0.000000
# 4 0.000000 0.000000 0.000000 -0.200299 0.000000 0.021146
# 5 0.001746 0.004554 0.004342 0.000000 0.037699 0.000000
# 6 0.000000 0.000000 0.000000 0.021146 0.000000 -0.019597
#
#
# Mechanical properties :
#
#
# Convention : Reuss Voigt Hill
#
# Bulk Modulus (GPa) = 23.05551 28.29937 25.67744
# Shear Modulus (GPa) = -38.51670 10.00159 -14.25756
#
# Velocity S-wave (km/s) = -4.12115 2.10005 -2.50736
# Velocity P-wave (km/s) = 3.53255 4.28472 1.71463
#
# Compressibility (1/GPa) = 0.04337357
#
# Stress axis : x y z
#
# Youngs Moduli (GPa) = 107.62340 53.54312 78.85594
#
# Poissons Ratio (x) = -0.11807 0.10422
# Poissons Ratio (y) = -0.23733 -0.03773
# Poissons Ratio (z) = 0.14224 -0.02562
#
# Static dielectric constant tensor:
#      x y z
#    x 1.895960 0.000000 -0.006710 
#    y 0.000000 1.867040 0.000000 
#    z -0.006710 0.000000 1.903470 
# 
# From -- ./inp_files/157716.got.cif
#   From: 2010.05.17/outbox.cif.g08.bks.cpg/sg12_79_cif.got.tgz:157716.got - 2010.06.03 13:09:07.
