data_PCOD9198466
_publ_section_title
;
Structure prediction by ZEFSAII (Michael W. Deem and Ramdas Pophale) SiO2 
 PCOD9198466
Probable space group: C 2/M
;
_chemical_formula_sum "Si O2"
_cell_formula_units_Z 64
_cell_length_a 8.624720
_cell_length_b 20.476976
_cell_length_c 23.870161
_cell_angle_alpha 90.000000
_cell_angle_beta 128.501946
_cell_angle_gamma 90.000000
_cell_volume 3299.125305
_symmetry_space_group_name_H-M "C 2/M"
_symmetry_group_IT_number 12
_symmetry_cell_setting 'monoclinic'
loop_
_space_group_symop_operation_xyz
x,y,z
-x,y,-z
-x,-y,-z
x,-y,z
1/2+x,1/2+y,z
1/2-x,1/2+y,-z
1/2-x,1/2-y,-z
1/2+x,1/2-y,z
loop_
_atom_site_type_symbol
_atom_site_label
_atom_site_fract_x
_atom_site_fract_y
_atom_site_fract_z
Si Si1 0.925890 0.924113 0.919807
Si Si2 0.851656 0.305769 0.140259
Si Si3 0.048529 0.695138 0.075396
Si Si4 0.550257 0.577479 0.294648
Si Si5 0.276222 0.318360 0.291043
Si Si6 0.180633 0.075606 0.869421
Si Si7 0.417094 0.844504 0.425166
Si Si8 0.638274 0.778279 0.377800
O O1 0.750405 0.874121 0.868916
O O2 0.095388 0.910661 0.911967
O O3 0.868253 0.000000 0.900178
O O4 0.000000 0.914856 0.000000
O O5 0.715699 0.247116 0.130548
O O6 0.867726 0.298507 0.076847
O O7 0.072232 0.304615 0.213468
O O8 0.139571 0.623296 0.102490
O O9 0.000000 0.705526 0.000000
O O10 0.550602 0.500000 0.306117
O O11 0.384993 0.617049 0.292938
O O12 0.487953 0.586526 0.215569
O O13 0.759115 0.610785 0.356848
O O14 0.431658 0.258988 0.317262
O O15 0.218474 0.319790 0.343590
O O16 0.240293 0.000000 0.879851
O O17 0.500000 0.877195 0.500000
O O18 0.587834 0.820192 0.421256
O O19 0.296294 0.780357 0.419459
#
# Coordination Sequence:
#
# PCOD9198466 Si02
#       8
#     8   8   8   8   8   8   8   8
#     4  10  22  40  59  80 111 150 192 239 290 345
#     4  12  23  35  57  83 115 147 187 237 290 344
#     4  12  24  37  56  83 114 147 189 241 293 342
#     4  10  22  40  58  82 117 152 192 237 280 333
#     4  10  20  36  57  85 112 150 185 234 280 334
#     4  10  22  41  60  80 112 153 195 239 289 343
#     4  10  20  36  62  90 120 152 185 228 280 338
#     4   9  20  35  59  89 120 144 186 230 279 333
#
# _framework density 19.399080000000001
#
# number of rings (size 3 to 8) (size 9 to 14) (size 15 to 20)
#    0.000    1.625    1.250    3.375    5.250    1.500 
#    0.000    0.625    0.000    0.750    0.000    0.000 
#    0.000    0.000    0.000    0.000    0.000    0.000 
#
# Total GULP energy -178783.527492 kJ/mol
# GULP energy per Si atom -5586.985234 kJ/mol
# Density = 1.935493 g / cm^3
# Si number density = 19.399080 Si / 1000 Ang^3
#
#
#
# Elastic Constant Matrix: (Units=GPa)
#
#
# Indices 1 2 3 4 5 6 
#
# 1 76.9992 40.6100 3.6595 0.0000 -16.3753 0.0000
# 2 40.6100 50.5119 12.7487 0.0000 -10.0766 0.0000
# 3 3.6595 12.7487 48.8481 0.0000 -10.6337 0.0000
# 4 0.0000 0.0000 0.0000 17.7327 0.0000 -4.7082
# 5 -16.3753 -10.0766 -10.6337 0.0000 26.2513 0.0000
# 6 0.0000 0.0000 0.0000 -4.7082 0.0000 20.0622
#
#
#
# Elastic Compliance Matrix: (Units=1/GPa)
#
#
# Indices 1 2 3 4 5 6 
#
# 1 0.025324 -0.019660 0.005516 0.000000 0.010485 0.000000
# 2 -0.019660 0.037506 -0.008611 0.000000 -0.001355 0.000000
# 3 0.005516 -0.008611 0.024495 0.000000 0.010058 0.000000
# 4 0.000000 0.000000 0.000000 0.060140 0.000000 0.014114
# 5 0.010485 -0.001355 0.010058 0.000000 0.048188 0.000000
# 6 0.000000 0.000000 0.000000 0.014114 0.000000 0.053157
#
#
# Mechanical properties :
#
#
# Convention : Reuss Voigt Hill
#
# Bulk Modulus (GPa) = 23.91423 32.26617 28.09020
# Shear Modulus (GPa) = 16.22014 20.76528 18.49271
#
# Velocity S-wave (km/s) = 2.89473 3.27529 3.09087
# Velocity P-wave (km/s) = 4.85045 5.56527 5.22011
#
# Compressibility (1/GPa) = 0.04181610
#
# Stress axis : x y z
#
# Youngs Moduli (GPa) = 39.48875 26.66205 40.82430
#
# Poissons Ratio (x) = 0.52418 -0.22520
# Poissons Ratio (y) = 0.77635 0.35153
# Poissons Ratio (z) = -0.21783 0.22958
#
# Static dielectric constant tensor:
#      x y z
#    x 1.655240 0.000000 -0.018870 
#    y 0.000000 1.651420 0.000000 
#    z -0.018870 0.000000 1.707640 
# 
# From -- ./inp_files/333756.got.cif
#   From: 2010.05.17/outbox.cif.g08.bks.cpg/sg12_167_cif.got.tgz:333756.got - 2010.06.03 13:09:07.
