data_PCOD9198059
_publ_section_title
;
Structure prediction by ZEFSAII (Michael W. Deem and Ramdas Pophale) SiO2 
 PCOD9198059
Probable space group: C 2/M
;
_chemical_formula_sum "Si O2"
_cell_formula_units_Z 56
_cell_length_a 13.704059
_cell_length_b 18.308836
_cell_length_c 12.156064
_cell_angle_alpha 90.000000
_cell_angle_beta 125.628046
_cell_angle_gamma 90.000000
_cell_volume 2479.105593
_symmetry_space_group_name_H-M "C 2/M"
_symmetry_group_IT_number 12
_symmetry_cell_setting 'monoclinic'
loop_
_space_group_symop_operation_xyz
x,y,z
-x,y,-z
-x,-y,-z
x,-y,z
1/2+x,1/2+y,z
1/2-x,1/2+y,-z
1/2-x,1/2-y,-z
1/2+x,1/2-y,z
loop_
_atom_site_type_symbol
_atom_site_label
_atom_site_fract_x
_atom_site_fract_y
_atom_site_fract_z
Si Si1 0.236055 0.151594 0.307070
Si Si2 0.126972 0.237646 0.483490
Si Si3 0.797772 0.083410 0.169966
Si Si4 0.417303 0.585486 0.593170
Si Si5 0.929477 0.722620 0.179956
Si Si6 0.325001 0.226560 0.883379
Si Si7 0.818848 0.582099 0.140099
O O1 0.358683 0.195160 0.422609
O O2 0.165751 0.107429 0.355689
O O3 0.159727 0.219734 0.208722
O O4 0.260670 0.100389 0.219122
O O5 0.250000 0.250000 0.500000
O O6 0.116182 0.152543 0.512152
O O7 0.024591 0.246119 0.326154
O O8 0.708121 0.142774 0.165037
O O9 0.940387 0.091210 0.285556
O O10 0.765679 0.000000 0.177346
O O11 0.773347 0.093519 0.022286
O O12 0.396056 0.500000 0.546838
O O13 0.800898 0.747162 0.144392
O O14 0.929157 0.635647 0.192410
O O15 0.920109 0.735300 0.043601
O O16 0.859115 0.500000 0.163695
#
# Coordination Sequence:
#
# PCOD9198059 Si02
#       7
#     8   8   8   8   8   8   8
#     4  10  21  33  52  82 113 142 185 230 274 315
#     4  10  21  37  51  73 110 152 188 218 268 334
#     4   9  17  32  55  83 114 146 176 223 283 336
#     4  10  20  36  56  77 113 150 181 221 280 339
#     4   9  17  33  53  71 107 151 185 212 271 333
#     4   9  17  32  55  80 104 145 182 229 267 325
#     4   9  18  32  52  83 114 138 178 230 282 325
#
# _framework density 22.588792000000002
#
# number of rings (size 3 to 8) (size 9 to 14) (size 15 to 20)
#    0.000    2.571    1.429    1.286    0.000    2.857 
#    2.571    7.143    0.000    1.714    0.000    0.000 
#    0.000   14.857    0.000    0.000    0.000    0.000 
#
# Total GULP energy -156093.852870 kJ/mol
# GULP energy per Si atom -5574.780460 kJ/mol
# Density = 2.253738 g / cm^3
# Si number density = 22.588792 Si / 1000 Ang^3
#
#
#
# Elastic Constant Matrix: (Units=GPa)
#
#
# Indices 1 2 3 4 5 6 
#
# 1 46.3844 -2.5246 12.5849 0.0000 -8.5461 0.0000
# 2 -2.5246 162.0219 31.2735 0.0000 11.4120 0.0000
# 3 12.5849 31.2735 101.1727 0.0000 9.2375 0.0000
# 4 0.0000 0.0000 0.0000 33.7806 0.0000 -0.0582
# 5 -8.5461 11.4120 9.2375 0.0000 32.8182 0.0000
# 6 0.0000 0.0000 0.0000 -0.0582 0.0000 12.3239
#
#
#
# Elastic Compliance Matrix: (Units=1/GPa)
#
#
# Indices 1 2 3 4 5 6 
#
# 1 0.023934 0.000609 -0.003813 0.000000 0.007094 0.000000
# 2 0.000609 0.006679 -0.001994 0.000000 -0.001603 0.000000
# 3 -0.003813 -0.001994 0.011292 0.000000 -0.003478 0.000000
# 4 0.000000 0.000000 0.000000 0.029603 0.000000 0.000140
# 5 0.007094 -0.001603 -0.003478 0.000000 0.033855 0.000000
# 6 0.000000 0.000000 0.000000 0.000140 0.000000 0.081144
#
#
# Mechanical properties :
#
#
# Convention : Reuss Voigt Hill
#
# Bulk Modulus (GPa) = 31.73652 43.58296 37.65974
# Shear Modulus (GPa) = 24.10729 33.66754 28.88742
#
# Velocity S-wave (km/s) = 3.27038 3.86483 3.57996
# Velocity P-wave (km/s) = 5.32360 6.26513 5.81346
#
# Compressibility (1/GPa) = 0.03150944
#
# Stress axis : x y z
#
# Youngs Moduli (GPa) = 41.78199 149.71670 88.55537
#
# Poissons Ratio (x) = -0.09122 0.33768
# Poissons Ratio (y) = -0.02546 0.17659
# Poissons Ratio (z) = 0.15932 0.29855
#
# Static dielectric constant tensor:
#      x y z
#    x 1.895890 0.000000 -0.054580 
#    y 0.000000 1.940050 0.000000 
#    z -0.054580 0.000000 1.896480 
# 
# From -- ./inp_files/226581.got.cif
#   From: 2010.05.17/outbox.cif.g08.bks.cpg/sg12_114_cif.got.tgz:226581.got - 2010.06.03 13:09:07.
