data_PCOD9198529
_publ_section_title
;
Structure prediction by ZEFSAII (Michael W. Deem and Ramdas Pophale) SiO2 
 PCOD9198529
Probable space group: C 2/M
;
_chemical_formula_sum "Si O2"
_cell_formula_units_Z 64
_cell_length_a 16.408547
_cell_length_b 7.524574
_cell_length_c 19.693726
_cell_angle_alpha 90.000000
_cell_angle_beta 81.283288
_cell_angle_gamma 90.000000
_cell_volume 2403.446831
_symmetry_space_group_name_H-M "C 2/M"
_symmetry_group_IT_number 12
_symmetry_cell_setting 'monoclinic'
loop_
_space_group_symop_operation_xyz
x,y,z
-x,y,-z
-x,-y,-z
x,-y,z
1/2+x,1/2+y,z
1/2-x,1/2+y,-z
1/2-x,1/2-y,-z
1/2+x,1/2-y,z
loop_
_atom_site_type_symbol
_atom_site_label
_atom_site_fract_x
_atom_site_fract_y
_atom_site_fract_z
Si Si1 0.638300 0.705184 0.169651
Si Si2 0.340775 0.790965 0.457176
Si Si3 0.798912 0.296036 0.080934
Si Si4 0.372971 0.706223 0.205952
Si Si5 0.073648 0.284188 0.040025
Si Si6 0.584047 0.711276 0.415361
Si Si7 0.761670 0.715724 0.335837
Si Si8 0.510027 0.281912 0.292137
O O1 0.659701 0.500000 0.182398
O O2 0.718530 0.791124 0.124820
O O3 0.572521 0.712272 0.116239
O O4 0.593719 0.772687 0.242261
O O5 0.250000 0.750000 0.500000
O O6 0.408178 0.738412 0.504763
O O7 0.329751 0.717124 0.382451
O O8 0.347929 0.000000 0.450050
O O9 0.779231 0.500000 0.067575
O O10 0.864681 0.295774 0.134382
O O11 0.843212 0.221437 0.009162
O O12 0.390642 0.500000 0.191839
O O13 0.287451 0.723203 0.258479
O O14 0.438070 0.782813 0.251661
O O15 0.073560 0.500000 0.043178
O O16 0.000000 0.229303 0.000000
O O17 0.581187 0.500000 0.408722
O O18 0.672528 0.773542 0.374269
O O19 0.516854 0.779544 0.369476
O O20 0.760897 0.500000 0.335739
O O21 0.505719 0.500000 0.291850
#
# Coordination Sequence:
#
# PCOD9198529 Si02
#       8
#     8   8   8   8   8   8   8   8
#     4  10  20  36  58  78 100 136 179 216 249 298
#     4   9  17  30  50  77 105 133 170 213 256 304
#     4  10  21  37  56  77 104 139 173 209 259 309
#     4  11  22  34  52  77 103 133 172 217 258 304
#     4  10  21  36  54  80 113 141 166 205 258 310
#     4   9  17  33  56  76 100 136 174 213 255 303
#     4   9  18  33  53  75 102 137 170 207 260 312
#     4   9  19  35  52  74 103 134 171 214 261 306
#
# _framework density 26.628425
#
# number of rings (size 3 to 8) (size 9 to 14) (size 15 to 20)
#    0.000    2.375    0.000    3.375    0.000    5.750 
#    0.000    3.125    0.000    3.750    0.000    0.000 
#    0.000    0.000    0.000    0.000    0.000    0.000 
#
# Total GULP energy -178954.580996 kJ/mol
# GULP energy per Si atom -5592.330656 kJ/mol
# Density = 2.656782 g / cm^3
# Si number density = 26.628425 Si / 1000 Ang^3
#
#
#
# Elastic Constant Matrix: (Units=GPa)
#
#
# Indices 1 2 3 4 5 6 
#
# 1 77.6494 4.0881 16.7928 0.0000 15.4158 0.0000
# 2 4.0881 85.1690 -4.3958 0.0000 6.4990 0.0000
# 3 16.7928 -4.3958 176.6883 0.0000 16.7092 0.0000
# 4 0.0000 0.0000 0.0000 21.8838 0.0000 8.0877
# 5 15.4158 6.4990 16.7092 0.0000 57.0019 0.0000
# 6 0.0000 0.0000 0.0000 8.0877 0.0000 11.0391
#
#
#
# Elastic Compliance Matrix: (Units=1/GPa)
#
#
# Indices 1 2 3 4 5 6 
#
# 1 0.013791 -0.000455 -0.001002 0.000000 -0.003384 0.000000
# 2 -0.000455 0.011892 0.000469 0.000000 -0.001370 0.000000
# 3 -0.001002 0.000469 0.005910 0.000000 -0.001515 0.000000
# 4 0.000000 0.000000 0.000000 0.062663 0.000000 -0.045910
# 5 -0.003384 -0.001370 -0.001515 0.000000 0.019059 0.000000
# 6 0.000000 0.000000 0.000000 -0.045910 0.000000 0.124222
#
#
# Mechanical properties :
#
#
# Convention : Reuss Voigt Hill
#
# Bulk Modulus (GPa) = 33.76646 41.38631 37.57638
# Shear Modulus (GPa) = 20.04926 39.51974 29.78450
#
# Velocity S-wave (km/s) = 2.74693 3.85661 3.34806
# Velocity P-wave (km/s) = 4.77168 5.95039 5.39333
#
# Compressibility (1/GPa) = 0.02961519
#
# Stress axis : x y z
#
# Youngs Moduli (GPa) = 72.51147 84.09042 169.20946
#
# Poissons Ratio (x) = 0.03830 0.16955
# Poissons Ratio (y) = 0.03303 -0.07931
# Poissons Ratio (z) = 0.07266 -0.03941
#
# Static dielectric constant tensor:
#      x y z
#    x 2.224800 0.000000 0.032240 
#    y 0.000000 1.964810 0.000000 
#    z 0.032240 0.000000 2.035370 
# 
# From -- ./inp_files/313983.got.cif
#   From: 2010.05.17/outbox.cif.g08.bks.cpg/sg12_157_cif.got.tgz:313983.got - 2010.06.03 13:09:07.
