data_PCOD9198717
_publ_section_title
;
Structure prediction by ZEFSAII (Michael W. Deem and Ramdas Pophale) SiO2 
 PCOD9198717
Probable space group: C 2/M
;
_chemical_formula_sum "Si O2"
_cell_formula_units_Z 52
_cell_length_a 20.713988
_cell_length_b 26.532149
_cell_length_c 6.826737
_cell_angle_alpha 90.000000
_cell_angle_beta 132.208509
_cell_angle_gamma 90.000000
_cell_volume 2779.038075
_symmetry_space_group_name_H-M "C 2/M"
_symmetry_group_IT_number 12
_symmetry_cell_setting 'monoclinic'
loop_
_space_group_symop_operation_xyz
x,y,z
-x,y,-z
-x,-y,-z
x,-y,z
1/2+x,1/2+y,z
1/2-x,1/2+y,-z
1/2-x,1/2-y,-z
1/2+x,1/2-y,z
loop_
_atom_site_type_symbol
_atom_site_label
_atom_site_fract_x
_atom_site_fract_y
_atom_site_fract_z
Si Si1 0.418999 0.719374 0.459896
Si Si2 0.603077 0.122287 0.176621
Si Si3 0.142585 0.858909 0.985460
Si Si4 0.092914 0.556193 0.794846
Si Si5 0.725720 0.056554 0.710452
Si Si6 0.000000 0.830772 0.000000
Si Si7 0.297288 0.212900 0.445575
O O1 0.500000 0.741745 0.500000
O O2 0.342743 0.758465 0.356163
O O3 0.450149 0.702768 0.738498
O O4 0.392302 0.669736 0.279781
O O5 0.664708 0.086282 0.432679
O O6 0.633145 0.178406 0.295224
O O7 0.500000 0.115953 0.000000
O O8 0.614735 0.102081 0.981549
O O9 0.186791 0.913179 0.059099
O O10 0.221565 0.823347 0.215041
O O11 0.069267 0.859882 0.005445
O O12 0.088081 0.500000 0.882078
O O13 0.166940 0.554226 0.783604
O O14 0.000000 0.564037 0.500000
O O15 0.743593 0.000000 0.676921
O O16 0.250000 0.250000 0.500000
#
# Coordination Sequence:
#
# PCOD9198717 Si02
#       7
#     8   8   8   8   8   4   8
#     4  10  22  40  62  85 118 160 201 244 304 358
#     4  11  23  37  57  88 121 159 198 246 294 348
#     4  10  22  39  62  88 115 159 200 246 302 353
#     4  10  20  36  58  83 117 160 197 236 290 351
#     4  10  22  39  59  89 122 155 198 243 296 360
#     4  10  20  40  63  86 116 150 197 254 300 354
#     4  11  23  39  59  85 125 158 200 250 291 352
#
# _framework density 18.711510000000001
#
# number of rings (size 3 to 8) (size 9 to 14) (size 15 to 20)
#    0.000    1.692    3.077    0.923    3.231    0.615 
#    5.538    0.385    0.000    4.154    0.000    0.000 
#    0.000    0.000    0.000    0.000    0.000    0.000 
#
# Total GULP energy -144975.761675 kJ/mol
# GULP energy per Si atom -5575.990834 kJ/mol
# Density = 1.866892 g / cm^3
# Si number density = 18.711510 Si / 1000 Ang^3
#
#
#
# Elastic Constant Matrix: (Units=GPa)
#
#
# Indices 1 2 3 4 5 6 
#
# 1 112.5998 47.5666 23.2054 0.0000 4.8689 0.0000
# 2 47.5666 99.3874 29.8522 0.0000 1.3352 0.0000
# 3 23.2054 29.8522 78.8122 0.0000 -3.4845 0.0000
# 4 0.0000 0.0000 0.0000 25.3594 0.0000 3.8121
# 5 4.8689 1.3352 -3.4845 0.0000 26.9395 0.0000
# 6 0.0000 0.0000 0.0000 3.8121 0.0000 23.4216
#
#
#
# Elastic Compliance Matrix: (Units=1/GPa)
#
#
# Indices 1 2 3 4 5 6 
#
# 1 0.011382 -0.004950 -0.001565 0.000000 -0.002014 0.000000
# 2 -0.004950 0.013540 -0.003682 0.000000 -0.000253 0.000000
# 3 -0.001565 -0.003682 0.014648 0.000000 0.002360 0.000000
# 4 0.000000 0.000000 0.000000 0.040422 0.000000 -0.006579
# 5 -0.002014 -0.000253 0.002360 0.000000 0.037802 0.000000
# 6 0.000000 0.000000 0.000000 -0.006579 0.000000 0.043766
#
#
# Mechanical properties :
#
#
# Convention : Reuss Voigt Hill
#
# Bulk Modulus (GPa) = 52.15168 54.67198 53.41183
# Shear Modulus (GPa) = 26.54659 27.82245 27.18452
#
# Velocity S-wave (km/s) = 3.77069 3.86024 3.81573
# Velocity P-wave (km/s) = 6.84758 7.01073 6.92964
#
# Compressibility (1/GPa) = 0.01917484
#
# Stress axis : x y z
#
# Youngs Moduli (GPa) = 87.85953 73.85433 68.26669
#
# Poissons Ratio (x) = 0.36558 0.10686
# Poissons Ratio (y) = 0.43491 0.25138
# Poissons Ratio (z) = 0.13753 0.27196
#
# Static dielectric constant tensor:
#      x y z
#    x 1.666530 0.000000 0.019150 
#    y 0.000000 1.683460 0.000000 
#    z 0.019150 0.000000 1.702340 
# 
# From -- ./inp_files/17741.got.cif
#   From: 2010.05.17/outbox.cif.g08.bks.cpg/sg12_9_cif.got.tgz:17741.got - 2010.06.03 13:09:07.
