data_PCOD9198589
_publ_section_title
;
Structure prediction by ZEFSAII (Michael W. Deem and Ramdas Pophale) SiO2 
 PCOD9198589
Probable space group: C 2/M
;
_chemical_formula_sum "Si O2"
_cell_formula_units_Z 48
_cell_length_a 15.456432
_cell_length_b 7.864008
_cell_length_c 28.203835
_cell_angle_alpha 90.000000
_cell_angle_beta 32.884374
_cell_angle_gamma 90.000000
_cell_volume 1861.305038
_symmetry_space_group_name_H-M "C 2/M"
_symmetry_group_IT_number 12
_symmetry_cell_setting 'monoclinic'
loop_
_space_group_symop_operation_xyz
x,y,z
-x,y,-z
-x,-y,-z
x,-y,z
1/2+x,1/2+y,z
1/2-x,1/2+y,-z
1/2-x,1/2-y,-z
1/2+x,1/2-y,z
loop_
_atom_site_type_symbol
_atom_site_label
_atom_site_fract_x
_atom_site_fract_y
_atom_site_fract_z
Si Si1 0.763095 0.300494 0.874497
Si Si2 0.087571 0.307249 0.609905
Si Si3 0.734786 0.193076 0.785127
Si Si4 0.035264 0.204007 0.430285
Si Si5 0.624014 0.206683 0.700257
Si Si6 0.592397 0.796851 0.045197
O O1 0.763695 0.500000 0.861001
O O2 0.722543 0.189349 0.847842
O O3 0.947974 0.254393 0.800803
O O4 0.634875 0.274255 0.974246
O O5 0.142676 0.500000 0.585078
O O6 0.894256 0.295622 0.702725
O O7 0.093159 0.249484 0.551759
O O8 0.135178 0.230436 0.639777
O O9 0.561437 0.267491 0.855210
O O10 0.755990 0.000000 0.756746
O O11 0.222108 0.258477 0.339615
O O12 0.000000 0.264657 0.500000
O O13 0.031732 0.000000 0.432992
O O14 0.631208 0.000000 0.694173
O O15 0.574955 0.000000 0.051370
O O16 0.750000 0.750000 0.000000
#
# Coordination Sequence:
#
# PCOD9198589 Si02
#       6
#     8   8   8   8   8   8
#     4  10  20  36  58  81 110 149 190 236 287 338
#     4  10  21  38  60  86 116 152 192 241 292 346
#     4  10  21  38  58  80 110 149 190 236 285 336
#     4  10  21  38  61  87 116 153 192 233 288 355
#     4   8  18  37  58  82 116 153 188 231 290 344
#     4  11  24  37  52  79 114 150 191 236 282 336
#
# _framework density 25.788356
#
# number of rings (size 3 to 8) (size 9 to 14) (size 15 to 20)
#    0.000    2.167    0.000    3.500    2.333    5.667 
#    0.000    4.167    0.000    0.000    0.000    0.000 
#    0.000    0.000    0.000    0.000    0.000    0.000 
#
# Total GULP energy -133960.182488 kJ/mol
# GULP energy per Si atom -5581.674270 kJ/mol
# Density = 2.572966 g / cm^3
# Si number density = 25.788356 Si / 1000 Ang^3
#
#
#
# Elastic Constant Matrix: (Units=GPa)
#
#
# Indices 1 2 3 4 5 6 
#
# 1 155.4805 -2.5459 -25.6026 0.0000 5.2645 0.0002
# 2 -2.5459 47.7060 0.5958 0.0002 0.4591 0.0012
# 3 -25.6026 0.5958 40.6780 0.0000 14.5024 0.0000
# 4 0.0000 0.0002 0.0000 20.5033 0.0000 -2.2705
# 5 5.2645 0.4591 14.5024 0.0000 46.9287 0.0000
# 6 0.0002 0.0012 0.0000 -2.2705 0.0000 28.2930
#
#
#
# Elastic Compliance Matrix: (Units=1/GPa)
#
#
# Indices 1 2 3 4 5 6 
#
# 1 0.007446 0.000352 0.005597 0.000000 -0.002568 0.000000
# 2 0.000352 0.020983 0.000002 0.000000 -0.000245 -0.000001
# 3 0.005597 0.000002 0.031838 0.000000 -0.010467 0.000000
# 4 0.000000 0.000000 0.000000 0.049210 0.000000 0.003949
# 5 -0.002568 -0.000245 -0.010467 0.000000 0.024834 0.000000
# 6 0.000000 -0.000001 0.000000 0.003949 0.000000 0.035661
#
#
# Mechanical properties :
#
#
# Convention : Reuss Voigt Hill
#
# Bulk Modulus (GPa) = 13.85648 20.97326 17.41487
# Shear Modulus (GPa) = 27.45354 37.23948 32.34651
#
# Velocity S-wave (km/s) = 3.26632 3.80418 3.54546
# Velocity P-wave (km/s) = 4.42831 5.23891 4.85057
#
# Compressibility (1/GPa) = 0.07216840
#
# Stress axis : x y z
#
# Youngs Moduli (GPa) = 134.29939 47.65797 31.40947
#
# Poissons Ratio (x) = -0.01678 -0.17580
# Poissons Ratio (y) = -0.04730 -0.00006
# Poissons Ratio (z) = -0.75168 -0.00009
#
# Static dielectric constant tensor:
#      x y z
#    x 2.106760 0.000000 -0.014100 
#    y 0.000000 1.990600 0.000000 
#    z -0.014100 0.000000 2.249280 
# 
# From -- ./inp_files/360248.got.cif
#   From: 2010.05.17/outbox.cif.g08.bks.cpg/sg12_181_cif.got.tgz:360248.got - 2010.06.03 13:09:07.
