data_PCOD9198752
_publ_section_title
;
Structure prediction by ZEFSAII (Michael W. Deem and Ramdas Pophale) SiO2 
 PCOD9198752
Probable space group: C 2/M
;
_chemical_formula_sum "Si O2"
_cell_formula_units_Z 40
_cell_length_a 27.705011
_cell_length_b 17.507096
_cell_length_c 9.621491
_cell_angle_alpha 90.000000
_cell_angle_beta 150.417192
_cell_angle_gamma 90.000000
_cell_volume 2303.887052
_symmetry_space_group_name_H-M "C 2/M"
_symmetry_group_IT_number 12
_symmetry_cell_setting 'monoclinic'
loop_
_space_group_symop_operation_xyz
x,y,z
-x,y,-z
-x,-y,-z
x,-y,z
1/2+x,1/2+y,z
1/2-x,1/2+y,-z
1/2-x,1/2-y,-z
1/2+x,1/2-y,z
loop_
_atom_site_type_symbol
_atom_site_label
_atom_site_fract_x
_atom_site_fract_y
_atom_site_fract_z
Si Si1 0.019671 0.260973 0.889812
Si Si2 0.188497 0.699290 0.740470
Si Si3 0.850566 0.410582 0.825995
Si Si4 0.210102 0.818839 0.303061
Si Si5 0.611373 0.909936 0.766846
O O1 0.916277 0.263698 0.555408
O O2 0.068171 0.346663 0.010877
O O3 0.095466 0.200449 0.014498
O O4 0.000000 0.240446 0.000000
O O5 0.244128 0.685978 0.735201
O O6 0.164374 0.623690 0.766901
O O7 0.250000 0.750000 0.000000
O O8 0.880010 0.500000 0.884618
O O9 0.754955 0.392046 0.494643
O O10 0.835509 0.395292 0.952978
O O11 0.250000 0.750000 0.500000
O O12 0.500000 0.878826 0.500000
O O13 0.603621 0.000000 0.730850
#
# Coordination Sequence:
#
# PCOD9198752 Si02
#       5
#     8   8   8   8   8
#     4  11  21  37  57  85 117 149 187 237 280 333
#     4  12  23  34  58  85 116 153 187 233 283 335
#     4  10  20  36  58  84 115 147 185 232 284 340
#     4  10  21  37  54  82 113 148 190 228 276 334
#     4  10  21  35  54  83 118 147 179 231 291 340
#
# _framework density 17.361961000000001
#
# number of rings (size 3 to 8) (size 9 to 14) (size 15 to 20)
#    0.000    1.400    6.000    2.400    0.000    1.200 
#    0.000    0.000    0.000    1.800    0.000    2.800 
#    0.000    0.000    0.000    0.000    0.000    0.000 
#
# Total GULP energy -111468.992559 kJ/mol
# GULP energy per Si atom -5573.449628 kJ/mol
# Density = 1.732244 g / cm^3
# Si number density = 17.361961 Si / 1000 Ang^3
#
#
#
# Elastic Constant Matrix: (Units=GPa)
#
#
# Indices 1 2 3 4 5 6 
#
# 1 167.4017 42.9092 59.4394 0.0000 -9.4510 0.0000
# 2 42.9092 43.0899 35.0948 0.0000 -1.9929 0.0000
# 3 59.4394 35.0948 137.0024 0.0000 -0.9212 0.0000
# 4 0.0000 0.0000 0.0000 21.0897 0.0000 -5.1212
# 5 -9.4510 -1.9929 -0.9212 0.0000 30.1204 0.0000
# 6 0.0000 0.0000 0.0000 -5.1212 0.0000 27.2991
#
#
#
# Elastic Compliance Matrix: (Units=1/GPa)
#
#
# Indices 1 2 3 4 5 6 
#
# 1 0.008532 -0.006815 -0.001941 0.000000 0.002167 0.000000
# 2 -0.006815 0.034857 -0.005973 0.000000 -0.000015 0.000000
# 3 -0.001941 -0.005973 0.009667 0.000000 -0.000709 0.000000
# 4 0.000000 0.000000 0.000000 0.049680 0.000000 0.009320
# 5 0.002167 -0.000015 -0.000709 0.000000 0.033857 0.000000
# 6 0.000000 0.000000 0.000000 0.009320 0.000000 0.038380
#
#
# Mechanical properties :
#
#
# Convention : Reuss Voigt Hill
#
# Bulk Modulus (GPa) = 42.37587 69.15343 55.76465
# Shear Modulus (GPa) = 23.55193 29.70520 26.62856
#
# Velocity S-wave (km/s) = 3.68710 4.14083 3.92054
# Velocity P-wave (km/s) = 6.52584 7.92331 7.25829
#
# Compressibility (1/GPa) = 0.02359833
#
# Stress axis : x y z
#
# Youngs Moduli (GPa) = 117.20326 28.68830 103.44890
#
# Poissons Ratio (x) = 0.19551 0.20084
# Poissons Ratio (y) = 0.79874 0.61785
# Poissons Ratio (z) = 0.22754 0.17134
#
# Static dielectric constant tensor:
#      x y z
#    x 1.606510 0.000000 0.024740 
#    y 0.000000 1.609100 0.000000 
#    z 0.024740 0.000000 1.660820 
# 
# From -- ./inp_files/47143.got.cif
#   From: 2010.05.17/outbox.cif.g08.bks.cpg/sg12_24_cif.got.tgz:47143.got - 2010.06.03 13:09:07.
