data_PCOD9198878
_publ_section_title
;
Structure prediction by ZEFSAII (Michael W. Deem and Ramdas Pophale) SiO2 
 PCOD9198878
Probable space group: C 2/M
;
_chemical_formula_sum "Si O2"
_cell_formula_units_Z 56
_cell_length_a 14.491841
_cell_length_b 18.787507
_cell_length_c 17.262485
_cell_angle_alpha 90.000000
_cell_angle_beta 148.676417
_cell_angle_gamma 90.000000
_cell_volume 2443.382307
_symmetry_space_group_name_H-M "C 2/M"
_symmetry_group_IT_number 12
_symmetry_cell_setting 'monoclinic'
loop_
_space_group_symop_operation_xyz
x,y,z
-x,y,-z
-x,-y,-z
x,-y,z
1/2+x,1/2+y,z
1/2-x,1/2+y,-z
1/2-x,1/2-y,-z
1/2+x,1/2-y,z
loop_
_atom_site_type_symbol
_atom_site_label
_atom_site_fract_x
_atom_site_fract_y
_atom_site_fract_z
Si Si1 0.287159 0.000000 0.942736
Si Si2 0.699962 0.000000 0.233362
Si Si3 0.309808 0.160603 0.582767
Si Si4 0.618320 0.918827 0.775970
Si Si5 0.698366 0.338489 0.666844
Si Si6 0.855236 0.860261 0.077050
Si Si7 0.558731 0.714602 0.716398
Si Si8 0.130123 0.918066 0.168674
O O1 0.290743 0.000000 0.852952
O O2 0.192727 0.930240 0.907389
O O3 0.495440 0.000000 0.114865
O O4 0.782796 0.924133 0.315764
O O5 0.410895 0.087348 0.641868
O O6 0.317017 0.183061 0.678527
O O7 0.436234 0.214899 0.625861
O O8 0.104679 0.158142 0.411213
O O9 0.680902 0.901226 0.733800
O O10 0.680205 0.000000 0.834651
O O11 0.716455 0.866959 0.906918
O O12 0.500000 0.319400 0.500000
O O13 0.706282 0.300837 0.756364
O O14 0.854768 0.797227 0.138052
O O15 0.047234 0.868803 0.174489
O O16 0.128667 0.000000 0.194675
O O17 0.000000 0.914032 0.000000
#
# Coordination Sequence:
#
# PCOD9198878 Si02
#       8
#     4   4   8   8   8   8   8   8
#     4  11  20  30  55  88 122 152 182 248 305 344
#     4  11  21  34  54  92 124 152 190 245 304 349
#     4  10  23  42  59  81 117 158 198 245 294 353
#     4  10  20  36  58  88 117 150 191 246 295 351
#     4  10  21  38  60  85 116 156 198 242 296 361
#     4  11  18  35  59  86 114 156 189 241 294 351
#     4  10  23  41  59  82 115 158 202 238 292 360
#     4   8  15  29  52  79 114 148 183 222 282 348
#
# _framework density 22.919049999999999
#
# number of rings (size 3 to 8) (size 9 to 14) (size 15 to 20)
#    0.000    2.000    2.857    1.929    1.000    1.714 
#    2.571    2.143    0.000    1.714    0.000    0.000 
#    0.000    0.000    0.000    0.000    0.000    0.000 
#
# Total GULP energy -156151.558681 kJ/mol
# GULP energy per Si atom -5576.841381 kJ/mol
# Density = 2.286689 g / cm^3
# Si number density = 22.919050 Si / 1000 Ang^3
#
#
#
# Elastic Constant Matrix: (Units=GPa)
#
#
# Indices 1 2 3 4 5 6 
#
# 1 133.8961 21.0132 15.7849 0.0088 10.5271 0.0021
# 2 21.0132 49.6670 -5.9126 0.0419 1.0217 0.0177
# 3 15.7849 -5.9126 27.8225 0.0326 3.2524 0.0163
# 4 0.0088 0.0419 0.0326 23.7266 0.0146 2.0704
# 5 10.5271 1.0217 3.2524 0.0146 29.4447 0.0042
# 6 0.0021 0.0177 0.0163 2.0704 0.0042 18.2118
#
#
#
# Elastic Compliance Matrix: (Units=1/GPa)
#
#
# Indices 1 2 3 4 5 6 
#
# 1 0.009044 -0.004466 -0.005795 0.000013 -0.002438 0.000008
# 2 -0.004466 0.022905 0.007403 -0.000047 -0.000016 -0.000023
# 3 -0.005795 0.007403 0.041122 -0.000063 -0.002727 -0.000036
# 4 0.000013 -0.000047 -0.000063 0.042569 -0.000017 -0.004839
# 5 -0.002438 -0.000016 -0.002727 -0.000017 0.035136 -0.000003
# 6 0.000008 -0.000023 -0.000036 -0.004839 -0.000003 0.055460
#
#
# Mechanical properties :
#
#
# Convention : Reuss Voigt Hill
#
# Bulk Modulus (GPa) = 14.84654 30.35073 22.59864
# Shear Modulus (GPa) = 21.33063 26.30996 23.82029
#
# Velocity S-wave (km/s) = 3.05404 3.39182 3.22735
# Velocity P-wave (km/s) = 4.35064 5.34889 4.87538
#
# Compressibility (1/GPa) = 0.06735578
#
# Stress axis : x y z
#
# Youngs Moduli (GPa) = 110.56682 43.65786 24.31770
#
# Poissons Ratio (x) = 0.19499 0.14093
# Poissons Ratio (y) = 0.49382 -0.18003
# Poissons Ratio (z) = 0.64077 -0.32322
#
# Static dielectric constant tensor:
#      x y z
#    x 1.913460 0.000000 -0.007550 
#    y 0.000000 1.875920 -0.000010 
#    z -0.007550 -0.000010 1.895240 
# 
# From -- ./inp_files/272457.got.cif
#   From: 2010.05.17/outbox.cif.g08.bks.cpg/sg12_137_cif.got.tgz:272457.got - 2010.06.03 13:09:07.
