data_PCOD9198402
_publ_section_title
;
Structure prediction by ZEFSAII (Michael W. Deem and Ramdas Pophale) SiO2 
 PCOD9198402
Probable space group: C 2/M
;
_chemical_formula_sum "Si O2"
_cell_formula_units_Z 56
_cell_length_a 19.363852
_cell_length_b 8.588504
_cell_length_c 20.141678
_cell_angle_alpha 90.000000
_cell_angle_beta 64.403957
_cell_angle_gamma 90.000000
_cell_volume 3020.961495
_symmetry_space_group_name_H-M "C 2/M"
_symmetry_group_IT_number 12
_symmetry_cell_setting 'monoclinic'
loop_
_space_group_symop_operation_xyz
x,y,z
-x,y,-z
-x,-y,-z
x,-y,z
1/2+x,1/2+y,z
1/2-x,1/2+y,-z
1/2-x,1/2-y,-z
1/2+x,1/2-y,z
loop_
_atom_site_type_symbol
_atom_site_label
_atom_site_fract_x
_atom_site_fract_y
_atom_site_fract_z
Si Si1 0.960753 0.315424 0.808258
Si Si2 0.583127 0.325185 0.310534
Si Si3 0.677111 0.685187 0.571126
Si Si4 0.744606 0.181032 0.796509
Si Si5 0.372952 0.314356 0.258474
Si Si6 0.466823 0.179257 0.446006
Si Si7 0.705619 0.184598 0.081469
O O1 0.959001 0.500000 0.791707
O O2 0.942612 0.204856 0.753670
O O3 0.886466 0.288065 0.885491
O O4 0.046784 0.270032 0.791517
O O5 0.560322 0.500000 0.341012
O O6 0.673922 0.311499 0.275010
O O7 0.539564 0.193630 0.368415
O O8 0.685394 0.500000 0.570349
O O9 0.750000 0.750000 0.500000
O O10 0.661040 0.737562 0.654707
O O11 0.602499 0.732361 0.559817
O O12 0.685016 0.275207 0.776849
O O13 0.762041 0.243166 0.863316
O O14 0.721418 0.000000 0.810139
O O15 0.385455 0.500000 0.257718
O O16 0.500000 0.247923 0.500000
O O17 0.443769 0.000000 0.466419
O O18 0.716618 0.000000 0.080985
O O19 0.750000 0.250000 0.000000
#
# Coordination Sequence:
#
# PCOD9198402 Si02
#       7
#     8   8   8   8   8   8   8
#     4  10  20  36  61  88 116 154 195 235 287 348
#     4  10  20  36  57  83 111 147 194 242 291 346
#     4  11  25  42  60  84 117 158 203 251 306 359
#     4  10  22  38  60  89 120 156 197 242 293 351
#     4  11  23  39  60  87 120 157 200 249 298 353
#     4  11  24  39  57  82 113 150 195 247 301 354
#     4  10  21  39  64  94 125 158 194 239 290 349
#
# _framework density 18.537144999999999
#
# number of rings (size 3 to 8) (size 9 to 14) (size 15 to 20)
#    0.000    1.571    1.429    3.000    2.000    6.286 
#    0.000    0.714    0.000    4.286    0.000    0.000 
#    0.000    0.000    0.000    0.000    0.000    0.000 
#
# Total GULP energy -156135.312158 kJ/mol
# GULP energy per Si atom -5576.261148 kJ/mol
# Density = 1.849495 g / cm^3
# Si number density = 18.537145 Si / 1000 Ang^3
#
#
#
# Elastic Constant Matrix: (Units=GPa)
#
#
# Indices 1 2 3 4 5 6 
#
# 1 111.8071 28.4722 53.3408 0.0000 -0.4352 0.0000
# 2 28.4722 59.3570 28.9988 -0.0001 -8.9846 -0.0001
# 3 53.3408 28.9988 106.8289 0.0000 -11.9586 0.0000
# 4 0.0000 -0.0001 0.0000 30.9406 0.0000 -3.2423
# 5 -0.4352 -8.9846 -11.9586 0.0000 17.6123 0.0000
# 6 0.0000 -0.0001 0.0000 -3.2423 0.0000 42.3980
#
#
#
# Elastic Compliance Matrix: (Units=1/GPa)
#
#
# Indices 1 2 3 4 5 6 
#
# 1 0.012796 -0.004125 -0.005919 0.000000 -0.005807 0.000000
# 2 -0.004125 0.021547 -0.002782 0.000000 0.009001 0.000000
# 3 -0.005919 -0.002782 0.013957 0.000000 0.007911 0.000000
# 4 0.000000 0.000000 0.000000 0.032581 0.000000 0.002492
# 5 -0.005807 0.009001 0.007911 0.000000 0.066599 0.000000
# 6 0.000000 0.000000 0.000000 0.002492 0.000000 0.023777
#
#
# Mechanical properties :
#
#
# Convention : Reuss Voigt Hill
#
# Bulk Modulus (GPa) = 44.15409 55.51297 49.83353
# Shear Modulus (GPa) = 24.45484 29.33559 26.89522
#
# Velocity S-wave (km/s) = 3.63607 3.98242 3.81318
# Velocity P-wave (km/s) = 6.44197 7.15249 6.80651
#
# Compressibility (1/GPa) = 0.02264796
#
# Stress axis : x y z
#
# Youngs Moduli (GPa) = 78.15026 46.40926 71.64780
#
# Poissons Ratio (x) = 0.19144 0.42412
# Poissons Ratio (y) = 0.32237 0.19931
# Poissons Ratio (z) = 0.46261 0.12910
#
# Static dielectric constant tensor:
#      x y z
#    x 1.671270 0.000000 0.184750 
#    y 0.000000 1.646430 0.000000 
#    z 0.184750 0.000000 3.128450 
# 
# From -- ./inp_files/275312.got.cif
#   From: 2010.05.17/outbox.cif.g08.bks.cpg/sg12_138_cif.got.tgz:275312.got - 2010.06.03 13:09:07.
