data_PCOD9198229
_publ_section_title
;
Structure prediction by ZEFSAII (Michael W. Deem and Ramdas Pophale) SiO2 
 PCOD9198229
Probable space group: C 2/M
;
_chemical_formula_sum "Si O2"
_cell_formula_units_Z 46
_cell_length_a 20.412845
_cell_length_b 11.996549
_cell_length_c 15.513505
_cell_angle_alpha 90.000000
_cell_angle_beta 142.258904
_cell_angle_gamma 90.000000
_cell_volume 2325.349323
_symmetry_space_group_name_H-M "C 2/M"
_symmetry_group_IT_number 12
_symmetry_cell_setting 'monoclinic'
loop_
_space_group_symop_operation_xyz
x,y,z
-x,y,-z
-x,-y,-z
x,-y,z
1/2+x,1/2+y,z
1/2-x,1/2+y,-z
1/2-x,1/2-y,-z
1/2+x,1/2-y,z
loop_
_atom_site_type_symbol
_atom_site_label
_atom_site_fract_x
_atom_site_fract_y
_atom_site_fract_z
Si Si1 0.397831 0.336475 0.542544
Si Si2 0.620223 0.126464 0.586693
Si Si3 0.206441 0.500000 0.359127
Si Si4 0.500000 0.500000 0.500000
Si Si5 0.080866 0.251667 0.833485
Si Si6 0.247006 0.232774 0.853461
Si Si7 0.323594 0.000000 0.869337
Si Si8 0.021130 0.500000 0.807150
O O1 0.376520 0.212270 0.487757
O O2 0.287241 0.396447 0.449648
O O3 0.456177 0.403356 0.524444
O O4 0.477541 0.322245 0.706123
O O5 0.500000 0.129443 0.500000
O O6 0.700889 0.175873 0.741556
O O7 0.645403 0.000000 0.590055
O O8 0.155534 0.500000 0.209984
O O9 0.106085 0.500000 0.317024
O O10 0.164726 0.220506 0.846440
O O11 0.058372 0.384611 0.802759
O O12 0.139373 0.235973 0.985705
O O13 0.256549 0.111736 0.819320
O O14 0.421139 0.000000 0.038354
#
# Coordination Sequence:
#
# PCOD9198229 Si02
#       8
#     8   8   4   2   8   8   4   4
#     4  11  21  35  60  88 115 156 195 259 289 350
#     4  11  21  33  55  84 121 152 192 232 300 366
#     4  11  23  38  63  87 114 161 214 249 290 334
#     4  10  20  36  56  92 120 136 194 248 312 330
#     4  10  22  36  56  85 126 155 190 238 308 365
#     4  10  20  37  57  92 118 159 183 247 314 357
#     4  10  20  38  66  90 118 147 209 253 297 347
#     4  10  24  41  57  85 124 167 198 238 293 371
#
# _framework density 19.781974999999999
#
# number of rings (size 3 to 8) (size 9 to 14) (size 15 to 20)
#    0.000    1.565    4.348    0.261    4.870    1.391 
#    4.696    0.000    0.000    0.000    0.000    4.870 
#    0.000    0.000    0.000    0.000    0.000    0.000 
#
# Total GULP energy -128201.787444 kJ/mol
# GULP energy per Si atom -5573.990758 kJ/mol
# Density = 1.973695 g / cm^3
# Si number density = 19.781975 Si / 1000 Ang^3
#
#
#
# Elastic Constant Matrix: (Units=GPa)
#
#
# Indices 1 2 3 4 5 6 
#
# 1 20.2172 14.9594 6.0192 0.0000 7.4733 0.0000
# 2 14.9594 135.9266 41.2389 0.0000 3.5463 0.0000
# 3 6.0192 41.2389 92.6537 0.0000 -7.7533 0.0000
# 4 0.0000 0.0000 0.0000 62.9970 0.0000 -0.0506
# 5 7.4733 3.5463 -7.7533 0.0000 24.0501 0.0000
# 6 0.0000 0.0000 0.0000 -0.0506 0.0000 1.9812
#
#
#
# Elastic Compliance Matrix: (Units=1/GPa)
#
#
# Indices 1 2 3 4 5 6 
#
# 1 0.061504 -0.005270 -0.003272 0.000000 -0.019390 0.000000
# 2 -0.005270 0.009111 -0.003791 0.000000 -0.000928 0.000000
# 3 -0.003272 -0.003791 0.013180 0.000000 0.005825 0.000000
# 4 0.000000 0.000000 0.000000 0.015874 0.000000 0.000405
# 5 -0.019390 -0.000928 0.005825 0.000000 0.049620 0.000000
# 6 0.000000 0.000000 0.000000 0.000405 0.000000 0.504751
#
#
# Mechanical properties :
#
#
# Convention : Reuss Voigt Hill
#
# Bulk Modulus (GPa) = 16.91215 41.47030 29.19122
# Shear Modulus (GPa) = 7.15906 30.24433 18.70169
#
# Velocity S-wave (km/s) = 1.90443 3.91434 3.07806
# Velocity P-wave (km/s) = 3.66109 6.43728 5.23651
#
# Compressibility (1/GPa) = 0.05912910
#
# Stress axis : x y z
#
# Youngs Moduli (GPa) = 16.25905 109.75589 75.87256
#
# Poissons Ratio (x) = 0.57843 0.24829
# Poissons Ratio (y) = 0.08569 0.28760
# Poissons Ratio (z) = 0.05321 0.41603
#
# Static dielectric constant tensor:
#      x y z
#    x 1.664650 0.000000 -0.008490 
#    y 0.000000 1.687160 0.000000 
#    z -0.008490 0.000000 1.781380 
# 
# From -- ./inp_files/165505.got.cif
#   From: 2010.05.17/outbox.cif.g08.bks.cpg/sg12_83_cif.got.tgz:165505.got - 2010.06.03 13:09:07.
