data_PCOD9198812
_publ_section_title
;
Structure prediction by ZEFSAII (Michael W. Deem and Ramdas Pophale) SiO2 
 PCOD9198812
Probable space group: C 2/M
;
_chemical_formula_sum "Si O2"
_cell_formula_units_Z 40
_cell_length_a 30.816975
_cell_length_b 7.891946
_cell_length_c 15.512801
_cell_angle_alpha 90.000000
_cell_angle_beta 29.914156
_cell_angle_gamma 90.000000
_cell_volume 1881.504936
_symmetry_space_group_name_H-M "C 2/M"
_symmetry_group_IT_number 12
_symmetry_cell_setting 'monoclinic'
loop_
_space_group_symop_operation_xyz
x,y,z
-x,y,-z
-x,-y,-z
x,-y,z
1/2+x,1/2+y,z
1/2-x,1/2+y,-z
1/2-x,1/2-y,-z
1/2+x,1/2-y,z
loop_
_atom_site_type_symbol
_atom_site_label
_atom_site_fract_x
_atom_site_fract_y
_atom_site_fract_z
Si Si1 0.495714 0.696143 0.911851
Si Si2 0.885888 0.794975 0.941558
Si Si3 0.517919 0.707250 0.566474
Si Si4 0.705035 0.701494 0.315092
Si Si5 0.182251 0.304517 0.543798
O O1 0.468321 0.500000 0.970697
O O2 0.430881 0.770454 0.952397
O O3 0.592569 0.702257 0.706411
O O4 0.500000 0.774123 0.000000
O O5 0.943444 0.737643 0.761542
O O6 0.890450 0.000000 0.934890
O O7 0.785824 0.742933 0.114748
O O8 0.500000 0.763112 0.500000
O O9 0.518140 0.500000 0.565879
O O10 0.612578 0.761708 0.437298
O O11 0.699749 0.500000 0.335520
O O12 0.720310 0.780132 0.382976
O O13 0.160000 0.500000 0.595239
O O14 0.250000 0.250000 0.500000
#
# Coordination Sequence:
#
# PCOD9198812 Si02
#       5
#     8   8   8   8   8
#     4  10  20  36  58  85 120 161 202 245 299 361
#     4  10  20  37  60  88 123 163 203 249 306 364
#     4   9  19  38  63  88 120 164 207 249 306 369
#     4  11  22  39  62  90 123 160 205 253 304 361
#     4  12  24  38  59  87 122 161 204 250 301 359
#
# _framework density 21.259577
#
# number of rings (size 3 to 8) (size 9 to 14) (size 15 to 20)
#    0.000    1.600    2.000    3.600    0.000    3.600 
#    0.000    0.000    0.000    4.200    0.000    0.000 
#    0.000    0.000    0.000    0.000    0.000    0.000 
#
# Total GULP energy -111796.042477 kJ/mol
# GULP energy per Si atom -5589.802124 kJ/mol
# Density = 2.121119 g / cm^3
# Si number density = 21.259577 Si / 1000 Ang^3
#
#
#
# Elastic Constant Matrix: (Units=GPa)
#
#
# Indices 1 2 3 4 5 6 
#
# 1 129.6841 15.0349 66.3941 0.0000 15.2305 0.0000
# 2 15.0349 36.3996 -4.7816 0.0000 6.5484 0.0000
# 3 66.3941 -4.7816 159.1890 0.0000 3.1014 0.0000
# 4 0.0000 0.0000 0.0000 23.4670 0.0000 2.0138
# 5 15.2305 6.5484 3.1014 0.0000 32.8832 0.0000
# 6 0.0000 0.0000 0.0000 2.0138 0.0000 0.3282
#
#
#
# Elastic Compliance Matrix: (Units=1/GPa)
#
#
# Indices 1 2 3 4 5 6 
#
# 1 0.011075 -0.004508 -0.004681 0.000000 -0.003791 0.000001
# 2 -0.004508 0.030478 0.002878 0.000000 -0.004253 -0.000005
# 3 -0.004681 0.002878 0.008305 0.000000 0.000812 -0.000001
# 4 0.000000 0.000000 0.000000 0.089995 0.000000 -0.552138
# 5 -0.003791 -0.004253 0.000812 0.000000 0.032937 0.000001
# 6 0.000001 -0.000005 -0.000001 -0.552138 0.000001 6.433962
#
#
# Mechanical properties :
#
#
# Convention : Reuss Voigt Hill
#
# Bulk Modulus (GPa) = 26.85433 53.17418 40.01426
# Shear Modulus (GPa) = 0.75394 27.91071 14.33233
#
# Velocity S-wave (km/s) = 0.59616 3.62726 2.59927
# Velocity P-wave (km/s) = 3.62394 6.52755 5.27929
#
# Compressibility (1/GPa) = 0.03723794
#
# Stress axis : x y z
#
# Youngs Moduli (GPa) = 90.29174 32.81054 120.41334
#
# Poissons Ratio (x) = 0.14790 0.56363
# Poissons Ratio (y) = 0.40700 -0.34659
# Poissons Ratio (z) = 0.42263 -0.09444
#
# Static dielectric constant tensor:
#      x y z
#    x 1.752610 0.000000 0.005830 
#    y 0.000000 1.798220 0.000000 
#    z 0.005830 0.000000 1.774870 
# 
# From -- ./inp_files/211170.got.cif
#   From: 2010.05.17/outbox.cif.g08.bks.cpg/sg12_106_cif.got.tgz:211170.got - 2010.06.03 13:09:07.
