data_PCOD9198024
_publ_section_title
;
Structure prediction by ZEFSAII (Michael W. Deem and Ramdas Pophale) SiO2 
 PCOD9198024
Probable space group: C 2/M
;
_chemical_formula_sum "Si O2"
_cell_formula_units_Z 32
_cell_length_a 7.898111
_cell_length_b 23.383646
_cell_length_c 11.213891
_cell_angle_alpha 90.000000
_cell_angle_beta 139.234586
_cell_angle_gamma 90.000000
_cell_volume 1352.323884
_symmetry_space_group_name_H-M "C 2/M"
_symmetry_group_IT_number 12
_symmetry_cell_setting 'monoclinic'
loop_
_space_group_symop_operation_xyz
x,y,z
-x,y,-z
-x,-y,-z
x,-y,z
1/2+x,1/2+y,z
1/2-x,1/2+y,-z
1/2-x,1/2-y,-z
1/2+x,1/2-y,z
loop_
_atom_site_type_symbol
_atom_site_label
_atom_site_fract_x
_atom_site_fract_y
_atom_site_fract_z
Si Si1 0.308325 0.230983 0.787744
Si Si2 0.736198 0.935036 0.437888
Si Si3 0.379142 0.340247 0.693080
Si Si4 0.612451 0.876329 0.924815
O O1 0.241313 0.289527 0.689186
O O2 0.484368 0.183869 0.812838
O O3 0.060517 0.195879 0.698340
O O4 0.500000 0.244674 0.000000
O O5 0.737951 0.888779 0.543659
O O6 0.496746 0.923228 0.222030
O O7 0.000000 0.926958 0.500000
O O8 0.736505 0.000000 0.482185
O O9 0.583346 0.369639 0.893051
O O10 0.500000 0.885678 0.000000
#
# Coordination Sequence:
#
# PCOD9198024 Si02
#       4
#     8   8   8   8
#     4   9  17  33  56  83 114 141 177 223 280 337
#     4  11  21  34  52  80 113 146 189 230 267 319
#     4  10  20  36  55  86 114 143 178 226 280 331
#     4   9  17  32  49  77 109 141 174 222 278 322
#
# _framework density 23.662970000000001
#
# number of rings (size 3 to 8) (size 9 to 14) (size 15 to 20)
#    0.000    2.750    5.000    3.000    0.000    2.500 
#    0.000    0.000    0.000    0.750    0.000   10.500 
#    0.000    0.000    0.000    0.000    0.000    0.000 
#
# Total GULP energy -89490.124550 kJ/mol
# GULP energy per Si atom -5593.132784 kJ/mol
# Density = 2.360911 g / cm^3
# Si number density = 23.662970 Si / 1000 Ang^3
#
#
#
# Elastic Constant Matrix: (Units=GPa)
#
#
# Indices 1 2 3 4 5 6 
#
# 1 47.6421 34.5328 23.2854 0.0000 -5.9215 0.0000
# 2 34.5328 158.7870 66.1308 0.0000 -31.0389 0.0000
# 3 23.2854 66.1308 119.0725 0.0000 -2.6915 0.0000
# 4 0.0000 0.0000 0.0000 36.9312 0.0000 -12.4161
# 5 -5.9215 -31.0389 -2.6915 0.0000 15.0153 0.0000
# 6 0.0000 0.0000 0.0000 -12.4161 0.0000 3.6238
#
#
#
# Elastic Compliance Matrix: (Units=1/GPa)
#
#
# Indices 1 2 3 4 5 6 
#
# 1 0.025470 -0.004375 -0.002538 0.000000 0.000545 0.000000
# 2 -0.004375 0.016452 -0.007583 0.000000 0.030925 0.000000
# 3 -0.002538 -0.007583 0.012781 0.000000 -0.014385 0.000000
# 4 0.000000 0.000000 0.000000 -0.178249 0.000000 -0.610733
# 5 0.000545 0.030925 -0.014385 0.000000 0.128162 0.000000
# 6 0.000000 0.000000 0.000000 -0.610733 0.000000 -1.816595
#
#
# Mechanical properties :
#
#
# Convention : Reuss Voigt Hill
#
# Bulk Modulus (GPa) = 38.89575 63.71106 51.30340
# Shear Modulus (GPa) = -2.81783 24.55089 10.86653
#
# Velocity S-wave (km/s) = -1.09243 3.22456 2.14527
# Velocity P-wave (km/s) = 3.85770 6.39113 5.27865
#
# Compressibility (1/GPa) = 0.02570975
#
# Stress axis : x y z
#
# Youngs Moduli (GPa) = 39.26232 60.78160 78.24235
#
# Poissons Ratio (x) = 0.26595 0.19861
# Poissons Ratio (y) = 0.17179 0.59329
# Poissons Ratio (z) = 0.09966 0.46089
#
# Static dielectric constant tensor:
#      x y z
#    x 1.998550 0.000000 0.004180 
#    y 0.000000 1.854380 0.000000 
#    z 0.004180 0.000000 1.912360 
# 
# From -- ./inp_files/87596.got.cif
#   From: 2010.05.17/outbox.cif.g08.bks.cpg/sg12_44_cif.got.tgz:87596.got - 2010.06.03 13:09:07.
