data_PCOD9198787
_publ_section_title
;
Structure prediction by ZEFSAII (Michael W. Deem and Ramdas Pophale) SiO2 
 PCOD9198787
Probable space group: C 2/M
;
_chemical_formula_sum "Si O2"
_cell_formula_units_Z 56
_cell_length_a 19.319191
_cell_length_b 9.001847
_cell_length_c 29.011028
_cell_angle_alpha 90.000000
_cell_angle_beta 34.751626
_cell_angle_gamma 90.000000
_cell_volume 2875.900367
_symmetry_space_group_name_H-M "C 2/M"
_symmetry_group_IT_number 12
_symmetry_cell_setting 'monoclinic'
loop_
_space_group_symop_operation_xyz
x,y,z
-x,y,-z
-x,-y,-z
x,-y,z
1/2+x,1/2+y,z
1/2-x,1/2+y,-z
1/2-x,1/2-y,-z
1/2+x,1/2-y,z
loop_
_atom_site_type_symbol
_atom_site_label
_atom_site_fract_x
_atom_site_fract_y
_atom_site_fract_z
Si Si1 0.069681 0.669973 0.025674
Si Si2 0.387594 0.680612 0.257684
Si Si3 0.123910 0.171828 0.081313
Si Si4 0.704133 0.821813 0.276008
Si Si5 0.201504 0.667169 0.865366
Si Si6 0.697764 0.177184 0.600433
Si Si7 0.926989 0.321794 0.427782
O O1 0.092608 0.500000 0.030264
O O2 0.054817 0.796623 0.071419
O O3 0.938326 0.660416 0.074450
O O4 0.179714 0.710742 0.930603
O O5 0.385888 0.500000 0.259655
O O6 0.527158 0.728871 0.171621
O O7 0.299164 0.728470 0.263611
O O8 0.342620 0.745106 0.330458
O O9 0.144260 0.000000 0.078860
O O10 0.250000 0.250000 0.000000
O O11 0.732988 0.763675 0.208856
O O12 0.565244 0.779151 0.363091
O O13 0.710018 0.000000 0.271774
O O14 0.252487 0.500000 0.837112
O O15 0.828269 0.238372 0.512721
O O16 0.607274 0.209653 0.606938
O O17 0.701668 0.000000 0.604376
O O18 0.913936 0.500000 0.441453
#
# Coordination Sequence:
#
# PCOD9198787 Si02
#       7
#     8   8   8   8   8   8   8
#     4   9  18  34  53  76 107 144 184 227 279 333
#     4  10  22  39  58  82 114 151 187 231 286 338
#     4  11  23  38  56  80 110 149 193 235 282 336
#     4  10  20  36  58  85 115 147 193 239 280 336
#     4   9  18  32  53  79 109 143 179 227 284 331
#     4  10  21  38  61  87 114 147 187 228 277 340
#     4   9  20  39  61  84 113 148 184 231 282 333
#
# _framework density 19.472163999999999
#
# number of rings (size 3 to 8) (size 9 to 14) (size 15 to 20)
#    0.000    2.286    1.429    1.714    0.000    5.143 
#    0.000    7.143    0.000    0.000    0.000    0.000 
#    0.000    0.000    0.000    0.000    0.000    0.000 
#
# Total GULP energy -155978.755468 kJ/mol
# GULP energy per Si atom -5570.669838 kJ/mol
# Density = 1.942784 g / cm^3
# Si number density = 19.472164 Si / 1000 Ang^3
#
#
#
# Elastic Constant Matrix: (Units=GPa)
#
#
# Indices 1 2 3 4 5 6 
#
# 1 28.1687 11.8345 50.5558 0.0000 -3.4261 0.0000
# 2 11.8345 12.9448 39.7740 0.0000 -2.8025 0.0001
# 3 50.5558 39.7740 153.7723 0.0000 2.7313 0.0000
# 4 0.0000 0.0000 0.0000 34.6458 0.0000 5.2814
# 5 -3.4261 -2.8025 2.7313 0.0000 33.1134 0.0000
# 6 0.0000 0.0001 0.0000 5.2814 0.0000 25.0951
#
#
#
# Elastic Compliance Matrix: (Units=1/GPa)
#
#
# Indices 1 2 3 4 5 6 
#
# 1 0.102927 0.076629 -0.054043 0.000000 0.021592 0.000000
# 2 0.076629 0.494752 -0.154274 0.000000 0.062525 -0.000001
# 3 -0.054043 -0.154274 0.064601 0.000000 -0.023977 0.000000
# 4 0.000000 0.000000 0.000000 0.029820 0.000000 -0.006276
# 5 0.021592 0.062525 -0.023977 0.000000 0.039703 0.000000
# 6 0.000000 -0.000001 0.000000 -0.006276 0.000000 0.041169
#
#
# Mechanical properties :
#
#
# Convention : Reuss Voigt Hill
#
# Bulk Modulus (GPa) = 2.50687 44.35717 23.43202
# Shear Modulus (GPa) = 4.27600 24.75230 14.51415
#
# Velocity S-wave (km/s) = 1.48348 3.56921 2.73313
# Velocity P-wave (km/s) = 2.05536 6.30990 4.69251
#
# Compressibility (1/GPa) = 0.39890313
#
# Stress axis : x y z
#
# Youngs Moduli (GPa) = 9.71562 2.02121 15.47969
#
# Poissons Ratio (x) = -0.15488 0.83658
# Poissons Ratio (y) = -0.74450 2.38812
# Poissons Ratio (z) = 0.52507 0.31182
#
# Static dielectric constant tensor:
#      x y z
#    x 1.798440 0.000000 -0.006480 
#    y 0.000000 1.673850 0.000000 
#    z -0.006480 0.000000 1.687760 
# 
# From -- ./inp_files/380571.got.cif
#   From: 2010.05.17/outbox.cif.g08.bks.cpg/sg12_191_cif.got.tgz:380571.got - 2010.06.03 13:09:07.
