data_PCOD9198490
_publ_section_title
;
Structure prediction by ZEFSAII (Michael W. Deem and Ramdas Pophale) SiO2 
 PCOD9198490
Probable space group: C 2/M
;
_chemical_formula_sum "Si O2"
_cell_formula_units_Z 64
_cell_length_a 13.935618
_cell_length_b 26.363609
_cell_length_c 9.495672
_cell_angle_alpha 90.000000
_cell_angle_beta 77.807227
_cell_angle_gamma 90.000000
_cell_volume 3409.950204
_symmetry_space_group_name_H-M "C 2/M"
_symmetry_group_IT_number 12
_symmetry_cell_setting 'monoclinic'
loop_
_space_group_symop_operation_xyz
x,y,z
-x,y,-z
-x,-y,-z
x,-y,z
1/2+x,1/2+y,z
1/2-x,1/2+y,-z
1/2-x,1/2-y,-z
1/2+x,1/2-y,z
loop_
_atom_site_type_symbol
_atom_site_label
_atom_site_fract_x
_atom_site_fract_y
_atom_site_fract_z
Si Si1 0.681585 0.142990 0.899717
Si Si2 0.052329 0.239137 0.351022
Si Si3 0.923992 0.733974 0.139950
Si Si4 0.832051 0.108745 0.291504
Si Si5 0.263464 0.558919 0.044192
Si Si6 0.849619 0.870448 0.616016
Si Si7 0.544644 0.561071 0.202768
Si Si8 0.737804 0.202496 0.166387
O O1 0.587990 0.173002 0.866406
O O2 0.755459 0.138053 0.745368
O O3 0.682215 0.088798 0.977825
O O4 0.720897 0.175311 0.022585
O O5 0.091993 0.183350 0.383668
O O6 0.139165 0.273127 0.259384
O O7 0.000000 0.264116 0.500000
O O8 0.965325 0.239954 0.265355
O O9 0.817314 0.753672 0.135870
O O10 0.000000 0.750874 0.000000
O O11 0.768600 0.071675 0.208874
O O12 0.826965 0.113533 0.462613
O O13 0.790685 0.161999 0.249836
O O14 0.943591 0.092220 0.218597
O O15 0.250078 0.500000 0.028534
O O16 0.370912 0.571883 0.940703
O O17 0.910025 0.916424 0.667768
O O18 0.527029 0.500000 0.209665
#
# Coordination Sequence:
#
# PCOD9198490 Si02
#       8
#     8   8   8   8   8   8   8   8
#     4  10  21  39  59  84 119 153 204 256 297 356
#     4  12  25  38  58  86 125 169 207 249 309 358
#     4  12  22  37  63  84 113 164 208 251 302 356
#     4  11  22  33  55  82 119 161 196 243 297 364
#     4   9  20  38  61  85 118 158 199 254 313 368
#     4  11  22  37  54  84 125 161 198 251 303 354
#     4  10  20  36  57  86 121 159 203 248 304 379
#     4  11  23  40  56  87 122 160 211 255 295 363
#
# _framework density 18.768602999999999
#
# number of rings (size 3 to 8) (size 9 to 14) (size 15 to 20)
#    0.000    1.250    2.500    4.500    1.750    5.500 
#    0.000    0.000    0.000    0.375    0.000    0.000 
#    0.000   14.000    0.000    0.000    0.000    0.000 
#
# Total GULP energy -178205.206970 kJ/mol
# GULP energy per Si atom -5568.912718 kJ/mol
# Density = 1.872588 g / cm^3
# Si number density = 18.768603 Si / 1000 Ang^3
#
#
#
# Elastic Constant Matrix: (Units=GPa)
#
#
# Indices 1 2 3 4 5 6 
#
# 1 24.1878 16.1165 12.4949 0.0000 -1.8096 0.0000
# 2 16.1165 74.4732 31.4910 0.0000 4.1646 0.0000
# 3 12.4949 31.4910 107.0213 0.0000 17.5299 0.0000
# 4 0.0000 0.0000 0.0000 21.9781 0.0000 0.4362
# 5 -1.8096 4.1646 17.5299 0.0000 28.6599 0.0000
# 6 0.0000 0.0000 0.0000 0.4362 0.0000 -0.6580
#
#
#
# Elastic Compliance Matrix: (Units=1/GPa)
#
#
# Indices 1 2 3 4 5 6 
#
# 1 0.050418 -0.009509 -0.004263 0.000000 0.007173 0.000000
# 2 -0.009509 0.017138 -0.003808 0.000000 -0.000762 0.000000
# 3 -0.004263 -0.003808 0.012131 0.000000 -0.007136 0.000000
# 4 0.000000 0.000000 0.000000 0.044909 0.000000 0.029772
# 5 0.007173 -0.000762 -0.007136 0.000000 0.039820 0.000000
# 6 0.000000 0.000000 0.000000 0.029772 0.000000 -1.500014
#
#
# Mechanical properties :
#
#
# Convention : Reuss Voigt Hill
#
# Bulk Modulus (GPa) = 22.45851 36.20968 29.33410
# Shear Modulus (GPa) = -3.88925 19.70134 7.90604
#
# Velocity S-wave (km/s) = -1.44108 3.24342 2.05463
# Velocity P-wave (km/s) = 3.03694 5.77589 4.61432
#
# Compressibility (1/GPa) = 0.04452655
#
# Stress axis : x y z
#
# Youngs Moduli (GPa) = 19.83416 58.34884 82.43340
#
# Poissons Ratio (x) = 0.55485 0.35143
# Poissons Ratio (y) = 0.18861 0.31390
# Poissons Ratio (z) = 0.08456 0.22219
#
# Static dielectric constant tensor:
#      x y z
#    x 1.633720 0.000000 -0.015280 
#    y 0.000000 1.711840 0.000000 
#    z -0.015280 0.000000 1.626090 
# 
# From -- ./inp_files/66906.got.cif
#   From: 2010.05.17/outbox.cif.g08.bks.cpg/sg12_34_cif.got.tgz:66906.got - 2010.06.03 13:09:07.
