data_PCOD9198558
_publ_section_title
;
Structure prediction by ZEFSAII (Michael W. Deem and Ramdas Pophale) SiO2 
 PCOD9198558
Probable space group: C 2/M
;
_chemical_formula_sum "Si O2"
_cell_formula_units_Z 44
_cell_length_a 8.359455
_cell_length_b 24.297709
_cell_length_c 11.509411
_cell_angle_alpha 90.000000
_cell_angle_beta 114.343084
_cell_angle_gamma 90.000000
_cell_volume 2129.900791
_symmetry_space_group_name_H-M "C 2/M"
_symmetry_group_IT_number 12
_symmetry_cell_setting 'monoclinic'
loop_
_space_group_symop_operation_xyz
x,y,z
-x,y,-z
-x,-y,-z
x,-y,z
1/2+x,1/2+y,z
1/2-x,1/2+y,-z
1/2-x,1/2-y,-z
1/2+x,1/2-y,z
loop_
_atom_site_type_symbol
_atom_site_label
_atom_site_fract_x
_atom_site_fract_y
_atom_site_fract_z
Si Si1 0.658453 0.884740 0.457763
Si Si2 0.563631 0.593150 0.899353
Si Si3 0.206195 0.000000 0.525132
Si Si4 0.710763 0.777432 0.363009
Si Si5 0.475431 0.675615 0.689127
Si Si6 0.158749 0.500000 0.957974
Si Si7 0.785528 0.000000 0.750291
O O1 0.500000 0.893701 0.500000
O O2 0.711650 0.941663 0.411838
O O3 0.608244 0.834118 0.358071
O O4 0.830536 0.861840 0.578794
O O5 0.586137 0.637061 0.806399
O O6 0.406940 0.552693 0.811829
O O7 0.500000 0.619886 0.000000
O O8 0.725223 0.553499 0.975629
O O9 0.246891 0.000000 0.397357
O O10 0.000000 0.000000 0.500000
O O11 0.750000 0.750000 0.500000
O O12 0.617826 0.726404 0.272714
O O13 0.888947 0.795648 0.356601
O O14 0.140925 0.500000 0.810959
O O15 0.000000 0.500000 0.000000
#
# Coordination Sequence:
#
# PCOD9198558 Si02
#       7
#     8   8   4   8   8   4   4
#     4  11  22  37  55  84 123 160 200 251 302 365
#     4   9  19  38  65  87 115 163 200 250 315 365
#     4  12  22  36  57  88 128 158 203 249 299 373
#     4  10  20  36  58  80 114 163 203 247 296 364
#     4  11  20  38  62  84 113 160 213 249 305 367
#     4   9  19  40  65  95 127 154 207 255 309 385
#     4   9  18  38  63  85 123 165 191 240 315 369
#
# _framework density 20.658238000000001
#
# number of rings (size 3 to 8) (size 9 to 14) (size 15 to 20)
#    0.000    1.818    1.818    6.818    0.000    0.000 
#    3.273    2.727    0.000    0.000    0.000    0.000 
#    0.000    0.000    0.000    0.000    0.000    0.000 
#
# Total GULP energy -122689.727078 kJ/mol
# GULP energy per Si atom -5576.805776 kJ/mol
# Density = 2.061122 g / cm^3
# Si number density = 20.658238 Si / 1000 Ang^3
#
#
#
# Elastic Constant Matrix: (Units=GPa)
#
#
# Indices 1 2 3 4 5 6 
#
# 1 127.5839 36.8732 10.2539 0.0000 -20.5305 0.0000
# 2 36.8732 143.3555 16.6698 0.0000 -2.2233 0.0000
# 3 10.2539 16.6698 54.4884 0.0000 -13.4702 0.0000
# 4 0.0000 0.0000 0.0000 24.0036 0.0000 -11.6460
# 5 -20.5305 -2.2233 -13.4702 0.0000 17.8660 0.0000
# 6 0.0000 0.0000 0.0000 -11.6460 0.0000 30.5365
#
#
#
# Elastic Compliance Matrix: (Units=1/GPa)
#
#
# Indices 1 2 3 4 5 6 
#
# 1 0.010645 -0.002783 0.002196 0.000000 0.013542 0.000000
# 2 -0.002783 0.007974 -0.003025 0.000000 -0.004487 0.000000
# 3 0.002196 -0.003025 0.023839 0.000000 0.020121 0.000000
# 4 0.000000 0.000000 0.000000 0.051119 0.000000 0.019496
# 5 0.013542 -0.004487 0.020121 0.000000 0.086145 0.000000
# 6 0.000000 0.000000 0.000000 0.019496 0.000000 0.040183
#
#
# Mechanical properties :
#
#
# Convention : Reuss Voigt Hill
#
# Bulk Modulus (GPa) = 28.38240 50.33573 39.35906
# Shear Modulus (GPa) = 20.93154 31.92330 26.42742
#
# Velocity S-wave (km/s) = 3.18658 3.93530 3.58057
# Velocity P-wave (km/s) = 5.22570 6.71324 6.01563
#
# Compressibility (1/GPa) = 0.03523311
#
# Stress axis : x y z
#
# Youngs Moduli (GPa) = 93.94036 125.41153 41.94856
#
# Poissons Ratio (x) = 0.34907 -0.09212
# Poissons Ratio (y) = 0.26147 0.12689
# Poissons Ratio (z) = -0.20630 0.37935
#
# Static dielectric constant tensor:
#      x y z
#    x 1.782480 0.000000 0.021130 
#    y 0.000000 1.285090 0.000000 
#    z 0.021130 0.000000 1.795860 
# 
# From -- ./inp_files/122147.got.cif
#   From: 2010.05.17/outbox.cif.g08.bks.cpg/sg12_62_cif.got.tgz:122147.got - 2010.06.03 13:09:07.
