data_PCOD9198063
_publ_section_title
;
Structure prediction by ZEFSAII (Michael W. Deem and Ramdas Pophale) SiO2 
 PCOD9198063
Probable space group: C 2/M
;
_chemical_formula_sum "Si O2"
_cell_formula_units_Z 40
_cell_length_a 25.334111
_cell_length_b 7.706093
_cell_length_c 8.403935
_cell_angle_alpha 90.000000
_cell_angle_beta 95.673519
_cell_angle_gamma 90.000000
_cell_volume 1632.638083
_symmetry_space_group_name_H-M "C 2/M"
_symmetry_group_IT_number 12
_symmetry_cell_setting 'monoclinic'
loop_
_space_group_symop_operation_xyz
x,y,z
-x,y,-z
-x,-y,-z
x,-y,z
1/2+x,1/2+y,z
1/2-x,1/2+y,-z
1/2-x,1/2-y,-z
1/2+x,1/2-y,z
loop_
_atom_site_type_symbol
_atom_site_label
_atom_site_fract_x
_atom_site_fract_y
_atom_site_fract_z
Si Si1 0.678570 0.790070 0.324008
Si Si2 0.721865 0.291115 0.825819
Si Si3 0.121045 0.202748 0.633665
Si Si4 0.976799 0.295016 0.231862
Si Si5 0.919675 0.288130 0.894460
O O1 0.737446 0.728551 0.299309
O O2 0.651143 0.731620 0.477560
O O3 0.638489 0.730512 0.172514
O O4 0.679649 0.000000 0.326608
O O5 0.718741 0.500000 0.813486
O O6 0.662803 0.221485 0.775942
O O7 0.750000 0.250000 0.000000
O O8 0.061277 0.271389 0.629328
O O9 0.115321 0.000000 0.659609
O O10 0.981776 0.500000 0.212176
O O11 0.036612 0.230248 0.224468
O O12 0.942632 0.228545 0.070223
O O13 0.917677 0.500000 0.897364
#
# Coordination Sequence:
#
# PCOD9198063 Si02
#       5
#     8   8   8   8   8
#     4  10  20  36  56  78 104 139 179 218 258 307
#     4  10  22  38  58  81 105 134 174 218 262 312
#     4  11  23  36  50  78 114 142 170 211 261 316
#     4   9  17  34  58  80 103 137 177 220 263 306
#     4   8  16  32  57  83 102 128 180 231 259 295
#
# _framework density 24.500222999999998
#
# number of rings (size 3 to 8) (size 9 to 14) (size 15 to 20)
#    0.000    2.400    0.000    3.600    0.000    4.800 
#    0.000    8.000    0.000    0.000    0.000    0.000 
#    0.000    0.000    0.000    0.000    0.000    0.000 
#
# Total GULP energy -111706.642585 kJ/mol
# GULP energy per Si atom -5585.332129 kJ/mol
# Density = 2.444446 g / cm^3
# Si number density = 24.500223 Si / 1000 Ang^3
#
#
#
# Elastic Constant Matrix: (Units=GPa)
#
#
# Indices 1 2 3 4 5 6 
#
# 1 111.5728 6.7499 -13.4897 0.0000 -26.4728 0.0000
# 2 6.7499 39.7356 -15.9632 0.0000 3.4948 0.0000
# 3 -13.4897 -15.9632 47.0271 0.0000 -17.2626 0.0000
# 4 0.0000 0.0000 0.0000 19.2502 0.0000 -1.7547
# 5 -26.4728 3.4948 -17.2626 0.0000 41.4442 0.0000
# 6 0.0000 0.0000 0.0000 -1.7547 0.0000 6.0287
#
#
#
# Elastic Compliance Matrix: (Units=1/GPa)
#
#
# Indices 1 2 3 4 5 6 
#
# 1 0.012567 -0.000020 0.007727 0.000000 0.011247 0.000000
# 2 -0.000020 0.029276 0.010649 0.000000 0.001954 0.000000
# 3 0.007727 0.010649 0.033736 0.000000 0.018089 0.000000
# 4 0.000000 0.000000 0.000000 0.053363 0.000000 0.015532
# 5 0.011247 0.001954 0.018089 0.000000 0.038683 0.000000
# 6 0.000000 0.000000 0.000000 0.015532 0.000000 0.170395
#
#
# Mechanical properties :
#
#
# Convention : Reuss Voigt Hill
#
# Bulk Modulus (GPa) = 8.90545 16.99217 12.94881
# Shear Modulus (GPa) = 14.76066 28.08049 21.42058
#
# Velocity S-wave (km/s) = 2.45719 3.38913 2.96007
# Velocity P-wave (km/s) = 3.41952 4.71863 4.12060
#
# Compressibility (1/GPa) = 0.11229084
#
# Stress axis : x y z
#
# Youngs Moduli (GPa) = 79.57511 34.15754 29.64213
#
# Poissons Ratio (x) = 0.00068 -0.22903
# Poissons Ratio (y) = 0.00158 -0.31567
# Poissons Ratio (z) = -0.61484 -0.36376
#
# Static dielectric constant tensor:
#      x y z
#    x 2.019640 0.000000 -0.017580 
#    y 0.000000 1.888130 0.000000 
#    z -0.017580 0.000000 2.005520 
# 
# From -- ./inp_files/92774.got.cif
#   From: 2010.05.17/outbox.cif.g08.bks.cpg/sg12_47_cif.got.tgz:92774.got - 2010.06.03 13:09:07.
