data_PCOD9198119
_publ_section_title
;
Structure prediction by ZEFSAII (Michael W. Deem and Ramdas Pophale) SiO2 
 PCOD9198119
Probable space group: C 2/M
;
_chemical_formula_sum "Si O2"
_cell_formula_units_Z 64
_cell_length_a 9.571730
_cell_length_b 24.443539
_cell_length_c 14.634086
_cell_angle_alpha 90.000000
_cell_angle_beta 77.540117
_cell_angle_gamma 90.000000
_cell_volume 3343.250680
_symmetry_space_group_name_H-M "C 2/M"
_symmetry_group_IT_number 12
_symmetry_cell_setting 'monoclinic'
loop_
_space_group_symop_operation_xyz
x,y,z
-x,y,-z
-x,-y,-z
x,-y,z
1/2+x,1/2+y,z
1/2-x,1/2+y,-z
1/2-x,1/2-y,-z
1/2+x,1/2-y,z
loop_
_atom_site_type_symbol
_atom_site_label
_atom_site_fract_x
_atom_site_fract_y
_atom_site_fract_z
Si Si1 0.333934 0.351319 0.995952
Si Si2 0.150933 0.562085 0.934991
Si Si3 0.401484 0.254862 0.432155
Si Si4 0.232631 0.436995 0.711500
Si Si5 0.024382 0.851008 0.299595
Si Si6 0.728010 0.662771 0.799141
Si Si7 0.776331 0.289938 0.157363
Si Si8 0.047314 0.338054 0.718160
O O1 0.291449 0.404178 0.943673
O O2 0.265064 0.304396 0.940984
O O3 0.500000 0.342104 0.000000
O O4 0.259417 0.362403 0.102755
O O5 0.162660 0.500000 0.967068
O O6 0.163249 0.561138 0.823366
O O7 0.000000 0.583328 0.000000
O O8 0.500000 0.234814 0.500000
O O9 0.250000 0.250000 0.500000
O O10 0.454243 0.314635 0.390297
O O11 0.403506 0.214332 0.346237
O O12 0.240007 0.500000 0.678356
O O13 0.386623 0.405907 0.690457
O O14 0.129973 0.392800 0.676888
O O15 0.900385 0.860218 0.242927
O O16 0.141979 0.811460 0.235539
O O17 0.700196 0.726541 0.826519
O O18 0.879123 0.656884 0.729475
O O19 0.909650 0.322639 0.182850
#
# Coordination Sequence:
#
# PCOD9198119 Si02
#       8
#     8   8   8   8   8   8   8   8
#     4  12  23  34  50  82 117 164 211 236 299 355
#     4  10  20  36  56  79 111 158 221 272 296 332
#     4  12  23  39  66  96 125 150 190 250 317 386
#     4  10  21  41  64  85 120 173 214 248 303 365
#     4  11  21  40  61  88 126 158 203 250 315 369
#     4  12  21  35  56  83 123 161 199 257 295 360
#     4  11  20  38  52  81 124 164 193 244 297 369
#     4  11  22  37  63  89 120 160 198 249 313 365
#
# _framework density 19.143046999999999
#
# number of rings (size 3 to 8) (size 9 to 14) (size 15 to 20)
#    0.000    0.875    6.250    3.375    0.000    0.250 
#    0.000    1.250    0.000    3.750    0.000    0.000 
#    0.000    0.000    0.000    0.000    0.000    0.000 
#
# Total GULP energy -178392.371885 kJ/mol
# GULP energy per Si atom -5574.761621 kJ/mol
# Density = 1.909948 g / cm^3
# Si number density = 19.143047 Si / 1000 Ang^3
#
#
#
# Elastic Constant Matrix: (Units=GPa)
#
#
# Indices 1 2 3 4 5 6 
#
# 1 75.1167 26.9438 0.9152 0.0000 -4.9094 0.0000
# 2 26.9438 104.7538 3.1925 0.0000 5.2283 0.0000
# 3 0.9152 3.1925 47.6313 0.0000 -3.7757 0.0000
# 4 0.0000 0.0000 0.0000 12.0441 0.0000 -3.5967
# 5 -4.9094 5.2283 -3.7757 0.0000 31.4562 0.0000
# 6 0.0000 0.0000 0.0000 -3.5967 0.0000 16.8541
#
#
#
# Elastic Compliance Matrix: (Units=1/GPa)
#
#
# Indices 1 2 3 4 5 6 
#
# 1 0.014943 -0.004001 0.000221 0.000000 0.003024 0.000000
# 2 -0.004001 0.010726 -0.000841 0.000000 -0.002508 0.000000
# 3 0.000221 -0.000841 0.021263 0.000000 0.002726 0.000000
# 4 0.000000 0.000000 0.000000 0.088679 0.000000 0.018924
# 5 0.003024 -0.002508 0.002726 0.000000 0.033006 0.000000
# 6 0.000000 0.000000 0.000000 0.018924 0.000000 0.063371
#
#
# Mechanical properties :
#
#
# Convention : Reuss Voigt Hill
#
# Bulk Modulus (GPa) = 26.53274 32.17832 29.35553
# Shear Modulus (GPa) = 19.70105 25.16759 22.43432
#
# Velocity S-wave (km/s) = 3.21152 3.62983 3.42706
# Velocity P-wave (km/s) = 5.25758 5.86630 5.57026
#
# Compressibility (1/GPa) = 0.03768928
#
# Stress axis : x y z
#
# Youngs Moduli (GPa) = 66.92237 93.23040 47.03042
#
# Poissons Ratio (x) = 0.37302 -0.01038
# Poissons Ratio (y) = 0.26776 0.03955
# Poissons Ratio (z) = -0.01477 0.07839
#
# Static dielectric constant tensor:
#      x y z
#    x 1.691020 0.000000 -0.011700 
#    y 0.000000 1.696570 0.000000 
#    z -0.011700 0.000000 1.712260 
# 
# From -- ./inp_files/199811.got.cif
#   From: 2010.05.17/outbox.cif.g08.bks.cpg/sg12_100_cif.got.tgz:199811.got - 2010.06.03 13:09:07.
