data_PCOD9198406
_publ_section_title
;
Structure prediction by ZEFSAII (Michael W. Deem and Ramdas Pophale) SiO2 
 PCOD9198406
Probable space group: C 2/M
;
_chemical_formula_sum "Si O2"
_cell_formula_units_Z 40
_cell_length_a 27.647945
_cell_length_b 7.598332
_cell_length_c 9.726829
_cell_angle_alpha 90.000000
_cell_angle_beta 60.939073
_cell_angle_gamma 90.000000
_cell_volume 1786.139401
_symmetry_space_group_name_H-M "C 2/M"
_symmetry_group_IT_number 12
_symmetry_cell_setting 'monoclinic'
loop_
_space_group_symop_operation_xyz
x,y,z
-x,y,-z
-x,-y,-z
x,-y,z
1/2+x,1/2+y,z
1/2-x,1/2+y,-z
1/2-x,1/2-y,-z
1/2+x,1/2-y,z
loop_
_atom_site_type_symbol
_atom_site_label
_atom_site_fract_x
_atom_site_fract_y
_atom_site_fract_z
Si Si1 0.733904 0.288361 0.178773
Si Si2 0.551415 0.206078 0.013178
Si Si3 0.137533 0.790790 0.494046
Si Si4 0.486885 0.287183 0.363052
Si Si5 0.330198 0.212714 0.248325
O O1 0.732473 0.500000 0.192203
O O2 0.674486 0.222876 0.316340
O O3 0.780496 0.222831 0.221164
O O4 0.750000 0.250000 0.000000
O O5 0.533562 0.221935 0.194945
O O6 0.554312 0.000000 0.971988
O O7 0.500000 0.286121 0.000000
O O8 0.611109 0.279340 0.892409
O O9 0.074745 0.721984 0.591773
O O10 0.170253 0.761332 0.590842
O O11 0.131384 0.000000 0.483644
O O12 0.500000 0.235267 0.500000
O O13 0.487713 0.500000 0.354231
O O14 0.329086 0.000000 0.242811
#
# Coordination Sequence:
#
# PCOD9198406 Si02
#       5
#     8   8   8   8   8
#     4  10  23  40  58  83 113 144 183 230 277 327
#     4  10  20  36  57  83 113 144 182 226 272 326
#     4  10  21  38  58  82 111 145 187 229 272 326
#     4  10  22  37  55  82 115 148 183 226 274 326
#     4  10  21  38  59  83 112 145 184 229 273 325
#
# _framework density 22.394669
#
# number of rings (size 3 to 8) (size 9 to 14) (size 15 to 20)
#    0.000    2.000    2.000    0.600    2.800    3.200 
#    0.000    0.000    0.000    0.000    0.000    0.000 
#    0.000    0.000    0.000    0.000    0.000    0.000 
#
# Total GULP energy -111746.593292 kJ/mol
# GULP energy per Si atom -5587.329665 kJ/mol
# Density = 2.234370 g / cm^3
# Si number density = 22.394669 Si / 1000 Ang^3
#
#
#
# Elastic Constant Matrix: (Units=GPa)
#
#
# Indices 1 2 3 4 5 6 
#
# 1 51.5941 1.8840 13.8944 0.0000 -5.0028 0.0000
# 2 1.8840 46.7908 -14.8454 0.0000 -10.2651 0.0000
# 3 13.8944 -14.8454 138.8616 0.0000 -13.9344 0.0000
# 4 0.0000 0.0000 0.0000 37.5834 0.0000 6.1080
# 5 -5.0028 -10.2651 -13.9344 0.0000 38.3242 0.0000
# 6 0.0000 0.0000 0.0000 6.1080 0.0000 5.1915
#
#
#
# Elastic Compliance Matrix: (Units=1/GPa)
#
#
# Indices 1 2 3 4 5 6 
#
# 1 0.020108 -0.001077 -0.001964 0.000000 0.001622 0.000000
# 2 -0.001077 0.024176 0.003454 0.000000 0.007591 0.000000
# 3 -0.001964 0.003454 0.008131 0.000000 0.003625 0.000000
# 4 0.000000 0.000000 0.000000 0.032898 0.000000 -0.038706
# 5 0.001622 0.007591 0.003625 0.000000 0.029656 0.000000
# 6 0.000000 0.000000 0.000000 -0.038706 0.000000 0.238162
#
#
# Mechanical properties :
#
#
# Convention : Reuss Voigt Hill
#
# Bulk Modulus (GPa) = 18.78267 26.56807 22.67537
# Shear Modulus (GPa) = 13.51160 31.97405 22.74282
#
# Velocity S-wave (km/s) = 2.45896 3.78266 3.19022
# Velocity P-wave (km/s) = 4.05799 5.56483 4.87004
#
# Compressibility (1/GPa) = 0.05324057
#
# Stress axis : x y z
#
# Youngs Moduli (GPa) = 49.73229 41.36283 122.98598
#
# Poissons Ratio (x) = 0.04455 0.24158
# Poissons Ratio (y) = 0.05356 -0.42481
# Poissons Ratio (z) = 0.09769 -0.14287
#
# Static dielectric constant tensor:
#      x y z
#    x 1.836180 0.000000 -0.027290 
#    y 0.000000 1.856030 0.000000 
#    z -0.027290 0.000000 1.815000 
# 
# From -- ./inp_files/83470.got.cif
#   From: 2010.05.17/outbox.cif.g08.bks.cpg/sg12_42_cif.got.tgz:83470.got - 2010.06.03 13:09:07.
