data_PCOD9198404
_publ_section_title
;
Structure prediction by ZEFSAII (Michael W. Deem and Ramdas Pophale) SiO2 
 PCOD9198404
Probable space group: C 2/M
;
_chemical_formula_sum "Si O2"
_cell_formula_units_Z 64
_cell_length_a 14.547277
_cell_length_b 8.783760
_cell_length_c 24.737301
_cell_angle_alpha 90.000000
_cell_angle_beta 90.649667
_cell_angle_gamma 90.000000
_cell_volume 3160.723926
_symmetry_space_group_name_H-M "C 2/M"
_symmetry_group_IT_number 12
_symmetry_cell_setting 'monoclinic'
loop_
_space_group_symop_operation_xyz
x,y,z
-x,y,-z
-x,-y,-z
x,-y,z
1/2+x,1/2+y,z
1/2-x,1/2+y,-z
1/2-x,1/2-y,-z
1/2+x,1/2-y,z
loop_
_atom_site_type_symbol
_atom_site_label
_atom_site_fract_x
_atom_site_fract_y
_atom_site_fract_z
Si Si1 0.109596 0.675812 0.734354
Si Si2 0.358028 0.682488 0.648889
Si Si3 0.889990 0.674770 0.759911
Si Si4 0.433843 0.318910 0.376351
Si Si5 0.786872 0.817304 0.944560
Si Si6 0.563893 0.184514 0.123552
Si Si7 0.144489 0.314917 0.851216
Si Si8 0.715777 0.182323 0.555933
O O1 0.137070 0.500000 0.724126
O O2 0.116355 0.769871 0.679643
O O3 0.157312 0.736917 0.789203
O O4 0.000448 0.674353 0.748646
O O5 0.356767 0.500000 0.650324
O O6 0.343957 0.739348 0.709851
O O7 0.460149 0.729823 0.630293
O O8 0.284661 0.733784 0.604295
O O9 0.859262 0.500000 0.759538
O O10 0.885235 0.737426 0.820733
O O11 0.430696 0.500000 0.382354
O O12 0.383630 0.240488 0.426018
O O13 0.885772 0.754013 0.927489
O O14 0.718415 0.767666 0.895720
O O15 0.787767 0.000000 0.947099
O O16 0.750000 0.750000 0.000000
O O17 0.457295 0.228275 0.128960
O O18 0.568411 0.000000 0.122338
O O19 0.145250 0.500000 0.847965
O O20 0.750000 0.250000 0.500000
O O21 0.716921 0.000000 0.553377
#
# Coordination Sequence:
#
# PCOD9198404 Si02
#       8
#     8   8   8   8   8   8   8   8
#     4   8  14  30  55  82 108 138 175 213 254 314
#     4   9  20  37  57  80 111 145 175 211 264 320
#     4   8  15  29  54  84 111 136 170 214 261 312
#     4  10  20  36  57  83 112 142 173 214 266 318
#     4  11  23  38  54  76 104 139 182 225 264 312
#     4   9  18  36  58  80 106 139 175 216 263 314
#     4   8  17  35  58  78 104 143 179 209 259 324
#     4  11  24  41  57  77 105 142 185 226 263 310
#
# _framework density 20.248525999999998
#
# number of rings (size 3 to 8) (size 9 to 14) (size 15 to 20)
#    0.000    2.750    0.000    2.625    0.000    4.000 
#    0.000   13.125    0.000    0.000    0.000    0.000 
#    0.000    0.000    0.000    0.000    0.000    0.000 
#
# Total GULP energy -178642.917081 kJ/mol
# GULP energy per Si atom -5582.591159 kJ/mol
# Density = 2.020244 g / cm^3
# Si number density = 20.248526 Si / 1000 Ang^3
#
#
#
# Elastic Constant Matrix: (Units=GPa)
#
#
# Indices 1 2 3 4 5 6 
#
# 1 61.2696 11.1445 26.9266 0.0000 -12.4651 0.0000
# 2 11.1445 26.7258 17.1388 0.0000 -7.5819 0.0000
# 3 26.9266 17.1388 77.8210 0.0000 -25.1443 0.0000
# 4 0.0000 0.0000 0.0000 35.7025 0.0000 -3.3837
# 5 -12.4651 -7.5819 -25.1443 0.0000 38.2551 0.0000
# 6 0.0000 0.0000 0.0000 -3.3837 0.0000 19.4718
#
#
#
# Elastic Compliance Matrix: (Units=1/GPa)
#
#
# Indices 1 2 3 4 5 6 
#
# 1 0.019840 -0.004313 -0.005208 0.000000 0.002186 0.000000
# 2 -0.004313 0.044773 -0.007561 0.000000 0.002499 0.000000
# 3 -0.005208 -0.007561 0.019406 0.000000 0.009560 0.000000
# 4 0.000000 0.000000 0.000000 0.028478 0.000000 0.004949
# 5 0.002186 0.002499 0.009560 0.000000 0.033631 0.000000
# 6 0.000000 0.000000 0.000000 0.004949 0.000000 0.052216
#
#
# Mechanical properties :
#
#
# Convention : Reuss Voigt Hill
#
# Bulk Modulus (GPa) = 20.05834 30.69293 25.37564
# Shear Modulus (GPa) = 20.07010 26.05962 23.06486
#
# Velocity S-wave (km/s) = 3.15173 3.59135 3.37870
# Velocity P-wave (km/s) = 4.81374 5.69106 5.27068
#
# Compressibility (1/GPa) = 0.04985457
#
# Stress axis : x y z
#
# Youngs Moduli (GPa) = 50.40434 22.33491 51.53023
#
# Poissons Ratio (x) = 0.09632 0.26839
# Poissons Ratio (y) = 0.21738 0.38962
# Poissons Ratio (z) = 0.26253 0.16887
#
# Static dielectric constant tensor:
#      x y z
#    x 1.760330 0.000000 0.008520 
#    y 0.000000 1.684070 0.000000 
#    z 0.008520 0.000000 1.708090 
# 
# From -- ./inp_files/338931.got.cif
#   From: 2010.05.17/outbox.cif.g08.bks.cpg/sg12_170_cif.got.tgz:338931.got - 2010.06.03 13:09:07.
