data_PCOD9198530
_publ_section_title
;
Structure prediction by ZEFSAII (Michael W. Deem and Ramdas Pophale) SiO2 
 PCOD9198530
Probable space group: C 2/M
;
_chemical_formula_sum "Si O2"
_cell_formula_units_Z 44
_cell_length_a 25.146948
_cell_length_b 11.193884
_cell_length_c 24.869531
_cell_angle_alpha 90.000000
_cell_angle_beta 163.985158
_cell_angle_gamma 90.000000
_cell_volume 1931.362968
_symmetry_space_group_name_H-M "C 2/M"
_symmetry_group_IT_number 12
_symmetry_cell_setting 'monoclinic'
loop_
_space_group_symop_operation_xyz
x,y,z
-x,y,-z
-x,-y,-z
x,-y,z
1/2+x,1/2+y,z
1/2-x,1/2+y,-z
1/2-x,1/2-y,-z
1/2+x,1/2-y,z
loop_
_atom_site_type_symbol
_atom_site_label
_atom_site_fract_x
_atom_site_fract_y
_atom_site_fract_z
Si Si1 0.898383 0.871449 0.343343
Si Si2 0.497367 0.869309 0.253775
Si Si3 0.086007 0.130936 0.170119
Si Si4 0.500000 0.190200 0.000000
Si Si5 0.374070 0.132723 0.257015
Si Si6 0.911112 0.132902 0.706296
O O1 0.667289 0.873432 0.129295
O O2 0.946530 0.751544 0.357377
O O3 0.000000 0.867334 0.500000
O O4 0.953270 0.000000 0.371062
O O5 0.409546 0.858838 0.227903
O O6 0.728248 0.872740 0.489125
O O7 0.465297 0.748737 0.188978
O O8 0.443175 0.000000 0.177815
O O9 0.119835 0.228225 0.158093
O O10 0.165474 0.149533 0.307247
O O11 0.141526 0.000000 0.203966
O O12 0.855093 0.131854 0.954931
O O13 0.445536 0.000000 0.343815
O O14 0.003524 0.000000 0.794951
#
# Coordination Sequence:
#
# PCOD9198530 Si02
#       6
#     8   8   8   4   8   8
#     4  10  22  38  55  80 111 144 181 222 271 323
#     4   9  18  33  51  74 105 135 173 221 262 313
#     4   9  18  33  53  79 106 138 178 223 269 314
#     4  10  20  36  58  78 111 146 181 224 267 322
#     4   9  19  35  54  77 105 136 177 224 265 315
#     4   9  18  32  51  74 103 138 175 214 266 319
#
# _framework density 22.781839999999999
#
# number of rings (size 3 to 8) (size 9 to 14) (size 15 to 20)
#    0.000    2.727    0.000    0.545    2.545    2.545 
#    0.000    4.545    0.000    0.000    0.000    0.000 
#    0.000    0.000    0.000    0.000    0.000    0.000 
#
# Total GULP energy -122740.014939 kJ/mol
# GULP energy per Si atom -5579.091588 kJ/mol
# Density = 2.272999 g / cm^3
# Si number density = 22.781840 Si / 1000 Ang^3
#
#
#
# Elastic Constant Matrix: (Units=GPa)
#
#
# Indices 1 2 3 4 5 6 
#
# 1 41.7727 77.7537 -9.7670 -0.0172 3.2985 0.0959
# 2 77.7537 250.6191 16.8982 -0.0439 -9.5578 -0.2170
# 3 -9.7670 16.8982 58.3133 -0.0464 0.8959 0.1569
# 4 -0.0172 -0.0439 -0.0464 -12.9737 -0.0186 -45.2722
# 5 3.2985 -9.5578 0.8959 -0.0186 29.0696 0.0900
# 6 0.0959 -0.2170 0.1569 -45.2722 0.0900-1386.2579
#
#
#
# Elastic Compliance Matrix: (Units=1/GPa)
#
#
# Indices 1 2 3 4 5 6 
#
# 1 0.082248 -0.027738 0.022108 -0.000120 -0.019134 0.000015
# 2 -0.027738 0.013480 -0.008673 0.000030 0.007847 -0.000005
# 3 0.022108 -0.008673 0.023458 -0.000105 -0.006083 0.000009
# 4 -0.000120 0.000030 -0.000105 -0.086992 -0.000038 0.002841
# 5 -0.019134 0.007847 -0.006083 -0.000038 0.039339 0.000001
# 6 0.000015 -0.000005 0.000009 0.002841 0.000001 -0.000814
#
#
# Mechanical properties :
#
#
# Convention : Reuss Voigt Hill
#
# Bulk Modulus (GPa) = 11.03981 57.83054 34.43518
# Shear Modulus (GPa) = 38.60483 -256.31105 -108.85311
#
# Velocity S-wave (km/s) = 4.12095 -10.61843 -6.91985
# Velocity P-wave (km/s) = 5.24398 11.17565 6.97838
#
# Compressibility (1/GPa) = 0.09058125
#
# Stress axis : x y z
#
# Youngs Moduli (GPa) = 12.15829 74.18605 42.62919
#
# Poissons Ratio (x) = 2.05775 -0.94243
# Poissons Ratio (y) = 0.33724 0.36970
# Poissons Ratio (z) = -0.26879 0.64338
#
# Static dielectric constant tensor:
#      x y z
#    x 1.789190 0.000000 0.008550 
#    y 0.000000 1.899870 -0.000010 
#    z 0.008550 -0.000010 1.908070 
# 
# From -- ./inp_files/110185.got.cif
#   From: 2010.05.17/outbox.cif.g08.bks.cpg/sg12_56_cif.got.tgz:110185.got - 2010.06.03 13:09:07.
