data_PCOD9198417
_publ_section_title
;
Structure prediction by ZEFSAII (Michael W. Deem and Ramdas Pophale) SiO2 
 PCOD9198417
Probable space group: C 2/M
;
_chemical_formula_sum "Si O2"
_cell_formula_units_Z 48
_cell_length_a 11.406786
_cell_length_b 24.781500
_cell_length_c 11.577728
_cell_angle_alpha 90.000000
_cell_angle_beta 134.408054
_cell_angle_gamma 90.000000
_cell_volume 2337.976071
_symmetry_space_group_name_H-M "C 2/M"
_symmetry_group_IT_number 12
_symmetry_cell_setting 'monoclinic'
loop_
_space_group_symop_operation_xyz
x,y,z
-x,y,-z
-x,-y,-z
x,-y,z
1/2+x,1/2+y,z
1/2-x,1/2+y,-z
1/2-x,1/2-y,-z
1/2+x,1/2-y,z
loop_
_atom_site_type_symbol
_atom_site_label
_atom_site_fract_x
_atom_site_fract_y
_atom_site_fract_z
Si Si1 0.410952 0.214004 0.136744
Si Si2 0.805113 0.113722 0.377639
Si Si3 0.205921 0.500000 0.022288
Si Si4 0.668801 0.000000 0.275198
Si Si5 0.719035 0.379811 0.906088
Si Si6 0.429755 0.683513 0.825744
Si Si7 0.334478 0.193784 0.527214
O O1 0.543243 0.251547 0.163098
O O2 0.475705 0.207103 0.312510
O O3 0.250000 0.250000 0.000000
O O4 0.364803 0.154653 0.063332
O O5 0.745109 0.121489 0.205249
O O6 0.723645 0.153027 0.413031
O O7 0.000000 0.120615 0.500000
O O8 0.757914 0.053185 0.381233
O O9 0.186833 0.500000 0.148305
O O10 0.288282 0.441793 0.055680
O O11 0.026307 0.500000 0.840262
O O12 0.551827 0.347899 0.821775
O O13 0.247635 0.673951 0.648963
O O14 0.500000 0.667186 0.000000
O O15 0.250000 0.250000 0.500000
#
# Coordination Sequence:
#
# PCOD9198417 Si02
#       7
#     8   8   4   4   8   8   8
#     4   9  20  36  55  80 110 150 194 235 286 343
#     4  11  20  34  57  86 122 145 188 241 296 356
#     4   9  18  34  55  83 115 148 190 235 291 358
#     4   9  19  32  54  87 113 149 185 237 300 346
#     4  10  20  36  57  83 115 151 189 236 297 348
#     4  10  21  38  55  82 115 151 196 238 285 349
#     4  10  21  36  55  82 115 151 193 235 286 345
#
# _framework density 20.530577999999998
#
# number of rings (size 3 to 8) (size 9 to 14) (size 15 to 20)
#    0.000    2.167    1.667    1.250    4.667    1.333 
#    0.000    3.750    0.000    0.000    0.000    2.333 
#    0.000    0.000    0.000    0.000    0.000    0.000 
#
# Total GULP energy -133619.441307 kJ/mol
# GULP energy per Si atom -5567.476721 kJ/mol
# Density = 2.048385 g / cm^3
# Si number density = 20.530578 Si / 1000 Ang^3
#
#
#
# Elastic Constant Matrix: (Units=GPa)
#
#
# Indices 1 2 3 4 5 6 
#
# 1 46.5086 22.0955 20.5147 0.0000 -6.4700 0.0000
# 2 22.0955 133.8751 17.9069 0.0000 -5.8553 0.0000
# 3 20.5147 17.9069 155.0554 0.0000 7.5556 0.0000
# 4 0.0000 0.0000 0.0000 28.5590 0.0000 -0.2241
# 5 -6.4700 -5.8553 7.5556 0.0000 24.3174 0.0000
# 6 0.0000 0.0000 0.0000 -0.2241 0.0000 19.0457
#
#
#
# Elastic Compliance Matrix: (Units=1/GPa)
#
#
# Indices 1 2 3 4 5 6 
#
# 1 0.025593 -0.003473 -0.003327 0.000000 0.007007 0.000000
# 2 -0.003473 0.008168 -0.000543 0.000000 0.001212 0.000000
# 3 -0.003327 -0.000543 0.007109 0.000000 -0.003225 0.000000
# 4 0.000000 0.000000 0.000000 0.035018 0.000000 0.000412
# 5 0.007007 0.001212 -0.003225 0.000000 0.044281 0.000000
# 6 0.000000 0.000000 0.000000 0.000412 0.000000 0.052510
#
#
# Mechanical properties :
#
#
# Convention : Reuss Voigt Hill
#
# Bulk Modulus (GPa) = 38.18727 50.71926 44.45326
# Shear Modulus (GPa) = 25.49804 32.71254 29.10529
#
# Velocity S-wave (km/s) = 3.52796 3.99602 3.76926
# Velocity P-wave (km/s) = 5.93598 6.78592 6.37513
#
# Compressibility (1/GPa) = 0.02618674
#
# Stress axis : x y z
#
# Youngs Moduli (GPa) = 39.07276 122.42288 140.66154
#
# Poissons Ratio (x) = 0.42513 0.46791
# Poissons Ratio (y) = 0.13569 0.07637
# Poissons Ratio (z) = 0.12998 0.06647
#
# Static dielectric constant tensor:
#      x y z
#    x 1.773630 0.000000 0.043570 
#    y 0.000000 1.737220 0.000000 
#    z 0.043570 0.000000 1.842020 
# 
# From -- ./inp_files/135564.got.cif
#   From: 2010.05.17/outbox.cif.g08.bks.cpg/sg12_68_cif.got.tgz:135564.got - 2010.06.03 13:09:07.
