data_PCOD9198991
_publ_section_title
;
Structure prediction by ZEFSAII (Michael W. Deem and Ramdas Pophale) SiO2 
 PCOD9198991
Probable space group: C 2/M
;
_chemical_formula_sum "Si O2"
_cell_formula_units_Z 48
_cell_length_a 14.957395
_cell_length_b 8.484711
_cell_length_c 25.210229
_cell_angle_alpha 90.000000
_cell_angle_beta 40.099346
_cell_angle_gamma 90.000000
_cell_volume 2060.787220
_symmetry_space_group_name_H-M "C 2/M"
_symmetry_group_IT_number 12
_symmetry_cell_setting 'monoclinic'
loop_
_space_group_symop_operation_xyz
x,y,z
-x,y,-z
-x,-y,-z
x,-y,z
1/2+x,1/2+y,z
1/2-x,1/2+y,-z
1/2-x,1/2-y,-z
1/2+x,1/2-y,z
loop_
_atom_site_type_symbol
_atom_site_label
_atom_site_fract_x
_atom_site_fract_y
_atom_site_fract_z
Si Si1 0.267952 0.682910 0.686388
Si Si2 0.282779 0.311376 0.120635
Si Si3 0.035019 0.185031 0.181058
Si Si4 0.199146 0.187147 0.448397
Si Si5 0.523743 0.183199 0.623450
Si Si6 0.545803 0.307487 0.060933
O O1 0.228852 0.500000 0.708269
O O2 0.128216 0.783106 0.747348
O O3 0.335951 0.705774 0.597175
O O4 0.380199 0.726629 0.679788
O O5 0.284643 0.500000 0.121168
O O6 0.387545 0.257622 0.119024
O O7 0.124603 0.259774 0.187348
O O8 0.359100 0.258436 0.031421
O O9 0.086582 0.250210 0.100391
O O10 0.060186 0.000000 0.171990
O O11 0.361552 0.228700 0.384743
O O12 0.109676 0.287532 0.529875
O O13 0.183101 0.000000 0.469087
O O14 0.490526 0.000000 0.645511
O O15 0.548208 0.500000 0.060826
#
# Coordination Sequence:
#
# PCOD9198991 Si02
#       6
#     8   8   8   8   8   8
#     4  11  23  38  54  75 107 147 181 209 253 316
#     4   9  17  35  59  79 100 136 180 214 255 317
#     4  11  22  35  51  78 111 139 171 218 268 306
#     4   9  20  38  58  79 106 140 175 211 258 316
#     4  10  20  36  59  84 106 132 172 222 266 303
#     4   8  17  34  57  79 103 137 175 214 260 316
#
# _framework density 23.292069999999999
#
# number of rings (size 3 to 8) (size 9 to 14) (size 15 to 20)
#    0.000    2.333    0.000    3.500    0.000    5.333 
#    0.000   10.833    0.000    0.000    0.000    0.000 
#    0.000    0.000    0.000    0.000    0.000    0.000 
#
# Total GULP energy -134098.083957 kJ/mol
# GULP energy per Si atom -5587.420165 kJ/mol
# Density = 2.323906 g / cm^3
# Si number density = 23.292070 Si / 1000 Ang^3
#
#
#
# Elastic Constant Matrix: (Units=GPa)
#
#
# Indices 1 2 3 4 5 6 
#
# 1 141.8246 16.4748 -0.4889 0.0000 -22.3707 0.0000
# 2 16.4748 8.2201 -8.9333 0.0000 -0.8048 0.0001
# 3 -0.4889 -8.9333 40.5514 0.0000 -11.9035 0.0000
# 4 0.0000 0.0000 0.0000 19.2057 0.0000 -6.1751
# 5 -22.3707 -0.8048 -11.9035 0.0000 36.8003 0.0000
# 6 0.0000 0.0001 0.0000 -6.1751 0.0000 21.5943
#
#
#
# Elastic Compliance Matrix: (Units=1/GPa)
#
#
# Indices 1 2 3 4 5 6 
#
# 1 0.010737 -0.025571 -0.004146 0.000000 0.004627 0.000000
# 2 -0.025571 0.230408 0.052335 0.000000 0.006423 -0.000001
# 3 -0.004146 0.052335 0.039485 0.000000 0.011396 0.000000
# 4 0.000000 0.000000 0.000000 0.057340 0.000000 0.016397
# 5 0.004627 0.006423 0.011396 0.000000 0.033813 0.000000
# 6 0.000000 -0.000001 0.000000 0.016397 0.000000 0.050997
#
#
# Mechanical properties :
#
#
# Convention : Reuss Voigt Hill
#
# Bulk Modulus (GPa) = 3.06875 22.74459 12.90667
# Shear Modulus (GPa) = 10.28457 27.75631 19.02044
#
# Velocity S-wave (km/s) = 2.10358 3.45579 2.86073
# Velocity P-wave (km/s) = 2.68709 5.07045 4.05771
#
# Compressibility (1/GPa) = 0.32586559
#
# Stress axis : x y z
#
# Youngs Moduli (GPa) = 93.13663 4.34013 25.32631
#
# Poissons Ratio (x) = 0.11098 0.10500
# Poissons Ratio (y) = 2.38164 -1.32546
# Poissons Ratio (z) = 0.38612 -0.22714
#
# Static dielectric constant tensor:
#      x y z
#    x 1.862400 0.000000 -0.003200 
#    y 0.000000 1.797940 0.000000 
#    z -0.003200 0.000000 1.944750 
# 
# From -- ./inp_files/308289.got.cif
#   From: 2010.05.17/outbox.cif.g08.bks.cpg/sg12_155_cif.got.tgz:308289.got - 2010.06.03 13:09:07.
