data_PCOD9198852
_publ_section_title
;
Structure prediction by ZEFSAII (Michael W. Deem and Ramdas Pophale) SiO2 
 PCOD9198852
Probable space group: C 2/M
;
_chemical_formula_sum "Si O2"
_cell_formula_units_Z 56
_cell_length_a 18.659157
_cell_length_b 28.099649
_cell_length_c 8.829998
_cell_angle_alpha 90.000000
_cell_angle_beta 143.573817
_cell_angle_gamma 90.000000
_cell_volume 2749.058264
_symmetry_space_group_name_H-M "C 2/M"
_symmetry_group_IT_number 12
_symmetry_cell_setting 'monoclinic'
loop_
_space_group_symop_operation_xyz
x,y,z
-x,y,-z
-x,-y,-z
x,-y,z
1/2+x,1/2+y,z
1/2-x,1/2+y,-z
1/2-x,1/2-y,-z
1/2+x,1/2-y,z
loop_
_atom_site_type_symbol
_atom_site_label
_atom_site_fract_x
_atom_site_fract_y
_atom_site_fract_z
Si Si1 0.234373 0.732700 0.648498
Si Si2 0.069363 0.054510 0.774726
Si Si3 0.775376 0.880352 0.768499
Si Si4 0.597411 0.945607 0.042594
Si Si5 0.003529 0.622703 0.332245
Si Si6 0.473299 0.777622 0.133378
Si Si7 0.351409 0.447200 0.640795
O O1 0.250000 0.750000 0.500000
O O2 0.263772 0.676576 0.725093
O O3 0.090272 0.741714 0.426004
O O4 0.337423 0.758497 0.922874
O O5 0.000000 0.063123 0.500000
O O6 0.965769 0.054763 0.726900
O O7 0.120352 0.000000 0.855372
O O8 0.161659 0.096402 0.977473
O O9 0.637008 0.897092 0.529154
O O10 0.845112 0.904612 0.748293
O O11 0.589590 0.917329 0.873935
O O12 0.563511 0.000000 0.957699
O O13 0.500000 0.926494 0.000000
O O14 0.729949 0.943547 0.336457
O O15 0.000000 0.637772 0.500000
O O16 0.976326 0.667119 0.179026
O O17 0.500000 0.770248 0.000000
O O18 0.349508 0.500000 0.712086
#
# Coordination Sequence:
#
# PCOD9198852 Si02
#       7
#     8   8   8   8   8   8   8
#     4   9  20  36  60  90 115 147 196 253 303 350
#     4  10  23  41  59  85 124 163 196 240 298 353
#     4  11  22  39  61  90 117 151 203 248 290 354
#     4  10  20  36  58  87 116 149 196 241 286 346
#     4  11  24  38  57  85 120 159 192 238 301 351
#     4   9  19  39  61  84 115 149 196 247 299 356
#     4  10  21  37  61  88 116 153 197 245 291 344
#
# _framework density 20.370612000000001
#
# number of rings (size 3 to 8) (size 9 to 14) (size 15 to 20)
#    0.000    2.000    1.429    1.286    6.000    5.429 
#    0.000    3.571    0.000    0.000    0.000    0.000 
#    0.000    0.000    0.000    0.000    0.000    0.000 
#
# Total GULP energy -156058.820381 kJ/mol
# GULP energy per Si atom -5573.529299 kJ/mol
# Density = 2.032425 g / cm^3
# Si number density = 20.370612 Si / 1000 Ang^3
#
#
#
# Elastic Constant Matrix: (Units=GPa)
#
#
# Indices 1 2 3 4 5 6 
#
# 1 16.3449 1.1995 19.1662 0.0000 9.1954 0.0000
# 2 1.1995 57.5572 70.4606 0.0000 5.0862 0.0000
# 3 19.1662 70.4606 154.1748 0.0000 17.0868 0.0000
# 4 0.0000 0.0000 0.0000 27.7245 0.0000 -0.7988
# 5 9.1954 5.0862 17.0868 0.0000 19.9755 0.0000
# 6 0.0000 0.0000 0.0000 -0.7988 0.0000 10.2519
#
#
#
# Elastic Compliance Matrix: (Units=1/GPa)
#
#
# Indices 1 2 3 4 5 6 
#
# 1 0.105199 0.027390 -0.021493 0.000000 -0.037016 0.000000
# 2 0.027390 0.047219 -0.024586 0.000000 -0.003601 0.000000
# 3 -0.021493 -0.024586 0.020552 0.000000 -0.001426 0.000000
# 4 0.000000 0.000000 0.000000 0.036150 0.000000 0.002817
# 5 -0.037016 -0.003601 -0.001426 0.000000 0.069238 0.000000
# 6 0.000000 0.000000 0.000000 0.002817 0.000000 0.097762
#
#
# Mechanical properties :
#
#
# Convention : Reuss Voigt Hill
#
# Bulk Modulus (GPa) = 7.37502 45.52549 26.45026
# Shear Modulus (GPa) = 10.90047 20.74041 15.82044
#
# Velocity S-wave (km/s) = 2.31575 3.19431 2.78983
# Velocity P-wave (km/s) = 3.28307 6.00017 4.83635
#
# Compressibility (1/GPa) = 0.13559280
#
# Stress axis : x y z
#
# Youngs Moduli (GPa) = 9.50579 21.17794 48.65648
#
# Poissons Ratio (x) = -0.58007 1.04579
# Poissons Ratio (y) = -0.26037 1.19626
# Poissons Ratio (z) = 0.20431 0.52068
#
# Static dielectric constant tensor:
#      x y z
#    x 1.763150 0.000000 0.000450 
#    y 0.000000 1.704480 0.000000 
#    z 0.000450 0.000000 1.757790 
# 
# From -- ./inp_files/91651.got.cif
#   From: 2010.05.17/outbox.cif.g08.bks.cpg/sg12_46_cif.got.tgz:91651.got - 2010.06.03 13:09:07.
