data_PCOD9198409
_publ_section_title
;
Structure prediction by ZEFSAII (Michael W. Deem and Ramdas Pophale) SiO2 
 PCOD9198409
Probable space group: C 2/M
;
_chemical_formula_sum "Si O2"
_cell_formula_units_Z 58
_cell_length_a 25.803401
_cell_length_b 7.514363
_cell_length_c 14.409400
_cell_angle_alpha 90.000000
_cell_angle_beta 66.847810
_cell_angle_gamma 90.000000
_cell_volume 2568.914366
_symmetry_space_group_name_H-M "C 2/M"
_symmetry_group_IT_number 12
_symmetry_cell_setting 'monoclinic'
loop_
_space_group_symop_operation_xyz
x,y,z
-x,y,-z
-x,-y,-z
x,-y,z
1/2+x,1/2+y,z
1/2-x,1/2+y,-z
1/2-x,1/2-y,-z
1/2+x,1/2-y,z
loop_
_atom_site_type_symbol
_atom_site_label
_atom_site_fract_x
_atom_site_fract_y
_atom_site_fract_z
Si Si1 0.930141 0.713648 0.383374
Si Si2 0.351236 0.204772 0.100192
Si Si3 0.149131 0.700365 0.412378
Si Si4 0.500000 0.500000 0.000000
Si Si5 0.446083 0.708108 0.659045
Si Si6 0.726885 0.294198 0.193120
Si Si7 0.454397 0.215533 0.153131
Si Si8 0.370697 0.284501 0.876359
O O1 0.926973 0.500000 0.390967
O O2 0.874706 0.782285 0.475662
O O3 0.938300 0.758086 0.270183
O O4 0.987555 0.769731 0.393934
O O5 0.289006 0.287210 0.152693
O O6 0.401308 0.279275 0.127348
O O7 0.347118 0.000000 0.134997
O O8 0.367601 0.211041 0.981142
O O9 0.169069 0.500000 0.415788
O O10 0.092891 0.696167 0.387998
O O11 0.195838 0.787917 0.314224
O O12 0.497159 0.341375 0.921089
O O13 0.431772 0.500000 0.659300
O O14 0.424605 0.766465 0.776163
O O15 0.734717 0.500000 0.160844
O O16 0.683358 0.222445 0.146884
O O17 0.464109 0.000000 0.137044
O O18 0.369227 0.500000 0.883783
#
# Coordination Sequence:
#
# PCOD9198409 Si02
#       8
#     8   8   8   2   8   8   8   8
#     4  10  22  39  57  80 117 155 193 242 294 351
#     4  10  21  37  58  81 114 153 193 240 296 351
#     4  10  20  36  57  83 113 152 194 239 296 354
#     4  12  26  44  68  90 122 160 206 244 286 362
#     4  10  21  34  54  85 117 149 191 240 292 354
#     4   9  19  37  56  82 114 150 189 239 297 350
#     4  10  25  44  63  90 123 160 199 246 296 346
#     4   9  19  32  52  82 117 148 187 235 288 352
#
# _framework density 22.577629999999999
#
# number of rings (size 3 to 8) (size 9 to 14) (size 15 to 20)
#    0.000    2.207    0.000    2.690    3.862    6.069 
#    0.000    0.690    0.000    0.000    0.000    0.000 
#    0.000    0.000    0.000    0.000    0.000    0.000 
#
# Total GULP energy -161710.587530 kJ/mol
# GULP energy per Si atom -5576.227156 kJ/mol
# Density = 2.252624 g / cm^3
# Si number density = 22.577630 Si / 1000 Ang^3
#
#
#
# Elastic Constant Matrix: (Units=GPa)
#
#
# Indices 1 2 3 4 5 6 
#
# 1 58.7859 -1.5104 19.4476 0.0000 -13.7834 0.0000
# 2 -1.5104 72.8963 6.5477 0.0000 6.3214 0.0000
# 3 19.4476 6.5477 119.3682 0.0000 5.9352 0.0000
# 4 0.0000 0.0000 0.0000 38.4185 0.0000 3.0427
# 5 -13.7834 6.3214 5.9352 0.0000 26.7997 0.0000
# 6 0.0000 0.0000 0.0000 3.0427 0.0000 -4.5872
#
#
#
# Elastic Compliance Matrix: (Units=1/GPa)
#
#
# Indices 1 2 3 4 5 6 
#
# 1 0.021097 -0.000225 -0.004011 0.000000 0.011792 0.000000
# 2 -0.000225 0.014051 -0.000570 0.000000 -0.003304 0.000000
# 3 -0.004011 -0.000570 0.009260 0.000000 -0.003979 0.000000
# 4 0.000000 0.000000 0.000000 0.024730 0.000000 0.016404
# 5 0.011792 -0.003304 -0.003979 0.000000 0.045039 0.000000
# 6 0.000000 0.000000 0.000000 0.016404 0.000000 -0.207117
#
#
# Mechanical properties :
#
#
# Convention : Reuss Voigt Hill
#
# Bulk Modulus (GPa) = 28.73895 33.33559 31.03727
# Shear Modulus (GPa) = -69.70680 27.23055 -21.23812
#
# Velocity S-wave (km/s) = -5.56249 3.47664 -3.07036
# Velocity P-wave (km/s) = 5.33840 5.55994 1.09875
#
# Compressibility (1/GPa) = 0.03479598
#
# Stress axis : x y z
#
# Youngs Moduli (GPa) = 47.40050 71.16856 107.99091
#
# Poissons Ratio (x) = 0.01602 0.43316
# Poissons Ratio (y) = 0.01067 0.06153
# Poissons Ratio (z) = 0.19013 0.04055
#
# Static dielectric constant tensor:
#      x y z
#    x 1.872160 0.000000 -0.038200 
#    y 0.000000 1.889950 0.000000 
#    z -0.038200 0.000000 1.871550 
# 
# From -- ./inp_files/243719.got.cif
#   From: 2010.05.17/outbox.cif.g08.bks.cpg/sg12_122_cif.got.tgz:243719.got - 2010.06.03 13:09:07.
