data_PCOD9198861
_publ_section_title
;
Structure prediction by ZEFSAII (Michael W. Deem and Ramdas Pophale) SiO2 
 PCOD9198861
Probable space group: C 2/M
;
_chemical_formula_sum "Si O2"
_cell_formula_units_Z 56
_cell_length_a 28.540143
_cell_length_b 8.675994
_cell_length_c 17.186695
_cell_angle_alpha 90.000000
_cell_angle_beta 138.762438
_cell_angle_gamma 90.000000
_cell_volume 2805.262359
_symmetry_space_group_name_H-M "C 2/M"
_symmetry_group_IT_number 12
_symmetry_cell_setting 'monoclinic'
loop_
_space_group_symop_operation_xyz
x,y,z
-x,y,-z
-x,-y,-z
x,-y,z
1/2+x,1/2+y,z
1/2-x,1/2+y,-z
1/2-x,1/2-y,-z
1/2+x,1/2-y,z
loop_
_atom_site_type_symbol
_atom_site_label
_atom_site_fract_x
_atom_site_fract_y
_atom_site_fract_z
Si Si1 0.213353 0.684146 0.192476
Si Si2 0.553275 0.817612 0.808086
Si Si3 0.791020 0.182590 0.977198
Si Si4 0.582758 0.685197 0.111525
Si Si5 0.528309 0.183274 0.451606
Si Si6 0.165911 0.184569 0.542971
Si Si7 0.410847 0.313459 0.704830
O O1 0.216811 0.500000 0.192790
O O2 0.237213 0.751991 0.139868
O O3 0.133706 0.736121 0.113100
O O4 0.263962 0.741828 0.325775
O O5 0.529635 0.795287 0.688742
O O6 0.487439 0.753353 0.775989
O O7 0.561879 0.000000 0.833076
O O8 0.626658 0.732450 0.915211
O O9 0.784574 0.000000 0.969386
O O10 0.750000 0.250000 0.000000
O O11 0.588288 0.500000 0.109609
O O12 0.606287 0.729442 0.228276
O O13 0.500000 0.726297 0.000000
O O14 0.500000 0.233429 0.500000
O O15 0.598629 0.270498 0.511891
O O16 0.544114 0.000000 0.475047
O O17 0.145858 0.239975 0.431046
O O18 0.171354 0.000000 0.545283
O O19 0.415780 0.500000 0.707961
#
# Coordination Sequence:
#
# PCOD9198861 Si02
#       7
#     8   8   8   8   8   8   8
#     4  11  24  41  60  88 122 155 199 251 302 355
#     4  10  20  36  58  87 119 151 193 242 293 350
#     4  12  26  43  62  84 115 155 197 243 300 359
#     4  10  21  37  60  89 119 157 204 249 299 357
#     4   9  19  34  55  84 115 151 194 240 289 345
#     4   9  20  37  56  83 119 158 199 245 294 350
#     4   9  18  36  60  86 121 162 201 242 293 351
#
# _framework density 19.962482999999999
#
# number of rings (size 3 to 8) (size 9 to 14) (size 15 to 20)
#    0.000    2.000    0.000    3.000    2.000    4.571 
#    0.000    0.000    0.000    0.000    0.000    0.000 
#    0.000    0.000    0.000    0.000    0.000    0.000 
#
# Total GULP energy -156436.488158 kJ/mol
# GULP energy per Si atom -5587.017434 kJ/mol
# Density = 1.991705 g / cm^3
# Si number density = 19.962483 Si / 1000 Ang^3
#
#
#
# Elastic Constant Matrix: (Units=GPa)
#
#
# Indices 1 2 3 4 5 6 
#
# 1 92.3212 25.5194 41.3187 0.0000 -27.5024 0.0000
# 2 25.5194 44.5130 31.4834 0.0000 -7.4019 0.0000
# 3 41.3187 31.4834 92.1255 0.0000 -0.3674 0.0000
# 4 0.0000 0.0000 0.0000 22.6101 0.0000 0.8033
# 5 -27.5024 -7.4019 -0.3674 0.0000 27.6368 0.0000
# 6 0.0000 0.0000 0.0000 0.8033 0.0000 27.1565
#
#
#
# Elastic Compliance Matrix: (Units=1/GPa)
#
#
# Indices 1 2 3 4 5 6 
#
# 1 0.021649 -0.002857 -0.008651 0.000000 0.020663 0.000000
# 2 -0.002857 0.031786 -0.009559 0.000000 0.005543 0.000000
# 3 -0.008651 -0.009559 0.017958 0.000000 -0.010930 0.000000
# 4 0.000000 0.000000 0.000000 0.044275 0.000000 -0.001310
# 5 0.020663 0.005543 -0.010930 0.000000 0.058086 0.000000
# 6 0.000000 0.000000 0.000000 -0.001310 0.000000 0.036862
#
#
# Mechanical properties :
#
#
# Convention : Reuss Voigt Hill
#
# Bulk Modulus (GPa) = 34.17759 47.28919 40.73339
# Shear Modulus (GPa) = 19.04746 24.18989 21.61868
#
# Velocity S-wave (km/s) = 3.09230 3.48482 3.29441
# Velocity P-wave (km/s) = 5.46881 6.31921 5.90933
#
# Compressibility (1/GPa) = 0.02925894
#
# Stress axis : x y z
#
# Youngs Moduli (GPa) = 46.19220 31.46040 55.68542
#
# Poissons Ratio (x) = 0.08987 0.48173
# Poissons Ratio (y) = 0.13195 0.53232
# Poissons Ratio (z) = 0.39961 0.30074
#
# Static dielectric constant tensor:
#      x y z
#    x 1.661720 0.000000 -0.029130 
#    y 0.000000 1.672100 0.000000 
#    z -0.029130 0.000000 1.742880 
# 
# From -- ./inp_files/295167.got.cif
#   From: 2010.05.17/outbox.cif.g08.bks.cpg/sg12_148_cif.got.tgz:295167.got - 2010.06.03 13:09:07.
