data_PCOD9198352
_publ_section_title
;
Structure prediction by ZEFSAII (Michael W. Deem and Ramdas Pophale) SiO2 
 PCOD9198352
Probable space group: C 2/M
;
_chemical_formula_sum "Si O2"
_cell_formula_units_Z 64
_cell_length_a 10.898867
_cell_length_b 31.965374
_cell_length_c 14.548626
_cell_angle_alpha 90.000000
_cell_angle_beta 40.520954
_cell_angle_gamma 90.000000
_cell_volume 3293.164569
_symmetry_space_group_name_H-M "C 2/M"
_symmetry_group_IT_number 12
_symmetry_cell_setting 'monoclinic'
loop_
_space_group_symop_operation_xyz
x,y,z
-x,y,-z
-x,-y,-z
x,-y,z
1/2+x,1/2+y,z
1/2-x,1/2+y,-z
1/2-x,1/2-y,-z
1/2+x,1/2-y,z
loop_
_atom_site_type_symbol
_atom_site_label
_atom_site_fract_x
_atom_site_fract_y
_atom_site_fract_z
Si Si1 0.675837 0.333345 0.968421
Si Si2 0.543828 0.120413 0.743711
Si Si3 0.924889 0.724178 0.444366
Si Si4 0.835548 0.626003 0.522831
Si Si5 0.308076 0.840787 0.167648
Si Si6 0.100860 0.452261 0.041897
Si Si7 0.730320 0.749999 0.880565
Si Si8 0.571186 0.604662 0.190043
O O1 0.845439 0.359083 0.827391
O O2 0.735899 0.285685 0.958690
O O3 0.500000 0.332154 0.000000
O O4 0.622120 0.359383 0.087744
O O5 0.648279 0.110167 0.590804
O O6 0.638631 0.155667 0.755705
O O7 0.498682 0.080514 0.832928
O O8 0.750000 0.750000 0.500000
O O9 0.847419 0.676890 0.505467
O O10 0.000000 0.740627 0.500000
O O11 0.114822 0.726563 0.273676
O O12 0.648984 0.606364 0.672106
O O13 0.000000 0.614940 0.500000
O O14 0.225044 0.797697 0.174868
O O15 0.165651 0.878295 0.229185
O O16 0.500000 0.848773 0.000000
O O17 0.093158 0.500000 0.078702
O O18 0.315808 0.436191 0.905578
O O19 0.000000 0.450141 0.000000
O O20 0.500000 0.751825 0.000000
#
# Coordination Sequence:
#
# PCOD9198352 Si02
#       8
#     8   8   8   8   8   8   8   8
#     4  10  20  36  57  81 114 170 216 261 303 361
#     4  11  20  40  65  87 131 164 209 259 321 392
#     4  11  25  43  57  84 128 176 227 280 339 386
#     4  11  25  41  61  86 126 180 219 257 319 384
#     4  11  20  38  56  94 120 159 212 269 325 362
#     4  10  20  41  72 103 131 153 194 263 335 403
#     4  10  23  37  57  86 118 167 229 276 311 371
#     4  11  21  39  64  89 126 161 208 259 316 393
#
# _framework density 19.434194999999999
#
# number of rings (size 3 to 8) (size 9 to 14) (size 15 to 20)
#    0.000    1.375    5.000    1.500    7.000    1.000 
#    2.250    0.625    0.000   15.750    0.000    0.000 
#    0.000    0.000    0.000    0.000    0.000    0.000 
#
# Total GULP energy -178147.809219 kJ/mol
# GULP energy per Si atom -5567.119038 kJ/mol
# Density = 1.938996 g / cm^3
# Si number density = 19.434195 Si / 1000 Ang^3
#
#
#
# Elastic Constant Matrix: (Units=GPa)
#
#
# Indices 1 2 3 4 5 6 
#
# 1 70.6119 20.7669 11.2231 0.0000 -4.5354 0.0000
# 2 20.7669 110.9523 13.2736 0.0000 3.0175 0.0000
# 3 11.2231 13.2736 73.2735 0.0000 -6.0319 0.0000
# 4 0.0000 0.0000 0.0000 12.9497 0.0000 0.0112
# 5 -4.5354 3.0175 -6.0319 0.0000 25.1599 0.0000
# 6 0.0000 0.0000 0.0000 0.0112 0.0000 26.2546
#
#
#
# Elastic Compliance Matrix: (Units=1/GPa)
#
#
# Indices 1 2 3 4 5 6 
#
# 1 0.015409 -0.002762 -0.001636 0.000000 0.002717 0.000000
# 2 -0.002762 0.009766 -0.001513 0.000000 -0.002032 0.000000
# 3 -0.001636 -0.001513 0.014448 0.000000 0.003350 0.000000
# 4 0.000000 0.000000 0.000000 0.077222 0.000000 -0.000033
# 5 0.002717 -0.002032 0.003350 0.000000 0.041282 0.000000
# 6 0.000000 0.000000 0.000000 -0.000033 0.000000 0.038089
#
#
# Mechanical properties :
#
#
# Convention : Reuss Voigt Hill
#
# Bulk Modulus (GPa) = 35.97159 38.37387 37.17273
# Shear Modulus (GPa) = 23.00903 26.84443 24.92673
#
# Velocity S-wave (km/s) = 3.44458 3.72061 3.58526
# Velocity P-wave (km/s) = 5.86258 6.18431 6.02559
#
# Compressibility (1/GPa) = 0.02779971
#
# Stress axis : x y z
#
# Youngs Moduli (GPa) = 64.89785 102.39395 69.21348
#
# Poissons Ratio (x) = 0.28283 0.11324
# Poissons Ratio (y) = 0.17926 0.10475
# Poissons Ratio (z) = 0.10618 0.15496
#
# Static dielectric constant tensor:
#      x y z
#    x 1.792040 0.000000 0.045310 
#    y 0.000000 1.694350 0.000000 
#    z 0.045310 0.000000 1.728300 
# 
# From -- ./inp_files/209842.got.cif
#   From: 2010.05.17/outbox.cif.g08.bks.cpg/sg12_105_cif.got.tgz:209842.got - 2010.06.03 13:09:07.
