data_PCOD9198564
_publ_section_title
;
Structure prediction by ZEFSAII (Michael W. Deem and Ramdas Pophale) SiO2 
 PCOD9198564
Probable space group: C 2/M
;
_chemical_formula_sum "Si O2"
_cell_formula_units_Z 56
_cell_length_a 18.447917
_cell_length_b 7.472682
_cell_length_c 23.153833
_cell_angle_alpha 90.000000
_cell_angle_beta 54.917973
_cell_angle_gamma 90.000000
_cell_volume 2612.012391
_symmetry_space_group_name_H-M "C 2/M"
_symmetry_group_IT_number 12
_symmetry_cell_setting 'monoclinic'
loop_
_space_group_symop_operation_xyz
x,y,z
-x,y,-z
-x,-y,-z
x,-y,z
1/2+x,1/2+y,z
1/2-x,1/2+y,-z
1/2-x,1/2-y,-z
1/2+x,1/2-y,z
loop_
_atom_site_type_symbol
_atom_site_label
_atom_site_fract_x
_atom_site_fract_y
_atom_site_fract_z
Si Si1 0.254135 0.712910 0.430128
Si Si2 0.884772 0.780414 0.712176
Si Si3 0.962618 0.283431 0.156822
Si Si4 0.699997 0.219145 0.850253
Si Si5 0.914745 0.709074 0.996027
Si Si6 0.586904 0.707432 0.430020
Si Si7 0.557667 0.710300 0.699865
O O1 0.251140 0.500000 0.422663
O O2 0.250000 0.750000 0.500000
O O3 0.169448 0.786529 0.435296
O O4 0.346712 0.784464 0.362075
O O5 0.796443 0.722363 0.786006
O O6 0.886766 0.719651 0.644751
O O7 0.974100 0.718572 0.702663
O O8 0.882106 0.000000 0.714708
O O9 0.964403 0.500000 0.153873
O O10 0.873829 0.227628 0.163272
O O11 0.958938 0.229155 0.224611
O O12 0.047554 0.216586 0.081264
O O13 0.698838 0.000000 0.852299
O O14 0.665463 0.282627 0.928779
O O15 0.894566 0.500000 0.995016
O O16 0.000000 0.715530 0.000000
O O17 0.500000 0.788425 0.500000
O O18 0.564274 0.500000 0.428573
O O19 0.561592 0.500000 0.683824
#
# Coordination Sequence:
#
# PCOD9198564 Si02
#       7
#     8   8   8   8   8   8   8
#     4  11  23  38  56  78 105 136 170 208 251 300
#     4   9  17  30  48  69  96 133 171 202 242 300
#     4   9  16  28  49  74  96 122 162 210 254 294
#     4   8  13  24  46  72  93 120 165 212 246 287
#     4   7  11  21  40  68  96 119 153 206 255 289
#     4  10  20  36  58  81 105 132 165 209 257 304
#     4  10  21  35  49  70 102 135 164 199 246 296
#
# _framework density 21.439408
#
# number of rings (size 3 to 8) (size 9 to 14) (size 15 to 20)
#    0.000    2.857    0.000    3.857    0.000    4.857 
#    0.000    1.429    0.000    4.714    0.000    0.000 
#    0.000    0.000    0.000    0.000    0.000    0.000 
#
# Total GULP energy -156235.740061 kJ/mol
# GULP energy per Si atom -5579.847859 kJ/mol
# Density = 2.139061 g / cm^3
# Si number density = 21.439408 Si / 1000 Ang^3
#
#
#
# Elastic Constant Matrix: (Units=GPa)
#
#
# Indices 1 2 3 4 5 6 
#
# 1 111.4686 -14.3126 93.9785 -0.0001 -11.5855 0.0018
# 2 -14.3126 59.1007 -6.7323 -0.0003 -8.9643 0.0033
# 3 93.9785 -6.7323 228.8404 0.0000 -17.0392 -0.0003
# 4 -0.0001 -0.0003 0.0000 2.9353 -0.0002 15.9231
# 5 -11.5855 -8.9643 -17.0392 -0.0002 34.0856 -0.0003
# 6 0.0018 0.0033 -0.0003 15.9231 -0.0003 20.4435
#
#
#
# Elastic Compliance Matrix: (Units=1/GPa)
#
#
# Indices 1 2 3 4 5 6 
#
# 1 0.014433 0.003307 -0.005609 -0.000003 0.002972 0.000001
# 2 0.003307 0.018560 -0.000379 -0.000006 0.005816 0.000002
# 3 -0.005609 -0.000379 0.006765 0.000001 0.001375 0.000000
# 4 -0.000003 -0.000006 0.000001 -0.105632 -0.000002 0.082275
# 5 0.002972 0.005816 0.001375 -0.000002 0.032565 0.000001
# 6 0.000001 0.000002 0.000000 0.082275 0.000001 -0.015167
#
#
# Mechanical properties :
#
#
# Convention : Reuss Voigt Hill
#
# Bulk Modulus (GPa) = 29.07262 60.58632 44.82947
# Shear Modulus (GPa) = -157.98585 33.25796 -62.36395
#
# Velocity S-wave (km/s) = -8.59357 3.94287 -5.39922
# Velocity P-wave (km/s) = 9.21282 7.00350 4.23244
#
# Compressibility (1/GPa) = 0.03439663
#
# Stress axis : x y z
#
# Youngs Moduli (GPa) = 69.28348 53.87888 147.83015
#
# Poissons Ratio (x) = -0.17819 0.82916
# Poissons Ratio (y) = -0.22914 0.05605
# Poissons Ratio (z) = 0.38860 0.02043
#
# Static dielectric constant tensor:
#      x y z
#    x 1.692010 0.000000 -0.013200 
#    y 0.000000 1.827690 0.000000 
#    z -0.013200 0.000000 1.790010 
# 
# From -- ./inp_files/342252.got.cif
#   From: 2010.05.17/outbox.cif.g08.bks.cpg/sg12_172_cif.got.tgz:342252.got - 2010.06.03 13:09:07.
