data_PCOD9198700
_publ_section_title
;
Structure prediction by ZEFSAII (Michael W. Deem and Ramdas Pophale) SiO2 
 PCOD9198700
Probable space group: C 2/M
;
_chemical_formula_sum "Si O2"
_cell_formula_units_Z 40
_cell_length_a 14.551121
_cell_length_b 28.525061
_cell_length_c 9.281493
_cell_angle_alpha 90.000000
_cell_angle_beta 29.423116
_cell_angle_gamma 90.000000
_cell_volume 1892.552956
_symmetry_space_group_name_H-M "C 2/M"
_symmetry_group_IT_number 12
_symmetry_cell_setting 'monoclinic'
loop_
_space_group_symop_operation_xyz
x,y,z
-x,y,-z
-x,-y,-z
x,-y,z
1/2+x,1/2+y,z
1/2-x,1/2+y,-z
1/2-x,1/2-y,-z
1/2+x,1/2-y,z
loop_
_atom_site_type_symbol
_atom_site_label
_atom_site_fract_x
_atom_site_fract_y
_atom_site_fract_z
Si Si1 0.040623 0.447176 0.772467
Si Si2 0.782097 0.878460 0.817865
Si Si3 0.628658 0.777006 0.543852
Si Si4 0.869658 0.194491 0.941686
Si Si5 0.758113 0.139792 0.519732
O O1 0.067003 0.500000 0.683233
O O2 0.217960 0.412392 0.518214
O O3 0.860057 0.420581 0.954037
O O4 0.000000 0.449648 0.000000
O O5 0.731733 0.859486 0.727693
O O6 0.000000 0.894107 0.500000
O O7 0.782624 0.838412 0.938361
O O8 0.461169 0.741129 0.748966
O O9 0.606864 0.827255 0.648296
O O10 0.262960 0.788213 0.750097
O O11 0.250000 0.250000 0.500000
O O12 0.037481 0.162448 0.780049
#
# Coordination Sequence:
#
# PCOD9198700 Si02
#       5
#     8   8   8   8   8
#     4   9  18  34  59  86 111 146 192 239 287 342
#     4   9  19  35  55  83 117 149 189 240 290 335
#     4  10  20  36  58  83 114 154 196 230 275 340
#     4  10  21  38  58  85 119 154 192 237 286 335
#     4   9  18  35  56  80 112 149 190 235 280 337
#
# _framework density 21.135470999999999
#
# number of rings (size 3 to 8) (size 9 to 14) (size 15 to 20)
#    0.000    2.600    0.000    2.400    0.000   11.600 
#    0.000   35.000    0.000    4.800    0.000    0.000 
#    0.000    0.000    0.000    0.000    0.000    0.600 
#
# Total GULP energy -111657.726004 kJ/mol
# GULP energy per Si atom -5582.886300 kJ/mol
# Density = 2.108737 g / cm^3
# Si number density = 21.135471 Si / 1000 Ang^3
#
#
#
# Elastic Constant Matrix: (Units=GPa)
#
#
# Indices 1 2 3 4 5 6 
#
# 1 104.0260 75.0128 62.3926 0.0000 -10.9039 0.0000
# 2 75.0128 191.8337 64.1211 0.0000 -7.4832 0.0000
# 3 62.3926 64.1211 103.2921 0.0000 -7.0919 0.0000
# 4 0.0000 0.0000 0.0000 30.3884 0.0000 -7.4519
# 5 -10.9039 -7.4832 -7.0919 0.0000 32.3741 0.0000
# 6 0.0000 0.0000 0.0000 -7.4519 0.0000 26.1944
#
#
#
# Elastic Compliance Matrix: (Units=1/GPa)
#
#
# Indices 1 2 3 4 5 6 
#
# 1 0.017670 -0.004151 -0.007873 0.000000 0.003268 0.000000
# 2 -0.004151 0.007566 -0.002198 0.000000 -0.000131 0.000000
# 3 -0.007873 -0.002198 0.015822 0.000000 0.000306 0.000000
# 4 0.000000 0.000000 0.000000 0.035375 0.000000 0.010064
# 5 0.003268 -0.000131 0.000306 0.000000 0.032026 0.000000
# 6 0.000000 0.000000 0.000000 0.010064 0.000000 0.041039
#
#
# Mechanical properties :
#
#
# Convention : Reuss Voigt Hill
#
# Bulk Modulus (GPa) = 79.27051 89.13386 84.20219
# Shear Modulus (GPa) = 27.45032 30.96639 29.20835
#
# Velocity S-wave (km/s) = 3.60777 3.83187 3.72150
# Velocity P-wave (km/s) = 7.41229 7.86395 7.64146
#
# Compressibility (1/GPa) = 0.01261503
#
# Stress axis : x y z
#
# Youngs Moduli (GPa) = 56.59178 132.17725 63.20176
#
# Poissons Ratio (x) = 0.54863 0.49756
# Poissons Ratio (y) = 0.23490 0.13894
# Poissons Ratio (z) = 0.44553 0.29056
#
# Static dielectric constant tensor:
#      x y z
#    x 1.784050 0.000000 -0.053190 
#    y 0.000000 1.783180 0.000000 
#    z -0.053190 0.000000 1.842940 
# 
# From -- ./inp_files/149990.got.cif
#   From: 2010.05.17/outbox.cif.g08.bks.cpg/sg12_75_cif.got.tgz:149990.got - 2010.06.03 13:09:07.
