data_PCOD9198316
_publ_section_title
;
Structure prediction by ZEFSAII (Michael W. Deem and Ramdas Pophale) SiO2 
 PCOD9198316
Probable space group: C 2/M
;
_chemical_formula_sum "Si O2"
_cell_formula_units_Z 48
_cell_length_a 19.999132
_cell_length_b 17.879506
_cell_length_c 11.812595
_cell_angle_alpha 90.000000
_cell_angle_beta 42.022420
_cell_angle_gamma 90.000000
_cell_volume 2827.558088
_symmetry_space_group_name_H-M "C 2/M"
_symmetry_group_IT_number 12
_symmetry_cell_setting 'monoclinic'
loop_
_space_group_symop_operation_xyz
x,y,z
-x,y,-z
-x,-y,-z
x,-y,z
1/2+x,1/2+y,z
1/2-x,1/2+y,-z
1/2-x,1/2-y,-z
1/2+x,1/2-y,z
loop_
_atom_site_type_symbol
_atom_site_label
_atom_site_fract_x
_atom_site_fract_y
_atom_site_fract_z
Si Si1 0.025293 0.315721 0.600377
Si Si2 0.559860 0.649642 0.597296
Si Si3 0.860540 0.088761 0.733031
Si Si4 0.200371 0.667718 0.074362
Si Si5 0.408036 0.589799 0.192828
Si Si6 0.207271 0.589522 0.310294
O O1 0.070899 0.238679 0.586945
O O2 0.105860 0.381854 0.497591
O O3 0.000000 0.301390 0.500000
O O4 0.918902 0.329915 0.792426
O O5 0.447289 0.628407 0.698660
O O6 0.625884 0.615603 0.412872
O O7 0.582532 0.617491 0.691303
O O8 0.874949 0.000000 0.721920
O O9 0.756374 0.114745 0.915566
O O10 0.216322 0.632977 0.179570
O O11 0.250000 0.750000 0.000000
O O12 0.414551 0.500000 0.187521
O O13 0.303173 0.608417 0.265731
O O14 0.500000 0.617676 0.000000
O O15 0.204270 0.500000 0.294899
#
# Coordination Sequence:
#
# PCOD9198316 Si02
#       6
#     8   8   8   8   8   8
#     4  10  20  36  57  80 111 149 182 230 282 326
#     4  11  19  36  54  81 113 145 180 228 284 333
#     4  11  20  31  55  85 109 141 180 228 281 332
#     4  11  20  35  56  81 112 144 182 231 281 329
#     4  10  21  36  56  83 114 147 186 232 277 331
#     4  10  22  38  57  82 113 150 191 232 277 334
#
# _framework density 16.975778999999999
#
# number of rings (size 3 to 8) (size 9 to 14) (size 15 to 20)
#    0.000    1.500    3.333    4.500    0.000    5.667 
#    0.000    0.000    0.000    0.000    0.000    3.500 
#    0.000    0.000    0.000    0.000    0.000    0.000 
#
# Total GULP energy -133939.735792 kJ/mol
# GULP energy per Si atom -5580.822325 kJ/mol
# Density = 1.693714 g / cm^3
# Si number density = 16.975779 Si / 1000 Ang^3
#
#
#
# Elastic Constant Matrix: (Units=GPa)
#
#
# Indices 1 2 3 4 5 6 
#
# 1 82.8401 35.4823 47.8863 0.0000 5.9374 0.0000
# 2 35.4823 76.9592 38.7145 0.0000 -1.9295 0.0000
# 3 47.8863 38.7145 132.0025 0.0000 -11.3398 0.0000
# 4 0.0000 0.0000 0.0000 32.0631 0.0000 -0.6451
# 5 5.9374 -1.9295 -11.3398 0.0000 21.8162 0.0000
# 6 0.0000 0.0000 0.0000 -0.6451 0.0000 19.8410
#
#
#
# Elastic Compliance Matrix: (Units=1/GPa)
#
#
# Indices 1 2 3 4 5 6 
#
# 1 0.018505 -0.005865 -0.005726 0.000000 -0.008531 0.000000
# 2 -0.005865 0.017124 -0.002750 0.000000 0.001681 0.000000
# 3 -0.005726 -0.002750 0.011066 0.000000 0.007067 0.000000
# 4 0.000000 0.000000 0.000000 0.031209 0.000000 0.001015
# 5 -0.008531 0.001681 0.007067 0.000000 0.051981 0.000000
# 6 0.000000 0.000000 0.000000 0.001015 0.000000 0.050434
#
#
# Mechanical properties :
#
#
# Convention : Reuss Voigt Hill
#
# Bulk Modulus (GPa) = 55.51527 59.55199 57.53363
# Shear Modulus (GPa) = 23.25530 26.05865 24.65697
#
# Velocity S-wave (km/s) = 3.70525 3.92222 3.81528
# Velocity P-wave (km/s) = 7.14694 7.46113 7.30572
#
# Compressibility (1/GPa) = 0.01801306
#
# Stress axis : x y z
#
# Youngs Moduli (GPa) = 54.03983 58.39882 90.36444
#
# Poissons Ratio (x) = 0.34253 0.51739
# Poissons Ratio (y) = 0.31696 0.24850
# Poissons Ratio (z) = 0.30941 0.16059
#
# Static dielectric constant tensor:
#      x y z
#    x 1.546230 0.000000 -0.022120 
#    y 0.000000 1.574960 0.000000 
#    z -0.022120 0.000000 1.592340 
# 
# From -- ./inp_files/168328.got.cif
#   From: 2010.05.17/outbox.cif.g08.bks.cpg/sg12_85_cif.got.tgz:168328.got - 2010.06.03 13:09:07.
