data_PCOD9198556
_publ_section_title
;
Structure prediction by ZEFSAII (Michael W. Deem and Ramdas Pophale) SiO2 
 PCOD9198556
Probable space group: C 2/M
;
_chemical_formula_sum "Si O2"
_cell_formula_units_Z 34
_cell_length_a 11.237648
_cell_length_b 12.924033
_cell_length_c 20.762183
_cell_angle_alpha 90.000000
_cell_angle_beta 26.776109
_cell_angle_gamma 90.000000
_cell_volume 1358.458625
_symmetry_space_group_name_H-M "C 2/M"
_symmetry_group_IT_number 12
_symmetry_cell_setting 'monoclinic'
loop_
_space_group_symop_operation_xyz
x,y,z
-x,y,-z
-x,-y,-z
x,-y,z
1/2+x,1/2+y,z
1/2-x,1/2+y,-z
1/2-x,1/2-y,-z
1/2+x,1/2-y,z
loop_
_atom_site_type_symbol
_atom_site_label
_atom_site_fract_x
_atom_site_fract_y
_atom_site_fract_z
Si Si1 0.000000 0.000000 0.500000
Si Si2 0.662140 0.388906 0.084456
Si Si3 0.914139 0.658202 0.688742
Si Si4 0.985491 0.109556 0.374762
Si Si5 0.792774 0.335280 0.882785
O O1 0.036100 0.912070 0.425344
O O2 0.720750 0.500000 0.085024
O O3 0.355609 0.384386 0.209942
O O4 0.699581 0.288178 0.109641
O O5 0.827444 0.378989 0.937652
O O6 0.960036 0.625262 0.741138
O O7 0.886618 0.782464 0.705728
O O8 0.168013 0.627838 0.524633
O O9 0.052110 0.000000 0.309468
O O10 0.500000 0.362509 0.000000
#
# Coordination Sequence:
#
# PCOD9198556 Si02
#       5
#     2   8   8   8   8
#     4   8  20  36  56  80 108 152 186 220 262 330
#     4  10  21  37  57  83 107 142 186 223 274 325
#     4  10  20  36  58  80 114 143 180 229 269 320
#     4   9  20  35  55  83 110 142 185 218 268 321
#     4   9  21  38  55  80 111 144 178 226 275 324
#
# _framework density 25.028365000000001
#
# number of rings (size 3 to 8) (size 9 to 14) (size 15 to 20)
#    0.706    1.882    0.000    0.706    3.294    6.588 
#    0.000    9.412    0.000    4.235    0.000    0.000 
#    0.000    0.000    0.000    0.000    0.000    0.000 
#
# Total GULP energy -94714.009383 kJ/mol
# GULP energy per Si atom -5571.412317 kJ/mol
# Density = 2.497140 g / cm^3
# Si number density = 25.028365 Si / 1000 Ang^3
#
#
#
# Elastic Constant Matrix: (Units=GPa)
#
#
# Indices 1 2 3 4 5 6 
#
# 1 56.9796 -8.1753 24.4390 0.0023 12.7269 0.0019
# 2 -8.1753 173.3572 5.2006 -0.0086 11.4026 -0.0002
# 3 24.4390 5.2006 50.2742 -0.0226 -2.5832 0.0008
# 4 0.0023 -0.0086 -0.0226 5.8475 -0.0086 3.5642
# 5 12.7269 11.4026 -2.5832 -0.0086 41.5147 -0.0005
# 6 0.0019 -0.0002 0.0008 3.5642 -0.0005 -4.3091
#
#
#
# Elastic Compliance Matrix: (Units=1/GPa)
#
#
# Indices 1 2 3 4 5 6 
#
# 1 0.025569 0.002209 -0.013134 -0.000051 -0.009263 -0.000033
# 2 0.002209 0.006090 -0.001830 -0.000002 -0.002464 -0.000001
# 3 -0.013134 -0.001830 0.026783 0.000077 0.006196 0.000063
# 4 -0.000051 -0.000002 0.000077 0.113694 0.000046 0.094039
# 5 -0.009263 -0.002464 0.006196 0.000046 0.027990 0.000032
# 6 -0.000033 -0.000001 0.000063 0.094039 0.000032 -0.154284
#
#
# Mechanical properties :
#
#
# Convention : Reuss Voigt Hill
#
# Bulk Modulus (GPa) = 30.36617 35.94886 33.15752
# Shear Modulus (GPa) = 60.73098 25.88707 43.30903
#
# Velocity S-wave (km/s) = 4.93128 3.21956 4.16432
# Velocity P-wave (km/s) = 6.67701 5.31179 6.03314
#
# Compressibility (1/GPa) = 0.03293138
#
# Stress axis : x y z
#
# Youngs Moduli (GPa) = 39.10946 164.21510 37.33669
#
# Poissons Ratio (x) = -0.36276 0.49038
# Poissons Ratio (y) = -0.08640 0.06834
# Poissons Ratio (z) = 0.51367 0.30058
#
# Static dielectric constant tensor:
#      x y z
#    x 1.942100 0.000000 -0.034200 
#    y 0.000000 2.002530 0.000000 
#    z -0.034200 0.000000 2.042690 
# 
# From -- ./inp_files/167002.got.cif
#   From: 2010.05.17/outbox.cif.g08.bks.cpg/sg12_84_cif.got.tgz:167002.got - 2010.06.03 13:09:07.
