data_PCOD9198135
_publ_section_title
;
Structure prediction by ZEFSAII (Michael W. Deem and Ramdas Pophale) SiO2 
 PCOD9198135
Probable space group: C 2/M
;
_chemical_formula_sum "Si O2"
_cell_formula_units_Z 56
_cell_length_a 9.525215
_cell_length_b 28.737496
_cell_length_c 13.623908
_cell_angle_alpha 90.000000
_cell_angle_beta 61.787337
_cell_angle_gamma 90.000000
_cell_volume 3286.240963
_symmetry_space_group_name_H-M "C 2/M"
_symmetry_group_IT_number 12
_symmetry_cell_setting 'monoclinic'
loop_
_space_group_symop_operation_xyz
x,y,z
-x,y,-z
-x,-y,-z
x,-y,z
1/2+x,1/2+y,z
1/2-x,1/2+y,-z
1/2-x,1/2-y,-z
1/2+x,1/2-y,z
loop_
_atom_site_type_symbol
_atom_site_label
_atom_site_fract_x
_atom_site_fract_y
_atom_site_fract_z
Si Si1 0.699064 0.382182 0.697565
Si Si2 0.031960 0.052618 0.104975
Si Si3 0.116701 0.553957 0.053120
Si Si4 0.239920 0.300077 0.633529
Si Si5 0.335514 0.052169 0.492506
Si Si6 0.429074 0.705400 0.366306
Si Si7 0.484969 0.888287 0.279846
O O1 0.589678 0.413462 0.803026
O O2 0.729331 0.412064 0.588933
O O3 0.612434 0.334914 0.696613
O O4 0.867745 0.374526 0.696937
O O5 0.015663 0.000000 0.150209
O O6 0.214126 0.068210 0.048430
O O7 0.000000 0.050906 0.000000
O O8 0.133380 0.500000 0.084734
O O9 0.056868 0.587662 0.159065
O O10 0.000000 0.553603 0.000000
O O11 0.387172 0.293583 0.659997
O O12 0.323692 0.305519 0.498845
O O13 0.131104 0.254321 0.657204
O O14 0.129449 0.343981 0.696694
O O15 0.500000 0.049538 0.500000
O O16 0.382292 0.073157 0.372353
O O17 0.269314 0.000000 0.508198
#
# Coordination Sequence:
#
# PCOD9198135 Si02
#       7
#     8   8   8   8   8   8   8
#     4  11  20  33  57  85 115 147 187 234 282 335
#     4  10  20  36  56  80 111 153 201 238 269 319
#     4  10  22  38  56  80 112 156 201 238 276 325
#     4  10  21  37  58  83 115 147 186 231 280 344
#     4   9  18  30  49  81 115 147 179 222 279 334
#     4  10  21  37  58  84 114 147 186 230 283 342
#     4  11  20  34  57  83 115 148 187 234 283 337
#
# _framework density 17.040747
#
# number of rings (size 3 to 8) (size 9 to 14) (size 15 to 20)
#    0.000    1.857    2.857    1.714    2.000    2.286 
#    0.000    0.000    0.000    2.571    0.000    0.000 
#    0.000    0.000    0.000    0.000    0.000    0.000 
#
# Total GULP energy -156166.021235 kJ/mol
# GULP energy per Si atom -5577.357901 kJ/mol
# Density = 1.700196 g / cm^3
# Si number density = 17.040747 Si / 1000 Ang^3
#
#
#
# Elastic Constant Matrix: (Units=GPa)
#
#
# Indices 1 2 3 4 5 6 
#
# 1 99.7068 43.0016 21.5842 0.0000 -12.2539 0.0000
# 2 43.0016 110.3755 30.1289 0.0000 -6.4036 0.0000
# 3 21.5842 30.1289 40.6898 0.0000 -6.1715 0.0000
# 4 0.0000 0.0000 0.0000 26.8032 0.0000 -3.8540
# 5 -12.2539 -6.4036 -6.1715 0.0000 22.8188 0.0000
# 6 0.0000 0.0000 0.0000 -3.8540 0.0000 28.4660
#
#
#
# Elastic Compliance Matrix: (Units=1/GPa)
#
#
# Indices 1 2 3 4 5 6 
#
# 1 0.013034 -0.003894 -0.003269 0.000000 0.005022 0.000000
# 2 -0.003894 0.012538 -0.007301 0.000000 -0.000547 0.000000
# 3 -0.003269 -0.007301 0.032471 0.000000 0.004978 0.000000
# 4 0.000000 0.000000 0.000000 0.038050 0.000000 0.005152
# 5 0.005022 -0.000547 0.004978 0.000000 0.047713 0.000000
# 6 0.000000 0.000000 0.000000 0.005152 0.000000 0.035827
#
#
# Mechanical properties :
#
#
# Convention : Reuss Voigt Hill
#
# Bulk Modulus (GPa) = 34.34645 48.91128 41.62886
# Shear Modulus (GPa) = 22.90770 26.02143 24.46456
#
# Velocity S-wave (km/s) = 3.67043 3.91194 3.79311
# Velocity P-wave (km/s) = 6.17754 7.01208 6.60800
#
# Compressibility (1/GPa) = 0.02911509
#
# Stress axis : x y z
#
# Youngs Moduli (GPa) = 76.72383 79.75463 30.79635
#
# Poissons Ratio (x) = 0.31059 0.10066
# Poissons Ratio (y) = 0.29878 0.22486
# Poissons Ratio (z) = 0.25078 0.58232
#
# Static dielectric constant tensor:
#      x y z
#    x 1.141530 0.000000 0.033780 
#    y 0.000000 1.570460 0.000000 
#    z 0.033780 0.000000 1.549550 
# 
# From -- ./inp_files/125612.got.cif
#   From: 2010.05.17/outbox.cif.g08.bks.cpg/sg12_63_cif.got.tgz:125612.got - 2010.06.03 13:09:07.
