data_PCOD9198549
_publ_section_title
;
Structure prediction by ZEFSAII (Michael W. Deem and Ramdas Pophale) SiO2 
 PCOD9198549
Probable space group: C 2/M
;
_chemical_formula_sum "Si O2"
_cell_formula_units_Z 32
_cell_length_a 20.324543
_cell_length_b 12.933132
_cell_length_c 8.596318
_cell_angle_alpha 90.000000
_cell_angle_beta 42.436652
_cell_angle_gamma 90.000000
_cell_volume 1524.739752
_symmetry_space_group_name_H-M "C 2/M"
_symmetry_group_IT_number 12
_symmetry_cell_setting 'monoclinic'
loop_
_space_group_symop_operation_xyz
x,y,z
-x,y,-z
-x,-y,-z
x,-y,z
1/2+x,1/2+y,z
1/2-x,1/2+y,-z
1/2-x,1/2-y,-z
1/2+x,1/2-y,z
loop_
_atom_site_type_symbol
_atom_site_label
_atom_site_fract_x
_atom_site_fract_y
_atom_site_fract_z
Si Si1 0.205175 0.880395 0.624808
Si Si2 0.354369 0.751056 0.534957
Si Si3 0.113184 0.385011 0.245230
Si Si4 0.442469 0.778835 0.954330
O O1 0.309276 0.844994 0.510309
O O2 0.196168 0.846127 0.460282
O O3 0.187431 0.000000 0.676656
O O4 0.126628 0.810554 0.856325
O O5 0.340388 0.793082 0.732901
O O6 0.468791 0.734223 0.304437
O O7 0.155198 0.500000 0.199024
O O8 0.111943 0.355542 0.066613
O O9 0.000000 0.390257 0.500000
O O10 0.500000 0.827562 0.000000
#
# Coordination Sequence:
#
# PCOD9198549 Si02
#       4
#     8   8   8   8
#     4  10  20  36  58  80 108 146 180 218 270 320
#     4   9  19  35  54  79 109 140 182 224 261 318
#     4   9  17  32  54  78 109 145 176 218 273 318
#     4   9  19  34  54  81 110 139 180 224 264 320
#
# _framework density 20.987186999999999
#
# number of rings (size 3 to 8) (size 9 to 14) (size 15 to 20)
#    0.000    2.750    0.000    0.750    0.000    7.000 
#    0.000   15.000    0.000    9.000    0.000    0.000 
#    0.000    0.000    0.000    0.000    0.000    0.000 
#
# Total GULP energy -89081.242245 kJ/mol
# GULP energy per Si atom -5567.577640 kJ/mol
# Density = 2.093942 g / cm^3
# Si number density = 20.987187 Si / 1000 Ang^3
#
#
#
# Elastic Constant Matrix: (Units=GPa)
#
#
# Indices 1 2 3 4 5 6 
#
# 1 65.1842 31.2997 32.8823 0.0000 12.5237 0.0000
# 2 31.2997 97.2690 52.1702 0.0000 12.5621 0.0000
# 3 32.8823 52.1702 100.9812 0.0000 -3.8791 0.0000
# 4 0.0000 0.0000 0.0000 20.9897 0.0000 4.5804
# 5 12.5237 12.5621 -3.8791 0.0000 30.8739 0.0000
# 6 0.0000 0.0000 0.0000 4.5804 0.0000 11.7317
#
#
#
# Elastic Compliance Matrix: (Units=1/GPa)
#
#
# Indices 1 2 3 4 5 6 
#
# 1 0.021125 -0.002590 -0.005858 0.000000 -0.008251 0.000000
# 2 -0.002590 0.016088 -0.007716 0.000000 -0.006465 0.000000
# 3 -0.005858 -0.007716 0.016086 0.000000 0.007537 0.000000
# 4 0.000000 0.000000 0.000000 0.052079 0.000000 -0.020333
# 5 -0.008251 -0.006465 0.007537 0.000000 0.039314 0.000000
# 6 0.000000 0.000000 0.000000 -0.020333 0.000000 0.093178
#
#
# Mechanical properties :
#
#
# Convention : Reuss Voigt Hill
#
# Bulk Modulus (GPa) = 47.68587 55.12654 51.40620
# Shear Modulus (GPa) = 18.03818 22.52454 20.28136
#
# Velocity S-wave (km/s) = 2.93488 3.27961 3.11202
# Velocity P-wave (km/s) = 5.85281 6.37690 6.12047
#
# Compressibility (1/GPa) = 0.02097057
#
# Stress axis : x y z
#
# Youngs Moduli (GPa) = 47.33691 62.15849 62.16467
#
# Poissons Ratio (x) = 0.16101 0.36414
# Poissons Ratio (y) = 0.12262 0.47969
# Poissons Ratio (z) = 0.27728 0.47964
#
# Static dielectric constant tensor:
#      x y z
#    x 1.811220 0.000000 0.001450 
#    y 0.000000 1.706270 0.000000 
#    z 0.001450 0.000000 1.845760 
# 
# From -- ./inp_files/56796.got.cif
#   From: 2010.05.17/outbox.cif.g08.bks.cpg/sg12_29_cif.got.tgz:56796.got - 2010.06.03 13:09:07.
