data_PCOD9198199
_publ_section_title
;
Structure prediction by ZEFSAII (Michael W. Deem and Ramdas Pophale) SiO2 
 PCOD9198199
Probable space group: C 2/M
;
_chemical_formula_sum "Si O2"
_cell_formula_units_Z 44
_cell_length_a 24.712808
_cell_length_b 11.267452
_cell_length_c 15.958850
_cell_angle_alpha 90.000000
_cell_angle_beta 34.847703
_cell_angle_gamma 90.000000
_cell_volume 2539.144337
_symmetry_space_group_name_H-M "C 2/M"
_symmetry_group_IT_number 12
_symmetry_cell_setting 'monoclinic'
loop_
_space_group_symop_operation_xyz
x,y,z
-x,y,-z
-x,-y,-z
x,-y,z
1/2+x,1/2+y,z
1/2-x,1/2+y,-z
1/2-x,1/2-y,-z
1/2+x,1/2-y,z
loop_
_atom_site_type_symbol
_atom_site_label
_atom_site_fract_x
_atom_site_fract_y
_atom_site_fract_z
Si Si1 0.643625 0.000000 0.275887
Si Si2 0.982652 0.139521 0.849294
Si Si3 0.140593 0.705744 0.564068
Si Si4 0.785797 0.863193 0.006471
Si Si5 0.000000 0.722137 0.000000
Si Si6 0.954009 0.500000 0.420966
Si Si7 0.304767 0.868579 0.320989
O O1 0.564681 0.000000 0.303168
O O2 0.597063 0.000000 0.424645
O O3 0.710787 0.886869 0.176238
O O4 0.888432 0.160768 0.914559
O O5 0.072044 0.192254 0.686511
O O6 0.976375 0.201115 0.947732
O O7 0.993451 0.000000 0.847587
O O8 0.080037 0.614475 0.586767
O O9 0.227795 0.765421 0.403709
O O10 0.177840 0.640807 0.600742
O O11 0.787697 0.000000 0.964962
O O12 0.750000 0.750000 0.000000
O O13 0.905031 0.651638 0.147264
O O14 0.268892 0.000000 0.346006
#
# Coordination Sequence:
#
# PCOD9198199 Si02
#       7
#     4   8   8   8   4   4   8
#     4   9  22  34  60  84 108 144 191 235 285 330
#     4  10  20  36  56  84 113 146 190 230 284 337
#     4  10  21  33  59  77 110 153 184 225 280 331
#     4   9  19  36  58  83 113 144 189 235 282 338
#     4  10  22  34  56  84 112 150 178 240 280 340
#     4  11  20  38  56  83 112 145 190 237 272 340
#     4  10  20  37  51  82 112 147 188 221 278 340
#
# _framework density 17.328672000000001
#
# number of rings (size 3 to 8) (size 9 to 14) (size 15 to 20)
#    0.545    1.636    0.909    2.182    2.545    0.000 
#    1.636    0.000    0.000    0.000    0.000    6.364 
#    0.000    0.000    0.000    0.000    0.000    0.000 
#
# Total GULP energy -122498.238692 kJ/mol
# GULP energy per Si atom -5568.101759 kJ/mol
# Density = 1.728923 g / cm^3
# Si number density = 17.328672 Si / 1000 Ang^3
#
#
#
# Elastic Constant Matrix: (Units=GPa)
#
#
# Indices 1 2 3 4 5 6 
#
# 1 43.3976 20.3290 -1.0895 0.0000 -3.0785 0.0000
# 2 20.3290 81.7847 13.8958 0.0000 2.0628 0.0000
# 3 -1.0895 13.8958 80.3407 0.0000 -4.7676 0.0000
# 4 0.0000 0.0000 0.0000 0.3522 0.0000 -1.8979
# 5 -3.0785 2.0628 -4.7676 0.0000 22.4606 0.0000
# 6 0.0000 0.0000 0.0000 -1.8979 0.0000 25.4359
#
#
#
# Elastic Compliance Matrix: (Units=1/GPa)
#
#
# Indices 1 2 3 4 5 6 
#
# 1 0.026742 -0.007083 0.001867 0.000000 0.004712 0.000000
# 2 -0.007083 0.014534 -0.002782 0.000001 -0.002896 0.000000
# 3 0.001867 -0.002782 0.013149 0.000000 0.003303 0.000000
# 4 0.000000 0.000001 0.000000 4.749262 -0.000001 0.354365
# 5 0.004712 -0.002896 0.003303 -0.000001 0.046135 0.000000
# 6 0.000000 0.000000 0.000000 0.354365 0.000000 0.065755
#
#
# Mechanical properties :
#
#
# Convention : Reuss Voigt Hill
#
# Bulk Modulus (GPa) = 26.02143 30.19928 28.11035
# Shear Modulus (GPa) = 1.01125 21.14226 11.07675
#
# Velocity S-wave (km/s) = 0.76475 3.49675 2.53101
# Velocity P-wave (km/s) = 3.97854 5.81104 4.97981
#
# Compressibility (1/GPa) = 0.03842986
#
# Stress axis : x y z
#
# Youngs Moduli (GPa) = 37.39440 68.80616 76.04900
#
# Poissons Ratio (x) = 0.48738 -0.14202
# Poissons Ratio (y) = 0.26488 0.21154
# Poissons Ratio (z) = -0.06983 0.19139
#
# Static dielectric constant tensor:
#      x y z
#    x 1.568040 0.000000 -0.016740 
#    y 0.000000 1.590070 0.000000 
#    z -0.016740 0.000000 1.596320 
# 
# From -- ./inp_files/232290.got.cif
#   From: 2010.05.17/outbox.cif.g08.bks.cpg/sg12_117_cif.got.tgz:232290.got - 2010.06.03 13:09:07.
