data_PCOD9198809
_publ_section_title
;
Structure prediction by ZEFSAII (Michael W. Deem and Ramdas Pophale) SiO2 
 PCOD9198809
Probable space group: C 2/M
;
_chemical_formula_sum "Si O2"
_cell_formula_units_Z 48
_cell_length_a 20.179614
_cell_length_b 13.520092
_cell_length_c 15.612909
_cell_angle_alpha 90.000000
_cell_angle_beta 33.005049
_cell_angle_gamma 90.000000
_cell_volume 2320.299362
_symmetry_space_group_name_H-M "C 2/M"
_symmetry_group_IT_number 12
_symmetry_cell_setting 'monoclinic'
loop_
_space_group_symop_operation_xyz
x,y,z
-x,y,-z
-x,-y,-z
x,-y,z
1/2+x,1/2+y,z
1/2-x,1/2+y,-z
1/2-x,1/2-y,-z
1/2+x,1/2-y,z
loop_
_atom_site_type_symbol
_atom_site_label
_atom_site_fract_x
_atom_site_fract_y
_atom_site_fract_z
Si Si1 0.684781 0.116285 0.659143
Si Si2 0.534941 0.738534 0.053491
Si Si3 0.599383 0.782547 0.259920
Si Si4 0.223549 0.768807 0.292621
Si Si5 0.338193 0.116707 0.511344
Si Si6 0.345536 0.384306 0.933359
O O1 0.565868 0.183043 0.807561
O O2 0.782777 0.150657 0.624357
O O3 0.715115 0.133349 0.526272
O O4 0.659124 0.000000 0.696724
O O5 0.565148 0.656287 0.089770
O O6 0.500000 0.694305 0.000000
O O7 0.661301 0.793673 0.892511
O O8 0.620122 0.755589 0.336495
O O9 0.470730 0.831919 0.376578
O O10 0.620553 0.682090 0.184587
O O11 0.708712 0.855509 0.111784
O O12 0.240323 0.668831 0.330170
O O13 0.349814 0.000000 0.511962
O O14 0.356363 0.500000 0.907316
#
# Coordination Sequence:
#
# PCOD9198809 Si02
#       6
#     8   8   8   8   8   8
#     4  10  21  40  65  90 118 159 205 247 298 356
#     4   9  19  37  59  88 118 151 198 251 294 348
#     4  10  21  38  58  88 121 157 202 248 293 355
#     4  10  22  36  58  89 126 151 194 253 295 352
#     4  11  22  39  65  90 120 160 200 247 301 356
#     4  10  20  36  58  85 120 157 197 246 303 354
#
# _framework density 20.686985
#
# number of rings (size 3 to 8) (size 9 to 14) (size 15 to 20)
#    0.000    2.000    1.667    1.500    0.000    8.000 
#    0.000    3.333    0.000    2.000    0.000    0.000 
#    0.000    0.000    0.000    0.000    0.000    0.000 
#
# Total GULP energy -133882.004677 kJ/mol
# GULP energy per Si atom -5578.416862 kJ/mol
# Density = 2.063990 g / cm^3
# Si number density = 20.686985 Si / 1000 Ang^3
#
#
#
# Elastic Constant Matrix: (Units=GPa)
#
#
# Indices 1 2 3 4 5 6 
#
# 1 86.9158 51.6414 22.6942 0.0000 39.3847 0.0000
# 2 51.6414 150.3239 28.6383 0.0000 13.3758 0.0000
# 3 22.6942 28.6383 64.2260 0.0000 11.5251 0.0000
# 4 0.0000 0.0000 0.0000 7.4152 0.0000 -10.7633
# 5 39.3847 13.3758 11.5251 0.0000 34.1943 0.0000
# 6 0.0000 0.0000 0.0000 -10.7633 0.0000 8.2673
#
#
#
# Elastic Compliance Matrix: (Units=1/GPa)
#
#
# Indices 1 2 3 4 5 6 
#
# 1 0.030961 -0.007422 -0.001865 0.000000 -0.032128 0.000000
# 2 -0.007422 0.009162 -0.002505 0.000000 0.005809 0.000000
# 3 -0.001865 -0.002505 0.017865 0.000000 -0.002893 0.000000
# 4 0.000000 0.000000 0.000000 -0.151569 0.000000 -0.197330
# 5 -0.032128 0.005809 -0.002893 0.000000 0.064953 0.000000
# 6 0.000000 0.000000 0.000000 -0.197330 0.000000 -0.135947
#
#
# Mechanical properties :
#
#
# Convention : Reuss Voigt Hill
#
# Bulk Modulus (GPa) = 29.06678 56.37927 42.72303
# Shear Modulus (GPa) = -38.60355 23.20812 -7.69771
#
# Velocity S-wave (km/s) = -4.32450 3.35307 -1.93109
# Velocity P-wave (km/s) = 3.29451 6.50411 3.96545
#
# Compressibility (1/GPa) = 0.03440353
#
# Stress axis : x y z
#
# Youngs Moduli (GPa) = 32.29898 109.14149 55.97411
#
# Poissons Ratio (x) = 0.81004 0.10440
# Poissons Ratio (y) = 0.23972 0.14024
# Poissons Ratio (z) = 0.06024 0.27344
#
# Static dielectric constant tensor:
#      x y z
#    x 1.808400 0.000000 -0.043010 
#    y 0.000000 1.683460 0.000000 
#    z -0.043010 0.000000 1.796390 
# 
# From -- ./inp_files/165463.got.cif
#   From: 2010.05.17/outbox.cif.g08.bks.cpg/sg12_83_cif.got.tgz:165463.got - 2010.06.03 13:09:07.
