data_PCOD9198092
_publ_section_title
;
Structure prediction by ZEFSAII (Michael W. Deem and Ramdas Pophale) SiO2 
 PCOD9198092
Probable space group: C 2/M
;
_chemical_formula_sum "Si O2"
_cell_formula_units_Z 48
_cell_length_a 9.195978
_cell_length_b 21.737046
_cell_length_c 14.034059
_cell_angle_alpha 90.000000
_cell_angle_beta 116.649443
_cell_angle_gamma 90.000000
_cell_volume 2507.300059
_symmetry_space_group_name_H-M "C 2/M"
_symmetry_group_IT_number 12
_symmetry_cell_setting 'monoclinic'
loop_
_space_group_symop_operation_xyz
x,y,z
-x,y,-z
-x,-y,-z
x,-y,z
1/2+x,1/2+y,z
1/2-x,1/2+y,-z
1/2-x,1/2-y,-z
1/2+x,1/2-y,z
loop_
_atom_site_type_symbol
_atom_site_label
_atom_site_fract_x
_atom_site_fract_y
_atom_site_fract_z
Si Si1 0.583483 0.627099 0.745666
Si Si2 0.644748 0.000000 0.467508
Si Si3 0.994177 0.000000 0.379475
Si Si4 0.776563 0.181701 0.746876
Si Si5 0.940557 0.369756 0.591760
Si Si6 0.832981 0.787286 0.408477
Si Si7 0.817222 0.718305 0.924592
O O1 0.582016 0.559667 0.695694
O O2 0.415477 0.634590 0.755447
O O3 0.605377 0.671063 0.660701
O O4 0.716379 0.659461 0.855292
O O5 0.500000 0.000000 0.500000
O O6 0.810667 0.000000 0.576322
O O7 0.622709 0.937905 0.401498
O O8 0.000000 0.000000 0.500000
O O9 0.596393 0.152166 0.698540
O O10 0.770207 0.231025 0.660081
O O11 0.814951 0.225356 0.847665
O O12 0.784890 0.326762 0.560376
O O13 0.000000 0.371357 0.500000
O O14 0.000000 0.763577 0.500000
O O15 0.750000 0.750000 0.000000
O O16 0.000000 0.698447 0.000000
#
# Coordination Sequence:
#
# PCOD9198092 Si02
#       7
#     8   4   4   8   8   8   8
#     4  11  23  39  63  91 122 168 212 255 322 384
#     4  10  20  36  56  78 118 165 202 239 289 348
#     4  12  24  42  63  91 135 178 214 253 302 383
#     4  11  23  37  60  90 120 158 205 258 323 380
#     4  11  22  35  54  83 120 162 205 248 302 376
#     4  11  21  34  54  84 124 158 201 255 315 381
#     4  11  23  44  69  95 124 159 209 278 339 381
#
# _framework density 19.144100000000002
#
# number of rings (size 3 to 8) (size 9 to 14) (size 15 to 20)
#    0.000    1.000    1.667    8.000    2.333    2.000 
#    0.000    1.250    0.000    3.000    0.000    0.000 
#    0.000    0.000    0.000    0.000    0.000    0.000 
#
# Total GULP energy -133852.244710 kJ/mol
# GULP energy per Si atom -5577.176863 kJ/mol
# Density = 1.910053 g / cm^3
# Si number density = 19.144100 Si / 1000 Ang^3
#
#
#
# Elastic Constant Matrix: (Units=GPa)
#
#
# Indices 1 2 3 4 5 6 
#
# 1 100.0911 24.9097 42.1997 0.0000 2.5732 0.0000
# 2 24.9097 136.3099 53.5998 0.0000 6.5107 0.0000
# 3 42.1997 53.5998 104.6318 0.0000 3.2525 0.0000
# 4 0.0000 0.0000 0.0000 22.2581 0.0000 12.6471
# 5 2.5732 6.5107 3.2525 0.0000 23.8149 0.0000
# 6 0.0000 0.0000 0.0000 12.6471 0.0000 8.2398
#
#
#
# Elastic Compliance Matrix: (Units=1/GPa)
#
#
# Indices 1 2 3 4 5 6 
#
# 1 0.012060 -0.000339 -0.004672 0.000000 -0.000572 0.000000
# 2 -0.000339 0.009281 -0.004559 0.000000 -0.001878 0.000000
# 3 -0.004672 -0.004559 0.013781 0.000000 -0.000131 0.000000
# 4 0.000000 0.000000 0.000000 0.351337 0.000000 -0.539262
# 5 -0.000572 -0.001878 -0.000131 0.000000 0.042584 0.000000
# 6 0.000000 0.000000 0.000000 -0.539262 0.000000 0.949067
#
#
# Mechanical properties :
#
#
# Convention : Reuss Voigt Hill
#
# Bulk Modulus (GPa) = 62.57598 64.71682 63.64640
# Shear Modulus (GPa) = 3.56486 25.55079 14.55783
#
# Velocity S-wave (km/s) = 1.36608 3.65726 2.76059
# Velocity P-wave (km/s) = 5.93683 7.19114 6.59388
#
# Compressibility (1/GPa) = 0.01598057
#
# Stress axis : x y z
#
# Youngs Moduli (GPa) = 82.91884 107.75164 72.56224
#
# Poissons Ratio (x) = 0.03656 0.33904
# Poissons Ratio (y) = 0.02813 0.33081
# Poissons Ratio (z) = 0.38743 0.49124
#
# Static dielectric constant tensor:
#      x y z
#    x 1.688870 0.000000 -0.006250 
#    y 0.000000 1.708940 0.000000 
#    z -0.006250 0.000000 1.684140 
# 
# From -- ./inp_files/197202.got.cif
#   From: 2010.05.17/outbox.cif.g08.bks.cpg/sg12_99_cif.got.tgz:197202.got - 2010.06.03 13:09:07.
