data_PCOD9198537
_publ_section_title
;
Structure prediction by ZEFSAII (Michael W. Deem and Ramdas Pophale) SiO2 
 PCOD9198537
Probable space group: C 2/M
;
_chemical_formula_sum "Si O2"
_cell_formula_units_Z 56
_cell_length_a 19.889255
_cell_length_b 9.214063
_cell_length_c 23.467776
_cell_angle_alpha 90.000000
_cell_angle_beta 44.952610
_cell_angle_gamma 90.000000
_cell_volume 3038.555144
_symmetry_space_group_name_H-M "C 2/M"
_symmetry_group_IT_number 12
_symmetry_cell_setting 'monoclinic'
loop_
_space_group_symop_operation_xyz
x,y,z
-x,y,-z
-x,-y,-z
x,-y,z
1/2+x,1/2+y,z
1/2-x,1/2+y,-z
1/2-x,1/2-y,-z
1/2+x,1/2-y,z
loop_
_atom_site_type_symbol
_atom_site_label
_atom_site_fract_x
_atom_site_fract_y
_atom_site_fract_z
Si Si1 0.066022 0.673405 0.213274
Si Si2 0.092428 0.333478 0.486412
Si Si3 0.444363 0.827707 0.909865
Si Si4 0.518548 0.327042 0.354868
Si Si5 0.808186 0.326473 0.683500
Si Si6 0.210664 0.172026 0.930536
Si Si7 0.384388 0.329040 0.134630
O O1 0.057179 0.500000 0.229122
O O2 0.031411 0.706683 0.170309
O O3 0.015683 0.761546 0.293369
O O4 0.178969 0.708319 0.145114
O O5 0.104475 0.500000 0.498389
O O6 0.176472 0.292415 0.392446
O O7 0.000000 0.330718 0.500000
O O8 0.067137 0.231080 0.554011
O O9 0.525159 0.763155 0.901939
O O10 0.438362 0.000000 0.918745
O O11 0.343877 0.759207 0.988174
O O12 0.521865 0.500000 0.352611
O O13 0.614453 0.261310 0.326254
O O14 0.828241 0.500000 0.678535
O O15 0.703423 0.300058 0.770049
O O16 0.154891 0.199510 0.904959
O O17 0.206032 0.000000 0.945600
O O18 0.408821 0.500000 0.123178
#
# Coordination Sequence:
#
# PCOD9198537 Si02
#       7
#     8   8   8   8   8   8   8
#     4  10  21  39  57  74 104 145 183 216 259 320
#     4   8  15  28  49  74 104 140 175 211 255 313
#     4  11  24  37  53  79 110 140 173 222 273 314
#     4  11  20  29  49  81 111 136 169 221 271 307
#     4   9  17  33  54  76 104 143 182 212 253 314
#     4  10  20  37  60  78  99 138 184 223 260 312
#     4  10  20  36  58  79 105 142 181 217 257 313
#
# _framework density 18.429811999999998
#
# number of rings (size 3 to 8) (size 9 to 14) (size 15 to 20)
#    0.000    2.143    1.429    3.429    0.000    7.143 
#    0.000    0.000    0.000    0.857    0.000    0.000 
#    0.000    0.000    0.000    0.000    0.000    0.000 
#
# Total GULP energy -156301.826854 kJ/mol
# GULP energy per Si atom -5582.208102 kJ/mol
# Density = 1.838786 g / cm^3
# Si number density = 18.429812 Si / 1000 Ang^3
#
#
#
# Elastic Constant Matrix: (Units=GPa)
#
#
# Indices 1 2 3 4 5 6 
#
# 1 24.2199 7.4899 -11.6440 0.0000 4.4391 0.0000
# 2 7.4899 41.8300 34.9443 0.0000 7.7165 0.0000
# 3 -11.6440 34.9443 96.0967 0.0000 6.6470 0.0000
# 4 0.0000 0.0000 0.0000 27.6670 0.0000 5.2488
# 5 4.4391 7.7165 6.6470 0.0000 13.8198 0.0000
# 6 0.0000 0.0000 0.0000 5.2488 0.0000 7.2372
#
#
#
# Elastic Compliance Matrix: (Units=1/GPa)
#
#
# Indices 1 2 3 4 5 6 
#
# 1 0.057776 -0.020620 0.015502 0.000000 -0.014500 0.000000
# 2 -0.020620 0.044368 -0.017975 0.000000 -0.009505 0.000000
# 3 0.015502 -0.017975 0.019107 0.000000 -0.004133 0.000000
# 4 0.000000 0.000000 0.000000 0.041911 0.000000 -0.030396
# 5 -0.014500 -0.009505 -0.004133 0.000000 0.084313 0.000000
# 6 0.000000 0.000000 0.000000 -0.030396 0.000000 0.160220
#
#
# Mechanical properties :
#
#
# Convention : Reuss Voigt Hill
#
# Bulk Modulus (GPa) = 13.32203 24.85856 19.09030
# Shear Modulus (GPa) = 10.44058 18.50189 14.47123
#
# Velocity S-wave (km/s) = 2.38272 3.17189 2.80520
# Velocity P-wave (km/s) = 3.84890 5.18961 4.56870
#
# Compressibility (1/GPa) = 0.07506364
#
# Stress axis : x y z
#
# Youngs Moduli (GPa) = 17.30837 22.53881 52.33753
#
# Poissons Ratio (x) = 0.46476 -0.81133
# Poissons Ratio (y) = 0.35690 0.94076
# Poissons Ratio (z) = -0.26831 0.40513
#
# Static dielectric constant tensor:
#      x y z
#    x 1.616710 0.000000 0.010070 
#    y 0.000000 1.607930 0.000000 
#    z 0.010070 0.000000 1.665360 
# 
# From -- ./inp_files/281692.got.cif
#   From: 2010.05.17/outbox.cif.g08.bks.cpg/sg12_141_cif.got.tgz:281692.got - 2010.06.03 13:09:07.
