data_PCOD9198218
_publ_section_title
;
Structure prediction by ZEFSAII (Michael W. Deem and Ramdas Pophale) SiO2 
 PCOD9198218
Probable space group: C 2/M
;
_chemical_formula_sum "Si O2"
_cell_formula_units_Z 40
_cell_length_a 8.456699
_cell_length_b 16.503845
_cell_length_c 13.743644
_cell_angle_alpha 90.000000
_cell_angle_beta 85.520405
_cell_angle_gamma 90.000000
_cell_volume 1912.313974
_symmetry_space_group_name_H-M "C 2/M"
_symmetry_group_IT_number 12
_symmetry_cell_setting 'monoclinic'
loop_
_space_group_symop_operation_xyz
x,y,z
-x,y,-z
-x,-y,-z
x,-y,z
1/2+x,1/2+y,z
1/2-x,1/2+y,-z
1/2-x,1/2-y,-z
1/2+x,1/2-y,z
loop_
_atom_site_type_symbol
_atom_site_label
_atom_site_fract_x
_atom_site_fract_y
_atom_site_fract_z
Si Si1 0.218565 0.833303 0.130148
Si Si2 0.500000 0.774554 0.000000
Si Si3 0.052278 0.000000 0.107909
Si Si4 0.971263 0.500000 0.617765
Si Si5 0.423793 0.669531 0.654649
Si Si6 0.900943 0.669640 0.405040
Si Si7 0.398700 0.500000 0.312922
O O1 0.110753 0.779910 0.063149
O O2 0.181719 0.813401 0.243581
O O3 0.158302 0.923144 0.121913
O O4 0.394052 0.823959 0.080916
O O5 0.912559 0.000000 0.194525
O O6 0.000000 0.000000 0.000000
O O7 0.048934 0.584805 0.650321
O O8 0.783632 0.500000 0.646362
O O9 0.000000 0.500000 0.500000
O O10 0.543086 0.744873 0.642269
O O11 0.512305 0.582705 0.657142
O O12 0.289878 0.668174 0.576819
O O13 0.000000 0.667198 0.500000
#
# Coordination Sequence:
#
# PCOD9198218 Si02
#       7
#     8   4   4   4   8   8   4
#     4  10  21  37  60  85 122 157 203 250 300 364
#     4  10  20  36  56  86 118 158 200 244 310 350
#     4  10  20  40  59  89 121 159 203 249 302 364
#     4  10  23  44  63  92 124 161 210 256 316 377
#     4  11  22  40  63  92 124 162 213 253 311 366
#     4  11  23  41  63  91 127 162 207 261 311 372
#     4  10  23  41  66  91 125 169 205 261 315 365
#
# _framework density 20.917068
#
# number of rings (size 3 to 8) (size 9 to 14) (size 15 to 20)
#    0.000    1.600    1.000    3.600    0.000    3.600 
#    3.600    4.500    0.000    0.000    0.000    0.000 
#    0.000    0.000    0.000    0.000    0.000    0.000 
#
# Total GULP energy -111649.108612 kJ/mol
# GULP energy per Si atom -5582.455431 kJ/mol
# Density = 2.086946 g / cm^3
# Si number density = 20.917068 Si / 1000 Ang^3
#
#
#
# Elastic Constant Matrix: (Units=GPa)
#
#
# Indices 1 2 3 4 5 6 
#
# 1 109.9448 55.3029 4.9442 0.0000 -17.4307 0.0000
# 2 55.3029 142.0639 29.4749 0.0000 -20.7115 0.0000
# 3 4.9442 29.4749 49.4364 0.0000 -8.2029 0.0000
# 4 0.0000 0.0000 0.0000 23.0164 0.0000 -5.6132
# 5 -17.4307 -20.7115 -8.2029 0.0000 41.2738 0.0000
# 6 0.0000 0.0000 0.0000 -5.6132 0.0000 25.5986
#
#
#
# Elastic Compliance Matrix: (Units=1/GPa)
#
#
# Indices 1 2 3 4 5 6 
#
# 1 0.011790 -0.004565 0.002056 0.000000 0.003097 0.000000
# 2 -0.004565 0.010226 -0.005283 0.000000 0.002154 0.000000
# 3 0.002056 -0.005283 0.023657 0.000000 0.002919 0.000000
# 4 0.000000 0.000000 0.000000 0.045902 0.000000 0.010065
# 5 0.003097 0.002154 0.002919 0.000000 0.027197 0.000000
# 6 0.000000 0.000000 0.000000 0.010065 0.000000 0.041272
#
#
# Mechanical properties :
#
#
# Convention : Reuss Voigt Hill
#
# Bulk Modulus (GPa) = 33.23381 53.43212 43.33296
# Shear Modulus (GPa) = 26.93137 32.09264 29.51200
#
# Velocity S-wave (km/s) = 3.59211 3.92124 3.76028
# Velocity P-wave (km/s) = 5.75562 6.78982 6.29400
#
# Compressibility (1/GPa) = 0.03008984
#
# Stress axis : x y z
#
# Youngs Moduli (GPa) = 84.81650 97.78796 42.27152
#
# Poissons Ratio (x) = 0.44638 -0.08693
# Poissons Ratio (y) = 0.38717 0.22333
# Poissons Ratio (z) = -0.17442 0.51663
#
# Static dielectric constant tensor:
#      x y z
#    x 1.738170 0.000000 -0.008610 
#    y 0.000000 1.751780 0.000000 
#    z -0.008610 0.000000 1.814880 
# 
# From -- ./inp_files/194636.got.cif
#   From: 2010.05.17/outbox.cif.g08.bks.cpg/sg12_98_cif.got.tgz:194636.got - 2010.06.03 13:09:07.
