data_PCOD9198561
_publ_section_title
;
Structure prediction by ZEFSAII (Michael W. Deem and Ramdas Pophale) SiO2 
 PCOD9198561
Probable space group: C 2/M
;
_chemical_formula_sum "Si O2"
_cell_formula_units_Z 64
_cell_length_a 20.598536
_cell_length_b 7.639487
_cell_length_c 16.117336
_cell_angle_alpha 90.000000
_cell_angle_beta 109.639647
_cell_angle_gamma 90.000000
_cell_volume 2388.713551
_symmetry_space_group_name_H-M "C 2/M"
_symmetry_group_IT_number 12
_symmetry_cell_setting 'monoclinic'
loop_
_space_group_symop_operation_xyz
x,y,z
-x,y,-z
-x,-y,-z
x,-y,z
1/2+x,1/2+y,z
1/2-x,1/2+y,-z
1/2-x,1/2-y,-z
1/2+x,1/2-y,z
loop_
_atom_site_type_symbol
_atom_site_label
_atom_site_fract_x
_atom_site_fract_y
_atom_site_fract_z
Si Si1 0.793609 0.797360 0.693060
Si Si2 0.044183 0.709099 0.103956
Si Si3 0.916742 0.285611 0.145007
Si Si4 0.669322 0.787751 0.055890
Si Si5 0.797302 0.703646 0.200964
Si Si6 0.044955 0.711615 0.601192
Si Si7 0.334506 0.296927 0.458547
Si Si8 0.424092 0.803072 0.653183
O O1 0.750394 0.709481 0.748925
O O2 0.741633 0.770996 0.593276
O O3 0.870494 0.746239 0.701473
O O4 0.797414 0.000000 0.713253
O O5 0.051212 0.500000 0.118270
O O6 0.119382 0.775233 0.110117
O O7 0.994157 0.775221 0.155789
O O8 0.000000 0.731853 0.000000
O O9 0.918864 0.500000 0.149427
O O10 0.871026 0.225148 0.203298
O O11 0.870505 0.239256 0.044896
O O12 0.744700 0.710345 0.100629
O O13 0.673334 0.000000 0.059470
O O14 0.810025 0.500000 0.228108
O O15 0.049204 0.500000 0.609618
O O16 0.120240 0.774711 0.606470
O O17 0.000000 0.753575 0.500000
O O18 0.996189 0.781324 0.654423
O O19 0.331987 0.500000 0.479706
O O20 0.376243 0.203068 0.549655
O O21 0.443748 0.000000 0.680709
#
# Coordination Sequence:
#
# PCOD9198561 Si02
#       8
#     8   8   8   8   8   8   8   8
#     4  11  23  37  50  68 101 142 180 216 255 300
#     4   7  11  22  44  73  97 118 154 203 245 284
#     4   8  14  28  50  74  97 125 164 204 245 294
#     4   9  16  28  51  77  98 123 160 208 251 293
#     4  10  21  34  48  68  99 136 167 202 248 298
#     4   8  16  32  54  80 107 131 160 204 253 301
#     4  11  21  34  56  82 106 133 167 208 253 304
#     4  10  20  36  58  81 104 131 167 211 256 304
#
# _framework density 26.792665
#
# number of rings (size 3 to 8) (size 9 to 14) (size 15 to 20)
#    0.000    2.750    0.000    4.875    0.000    3.750 
#    0.000    1.250    0.000    7.125    0.000    0.000 
#    0.000    0.000    0.000    0.000    0.000    0.000 
#
# Total GULP energy -178881.877558 kJ/mol
# GULP energy per Si atom -5590.058674 kJ/mol
# Density = 2.673168 g / cm^3
# Si number density = 26.792665 Si / 1000 Ang^3
#
#
#
# Elastic Constant Matrix: (Units=GPa)
#
#
# Indices 1 2 3 4 5 6 
#
# 1 255.2809 7.7737 55.9445 0.0000 -23.7440 0.0000
# 2 7.7737 57.2007 0.1526 0.0000 -14.0299 0.0000
# 3 55.9445 0.1526 107.4765 0.0000 -25.2327 0.0000
# 4 0.0000 0.0000 0.0000 7.6729 0.0000 -4.9412
# 5 -23.7440 -14.0299 -25.2327 0.0000 63.8266 0.0000
# 6 0.0000 0.0000 0.0000 -4.9412 0.0000 17.9152
#
#
#
# Elastic Compliance Matrix: (Units=1/GPa)
#
#
# Indices 1 2 3 4 5 6 
#
# 1 0.004470 -0.000426 -0.002158 0.000000 0.000716 0.000000
# 2 -0.000426 0.018622 0.001234 0.000000 0.004422 0.000000
# 3 -0.002158 0.001234 0.011355 0.000000 0.003957 0.000000
# 4 0.000000 0.000000 0.000000 0.158476 0.000000 0.043710
# 5 0.000716 0.004422 0.003957 0.000000 0.018470 0.000000
# 6 0.000000 0.000000 0.000000 0.043710 0.000000 0.067874
#
#
# Mechanical properties :
#
#
# Convention : Reuss Voigt Hill
#
# Bulk Modulus (GPa) = 31.50042 60.85552 46.17797
# Shear Modulus (GPa) = 17.09111 41.62211 29.35661
#
# Velocity S-wave (km/s) = 2.52841 3.94571 3.31372
# Velocity P-wave (km/s) = 4.50627 6.59704 5.64922
#
# Compressibility (1/GPa) = 0.03174561
#
# Stress axis : x y z
#
# Youngs Moduli (GPa) = 223.72725 53.70097 88.06737
#
# Poissons Ratio (x) = 0.02288 0.19004
# Poissons Ratio (y) = 0.09532 -0.10864
# Poissons Ratio (z) = 0.48278 -0.06625
#
# Static dielectric constant tensor:
#      x y z
#    x 2.106570 0.000000 -0.053490 
#    y 0.000000 2.021340 0.000000 
#    z -0.053490 0.000000 2.234330 
# 
# From -- ./inp_files/281219.got.cif
#   From: 2010.05.17/outbox.cif.g08.bks.cpg/sg12_141_cif.got.tgz:281219.got - 2010.06.03 13:09:07.
