data_PCOD9198065
_publ_section_title
;
Structure prediction by ZEFSAII (Michael W. Deem and Ramdas Pophale) SiO2 
 PCOD9198065
Probable space group: C 2/M
;
_chemical_formula_sum "Si O2"
_cell_formula_units_Z 40
_cell_length_a 24.516782
_cell_length_b 7.376663
_cell_length_c 17.539117
_cell_angle_alpha 90.000000
_cell_angle_beta 146.607310
_cell_angle_gamma 90.000000
_cell_volume 1745.778815
_symmetry_space_group_name_H-M "C 2/M"
_symmetry_group_IT_number 12
_symmetry_cell_setting 'monoclinic'
loop_
_space_group_symop_operation_xyz
x,y,z
-x,y,-z
-x,-y,-z
x,-y,z
1/2+x,1/2+y,z
1/2-x,1/2+y,-z
1/2-x,1/2-y,-z
1/2+x,1/2-y,z
loop_
_atom_site_type_symbol
_atom_site_label
_atom_site_fract_x
_atom_site_fract_y
_atom_site_fract_z
Si Si1 0.846882 0.783957 0.162165
Si Si2 0.470215 0.718657 0.725989
Si Si3 0.385220 0.720387 0.372269
Si Si4 0.286690 0.278501 0.415828
Si Si5 0.437161 0.787428 0.855848
O O1 0.836169 0.717605 0.236170
O O2 0.944480 0.715949 0.232075
O O3 0.860665 0.000000 0.184301
O O4 0.750000 0.750000 0.000000
O O5 0.470338 0.500000 0.723647
O O6 0.362323 0.780919 0.570358
O O7 0.490231 0.771741 0.836291
O O8 0.500000 0.772912 0.500000
O O9 0.382745 0.500000 0.372354
O O10 0.334151 0.778466 0.390549
O O11 0.285904 0.500000 0.417828
O O12 0.173748 0.213146 0.286152
O O13 0.423143 0.000000 0.856774
O O14 0.500000 0.711472 0.000000
#
# Coordination Sequence:
#
# PCOD9198065 Si02
#       5
#     8   8   8   8   8
#     4  10  21  34  54  82 109 139 174 215 264 314
#     4  10  20  36  56  78 105 140 180 217 258 313
#     4   9  15  29  54  80 102 132 177 219 253 302
#     4   9  17  32  54  78 105 137 178 219 253 306
#     4  10  22  36  53  80 108 137 176 221 266 310
#
# _framework density 22.912410000000001
#
# number of rings (size 3 to 8) (size 9 to 14) (size 15 to 20)
#    0.000    2.400    2.000    0.600    2.800    1.200 
#    0.000    0.000    0.000    1.800    0.000    0.000 
#    0.000    0.000    0.000    0.000    0.000    0.000 
#
# Total GULP energy -111754.851508 kJ/mol
# GULP energy per Si atom -5587.742575 kJ/mol
# Density = 2.286026 g / cm^3
# Si number density = 22.912410 Si / 1000 Ang^3
#
#
#
# Elastic Constant Matrix: (Units=GPa)
#
#
# Indices 1 2 3 4 5 6 
#
# 1 83.0804 -8.1492 29.7456 0.0000 -24.6343 0.0000
# 2 -8.1492 77.1080 2.0157 0.0000 3.4729 0.0000
# 3 29.7456 2.0157 141.7582 0.0000 -30.0382 0.0000
# 4 0.0000 0.0000 0.0000 21.9679 0.0000 -9.5082
# 5 -24.6343 3.4729 -30.0382 0.0000 46.2612 0.0000
# 6 0.0000 0.0000 0.0000 -9.5082 0.0000 12.5883
#
#
#
# Elastic Compliance Matrix: (Units=1/GPa)
#
#
# Indices 1 2 3 4 5 6 
#
# 1 0.014746 0.001304 -0.001704 0.000000 0.006648 0.000000
# 2 0.001304 0.013153 -0.000606 0.000000 -0.000687 0.000000
# 3 -0.001704 -0.000606 0.008393 0.000000 0.004588 0.000000
# 4 0.000000 0.000000 0.000000 0.067631 0.000000 0.051083
# 5 0.006648 -0.000687 0.004588 0.000000 0.028187 0.000000
# 6 0.000000 0.000000 0.000000 0.051083 0.000000 0.118023
#
#
# Mechanical properties :
#
#
# Convention : Reuss Voigt Hill
#
# Bulk Modulus (GPa) = 29.17290 38.79676 33.98483
# Shear Modulus (GPa) = 18.97022 34.71911 26.84467
#
# Velocity S-wave (km/s) = 2.88053 3.89690 3.42661
# Velocity P-wave (km/s) = 4.88090 6.10059 5.52451
#
# Compressibility (1/GPa) = 0.03427839
#
# Stress axis : x y z
#
# Youngs Moduli (GPa) = 67.81657 76.02615 119.15363
#
# Poissons Ratio (x) = -0.09910 0.20304
# Poissons Ratio (y) = -0.08840 0.07222
# Poissons Ratio (z) = 0.11556 0.04608
#
# Static dielectric constant tensor:
#      x y z
#    x 1.830500 0.000000 -0.028760 
#    y 0.000000 1.899560 0.000000 
#    z -0.028760 0.000000 1.854880 
# 
# From -- ./inp_files/153297.got.cif
#   From: 2010.05.17/outbox.cif.g08.bks.cpg/sg12_77_cif.got.tgz:153297.got - 2010.06.03 13:09:07.
