data_PCOD9198040
_publ_section_title
;
Structure prediction by ZEFSAII (Michael W. Deem and Ramdas Pophale) SiO2 
 PCOD9198040
Probable space group: C 2/M
;
_chemical_formula_sum "Si O2"
_cell_formula_units_Z 58
_cell_length_a 23.297535
_cell_length_b 8.976938
_cell_length_c 15.689751
_cell_angle_alpha 90.000000
_cell_angle_beta 87.289795
_cell_angle_gamma 90.000000
_cell_volume 3277.692490
_symmetry_space_group_name_H-M "C 2/M"
_symmetry_group_IT_number 12
_symmetry_cell_setting 'monoclinic'
loop_
_space_group_symop_operation_xyz
x,y,z
-x,y,-z
-x,-y,-z
x,-y,z
1/2+x,1/2+y,z
1/2-x,1/2+y,-z
1/2-x,1/2-y,-z
1/2+x,1/2-y,z
loop_
_atom_site_type_symbol
_atom_site_label
_atom_site_fract_x
_atom_site_fract_y
_atom_site_fract_z
Si Si1 0.159481 0.321814 0.843111
Si Si2 0.386302 0.169022 0.713332
Si Si3 0.489624 0.180506 0.599500
Si Si4 0.356951 0.669432 0.977554
Si Si5 0.035007 0.253944 0.133880
Si Si6 0.064851 0.169242 0.738157
Si Si7 0.784658 0.681089 0.833608
Si Si8 0.500000 0.000000 0.000000
O O1 0.162966 0.500000 0.844592
O O2 0.116281 0.265404 0.773684
O O3 0.221631 0.246770 0.827086
O O4 0.137471 0.261996 0.936179
O O5 0.426810 0.234828 0.637026
O O6 0.427540 0.170120 0.793490
O O7 0.326830 0.232920 0.753594
O O8 0.373281 0.000000 0.688542
O O9 0.500000 0.212913 0.500000
O O10 0.536634 0.255475 0.657250
O O11 0.491602 0.000000 0.611031
O O12 0.338019 0.500000 0.996612
O O13 0.417715 0.666872 0.924495
O O14 0.312348 0.752913 0.918236
O O15 0.985184 0.167877 0.186475
O O16 0.007371 0.372236 0.073210
O O17 0.083106 0.000000 0.720110
O O18 0.784865 0.500000 0.837425
#
# Coordination Sequence:
#
# PCOD9198040 Si02
#       8
#     8   8   8   8   8   8   8   2
#     4  12  25  37  52  73 104 146 190 234 283 323
#     4   8  15  31  53  80 109 137 174 216 264 319
#     4   9  18  35  62  93 118 140 172 215 271 342
#     4  11  22  36  53  75 107 142 190 237 278 321
#     4  10  21  31  52  76 108 142 184 225 276 322
#     4  11  23  38  55  79 114 147 182 227 281 340
#     4  10  20  36  56  76 104 143 192 234 270 318
#     4  12  20  28  50  76 106 144 186 232 264 326
#
# _framework density 17.695374999999999
#
# number of rings (size 3 to 8) (size 9 to 14) (size 15 to 20)
#    0.000    1.793    0.690    4.138    5.793    0.276 
#    0.000    2.759    0.000    0.828    0.000    0.000 
#    0.000    0.000    0.000    0.000    0.000    0.000 
#
# Total GULP energy -161517.474617 kJ/mol
# GULP energy per Si atom -5569.568090 kJ/mol
# Density = 1.765510 g / cm^3
# Si number density = 17.695375 Si / 1000 Ang^3
#
#
#
# Elastic Constant Matrix: (Units=GPa)
#
#
# Indices 1 2 3 4 5 6 
#
# 1 78.7057 37.0598 49.7593 0.0000 6.2334 0.0000
# 2 37.0598 111.3968 38.1803 0.0000 7.4176 0.0000
# 3 49.7593 38.1803 117.5481 0.0000 -5.6817 0.0000
# 4 0.0000 0.0000 0.0000 13.1835 0.0000 11.3468
# 5 6.2334 7.4176 -5.6817 0.0000 18.2430 0.0000
# 6 0.0000 0.0000 0.0000 11.3468 0.0000 -8.6171
#
#
#
# Elastic Compliance Matrix: (Units=1/GPa)
#
#
# Indices 1 2 3 4 5 6 
#
# 1 0.019755 -0.003448 -0.007616 0.000000 -0.007720 0.000000
# 2 -0.003448 0.011215 -0.002383 0.000000 -0.004124 0.000000
# 3 -0.007616 -0.002383 0.012871 0.000000 0.007580 0.000000
# 4 0.000000 0.000000 0.000000 0.035556 0.000000 0.046819
# 5 -0.007720 -0.004124 0.007580 0.000000 0.061491 0.000000
# 6 0.000000 0.000000 0.000000 0.046819 0.000000 -0.054398
#
#
# Mechanical properties :
#
#
# Convention : Reuss Voigt Hill
#
# Bulk Modulus (GPa) = 59.00017 61.96105 60.48061
# Shear Modulus (GPa) = 42.00498 16.73864 29.37181
#
# Velocity S-wave (km/s) = 4.87743 3.07894 4.07856
# Velocity P-wave (km/s) = 8.07054 6.90878 7.51215
#
# Compressibility (1/GPa) = 0.01694910
#
# Stress axis : x y z
#
# Youngs Moduli (GPa) = 50.61890 89.16483 77.69225
#
# Poissons Ratio (x) = 0.30743 0.59170
# Poissons Ratio (y) = 0.17453 0.18511
# Poissons Ratio (z) = 0.38551 0.21244
#
# Static dielectric constant tensor:
#      x y z
#    x 1.633700 0.000000 -0.038790 
#    y 0.000000 1.610500 0.000000 
#    z -0.038790 0.000000 1.582930 
# 
# From -- ./inp_files/237643.got.cif
#   From: 2010.05.17/outbox.cif.g08.bks.cpg/sg12_119_cif.got.tgz:237643.got - 2010.06.03 13:09:07.
