data_PCOD9198563
_publ_section_title
;
Structure prediction by ZEFSAII (Michael W. Deem and Ramdas Pophale) SiO2 
 PCOD9198563
Probable space group: C 2/M
;
_chemical_formula_sum "Si O2"
_cell_formula_units_Z 64
_cell_length_a 31.134904
_cell_length_b 7.609883
_cell_length_c 15.603163
_cell_angle_alpha 90.000000
_cell_angle_beta 138.158707
_cell_angle_gamma 90.000000
_cell_volume 2466.092031
_symmetry_space_group_name_H-M "C 2/M"
_symmetry_group_IT_number 12
_symmetry_cell_setting 'monoclinic'
loop_
_space_group_symop_operation_xyz
x,y,z
-x,y,-z
-x,-y,-z
x,-y,z
1/2+x,1/2+y,z
1/2-x,1/2+y,-z
1/2-x,1/2-y,-z
1/2+x,1/2-y,z
loop_
_atom_site_type_symbol
_atom_site_label
_atom_site_fract_x
_atom_site_fract_y
_atom_site_fract_z
Si Si1 0.432089 0.799041 0.993333
Si Si2 0.665756 0.792486 0.291785
Si Si3 0.939100 0.796533 0.738360
Si Si4 0.888417 0.798536 0.113644
Si Si5 0.750222 0.289870 0.868310
Si Si6 0.397061 0.715270 0.312162
Si Si7 0.717220 0.289184 0.628400
Si Si8 0.427895 0.285725 0.541354
O O1 0.503250 0.723802 0.109310
O O2 0.402880 0.793113 0.045556
O O3 0.440745 0.000000 0.980215
O O4 0.383102 0.716712 0.852677
O O5 0.627408 0.775215 0.322898
O O6 0.737173 0.720053 0.379746
O O7 0.671955 0.000000 0.284209
O O8 0.962625 0.727381 0.680489
O O9 0.926189 0.000000 0.707113
O O10 0.915947 0.728170 0.244679
O O11 0.910669 0.000000 0.136708
O O12 0.810410 0.795685 0.005117
O O13 0.677984 0.234861 0.785918
O O14 0.755087 0.256469 0.773582
O O15 0.745599 0.000000 0.112719
O O16 0.399390 0.500000 0.313904
O O17 0.435217 0.773765 0.454022
O O18 0.709320 0.500000 0.607659
O O19 0.644992 0.230929 0.540277
O O20 0.433891 0.500000 0.543988
#
# Coordination Sequence:
#
# PCOD9198563 Si02
#       8
#     8   8   8   8   8   8   8   8
#     4  11  23  40  58  76 103 145 185 216 260 326
#     4  10  20  36  58  81 104 138 181 216 259 327
#     4  11  23  37  56  82 106 136 176 228 279 307
#     4  11  20  30  50  83 113 136 172 226 274 305
#     4   9  15  29  51  76 109 148 181 206 250 321
#     4   8  16  30  52  79 108 145 182 212 252 316
#     4   8  14  29  54  80 105 141 181 210 244 313
#     4   8  16  33  55  78 109 144 180 215 255 314
#
# _framework density 25.951992000000001
#
# number of rings (size 3 to 8) (size 9 to 14) (size 15 to 20)
#    0.000    2.500    1.250    3.375    0.000    3.000 
#    0.000    1.250    0.000   13.500    0.000    0.000 
#    0.000    0.000    0.000    0.000    0.000    0.000 
#
# Total GULP energy -178766.776015 kJ/mol
# GULP energy per Si atom -5586.461750 kJ/mol
# Density = 2.589292 g / cm^3
# Si number density = 25.951992 Si / 1000 Ang^3
#
#
#
# Elastic Constant Matrix: (Units=GPa)
#
#
# Indices 1 2 3 4 5 6 
#
# 1 140.5231 -1.6672 18.8593 0.0000 -10.7168 0.0000
# 2 -1.6672 45.2890 -0.8612 0.0001 -1.5782 0.0000
# 3 18.8593 -0.8612 99.9405 0.0000 -12.2029 0.0000
# 4 0.0000 0.0001 0.0000 -35.4202 0.0000 -10.0557
# 5 -10.7168 -1.5782 -12.2029 0.0000 35.4598 0.0000
# 6 0.0000 0.0000 0.0000 -10.0557 0.0000 13.1259
#
#
#
# Elastic Compliance Matrix: (Units=1/GPa)
#
#
# Indices 1 2 3 4 5 6 
#
# 1 0.007418 0.000315 -0.001171 0.000000 0.001853 0.000000
# 2 0.000315 0.022138 0.000275 0.000000 0.001175 0.000000
# 3 -0.001171 0.000275 0.010634 0.000000 0.003318 0.000000
# 4 0.000000 0.000000 0.000000 -0.023189 0.000000 -0.017765
# 5 0.001853 0.001175 0.003318 0.000000 0.029955 0.000000
# 6 0.000000 0.000000 0.000000 -0.017765 0.000000 0.062576
#
#
# Mechanical properties :
#
#
# Convention : Reuss Voigt Hill
#
# Bulk Modulus (GPa) = 25.62163 35.37939 30.50051
# Shear Modulus (GPa) = 40.41897 20.59454 30.50676
#
# Velocity S-wave (km/s) = 3.95074 2.82008 3.43229
# Velocity P-wave (km/s) = 5.54123 4.92606 5.24267
#
# Compressibility (1/GPa) = 0.03902952
#
# Stress axis : x y z
#
# Youngs Moduli (GPa) = 134.79843 45.17082 94.03438
#
# Poissons Ratio (x) = -0.01425 0.11011
# Poissons Ratio (y) = -0.04252 -0.02584
# Poissons Ratio (z) = 0.15784 -0.01241
#
# Static dielectric constant tensor:
#      x y z
#    x 2.073790 0.000000 -0.001310 
#    y 0.000000 1.959160 0.000000 
#    z -0.001310 0.000000 2.091050 
# 
# From -- ./inp_files/250048.got.cif
#   From: 2010.05.17/outbox.cif.g08.bks.cpg/sg12_126_cif.got.tgz:250048.got - 2010.06.03 13:09:07.
