data_PCOD9198778
_publ_section_title
;
Structure prediction by ZEFSAII (Michael W. Deem and Ramdas Pophale) SiO2 
 PCOD9198778
Probable space group: C 2/M
;
_chemical_formula_sum "Si O2"
_cell_formula_units_Z 58
_cell_length_a 24.599948
_cell_length_b 7.680534
_cell_length_c 19.692688
_cell_angle_alpha 90.000000
_cell_angle_beta 41.117625
_cell_angle_gamma 90.000000
_cell_volume 2446.791973
_symmetry_space_group_name_H-M "C 2/M"
_symmetry_group_IT_number 12
_symmetry_cell_setting 'monoclinic'
loop_
_space_group_symop_operation_xyz
x,y,z
-x,y,-z
-x,-y,-z
x,-y,z
1/2+x,1/2+y,z
1/2-x,1/2+y,-z
1/2-x,1/2-y,-z
1/2+x,1/2-y,z
loop_
_atom_site_type_symbol
_atom_site_label
_atom_site_fract_x
_atom_site_fract_y
_atom_site_fract_z
Si Si1 0.000000 0.500000 0.000000
Si Si2 0.553634 0.288935 0.281627
Si Si3 0.088818 0.705178 0.774880
Si Si4 0.407520 0.289945 0.608455
Si Si5 0.733432 0.794188 0.366934
Si Si6 0.874154 0.295547 0.411827
Si Si7 0.660216 0.292179 0.057027
Si Si8 0.921027 0.197513 0.001093
O O1 0.932876 0.345530 0.045007
O O2 0.552124 0.500000 0.281744
O O3 0.602018 0.235823 0.303964
O O4 0.459565 0.227100 0.372142
O O5 0.595056 0.222640 0.173499
O O6 0.063150 0.500000 0.800525
O O7 0.176112 0.719910 0.730346
O O8 0.108776 0.771551 0.679838
O O9 0.010151 0.803885 0.878525
O O10 0.500000 0.231249 0.500000
O O11 0.408393 0.500000 0.604963
O O12 0.334504 0.233160 0.627498
O O13 0.696605 0.720793 0.472929
O O14 0.743473 0.000000 0.365744
O O15 0.857563 0.500000 0.418166
O O16 0.649825 0.500000 0.065472
O O17 0.642404 0.238714 0.997028
O O18 0.750000 0.250000 0.000000
O O19 0.902741 0.000000 0.041821
#
# Coordination Sequence:
#
# PCOD9198778 Si02
#       8
#     2   8   8   8   8   8   8   8
#     4  12  26  48  76 102 136 188 218 278 360 422
#     4  10  20  37  61  90 120 161 209 261 327 387
#     4  11  22  40  64  92 127 174 222 272 335 397
#     4  10  20  36  58  84 120 167 215 263 322 396
#     4  11  23  37  55  88 131 175 220 274 324 386
#     4  10  21  35  59  90 124 166 217 266 324 385
#     4  10  23  42  69  99 130 168 220 291 350 411
#     4  11  24  46  73 105 138 177 229 283 346 424
#
# _framework density 23.704509999999999
#
# number of rings (size 3 to 8) (size 9 to 14) (size 15 to 20)
#    0.000    1.517    3.448    1.448    0.966    2.483 
#    2.483    0.000    0.000    0.000    0.000    0.000 
#    0.000    0.000    0.000    0.000    0.000    0.000 
#
# Total GULP energy -161934.973461 kJ/mol
# GULP energy per Si atom -5583.964602 kJ/mol
# Density = 2.365056 g / cm^3
# Si number density = 23.704510 Si / 1000 Ang^3
#
#
#
# Elastic Constant Matrix: (Units=GPa)
#
#
# Indices 1 2 3 4 5 6 
#
# 1 121.3686 14.9646 7.6543 -0.0182 -9.9888 0.0109
# 2 14.9646 81.6806 -0.6342 -0.0245 13.0259 0.0300
# 3 7.6543 -0.6342 51.3865 -0.0157 -10.0263 0.0231
# 4 -0.0182 -0.0245 -0.0157 15.6289 0.0166 -5.6584
# 5 -9.9888 13.0259 -10.0263 0.0166 32.8689 -0.0164
# 6 0.0109 0.0300 0.0231 -5.6584 -0.0164 29.8498
#
#
#
# Elastic Compliance Matrix: (Units=1/GPa)
#
#
# Indices 1 2 3 4 5 6 
#
# 1 0.008822 -0.002151 -0.000692 0.000003 0.003322 0.000002
# 2 -0.002151 0.013633 -0.000737 0.000020 -0.006281 -0.000012
# 3 -0.000692 -0.000737 0.020809 0.000009 0.006429 -0.000010
# 4 0.000003 0.000020 0.000009 0.068699 -0.000033 0.013023
# 5 0.003322 -0.006281 0.006429 -0.000033 0.035884 0.000014
# 6 0.000002 -0.000012 -0.000010 0.013023 0.000014 0.035970
#
#
# Mechanical properties :
#
#
# Convention : Reuss Voigt Hill
#
# Bulk Modulus (GPa) = 27.69909 33.15613 30.42761
# Shear Modulus (GPa) = 24.62913 31.16624 27.89769
#
# Velocity S-wave (km/s) = 3.22686 3.62992 3.43431
# Velocity P-wave (km/s) = 5.05905 5.62015 5.34697
#
# Compressibility (1/GPa) = 0.03610226
#
# Stress axis : x y z
#
# Youngs Moduli (GPa) = 113.35644 73.35163 48.05647
#
# Poissons Ratio (x) = 0.15781 0.03327
# Poissons Ratio (y) = 0.24388 0.03541
# Poissons Ratio (z) = 0.07848 0.05405
#
# Static dielectric constant tensor:
#      x y z
#    x 1.872340 -0.000010 0.114650 
#    y -0.000010 1.882430 0.000010 
#    z 0.114650 0.000010 1.968370 
# 
# From -- ./inp_files/324581.got.cif
#   From: 2010.05.17/outbox.cif.g08.bks.cpg/sg12_163_cif.got.tgz:324581.got - 2010.06.03 13:09:07.
