data_PCOD9198160
_publ_section_title
;
Structure prediction by ZEFSAII (Michael W. Deem and Ramdas Pophale) SiO2 
 PCOD9198160
Probable space group: C 2/M
;
_chemical_formula_sum "Si O2"
_cell_formula_units_Z 48
_cell_length_a 19.729251
_cell_length_b 7.437066
_cell_length_c 20.805616
_cell_angle_alpha 90.000000
_cell_angle_beta 137.094659
_cell_angle_gamma 90.000000
_cell_volume 2078.286609
_symmetry_space_group_name_H-M "C 2/M"
_symmetry_group_IT_number 12
_symmetry_cell_setting 'monoclinic'
loop_
_space_group_symop_operation_xyz
x,y,z
-x,y,-z
-x,-y,-z
x,-y,z
1/2+x,1/2+y,z
1/2-x,1/2+y,-z
1/2-x,1/2-y,-z
1/2+x,1/2-y,z
loop_
_atom_site_type_symbol
_atom_site_label
_atom_site_fract_x
_atom_site_fract_y
_atom_site_fract_z
Si Si1 0.113653 0.780004 0.583597
Si Si2 0.535628 0.217657 0.094024
Si Si3 0.501598 0.218639 0.211025
Si Si4 0.714549 0.701416 0.904367
Si Si5 0.252292 0.280930 0.210553
Si Si6 0.777647 0.285176 0.593274
O O1 0.156837 0.722908 0.682469
O O2 0.190374 0.720458 0.580877
O O3 0.000000 0.720660 0.500000
O O4 0.113436 0.000000 0.581272
O O5 0.487035 0.277227 0.126583
O O6 0.651757 0.261860 0.178282
O O7 0.525335 0.000000 0.085727
O O8 0.500000 0.283386 0.000000
O O9 0.405183 0.286921 0.181458
O O10 0.610142 0.278334 0.311487
O O11 0.498733 0.000000 0.211065
O O12 0.752078 0.500000 0.924515
O O13 0.751904 0.791654 0.864800
O O14 0.750000 0.750000 0.000000
O O15 0.257041 0.500000 0.211153
O O16 0.781799 0.500000 0.605311
O O17 0.750000 0.250000 0.500000
#
# Coordination Sequence:
#
# PCOD9198160 Si02
#       6
#     8   8   8   8   8   8
#     4   9  17  31  53  81 109 137 181 237 278 313
#     4   9  15  27  51  77 100 131 176 229 276 317
#     4  10  20  36  56  81 113 145 182 230 281 331
#     4  11  23  37  57  84 115 149 185 227 276 331
#     4   9  17  31  51  79 106 136 184 233 272 312
#     4  10  21  36  57  84 114 147 183 230 284 336
#
# _framework density 23.095946999999999
#
# number of rings (size 3 to 8) (size 9 to 14) (size 15 to 20)
#    0.000    2.333    1.667    1.500    2.333    3.333 
#    0.000    0.000    0.000    8.000    0.000    0.000 
#    0.000    0.000    0.000    0.000    0.000    0.000 
#
# Total GULP energy -133992.805500 kJ/mol
# GULP energy per Si atom -5583.033563 kJ/mol
# Density = 2.304338 g / cm^3
# Si number density = 23.095947 Si / 1000 Ang^3
#
#
#
# Elastic Constant Matrix: (Units=GPa)
#
#
# Indices 1 2 3 4 5 6 
#
# 1 86.6318 -9.7622 4.0978 0.0000 -11.7196 0.0000
# 2 -9.7622 64.1268 -4.8334 0.0000 -3.3216 0.0000
# 3 4.0978 -4.8334 98.2847 0.0000 -2.8553 0.0000
# 4 0.0000 0.0000 0.0000 12.0072 0.0000 -2.4076
# 5 -11.7196 -3.3216 -2.8553 0.0000 40.4000 0.0000
# 6 0.0000 0.0000 0.0000 -2.4076 0.0000 8.2206
#
#
#
# Elastic Compliance Matrix: (Units=1/GPa)
#
#
# Indices 1 2 3 4 5 6 
#
# 1 0.012289 0.002040 -0.000304 0.000000 0.003711 0.000000
# 2 0.002040 0.016064 0.000762 0.000000 0.001966 0.000000
# 3 -0.000304 0.000762 0.010245 0.000000 0.000698 0.000000
# 4 0.000000 0.000000 0.000000 0.088479 0.000000 0.025913
# 5 0.003711 0.001966 0.000698 0.000000 0.026040 0.000000
# 6 0.000000 0.000000 0.000000 0.025913 0.000000 0.129235
#
#
# Mechanical properties :
#
#
# Convention : Reuss Voigt Hill
#
# Bulk Modulus (GPa) = 22.93874 25.33863 24.13869
# Shear Modulus (GPa) = 17.12982 29.42829 23.27905
#
# Velocity S-wave (km/s) = 2.72634 3.57343 3.17823
# Velocity P-wave (km/s) = 4.45691 5.29346 4.89310
#
# Compressibility (1/GPa) = 0.04359437
#
# Stress axis : x y z
#
# Youngs Moduli (GPa) = 81.37051 62.25112 97.60886
#
# Poissons Ratio (x) = -0.12700 0.02970
# Poissons Ratio (y) = -0.16601 -0.07438
# Poissons Ratio (z) = 0.02476 -0.04744
#
# Static dielectric constant tensor:
#      x y z
#    x 1.834470 0.000000 -0.016620 
#    y 0.000000 1.911180 0.000000 
#    z -0.016620 0.000000 1.875060 
# 
# From -- ./inp_files/229971.got.cif
#   From: 2010.05.17/outbox.cif.g08.bks.cpg/sg12_115_cif.got.tgz:229971.got - 2010.06.03 13:09:07.
