data_PCOD9198610
_publ_section_title
;
Structure prediction by ZEFSAII (Michael W. Deem and Ramdas Pophale) SiO2 
 PCOD9198610
Probable space group: C 2/M
;
_chemical_formula_sum "Si O2"
_cell_formula_units_Z 56
_cell_length_a 16.499732
_cell_length_b 9.116991
_cell_length_c 24.506367
_cell_angle_alpha 90.000000
_cell_angle_beta 42.739184
_cell_angle_gamma 90.000000
_cell_volume 2501.848190
_symmetry_space_group_name_H-M "C 2/M"
_symmetry_group_IT_number 12
_symmetry_cell_setting 'monoclinic'
loop_
_space_group_symop_operation_xyz
x,y,z
-x,y,-z
-x,-y,-z
x,-y,z
1/2+x,1/2+y,z
1/2-x,1/2+y,-z
1/2-x,1/2-y,-z
1/2+x,1/2-y,z
loop_
_atom_site_type_symbol
_atom_site_label
_atom_site_fract_x
_atom_site_fract_y
_atom_site_fract_z
Si Si1 0.336429 0.669280 0.880732
Si Si2 0.145042 0.324627 0.835617
Si Si3 0.111176 0.327218 0.245328
Si Si4 0.725110 0.172703 0.677005
Si Si5 0.594384 0.329874 0.026192
Si Si6 0.231491 0.670806 0.451709
Si Si7 0.541172 0.169257 0.398493
O O1 0.322457 0.500000 0.872099
O O2 0.419960 0.750213 0.795897
O O3 0.381890 0.674688 0.920179
O O4 0.208205 0.749873 0.944107
O O5 0.149473 0.500000 0.841106
O O6 0.263959 0.246793 0.798485
O O7 0.145686 0.295889 0.769804
O O8 0.029244 0.254540 0.920498
O O9 0.125441 0.500000 0.228994
O O10 0.028583 0.308417 0.339257
O O11 0.702381 0.257929 0.632324
O O12 0.858461 0.220902 0.630071
O O13 0.719698 0.000000 0.668842
O O14 0.588302 0.500000 0.012539
O O15 0.261780 0.500000 0.441739
O O16 0.250000 0.750000 0.500000
O O17 0.088635 0.682630 0.511295
O O18 0.583798 0.000000 0.385088
#
# Coordination Sequence:
#
# PCOD9198610 Si02
#       7
#     8   8   8   8   8   8   8
#     4  10  21  37  56  80 111 144 180 223 272 324
#     4  10  21  37  57  82 112 143 179 225 273 321
#     4  10  20  36  58  82 109 141 181 226 271 322
#     4  10  21  37  58  83 110 143 182 223 271 326
#     4  10  21  37  57  81 109 144 185 224 268 324
#     4  11  23  38  56  81 113 146 183 226 272 321
#     4   9  20  38  58  80 108 144 182 223 272 323
#
# _framework density 22.383451999999998
#
# number of rings (size 3 to 8) (size 9 to 14) (size 15 to 20)
#    0.000    2.000    0.000    3.000    0.000    8.571 
#    0.000    7.143    0.000    0.000    0.000    0.000 
#    0.000    0.000    0.000    0.000    0.000    0.000 
#
# Total GULP energy -156642.241468 kJ/mol
# GULP energy per Si atom -5594.365767 kJ/mol
# Density = 2.233251 g / cm^3
# Si number density = 22.383452 Si / 1000 Ang^3
#
#
#
# Elastic Constant Matrix: (Units=GPa)
#
#
# Indices 1 2 3 4 5 6 
#
# 1 55.3141 19.5009 10.9906 0.0000 17.3636 0.0000
# 2 19.5009 115.8211 51.2562 0.0000 16.9468 0.0001
# 3 10.9906 51.2562 98.2077 0.0000 12.5182 0.0000
# 4 0.0000 0.0000 0.0000 29.7884 0.0000 11.4426
# 5 17.3636 16.9468 12.5182 0.0000 40.8235 0.0000
# 6 0.0000 0.0001 0.0000 11.4426 0.0000 29.7495
#
#
#
# Elastic Compliance Matrix: (Units=1/GPa)
#
#
# Indices 1 2 3 4 5 6 
#
# 1 0.021488 -0.002372 -0.000132 0.000000 -0.008114 0.000000
# 2 -0.002372 0.011849 -0.005641 0.000000 -0.002180 0.000000
# 3 -0.000132 -0.005641 0.013358 0.000000 -0.001698 0.000000
# 4 0.000000 0.000000 0.000000 0.039390 0.000000 -0.015151
# 5 -0.008114 -0.002180 -0.001698 0.000000 0.029373 0.000000
# 6 0.000000 0.000000 0.000000 -0.015151 0.000000 0.039441
#
#
# Mechanical properties :
#
#
# Convention : Reuss Voigt Hill
#
# Bulk Modulus (GPa) = 32.89005 48.09316 40.49161
# Shear Modulus (GPa) = 27.57492 32.57860 30.07676
#
# Velocity S-wave (km/s) = 3.51370 3.81921 3.66964
# Velocity P-wave (km/s) = 5.58455 6.40165 6.00701
#
# Compressibility (1/GPa) = 0.03040433
#
# Stress axis : x y z
#
# Youngs Moduli (GPa) = 46.53677 84.39786 74.86305
#
# Poissons Ratio (x) = 0.20020 0.00991
# Poissons Ratio (y) = 0.11039 0.42228
# Poissons Ratio (z) = 0.00616 0.47606
#
# Static dielectric constant tensor:
#      x y z
#    x 1.893310 0.000000 0.038650 
#    y 0.000000 1.747080 0.000000 
#    z 0.038650 0.000000 1.808590 
# 
# From -- ./inp_files/362899.got.cif
#   From: 2010.05.17/outbox.cif.g08.bks.cpg/sg12_182_cif.got.tgz:362899.got - 2010.06.03 13:09:07.
