data_PCOD9198333
_publ_section_title
;
Structure prediction by ZEFSAII (Michael W. Deem and Ramdas Pophale) SiO2 
 PCOD9198333
Probable space group: C 2/M
;
_chemical_formula_sum "Si O2"
_cell_formula_units_Z 56
_cell_length_a 19.353511
_cell_length_b 7.521281
_cell_length_c 18.195015
_cell_angle_alpha 90.000000
_cell_angle_beta 68.556594
_cell_angle_gamma 90.000000
_cell_volume 2465.191328
_symmetry_space_group_name_H-M "C 2/M"
_symmetry_group_IT_number 12
_symmetry_cell_setting 'monoclinic'
loop_
_space_group_symop_operation_xyz
x,y,z
-x,y,-z
-x,-y,-z
x,-y,z
1/2+x,1/2+y,z
1/2-x,1/2+y,-z
1/2-x,1/2-y,-z
1/2+x,1/2-y,z
loop_
_atom_site_type_symbol
_atom_site_label
_atom_site_fract_x
_atom_site_fract_y
_atom_site_fract_z
Si Si1 0.064031 0.297079 0.028127
Si Si2 0.932529 0.213127 0.479452
Si Si3 0.773701 0.787389 0.573718
Si Si4 0.841478 0.283635 0.258966
Si Si5 0.019967 0.287021 0.704408
Si Si6 0.621941 0.218029 0.161810
Si Si7 0.791434 0.206153 0.114894
O O1 0.038533 0.500000 0.052541
O O2 0.083950 0.221589 0.100323
O O3 0.142627 0.297899 0.955553
O O4 0.000000 0.217436 0.000000
O O5 0.856790 0.284143 0.543346
O O6 0.945786 0.245038 0.388225
O O7 0.000000 0.285186 0.500000
O O8 0.930044 0.000000 0.488739
O O9 0.750000 0.750000 0.500000
O O10 0.716418 0.721182 0.656344
O O11 0.774937 0.000000 0.582869
O O12 0.841702 0.500000 0.256117
O O13 0.922799 0.225832 0.254748
O O14 0.814964 0.218391 0.190626
O O15 0.018237 0.500000 0.709828
O O16 0.935836 0.225662 0.752124
O O17 0.707449 0.276386 0.136597
O O18 0.624970 0.000000 0.160132
O O19 0.791624 0.000000 0.091455
#
# Coordination Sequence:
#
# PCOD9198333 Si02
#       7
#     8   8   8   8   8   8   8
#     4  10  20  39  66  87 109 149 190 224 268 328
#     4  10  22  37  54  80 116 150 183 232 290 338
#     4  10  20  36  57  81 110 146 191 238 282 332
#     4  10  21  37  58  82 109 148 195 234 274 335
#     4  10  20  38  60  81 107 145 194 236 272 327
#     4   9  20  37  57  84 116 146 182 229 277 327
#     4  11  23  37  56  86 120 147 177 229 284 329
#
# _framework density 22.716289
#
# number of rings (size 3 to 8) (size 9 to 14) (size 15 to 20)
#    0.000    2.000    1.429    1.714    2.000    4.000 
#    0.000    2.143    0.000    0.000    0.000    0.000 
#    0.000    0.000    0.000    0.000    0.000    0.000 
#
# Total GULP energy -156404.158763 kJ/mol
# GULP energy per Si atom -5585.862813 kJ/mol
# Density = 2.266459 g / cm^3
# Si number density = 22.716289 Si / 1000 Ang^3
#
#
#
# Elastic Constant Matrix: (Units=GPa)
#
#
# Indices 1 2 3 4 5 6 
#
# 1 131.1973 5.0783 3.3859 -0.0002 -17.6867 -0.0002
# 2 5.0783 60.8201 -9.1166 -0.0002 -4.7403 -0.0004
# 3 3.3859 -9.1166 69.0049 0.0000 -15.7474 0.0000
# 4 -0.0002 -0.0002 0.0000 37.8564 -0.0001 -7.2910
# 5 -17.6867 -4.7403 -15.7474 -0.0001 44.0822 -0.0001
# 6 -0.0002 -0.0004 0.0000 -7.2910 -0.0001 7.1553
#
#
#
# Elastic Compliance Matrix: (Units=1/GPa)
#
#
# Indices 1 2 3 4 5 6 
#
# 1 0.008075 -0.000370 0.000311 0.000000 0.003311 0.000000
# 2 -0.000370 0.017121 0.002903 0.000000 0.002730 0.000001
# 3 0.000311 0.002903 0.016287 0.000000 0.006255 0.000000
# 4 0.000000 0.000000 0.000000 0.032866 0.000000 0.033489
# 5 0.003311 0.002730 0.006255 0.000000 0.026541 0.000001
# 6 0.000000 0.000001 0.000000 0.033489 0.000001 0.173882
#
#
# Mechanical properties :
#
#
# Convention : Reuss Voigt Hill
#
# Bulk Modulus (GPa) = 21.19955 28.85748 25.02852
# Shear Modulus (GPa) = 17.55574 35.26376 26.40975
#
# Velocity S-wave (km/s) = 2.78299 3.94427 3.41338
# Velocity P-wave (km/s) = 4.43613 5.78567 5.15526
#
# Compressibility (1/GPa) = 0.04717081
#
# Stress axis : x y z
#
# Youngs Moduli (GPa) = 123.84280 58.40882 61.39683
#
# Poissons Ratio (x) = 0.02159 -0.01907
# Poissons Ratio (y) = 0.04577 -0.17823
# Poissons Ratio (z) = -0.03846 -0.16956
#
# Static dielectric constant tensor:
#      x y z
#    x 1.911190 0.000000 -0.053350 
#    y 0.000000 1.850510 0.000000 
#    z -0.053350 0.000000 1.820740 
# 
# From -- ./inp_files/275078.got.cif
#   From: 2010.05.17/outbox.cif.g08.bks.cpg/sg12_138_cif.got.tgz:275078.got - 2010.06.03 13:09:07.
