data_PCOD9198278
_publ_section_title
;
Structure prediction by ZEFSAII (Michael W. Deem and Ramdas Pophale) SiO2 
 PCOD9198278
Probable space group: C 2/M
;
_chemical_formula_sum "Si O2"
_cell_formula_units_Z 58
_cell_length_a 32.457764
_cell_length_b 7.804825
_cell_length_c 11.828021
_cell_angle_alpha 90.000000
_cell_angle_beta 97.321033
_cell_angle_gamma 90.000000
_cell_volume 2971.931937
_symmetry_space_group_name_H-M "C 2/M"
_symmetry_group_IT_number 12
_symmetry_cell_setting 'monoclinic'
loop_
_space_group_symop_operation_xyz
x,y,z
-x,y,-z
-x,-y,-z
x,-y,z
1/2+x,1/2+y,z
1/2-x,1/2+y,-z
1/2-x,1/2-y,-z
1/2+x,1/2-y,z
loop_
_atom_site_type_symbol
_atom_site_label
_atom_site_fract_x
_atom_site_fract_y
_atom_site_fract_z
Si Si1 0.150259 0.797079 0.890856
Si Si2 0.443757 0.302226 0.521109
Si Si3 0.000000 0.500000 0.500000
Si Si4 0.173359 0.206393 0.148539
Si Si5 0.510600 0.707764 0.131751
Si Si6 0.097304 0.699891 0.278963
Si Si7 0.761626 0.703982 0.133568
Si Si8 0.567207 0.291983 0.743787
O O1 0.192249 0.774745 0.832997
O O2 0.108904 0.727071 0.818624
O O3 0.143469 0.000000 0.901678
O O4 0.158734 0.727177 0.019841
O O5 0.458593 0.500000 0.527585
O O6 0.476408 0.154381 0.563560
O O7 0.408317 0.291913 0.602738
O O8 0.432063 0.250179 0.388900
O O9 0.138602 0.248959 0.226808
O O10 0.220817 0.265729 0.186885
O O11 0.175771 0.000000 0.140560
O O12 0.510456 0.500000 0.132948
O O13 0.556139 0.760793 0.190008
O O14 0.473579 0.765670 0.202416
O O15 0.500000 0.762711 0.000000
O O16 0.099195 0.500000 0.301211
O O17 0.764737 0.500000 0.145330
O O18 0.750000 0.750000 0.000000
O O19 0.566908 0.500000 0.747703
#
# Coordination Sequence:
#
# PCOD9198278 Si02
#       8
#     8   8   2   8   8   8   8   8
#     4   9  17  33  56  84 114 145 187 230 283 352
#     4  11  23  40  61  83 114 151 194 249 291 336
#     4  12  22  40  60  86 106 140 202 240 288 336
#     4   9  18  33  55  79 111 150 185 226 285 349
#     4  10  20  36  57  79 108 147 186 222 278 348
#     4  12  24  37  54  81 113 145 195 244 284 342
#     4   9  17  30  50  80 111 145 186 228 281 343
#     4   9  19  35  57  81 108 151 189 224 284 345
#
# _framework density 19.515926
#
# number of rings (size 3 to 8) (size 9 to 14) (size 15 to 20)
#    0.000    2.069    0.690    4.345    0.000    6.345 
#    1.241    0.000    0.000    0.828    0.000    0.000 
#    0.000    0.000    0.000    0.000    0.000    0.000 
#
# Total GULP energy -161483.272450 kJ/mol
# GULP energy per Si atom -5568.388705 kJ/mol
# Density = 1.947151 g / cm^3
# Si number density = 19.515926 Si / 1000 Ang^3
#
#
#
# Elastic Constant Matrix: (Units=GPa)
#
#
# Indices 1 2 3 4 5 6 
#
# 1 140.0948 -2.4655 45.6589 0.0000 -33.0462 0.0000
# 2 -2.4655 51.7331 9.8424 0.0000 0.9542 0.0000
# 3 45.6589 9.8424 84.0393 0.0000 -27.8725 0.0000
# 4 0.0000 0.0000 0.0000 19.3971 0.0000 -9.6172
# 5 -33.0462 0.9542 -27.8725 0.0000 27.5865 0.0000
# 6 0.0000 0.0000 0.0000 -9.6172 0.0000 26.6216
#
#
#
# Elastic Compliance Matrix: (Units=1/GPa)
#
#
# Indices 1 2 3 4 5 6 
#
# 1 0.010252 0.000764 -0.002399 0.000000 0.009831 0.000000
# 2 0.000764 0.020214 -0.004077 0.000000 -0.003904 0.000000
# 3 -0.002399 -0.004077 0.019211 0.000000 0.016678 0.000000
# 4 0.000000 0.000000 0.000000 0.062803 0.000000 0.022688
# 5 0.009831 -0.003904 0.016678 0.000000 0.065012 0.000000
# 6 0.000000 0.000000 0.000000 0.022688 0.000000 0.045759
#
#
# Mechanical properties :
#
#
# Convention : Reuss Voigt Hill
#
# Bulk Modulus (GPa) = 26.14157 42.43766 34.28961
# Shear Modulus (GPa) = 20.20789 29.57646 24.89218
#
# Velocity S-wave (km/s) = 3.22134 3.89717 3.57526
# Velocity P-wave (km/s) = 5.22112 6.48405 5.88656
#
# Compressibility (1/GPa) = 0.03825325
#
# Stress axis : x y z
#
# Youngs Moduli (GPa) = 97.53869 49.47052 52.05224
#
# Poissons Ratio (x) = -0.03778 0.12487
# Poissons Ratio (y) = -0.07449 0.21222
# Poissons Ratio (z) = 0.23399 0.20169
#
# Static dielectric constant tensor:
#      x y z
#    x 1.736070 0.000000 -0.007550 
#    y 0.000000 1.717730 0.000000 
#    z -0.007550 0.000000 1.701000 
# 
# From -- ./inp_files/186737.got.cif
#   From: 2010.05.17/outbox.cif.g08.bks.cpg/sg12_94_cif.got.tgz:186737.got - 2010.06.03 13:09:07.
