data_PCOD9198681
_publ_section_title
;
Structure prediction by ZEFSAII (Michael W. Deem and Ramdas Pophale) SiO2 
 PCOD9198681
Probable space group: C 2/M
;
_chemical_formula_sum "Si O2"
_cell_formula_units_Z 48
_cell_length_a 20.861020
_cell_length_b 8.656543
_cell_length_c 32.367971
_cell_angle_alpha 90.000000
_cell_angle_beta 152.361819
_cell_angle_gamma 90.000000
_cell_volume 2711.485121
_symmetry_space_group_name_H-M "C 2/M"
_symmetry_group_IT_number 12
_symmetry_cell_setting 'monoclinic'
loop_
_space_group_symop_operation_xyz
x,y,z
-x,y,-z
-x,-y,-z
x,-y,z
1/2+x,1/2+y,z
1/2-x,1/2+y,-z
1/2-x,1/2-y,-z
1/2+x,1/2-y,z
loop_
_atom_site_type_symbol
_atom_site_label
_atom_site_fract_x
_atom_site_fract_y
_atom_site_fract_z
Si Si1 0.931151 0.314376 0.270889
Si Si2 0.148109 0.187680 0.069076
Si Si3 0.377929 0.184933 0.546889
Si Si4 0.932015 0.816467 0.732364
Si Si5 0.637117 0.315196 0.553522
Si Si6 0.299166 0.185541 0.071792
O O1 0.943369 0.500000 0.271670
O O2 0.773559 0.269861 0.171320
O O3 0.987520 0.279501 0.348434
O O4 0.024843 0.235295 0.289365
O O5 0.197243 0.235024 0.051254
O O6 0.141826 0.000000 0.064933
O O7 0.000000 0.245227 0.000000
O O8 0.250000 0.250000 0.500000
O O9 0.378654 0.259905 0.502536
O O10 0.365210 0.000000 0.535689
O O11 0.777709 0.756442 0.651819
O O12 0.048745 0.744155 0.828580
O O13 0.936584 0.000000 0.738058
O O14 0.500000 0.268887 0.500000
O O15 0.649821 0.500000 0.561808
O O16 0.300293 0.000000 0.071437
O O17 0.250000 0.250000 0.000000
#
# Coordination Sequence:
#
# PCOD9198681 Si02
#       6
#     8   8   8   8   8   8
#     4   9  18  33  55  82 111 145 182 228 280 331
#     4   8  15  31  55  80 108 140 177 223 273 322
#     4  11  21  34  57  85 113 146 189 234 276 335
#     4  11  21  35  59  84 109 146 191 235 281 339
#     4  11  24  41  58  79 115 154 187 234 294 342
#     4  10  20  36  58  83 113 146 187 232 279 337
#
# _framework density 17.702476000000001
#
# number of rings (size 3 to 8) (size 9 to 14) (size 15 to 20)
#    0.000    2.000    1.667    4.000    0.000    2.000 
#    3.000    0.000    0.000   12.500    0.000    0.000 
#    0.000    0.000    0.000    0.000    0.000    0.000 
#
# Total GULP energy -133952.148554 kJ/mol
# GULP energy per Si atom -5581.339523 kJ/mol
# Density = 1.766218 g / cm^3
# Si number density = 17.702476 Si / 1000 Ang^3
#
#
#
# Elastic Constant Matrix: (Units=GPa)
#
#
# Indices 1 2 3 4 5 6 
#
# 1 115.6105 34.5344 94.5119 -0.0001 5.7514 0.0000
# 2 34.5344 55.3667 47.7357 0.0001 2.1052 -0.0001
# 3 94.5119 47.7357 157.6192 -0.0003 8.0813 0.0001
# 4 -0.0001 0.0001 -0.0003 26.4035 0.0001 -8.4649
# 5 5.7514 2.1052 8.0813 0.0001 36.1873 0.0000
# 6 0.0000 -0.0001 0.0001 -8.4649 0.0000 19.9713
#
#
#
# Elastic Compliance Matrix: (Units=1/GPa)
#
#
# Indices 1 2 3 4 5 6 
#
# 1 0.017224 -0.002493 -0.009549 0.000000 -0.000460 0.000000
# 2 -0.002493 0.024807 -0.006034 0.000000 0.000300 0.000000
# 3 -0.009549 -0.006034 0.013962 0.000000 -0.001249 0.000000
# 4 0.000000 0.000000 0.000000 0.043830 0.000000 0.018577
# 5 -0.000460 0.000300 -0.001249 0.000000 0.027969 0.000000
# 6 0.000000 0.000000 0.000000 0.018577 0.000000 0.057946
#
#
# Mechanical properties :
#
#
# Convention : Reuss Voigt Hill
#
# Bulk Modulus (GPa) = 50.39999 75.79562 63.09780
# Shear Modulus (GPa) = 21.88176 26.63337 24.25756
#
# Velocity S-wave (km/s) = 3.51961 3.88300 3.70576
# Velocity P-wave (km/s) = 6.71188 7.93807 7.35058
#
# Compressibility (1/GPa) = 0.01984128
#
# Stress axis : x y z
#
# Youngs Moduli (GPa) = 58.05954 40.31159 71.62434
#
# Poissons Ratio (x) = 0.10048 0.68396
# Poissons Ratio (y) = 0.14471 0.43216
# Poissons Ratio (z) = 0.55443 0.24323
#
# Static dielectric constant tensor:
#      x y z
#    x 1.578400 0.000000 0.005110 
#    y 0.000000 1.602120 0.000000 
#    z 0.005110 0.000000 1.616080 
# 
# From -- ./inp_files/314493.got.cif
#   From: 2010.05.17/outbox.cif.g08.bks.cpg/sg12_158_cif.got.tgz:314493.got - 2010.06.03 13:09:07.
