data_PCOD9198854
_publ_section_title
;
Structure prediction by ZEFSAII (Michael W. Deem and Ramdas Pophale) SiO2 
 PCOD9198854
Probable space group: C 2/M
;
_chemical_formula_sum "Si O2"
_cell_formula_units_Z 40
_cell_length_a 23.411917
_cell_length_b 11.988189
_cell_length_c 8.017266
_cell_angle_alpha 90.000000
_cell_angle_beta 69.673619
_cell_angle_gamma 90.000000
_cell_volume 2110.057259
_symmetry_space_group_name_H-M "C 2/M"
_symmetry_group_IT_number 12
_symmetry_cell_setting 'monoclinic'
loop_
_space_group_symop_operation_xyz
x,y,z
-x,y,-z
-x,-y,-z
x,-y,z
1/2+x,1/2+y,z
1/2-x,1/2+y,-z
1/2-x,1/2-y,-z
1/2+x,1/2-y,z
loop_
_atom_site_type_symbol
_atom_site_label
_atom_site_fract_x
_atom_site_fract_y
_atom_site_fract_z
Si Si1 0.066005 0.262784 0.480151
Si Si2 0.342938 0.812415 0.897424
Si Si3 0.535502 0.000000 0.685947
Si Si4 0.259554 0.309775 0.225593
Si Si5 0.678595 0.371028 0.494592
Si Si6 0.409285 0.000000 0.003583
O O1 0.101553 0.272365 0.270373
O O2 0.053774 0.386448 0.570747
O O3 0.113102 0.191738 0.546213
O O4 0.000000 0.213881 0.500000
O O5 0.296191 0.868659 0.813454
O O6 0.368114 0.894246 0.010056
O O7 0.307531 0.717343 0.032735
O O8 0.464251 0.000000 0.811791
O O9 0.567401 0.000000 0.833161
O O10 0.292649 0.363896 0.349318
O O11 0.226024 0.197760 0.330337
O O12 0.673038 0.500000 0.450395
#
# Coordination Sequence:
#
# PCOD9198854 Si02
#       6
#     8   8   4   8   8   4
#     4  11  21  39  60  85 120 155 198 240 290 350
#     4  10  20  36  58  87 117 150 193 235 295 347
#     4  11  22  37  56  91 124 149 194 236 302 350
#     4   9  21  40  57  86 117 154 193 242 289 350
#     4  10  22  40  60  85 117 156 196 242 292 347
#     4  11  21  32  59  92 115 156 184 247 294 345
#
# _framework density 18.956831000000001
#
# number of rings (size 3 to 8) (size 9 to 14) (size 15 to 20)
#    0.000    1.800    2.000    2.100    2.800    0.400 
#   10.800    1.000    0.000    1.200    0.000    0.000 
#    0.000    0.000    0.000    0.000    0.000    0.000 
#
# Total GULP energy -111483.599595 kJ/mol
# GULP energy per Si atom -5574.179980 kJ/mol
# Density = 1.891368 g / cm^3
# Si number density = 18.956831 Si / 1000 Ang^3
#
#
#
# Elastic Constant Matrix: (Units=GPa)
#
#
# Indices 1 2 3 4 5 6 
#
# 1 122.5630 26.3230 26.1550 0.0000 -2.8858 0.0000
# 2 26.3230 79.1408 7.4635 0.0000 -2.9915 0.0000
# 3 26.1550 7.4635 88.7197 0.0000 -8.0517 0.0000
# 4 0.0000 0.0000 0.0000 6.5803 0.0000 4.1051
# 5 -2.8858 -2.9915 -8.0517 0.0000 37.6348 0.0000
# 6 0.0000 0.0000 0.0000 4.1051 0.0000 40.5251
#
#
#
# Elastic Compliance Matrix: (Units=1/GPa)
#
#
# Indices 1 2 3 4 5 6 
#
# 1 0.009308 -0.002861 -0.002508 0.000000 -0.000050 0.000000
# 2 -0.002861 0.013640 -0.000230 0.000000 0.000816 0.000000
# 3 -0.002508 -0.000230 0.012249 0.000000 0.002410 0.000000
# 4 0.000000 0.000000 0.000000 0.162220 0.000000 -0.016433
# 5 -0.000050 0.000816 0.002410 0.000000 0.027148 0.000000
# 6 0.000000 0.000000 0.000000 -0.016433 0.000000 0.026341
#
#
# Mechanical properties :
#
#
# Convention : Reuss Voigt Hill
#
# Bulk Modulus (GPa) = 41.66932 45.58960 43.62946
# Shear Modulus (GPa) = 18.51150 32.31351 25.41251
#
# Velocity S-wave (km/s) = 3.12830 4.13314 3.66532
# Velocity P-wave (km/s) = 5.92261 6.84679 6.40140
#
# Compressibility (1/GPa) = 0.02399847
#
# Stress axis : x y z
#
# Youngs Moduli (GPa) = 107.43976 73.31444 81.64056
#
# Poissons Ratio (x) = 0.20977 0.20474
# Poissons Ratio (y) = 0.30740 0.01877
# Poissons Ratio (z) = 0.26943 0.01686
#
# Static dielectric constant tensor:
#      x y z
#    x 1.688500 0.000000 0.015850 
#    y 0.000000 1.694430 0.000000 
#    z 0.015850 0.000000 1.640050 
# 
# From -- ./inp_files/83414.got.cif
#   From: 2010.05.17/outbox.cif.g08.bks.cpg/sg12_42_cif.got.tgz:83414.got - 2010.06.03 13:09:07.
