data_PCOD9198394
_publ_section_title
;
Structure prediction by ZEFSAII (Michael W. Deem and Ramdas Pophale) SiO2 
 PCOD9198394
Probable space group: C 2/M
;
_chemical_formula_sum "Si O2"
_cell_formula_units_Z 64
_cell_length_a 26.716449
_cell_length_b 12.012483
_cell_length_c 16.056377
_cell_angle_alpha 90.000000
_cell_angle_beta 141.321252
_cell_angle_gamma 90.000000
_cell_volume 3220.375616
_symmetry_space_group_name_H-M "C 2/M"
_symmetry_group_IT_number 12
_symmetry_cell_setting 'monoclinic'
loop_
_space_group_symop_operation_xyz
x,y,z
-x,y,-z
-x,-y,-z
x,-y,z
1/2+x,1/2+y,z
1/2-x,1/2+y,-z
1/2-x,1/2-y,-z
1/2+x,1/2-y,z
loop_
_atom_site_type_symbol
_atom_site_label
_atom_site_fract_x
_atom_site_fract_y
_atom_site_fract_z
Si Si1 0.277368 0.776138 0.241490
Si Si2 0.715814 0.125604 0.927882
Si Si3 0.484864 0.375675 0.246358
Si Si4 0.969076 0.380196 0.866518
Si Si5 0.067794 0.870748 0.518103
Si Si6 0.133148 0.197807 0.342720
Si Si7 0.280703 0.126480 0.428690
Si Si8 0.879603 0.312992 0.045869
O O1 0.295578 0.855279 0.185521
O O2 0.354064 0.697002 0.354738
O O3 0.263513 0.840379 0.310452
O O4 0.198987 0.704042 0.113291
O O5 0.642279 0.123863 0.897562
O O6 0.753776 0.000000 0.987845
O O7 0.750000 0.250000 0.000000
O O8 0.459526 0.500000 0.233612
O O9 0.522651 0.323492 0.378468
O O10 0.559037 0.373677 0.279180
O O11 0.411293 0.308147 0.114526
O O12 0.931636 0.500000 0.800225
O O13 0.904888 0.285128 0.770419
O O14 0.045697 0.363923 0.906442
O O15 0.000000 0.377590 0.000000
O O16 0.000000 0.870402 0.500000
O O17 0.090513 0.000000 0.530172
O O18 0.202273 0.131960 0.385694
O O19 0.165835 0.275556 0.460501
O O20 0.313312 0.000000 0.473438
#
# Coordination Sequence:
#
# PCOD9198394 Si02
#       8
#     8   8   8   8   8   8   8   8
#     4  11  22  39  61  93 127 158 210 260 319 376
#     4  10  22  39  60  87 125 165 208 259 316 377
#     4  10  20  38  61  88 121 163 207 252 308 372
#     4  10  20  36  57  82 116 155 200 250 308 372
#     4  10  21  38  62  90 123 162 209 261 313 370
#     4  10  21  38  57  84 118 157 203 252 306 372
#     4  11  22  37  59  85 119 159 201 253 314 379
#     4  10  22  37  61  89 124 161 206 256 313 378
#
# _framework density 19.873457999999999
#
# number of rings (size 3 to 8) (size 9 to 14) (size 15 to 20)
#    0.000    1.750    1.250    3.000    0.000    5.000 
#    0.000    1.875    0.000    5.625    0.000    0.000 
#    0.000    0.000    0.000    0.000    0.000    0.000 
#
# Total GULP energy -178285.217472 kJ/mol
# GULP energy per Si atom -5571.413046 kJ/mol
# Density = 1.982823 g / cm^3
# Si number density = 19.873458 Si / 1000 Ang^3
#
#
#
# Elastic Constant Matrix: (Units=GPa)
#
#
# Indices 1 2 3 4 5 6 
#
# 1 61.8664 10.4108 5.0351 0.0000 -15.7947 0.0000
# 2 10.4108 88.6029 23.0768 0.0000 -5.5690 0.0000
# 3 5.0351 23.0768 79.2016 0.0000 -7.8519 0.0000
# 4 0.0000 0.0000 0.0000 -57.2185 0.0000 9.1829
# 5 -15.7947 -5.5690 -7.8519 0.0000 35.1373 0.0000
# 6 0.0000 0.0000 0.0000 9.1829 0.0000 -10.5838
#
#
#
# Elastic Compliance Matrix: (Units=1/GPa)
#
#
# Indices 1 2 3 4 5 6 
#
# 1 0.018501 -0.001697 0.000119 0.000000 0.008074 0.000000
# 2 -0.001697 0.012416 -0.003467 0.000000 0.000430 0.000000
# 3 0.000119 -0.003467 0.013887 0.000000 0.002607 0.000000
# 4 0.000000 0.000000 0.000000 -0.020304 0.000000 -0.017617
# 5 0.008074 0.000430 0.002607 0.000000 0.032740 0.000000
# 6 0.000000 0.000000 0.000000 -0.017617 0.000000 -0.109769
#
#
# Mechanical properties :
#
#
# Convention : Reuss Voigt Hill
#
# Bulk Modulus (GPa) = 28.80769 34.07960 31.44365
# Shear Modulus (GPa) = -161.98320 6.21022 -77.88649
#
# Velocity S-wave (km/s) = -9.03793 1.76965 -6.26708
# Velocity P-wave (km/s) = 9.71521 4.62180 6.04253
#
# Compressibility (1/GPa) = 0.03471295
#
# Stress axis : x y z
#
# Youngs Moduli (GPa) = 54.05070 80.54272 72.00924
#
# Poissons Ratio (x) = 0.13671 -0.00856
# Poissons Ratio (y) = 0.09174 0.24966
# Poissons Ratio (z) = -0.00642 0.27924
#
# Static dielectric constant tensor:
#      x y z
#    x 1.707130 0.000000 -0.007090 
#    y 0.000000 1.740480 0.000000 
#    z -0.007090 0.000000 1.690120 
# 
# From -- ./inp_files/245958.got.cif
#   From: 2010.05.17/outbox.cif.g08.bks.cpg/sg12_123_cif.got.tgz:245958.got - 2010.06.03 13:09:07.
