data_PCOD9198213
_publ_section_title
;
Structure prediction by ZEFSAII (Michael W. Deem and Ramdas Pophale) SiO2 
 PCOD9198213
Probable space group: C 2/M
;
_chemical_formula_sum "Si O2"
_cell_formula_units_Z 58
_cell_length_a 28.963873
_cell_length_b 7.571117
_cell_length_c 26.670305
_cell_angle_alpha 90.000000
_cell_angle_beta 153.309480
_cell_angle_gamma 90.000000
_cell_volume 2626.978118
_symmetry_space_group_name_H-M "C 2/M"
_symmetry_group_IT_number 12
_symmetry_cell_setting 'monoclinic'
loop_
_space_group_symop_operation_xyz
x,y,z
-x,y,-z
-x,-y,-z
x,-y,z
1/2+x,1/2+y,z
1/2-x,1/2+y,-z
1/2-x,1/2-y,-z
1/2+x,1/2-y,z
loop_
_atom_site_type_symbol
_atom_site_label
_atom_site_fract_x
_atom_site_fract_y
_atom_site_fract_z
Si Si1 0.765618 0.206153 0.589488
Si Si2 0.758215 0.715202 0.799945
Si Si3 0.025962 0.795771 0.598343
Si Si4 0.557261 0.207395 0.952591
Si Si5 0.957417 0.289840 0.641804
Si Si6 0.009368 0.209862 0.217995
Si Si7 0.500000 0.000000 0.500000
Si Si8 0.829109 0.714651 0.758946
O O1 0.659578 0.281524 0.465593
O O2 0.875089 0.285252 0.679310
O O3 0.764145 0.223485 0.648248
O O4 0.768274 0.000000 0.578383
O O5 0.757549 0.500000 0.799942
O O6 0.643524 0.767579 0.703425
O O7 0.788459 0.771566 0.773392
O O8 0.844785 0.779114 0.922825
O O9 0.963868 0.657257 0.504817
O O10 0.002436 0.785166 0.634358
O O11 0.012281 0.000000 0.569649
O O12 0.560035 0.225744 0.895281
O O13 0.446569 0.277715 0.863596
O O14 0.554176 0.000000 0.961634
O O15 0.951683 0.500000 0.629805
O O16 0.018441 0.252261 0.752023
O O17 0.013583 0.000000 0.216526
O O18 0.828277 0.500000 0.757180
#
# Coordination Sequence:
#
# PCOD9198213 Si02
#       8
#     8   8   8   8   8   8   2   8
#     4   9  20  34  53  81 118 153 193 242 297 362
#     4   9  19  36  58  84 116 153 197 247 296 354
#     4  11  25  43  65  92 123 162 205 247 296 354
#     4   9  17  34  58  84 114 151 193 243 301 358
#     4  11  22  39  59  84 117 158 203 249 300 358
#     4  10  20  36  56  85 116 152 196 247 305 361
#     4  12  26  48  64  90 126 164 206 248 298 350
#     4   9  17  30  54  85 115 149 191 235 292 362
#
# _framework density 22.078600000000002
#
# number of rings (size 3 to 8) (size 9 to 14) (size 15 to 20)
#    0.000    2.207    0.690    1.862    1.931    3.310 
#    1.241    0.690    0.000    3.310    0.000    0.000 
#    0.000    0.000    0.000    0.000    0.000    0.000 
#
# Total GULP energy -161771.893523 kJ/mol
# GULP energy per Si atom -5578.341156 kJ/mol
# Density = 2.202835 g / cm^3
# Si number density = 22.078600 Si / 1000 Ang^3
#
#
#
# Elastic Constant Matrix: (Units=GPa)
#
#
# Indices 1 2 3 4 5 6 
#
# 1 95.5696 -3.3887 25.2833 0.0000 -30.5565 0.0000
# 2 -3.3887 78.6273 -3.6788 -0.0001 8.0751 -0.0001
# 3 25.2833 -3.6788 80.6655 0.0000 -19.7365 0.0000
# 4 0.0000 -0.0001 0.0000 3.0008 0.0000 -8.3314
# 5 -30.5565 8.0751 -19.7365 0.0000 26.3521 0.0000
# 6 0.0000 -0.0001 0.0000 -8.3314 0.0000 25.2859
#
#
#
# Elastic Compliance Matrix: (Units=1/GPa)
#
#
# Indices 1 2 3 4 5 6 
#
# 1 0.016780 -0.001299 -0.000564 -0.000001 0.019433 0.000000
# 2 -0.001299 0.013247 -0.000429 0.000006 -0.005887 0.000002
# 3 -0.000564 -0.000429 0.015214 -0.000001 0.010872 0.000000
# 4 -0.000001 0.000006 -0.000001 3.911011 -0.000004 1.288625
# 5 0.019433 -0.005887 0.010872 -0.000004 0.070427 -0.000001
# 6 0.000000 0.000002 0.000000 1.288625 -0.000001 0.464132
#
#
# Mechanical properties :
#
#
# Convention : Reuss Voigt Hill
#
# Bulk Modulus (GPa) = 24.59613 32.36599 28.48106
# Shear Modulus (GPa) = 1.10891 26.70420 13.90655
#
# Velocity S-wave (km/s) = 0.70947 3.48157 2.51244
# Velocity P-wave (km/s) = 3.44029 5.55455 4.61999
#
# Compressibility (1/GPa) = 0.04065680
#
# Stress axis : x y z
#
# Youngs Moduli (GPa) = 59.59481 75.49018 65.72816
#
# Poissons Ratio (x) = 0.09806 0.03707
# Poissons Ratio (y) = 0.07741 0.02820
# Poissons Ratio (z) = 0.03361 0.03239
#
# Static dielectric constant tensor:
#      x y z
#    x 1.803410 0.000000 0.004210 
#    y 0.000000 1.799980 0.000000 
#    z 0.004210 0.000000 1.848190 
# 
# From -- ./inp_files/351514.got.cif
#   From: 2010.05.17/outbox.cif.g08.bks.cpg/sg12_176_cif.got.tgz:351514.got - 2010.06.03 13:09:07.
