data_PCOD9198615
_publ_section_title
;
Structure prediction by ZEFSAII (Michael W. Deem and Ramdas Pophale) SiO2 
 PCOD9198615
Probable space group: C 2/M
;
_chemical_formula_sum "Si O2"
_cell_formula_units_Z 36
_cell_length_a 18.895569
_cell_length_b 12.662308
_cell_length_c 10.087010
_cell_angle_alpha 90.000000
_cell_angle_beta 36.532260
_cell_angle_gamma 90.000000
_cell_volume 1436.657222
_symmetry_space_group_name_H-M "C 2/M"
_symmetry_group_IT_number 12
_symmetry_cell_setting 'monoclinic'
loop_
_space_group_symop_operation_xyz
x,y,z
-x,y,-z
-x,-y,-z
x,-y,z
1/2+x,1/2+y,z
1/2-x,1/2+y,-z
1/2-x,1/2-y,-z
1/2+x,1/2-y,z
loop_
_atom_site_type_symbol
_atom_site_label
_atom_site_fract_x
_atom_site_fract_y
_atom_site_fract_z
Si Si1 0.156653 0.386010 0.409565
Si Si2 0.497302 0.379760 0.747191
Si Si3 0.762080 0.330665 0.284033
Si Si4 0.000000 0.728880 0.000000
Si Si5 0.890097 0.677276 0.817911
O O1 0.203570 0.500000 0.373676
O O2 0.231607 0.292187 0.356433
O O3 0.156321 0.366131 0.251212
O O4 0.017829 0.375651 0.653882
O O5 0.452846 0.500000 0.823904
O O6 0.636982 0.384537 0.500238
O O7 0.489877 0.308590 0.891086
O O8 0.424482 0.302296 0.757718
O O9 0.883477 0.345197 0.182189
O O10 0.802646 0.344219 0.070721
#
# Coordination Sequence:
#
# PCOD9198615 Si02
#       5
#     8   8   8   4   8
#     4  10  20  36  58  82 109 146 184 217 264 326
#     4  10  21  36  57  83 109 141 181 222 271 325
#     4  10  21  37  56  82 111 141 181 228 269 313
#     4  10  21  40  57  74 108 148 181 226 271 318
#     4   9  19  36  54  79 113 141 174 221 269 319
#
# _framework density 25.058168999999999
#
# number of rings (size 3 to 8) (size 9 to 14) (size 15 to 20)
#    0.000    2.222    0.000    3.000    0.000    6.222 
#    0.000    9.444    0.000    1.333    0.000    0.000 
#    0.000    0.000    0.000    0.000    0.000    0.000 
#
# Total GULP energy -100694.509358 kJ/mol
# GULP energy per Si atom -5594.139409 kJ/mol
# Density = 2.500114 g / cm^3
# Si number density = 25.058169 Si / 1000 Ang^3
#
#
#
# Elastic Constant Matrix: (Units=GPa)
#
#
# Indices 1 2 3 4 5 6 
#
# 1 40.1135 -8.9572 -0.8265 0.0000 -10.2715 0.0000
# 2 -8.9572 104.6658 -7.9902 0.0000 8.7970 0.0000
# 3 -0.8265 -7.9902 140.8597 0.0000 -2.9415 0.0000
# 4 0.0000 0.0000 0.0000 -21.0276 0.0000 -4.0375
# 5 -10.2715 8.7970 -2.9415 0.0000 38.4212 0.0000
# 6 0.0000 0.0000 0.0000 -4.0375 0.0000 -13.5062
#
#
#
# Elastic Compliance Matrix: (Units=1/GPa)
#
#
# Indices 1 2 3 4 5 6 
#
# 1 0.027092 0.001772 0.000403 0.000000 0.006868 0.000000
# 2 0.001772 0.009894 0.000535 0.000000 -0.001751 0.000000
# 3 0.000403 0.000535 0.007143 0.000000 0.000532 0.000000
# 4 0.000000 0.000000 0.000000 -0.050453 0.000000 0.015082
# 5 0.006868 -0.001751 0.000532 0.000000 0.028305 0.000000
# 6 0.000000 0.000000 0.000000 0.015082 0.000000 -0.078549
#
#
# Mechanical properties :
#
#
# Convention : Reuss Voigt Hill
#
# Bulk Modulus (GPa) = 20.18216 27.78791 23.98504
# Shear Modulus (GPa) = -109.95926 21.00501 -44.47713
#
# Velocity S-wave (km/s) = -6.63151 2.89840 -4.21759
# Velocity P-wave (km/s) = 7.11085 4.72381 3.75831
#
# Compressibility (1/GPa) = 0.04954870
#
# Stress axis : x y z
#
# Youngs Moduli (GPa) = 36.91155 101.07291 139.99542
#
# Poissons Ratio (x) = -0.17910 -0.05640
# Poissons Ratio (y) = -0.06541 -0.07491
# Poissons Ratio (z) = -0.01487 -0.05408
#
# Static dielectric constant tensor:
#      x y z
#    x 2.014990 0.000000 0.012540 
#    y 0.000000 1.945790 0.000000 
#    z 0.012540 0.000000 2.029010 
# 
# From -- ./inp_files/140175.got.cif
#   From: 2010.05.17/outbox.cif.g08.bks.cpg/sg12_71_cif.got.tgz:140175.got - 2010.06.03 13:09:07.
