data_PCOD9198250
_publ_section_title
;
Structure prediction by ZEFSAII (Michael W. Deem and Ramdas Pophale) SiO2 
 PCOD9198250
Probable space group: C 2/M
;
_chemical_formula_sum "Si O2"
_cell_formula_units_Z 48
_cell_length_a 13.461074
_cell_length_b 7.790944
_cell_length_c 22.841861
_cell_angle_alpha 90.000000
_cell_angle_beta 88.065468
_cell_angle_gamma 90.000000
_cell_volume 2394.162824
_symmetry_space_group_name_H-M "C 2/M"
_symmetry_group_IT_number 12
_symmetry_cell_setting 'monoclinic'
loop_
_space_group_symop_operation_xyz
x,y,z
-x,y,-z
-x,-y,-z
x,-y,z
1/2+x,1/2+y,z
1/2-x,1/2+y,-z
1/2-x,1/2-y,-z
1/2+x,1/2-y,z
loop_
_atom_site_type_symbol
_atom_site_label
_atom_site_fract_x
_atom_site_fract_y
_atom_site_fract_z
Si Si1 0.626256 0.000000 0.740319
Si Si2 0.060808 0.194814 0.556315
Si Si3 0.325137 0.190480 0.849777
Si Si4 0.915324 0.000000 0.635610
Si Si5 0.139256 0.000000 0.231605
Si Si6 0.592750 0.698936 0.824803
Si Si7 0.459148 0.293302 0.938944
Si Si8 0.317679 0.000000 0.393803
O O1 0.581440 0.831305 0.771876
O O2 0.743475 0.000000 0.754534
O O3 0.627339 0.000000 0.670479
O O4 0.143066 0.330846 0.573487
O O5 0.000000 0.248976 0.500000
O O6 0.977839 0.160149 0.608266
O O7 0.101347 0.000000 0.544194
O O8 0.375769 0.333539 0.808249
O O9 0.208264 0.204539 0.841695
O O10 0.355331 0.223120 0.916401
O O11 0.356806 0.000000 0.832048
O O12 0.914835 0.000000 0.705466
O O13 0.801326 0.000000 0.614809
O O14 0.571920 0.500000 0.809623
O O15 0.533283 0.750435 0.884276
O O16 0.452394 0.500000 0.942306
O O17 0.500000 0.229979 0.000000
#
# Coordination Sequence:
#
# PCOD9198250 Si02
#       8
#     4   8   8   4   4   8   8   4
#     4   9  20  35  58  85 109 144 190 221 279 348
#     4   9  21  43  58  91 129 155 207 251 283 356
#     4  10  20  36  57  78 105 144 179 222 286 335
#     4   9  21  41  60  91 124 158 203 247 297 350
#     4   9  18  39  56  79 119 142 176 239 275 334
#     4   9  20  38  55  76 110 142 174 228 284 332
#     4  10  21  37  54  77 106 138 182 227 275 337
#     4  11  21  39  64  89 122 164 199 247 301 346
#
# _framework density 20.048762
#
# number of rings (size 3 to 8) (size 9 to 14) (size 15 to 20)
#    0.500    2.000    0.833    0.250    1.167    3.667 
#    3.000    1.667    0.000    0.000    0.000    0.000 
#    0.000    0.000    0.000    0.000    0.000    0.000 
#
# Total GULP energy -133868.925476 kJ/mol
# GULP energy per Si atom -5577.871895 kJ/mol
# Density = 2.000313 g / cm^3
# Si number density = 20.048762 Si / 1000 Ang^3
#
#
#
# Elastic Constant Matrix: (Units=GPa)
#
#
# Indices 1 2 3 4 5 6 
#
# 1 53.7753 12.0423 -7.1385 0.0000 11.8678 0.0000
# 2 12.0423 60.1823 7.6727 0.0000 11.9723 0.0000
# 3 -7.1385 7.6727 65.0635 0.0000 16.2576 0.0000
# 4 0.0000 0.0000 0.0000 19.7706 0.0000 -0.1226
# 5 11.8678 11.9723 16.2576 0.0000 32.6252 0.0000
# 6 0.0000 0.0000 0.0000 -0.1226 0.0000 22.2151
#
#
#
# Elastic Compliance Matrix: (Units=1/GPa)
#
#
# Indices 1 2 3 4 5 6 
#
# 1 0.022077 -0.003200 0.005155 0.000000 -0.009425 0.000000
# 2 -0.003200 0.018405 -0.001285 0.000000 -0.004950 0.000000
# 3 0.005155 -0.001285 0.018775 0.000000 -0.010760 0.000000
# 4 0.000000 0.000000 0.000000 0.050582 0.000000 0.000279
# 5 -0.009425 -0.004950 -0.010760 0.000000 0.041258 0.000000
# 6 0.000000 0.000000 0.000000 0.000279 0.000000 0.045016
#
#
# Mechanical properties :
#
#
# Convention : Reuss Voigt Hill
#
# Bulk Modulus (GPa) = 16.50238 22.68601 19.59420
# Shear Modulus (GPa) = 23.25895 26.01847 24.63871
#
# Velocity S-wave (km/s) = 3.40975 3.60635 3.50943
# Velocity P-wave (km/s) = 4.87348 5.35547 5.12015
#
# Compressibility (1/GPa) = 0.06059732
#
# Stress axis : x y z
#
# Youngs Moduli (GPa) = 45.29655 54.33336 53.26192
#
# Poissons Ratio (x) = 0.17385 -0.27454
# Poissons Ratio (y) = 0.14493 0.06842
# Poissons Ratio (z) = -0.23348 0.06980
#
# Static dielectric constant tensor:
#      x y z
#    x 1.754570 0.000000 0.013880 
#    y 0.000000 1.712310 0.000000 
#    z 0.013880 0.000000 1.684880 
# 
# From -- ./inp_files/267763.got.cif
#   From: 2010.05.17/outbox.cif.g08.bks.cpg/sg12_134_cif.got.tgz:267763.got - 2010.06.03 13:09:07.
