data_PCOD9198624
_publ_section_title
;
Structure prediction by ZEFSAII (Michael W. Deem and Ramdas Pophale) SiO2 
 PCOD9198624
Probable space group: C 2/M
;
_chemical_formula_sum "Si O2"
_cell_formula_units_Z 64
_cell_length_a 11.147857
_cell_length_b 17.048462
_cell_length_c 21.264331
_cell_angle_alpha 90.000000
_cell_angle_beta 59.486816
_cell_angle_gamma 90.000000
_cell_volume 3481.687810
_symmetry_space_group_name_H-M "C 2/M"
_symmetry_group_IT_number 12
_symmetry_cell_setting 'monoclinic'
loop_
_space_group_symop_operation_xyz
x,y,z
-x,y,-z
-x,-y,-z
x,-y,z
1/2+x,1/2+y,z
1/2-x,1/2+y,-z
1/2-x,1/2-y,-z
1/2+x,1/2-y,z
loop_
_atom_site_type_symbol
_atom_site_label
_atom_site_fract_x
_atom_site_fract_y
_atom_site_fract_z
Si Si1 0.047303 0.909923 0.785441
Si Si2 0.457582 0.404788 0.352362
Si Si3 0.278165 0.692638 0.089099
Si Si4 0.314227 0.186766 0.532100
Si Si5 0.414292 0.093475 0.393833
Si Si6 0.935400 0.807585 0.924918
Si Si7 0.345070 0.908328 0.764773
Si Si8 0.125101 0.841323 0.420257
O O1 0.211686 0.904910 0.754614
O O2 0.015219 0.876475 0.725767
O O3 0.975363 0.871818 0.863720
O O4 0.006760 0.000000 0.793854
O O5 0.456104 0.500000 0.356247
O O6 0.307802 0.370851 0.412950
O O7 0.574329 0.368545 0.366130
O O8 0.165571 0.749456 0.086573
O O9 0.415418 0.726687 0.089535
O O10 0.197988 0.638478 0.160825
O O11 0.353446 0.657417 0.006858
O O12 0.250000 0.250000 0.500000
O O13 0.418251 0.136142 0.460603
O O14 0.359760 0.247324 0.574644
O O15 0.526443 0.120422 0.311899
O O16 0.264086 0.115203 0.405074
O O17 0.430010 0.000000 0.397922
O O18 0.369517 0.000000 0.774427
O O19 0.000000 0.865225 0.500000
#
# Coordination Sequence:
#
# PCOD9198624 Si02
#       8
#     8   8   8   8   8   8   8   8
#     4   9  20  38  57  83 113 146 190 237 282 339
#     4  11  22  40  62  82 110 153 196 239 295 349
#     4   9  18  35  59  87 118 151 192 230 286 346
#     4  10  21  36  51  83 109 141 182 243 291 340
#     4  10  20  36  58  82 110 149 192 236 293 353
#     4   9  18  35  59  87 116 153 189 234 284 346
#     4   9  19  37  57  83 115 146 185 235 283 338
#     4  11  22  38  58  83 111 145 194 251 289 348
#
# _framework density 18.381889000000001
#
# number of rings (size 3 to 8) (size 9 to 14) (size 15 to 20)
#    0.000    2.250    2.500    0.750    0.000    4.000 
#    6.750    2.500    0.000    3.750    0.000    3.500 
#    0.000    0.000    0.000    0.000    0.000    0.000 
#
# Total GULP energy -178226.089190 kJ/mol
# GULP energy per Si atom -5569.565287 kJ/mol
# Density = 1.834005 g / cm^3
# Si number density = 18.381889 Si / 1000 Ang^3
#
#
#
# Elastic Constant Matrix: (Units=GPa)
#
#
# Indices 1 2 3 4 5 6 
#
# 1 66.3701 30.7866 58.2920 0.0000 14.7602 0.0000
# 2 30.7866 56.9392 43.1288 0.0000 5.8190 0.0000
# 3 58.2920 43.1288 112.7462 0.0000 3.5457 0.0000
# 4 0.0000 0.0000 0.0000 23.6459 0.0000 -1.5470
# 5 14.7602 5.8190 3.5457 0.0000 36.5894 0.0000
# 6 0.0000 0.0000 0.0000 -1.5470 0.0000 33.8992
#
#
#
# Elastic Compliance Matrix: (Units=1/GPa)
#
#
# Indices 1 2 3 4 5 6 
#
# 1 0.032835 -0.005684 -0.014458 0.000000 -0.010941 0.000000
# 2 -0.005684 0.026050 -0.006989 0.000000 -0.001172 0.000000
# 3 -0.014458 -0.006989 0.018857 0.000000 0.005116 0.000000
# 4 0.000000 0.000000 0.000000 0.042417 0.000000 0.001936
# 5 -0.010941 -0.001172 0.005116 0.000000 0.031434 0.000000
# 6 0.000000 0.000000 0.000000 0.001936 0.000000 0.029588
#
#
# Mechanical properties :
#
#
# Convention : Reuss Voigt Hill
#
# Bulk Modulus (GPa) = 42.59057 55.60780 49.09919
# Shear Modulus (GPa) = 20.55329 25.75011 23.15170
#
# Velocity S-wave (km/s) = 3.34747 3.74684 3.55277
# Velocity P-wave (km/s) = 6.17745 7.00254 6.60289
#
# Compressibility (1/GPa) = 0.02347938
#
# Stress axis : x y z
#
# Youngs Moduli (GPa) = 30.45525 38.38809 53.03048
#
# Poissons Ratio (x) = 0.21821 0.76671
# Poissons Ratio (y) = 0.17312 0.37063
# Poissons Ratio (z) = 0.44032 0.26829
#
# Static dielectric constant tensor:
#      x y z
#    x 1.689780 0.000000 -0.003670 
#    y 0.000000 1.629670 0.000000 
#    z -0.003670 0.000000 1.644920 
# 
# From -- ./inp_files/306188.got.cif
#   From: 2010.05.17/outbox.cif.g08.bks.cpg/sg12_154_cif.got.tgz:306188.got - 2010.06.03 13:09:07.
