data_PCOD9198840
_publ_section_title
;
Structure prediction by ZEFSAII (Michael W. Deem and Ramdas Pophale) SiO2 
 PCOD9198840
Probable space group: C 2/M
;
_chemical_formula_sum "Si O2"
_cell_formula_units_Z 40
_cell_length_a 22.481659
_cell_length_b 10.617727
_cell_length_c 18.561990
_cell_angle_alpha 90.000000
_cell_angle_beta 154.110646
_cell_angle_gamma 90.000000
_cell_volume 1934.650983
_symmetry_space_group_name_H-M "C 2/M"
_symmetry_group_IT_number 12
_symmetry_cell_setting 'monoclinic'
loop_
_space_group_symop_operation_xyz
x,y,z
-x,y,-z
-x,-y,-z
x,-y,z
1/2+x,1/2+y,z
1/2-x,1/2+y,-z
1/2-x,1/2-y,-z
1/2+x,1/2-y,z
loop_
_atom_site_type_symbol
_atom_site_label
_atom_site_fract_x
_atom_site_fract_y
_atom_site_fract_z
Si Si1 0.015839 0.353068 0.906080
Si Si2 0.991834 0.219252 0.606996
Si Si3 0.138591 0.359004 0.881314
Si Si4 0.740496 0.356465 0.549997
Si Si5 0.708323 0.648726 0.730351
O O1 0.020729 0.500000 0.930356
O O2 0.056165 0.341407 0.865856
O O3 0.857447 0.319008 0.735756
O O4 0.140371 0.300176 0.088509
O O5 0.907669 0.143868 0.575598
O O6 0.880665 0.229176 0.422349
O O7 0.044840 0.339322 0.708739
O O8 0.121634 0.154713 0.710447
O O9 0.196148 0.500000 0.944756
O O10 0.250000 0.250000 0.000000
O O11 0.771481 0.500000 0.559299
O O12 0.750000 0.250000 0.500000
O O13 0.708703 0.500000 0.708031
#
# Coordination Sequence:
#
# PCOD9198840 Si02
#       5
#     8   8   8   8   8
#     4   9  19  36  56  82 118 154 192 243 298 345
#     4  11  21  35  58  87 118 153 196 243 300 353
#     4  11  22  38  62  90 121 157 199 251 299 351
#     4  11  22  36  57  87 120 155 198 247 299 355
#     4  10  20  36  58  86 121 156 198 251 298 350
#
# _framework density 20.675563
#
# number of rings (size 3 to 8) (size 9 to 14) (size 15 to 20)
#    0.000    1.600    4.000    2.400    0.000    2.400 
#    0.000    5.000    0.000    0.000    0.000    2.800 
#    0.000    0.000    0.000    0.000    0.000    0.000 
#
# Total GULP energy -111452.017952 kJ/mol
# GULP energy per Si atom -5572.600898 kJ/mol
# Density = 2.062850 g / cm^3
# Si number density = 20.675563 Si / 1000 Ang^3
#
#
#
# Elastic Constant Matrix: (Units=GPa)
#
#
# Indices 1 2 3 4 5 6 
#
# 1 64.6143 28.7791 9.6733 0.0000 -3.0852 0.0000
# 2 28.7791 79.6261 32.8802 0.0000 -3.5198 0.0000
# 3 9.6733 32.8802 118.4296 0.0000 -9.2154 0.0000
# 4 0.0000 0.0000 0.0000 30.9135 0.0000 -0.7210
# 5 -3.0852 -3.5198 -9.2154 0.0000 42.8241 0.0000
# 6 0.0000 0.0000 0.0000 -0.7210 0.0000 16.9882
#
#
#
# Elastic Compliance Matrix: (Units=1/GPa)
#
#
# Indices 1 2 3 4 5 6 
#
# 1 0.018493 -0.006833 0.000454 0.000000 0.000868 0.000000
# 2 -0.006833 0.016714 -0.004082 0.000000 0.000003 0.000000
# 3 0.000454 -0.004082 0.009679 0.000000 0.001780 0.000000
# 4 0.000000 0.000000 0.000000 0.032380 0.000000 0.001374
# 5 0.000868 0.000003 0.001780 0.000000 0.023797 0.000000
# 6 0.000000 0.000000 0.000000 0.001374 0.000000 0.058923
#
#
# Mechanical properties :
#
#
# Convention : Reuss Voigt Hill
#
# Bulk Modulus (GPa) = 41.72931 45.03724 43.38328
# Shear Modulus (GPa) = 26.46950 30.90098 28.68524
#
# Velocity S-wave (km/s) = 3.58191 3.87015 3.72882
# Velocity P-wave (km/s) = 6.11012 6.46536 6.29025
#
# Compressibility (1/GPa) = 0.02396397
#
# Stress axis : x y z
#
# Youngs Moduli (GPa) = 54.07326 59.82948 103.32100
#
# Poissons Ratio (x) = 0.40883 -0.04693
# Poissons Ratio (y) = 0.36949 0.42176
# Poissons Ratio (z) = -0.02456 0.24423
#
# Static dielectric constant tensor:
#      x y z
#    x 1.822890 0.000000 0.006490 
#    y 0.000000 1.688170 0.000000 
#    z 0.006490 0.000000 1.845460 
# 
# From -- ./inp_files/110217.got.cif
#   From: 2010.05.17/outbox.cif.g08.bks.cpg/sg12_56_cif.got.tgz:110217.got - 2010.06.03 13:09:07.
