data_PCOD9198566
_publ_section_title
;
Structure prediction by ZEFSAII (Michael W. Deem and Ramdas Pophale) SiO2 
 PCOD9198566
Probable space group: C 2/M
;
_chemical_formula_sum "Si O2"
_cell_formula_units_Z 64
_cell_length_a 19.181649
_cell_length_b 8.242464
_cell_length_c 16.954332
_cell_angle_alpha 90.000000
_cell_angle_beta 93.995350
_cell_angle_gamma 90.000000
_cell_volume 2674.034062
_symmetry_space_group_name_H-M "C 2/M"
_symmetry_group_IT_number 12
_symmetry_cell_setting 'monoclinic'
loop_
_space_group_symop_operation_xyz
x,y,z
-x,y,-z
-x,-y,-z
x,-y,z
1/2+x,1/2+y,z
1/2-x,1/2+y,-z
1/2-x,1/2-y,-z
1/2+x,1/2-y,z
loop_
_atom_site_type_symbol
_atom_site_label
_atom_site_fract_x
_atom_site_fract_y
_atom_site_fract_z
Si Si1 0.311851 0.809153 0.650348
Si Si2 0.424488 0.309802 0.167899
Si Si3 0.522437 0.310535 0.620387
Si Si4 0.702314 0.192252 0.755195
Si Si5 0.381402 0.316899 0.503967
Si Si6 0.920903 0.801695 0.996018
Si Si7 0.941954 0.685577 0.757706
Si Si8 0.718281 0.696094 0.081465
O O1 0.237325 0.766011 0.680396
O O2 0.327242 0.756788 0.561955
O O3 0.370138 0.740057 0.717312
O O4 0.323028 0.000000 0.653377
O O5 0.413004 0.500000 0.169986
O O6 0.377517 0.233754 0.232468
O O7 0.396653 0.248941 0.081543
O O8 0.507845 0.279673 0.178179
O O9 0.535074 0.500000 0.647311
O O10 0.453804 0.322467 0.559288
O O11 0.589043 0.247603 0.576075
O O12 0.493006 0.195957 0.685612
O O13 0.743912 0.255834 0.836489
O O14 0.710843 0.000000 0.751260
O O15 0.358142 0.500000 0.485190
O O16 0.922777 0.000000 0.994459
O O17 0.863082 0.750666 0.928513
O O18 0.000000 0.742635 0.000000
O O19 0.932403 0.500000 0.782154
O O20 0.720950 0.500000 0.083391
O O21 0.750000 0.750000 0.000000
#
# Coordination Sequence:
#
# PCOD9198566 Si02
#       8
#     8   8   8   8   8   8   8   8
#     4  10  21  35  53  80 113 147 184 226 271 323
#     4  11  22  37  59  79 107 147 184 224 272 331
#     4   8  14  27  49  77 107 142 181 220 267 321
#     4  11  23  37  57  80 109 145 184 229 274 324
#     4   8  14  27  49  77 109 140 178 226 268 314
#     4   9  19  35  56  82 108 135 174 222 269 320
#     4  10  21  35  52  79 115 146 181 228 272 321
#     4  10  20  36  58  81 106 137 177 223 269 323
#
# _framework density 23.933876999999999
#
# number of rings (size 3 to 8) (size 9 to 14) (size 15 to 20)
#    0.000    2.375    1.250    2.250    1.750    2.500 
#    0.000    2.500    0.000    2.625    0.000    0.000 
#    0.000    0.000    0.000    0.000    0.000    0.000 
#
# Total GULP energy -178551.205648 kJ/mol
# GULP energy per Si atom -5579.725176 kJ/mol
# Density = 2.387940 g / cm^3
# Si number density = 23.933877 Si / 1000 Ang^3
#
#
#
# Elastic Constant Matrix: (Units=GPa)
#
#
# Indices 1 2 3 4 5 6 
#
# 1 106.1096 -11.9098 12.5164 0.0000 -12.4290 0.0000
# 2 -11.9098 20.4446 -4.8278 0.0000 -6.2789 0.0000
# 3 12.5164 -4.8278 33.5367 0.0000 -17.3202 0.0000
# 4 0.0000 0.0000 0.0000 19.7818 0.0000 -5.9522
# 5 -12.4290 -6.2789 -17.3202 0.0000 44.0260 0.0000
# 6 0.0000 0.0000 0.0000 -5.9522 0.0000 19.7109
#
#
#
# Elastic Compliance Matrix: (Units=1/GPa)
#
#
# Indices 1 2 3 4 5 6 
#
# 1 0.010781 0.007123 -0.001132 0.000000 0.003614 0.000000
# 2 0.007123 0.061667 0.014808 0.000000 0.016631 0.000000
# 3 -0.001132 0.014808 0.041788 0.000000 0.018232 0.000000
# 4 0.000000 0.000000 0.000000 0.055604 0.000000 0.016791
# 5 0.003614 0.016631 0.018232 0.000000 0.033279 0.000000
# 6 0.000000 0.000000 0.000000 0.016791 0.000000 0.055804
#
#
# Mechanical properties :
#
#
# Convention : Reuss Voigt Hill
#
# Bulk Modulus (GPa) = 6.41707 16.84984 11.63345
# Shear Modulus (GPa) = 18.56889 27.65789 23.11339
#
# Velocity S-wave (km/s) = 2.78841 3.40309 3.11097
# Velocity P-wave (km/s) = 3.61303 4.74308 4.21609
#
# Compressibility (1/GPa) = 0.15583433
#
# Stress axis : x y z
#
# Youngs Moduli (GPa) = 92.76007 16.21622 23.93018
#
# Poissons Ratio (x) = -0.11551 0.02708
# Poissons Ratio (y) = -0.66072 -0.35436
# Poissons Ratio (z) = 0.10496 -0.24013
#
# Static dielectric constant tensor:
#      x y z
#    x 1.943710 0.000000 0.026390 
#    y 0.000000 1.833480 0.000000 
#    z 0.026390 0.000000 2.017990 
# 
# From -- ./inp_files/281257.got.cif
#   From: 2010.05.17/outbox.cif.g08.bks.cpg/sg12_141_cif.got.tgz:281257.got - 2010.06.03 13:09:07.
