data_PCOD9198205
_publ_section_title
;
Structure prediction by ZEFSAII (Michael W. Deem and Ramdas Pophale) SiO2 
 PCOD9198205
Probable space group: C 2/M
;
_chemical_formula_sum "Si O2"
_cell_formula_units_Z 64
_cell_length_a 30.171680
_cell_length_b 9.165542
_cell_length_c 24.061745
_cell_angle_alpha 90.000000
_cell_angle_beta 151.188301
_cell_angle_gamma 90.000000
_cell_volume 3206.794011
_symmetry_space_group_name_H-M "C 2/M"
_symmetry_group_IT_number 12
_symmetry_cell_setting 'monoclinic'
loop_
_space_group_symop_operation_xyz
x,y,z
-x,y,-z
-x,-y,-z
x,-y,z
1/2+x,1/2+y,z
1/2-x,1/2+y,-z
1/2-x,1/2-y,-z
1/2+x,1/2-y,z
loop_
_atom_site_type_symbol
_atom_site_label
_atom_site_fract_x
_atom_site_fract_y
_atom_site_fract_z
Si Si1 0.113733 0.677165 0.509239
Si Si2 0.051592 0.836901 0.206194
Si Si3 0.069113 0.672266 0.849315
Si Si4 0.406656 0.825065 0.254362
Si Si5 0.732863 0.324682 0.237018
Si Si6 0.076226 0.337693 0.130679
Si Si7 0.268535 0.174592 0.883844
Si Si8 0.764844 0.335309 0.459793
O O1 0.117308 0.500000 0.510714
O O2 0.170455 0.717057 0.626842
O O3 0.168442 0.728376 0.514121
O O4 0.007123 0.717681 0.388157
O O5 0.025865 0.728484 0.128746
O O6 0.161503 0.843614 0.322991
O O7 0.016699 0.768444 0.225109
O O8 0.014476 0.000000 0.158264
O O9 0.047469 0.500000 0.829981
O O10 0.094396 0.700759 0.813237
O O11 0.151247 0.706151 0.982846
O O12 0.325802 0.736960 0.194566
O O13 0.394454 0.000000 0.249753
O O14 0.728678 0.500000 0.227544
O O15 0.654727 0.266739 0.192877
O O16 0.718468 0.250728 0.161518
O O17 0.113021 0.500000 0.183545
O O18 0.000000 0.348728 0.000000
O O19 0.265455 0.000000 0.873324
O O20 0.797125 0.500000 0.507891
O O21 0.750000 0.250000 0.500000
#
# Coordination Sequence:
#
# PCOD9198205 Si02
#       8
#     8   8   8   8   8   8   8   8
#     4   9  19  38  61  85 119 154 197 249 295 351
#     4  11  22  36  58  88 120 155 197 239 287 349
#     4  10  22  40  62  88 122 159 197 247 310 367
#     4  10  21  40  66  89 112 156 205 248 305 365
#     4  11  22  40  63  87 119 159 203 250 297 357
#     4  11  23  38  57  84 120 159 198 242 295 353
#     4  11  24  41  60  88 123 156 197 254 309 363
#     4  10  20  36  56  84 119 155 194 238 288 347
#
# _framework density 19.957626999999999
#
# number of rings (size 3 to 8) (size 9 to 14) (size 15 to 20)
#    0.000    1.625    1.250    3.375    0.000    8.000 
#    0.000    4.375    0.000    0.000    0.000    0.000 
#    0.000    0.000    0.000    0.000    0.000    0.000 
#
# Total GULP energy -178705.764257 kJ/mol
# GULP energy per Si atom -5584.555133 kJ/mol
# Density = 1.991220 g / cm^3
# Si number density = 19.957627 Si / 1000 Ang^3
#
#
#
# Elastic Constant Matrix: (Units=GPa)
#
#
# Indices 1 2 3 4 5 6 
#
# 1 71.8304 33.2894 15.1563 0.0000 0.1092 0.0000
# 2 33.2894 61.3830 19.7569 0.0000 -6.8169 0.0000
# 3 15.1563 19.7569 82.1442 0.0000 -1.5577 0.0000
# 4 0.0000 0.0000 0.0000 17.0787 0.0000 8.2110
# 5 0.1092 -6.8169 -1.5577 0.0000 37.0770 0.0000
# 6 0.0000 0.0000 0.0000 8.2110 0.0000 18.5313
#
#
#
# Elastic Compliance Matrix: (Units=1/GPa)
#
#
# Indices 1 2 3 4 5 6 
#
# 1 0.018823 -0.010075 -0.001087 0.000000 -0.001954 0.000000
# 2 -0.010075 0.023408 -0.003692 0.000000 0.004178 0.000000
# 3 -0.001087 -0.003692 0.013260 0.000000 -0.000118 0.000000
# 4 0.000000 0.000000 0.000000 0.074402 0.000000 -0.032967
# 5 -0.001954 0.004178 -0.000118 0.000000 0.027740 0.000000
# 6 0.000000 0.000000 0.000000 -0.032967 0.000000 0.068570
#
#
# Mechanical properties :
#
#
# Convention : Reuss Voigt Hill
#
# Bulk Modulus (GPa) = 38.78533 39.08477 38.93505
# Shear Modulus (GPa) = 18.90326 24.34774 21.62550
#
# Velocity S-wave (km/s) = 3.08095 3.49660 3.29533
# Velocity P-wave (km/s) = 5.66854 5.99400 5.83354
#
# Compressibility (1/GPa) = 0.02578295
#
# Stress axis : x y z
#
# Youngs Moduli (GPa) = 53.12539 42.72131 75.41547
#
# Poissons Ratio (x) = 0.43044 0.08196
# Poissons Ratio (y) = 0.53526 0.27841
# Poissons Ratio (z) = 0.05774 0.15771
#
# Static dielectric constant tensor:
#      x y z
#    x 1.681670 0.000000 -0.007630 
#    y 0.000000 1.706550 0.000000 
#    z -0.007630 0.000000 1.743170 
# 
# From -- ./inp_files/353508.got.cif
#   From: 2010.05.17/outbox.cif.g08.bks.cpg/sg12_177_cif.got.tgz:353508.got - 2010.06.03 13:09:07.
