data_PCOD9198423
_publ_section_title
;
Structure prediction by ZEFSAII (Michael W. Deem and Ramdas Pophale) SiO2 
 PCOD9198423
Probable space group: C 2/M
;
_chemical_formula_sum "Si O2"
_cell_formula_units_Z 64
_cell_length_a 23.498333
_cell_length_b 9.245496
_cell_length_c 15.332671
_cell_angle_alpha 90.000000
_cell_angle_beta 94.139476
_cell_angle_gamma 90.000000
_cell_volume 3322.390339
_symmetry_space_group_name_H-M "C 2/M"
_symmetry_group_IT_number 12
_symmetry_cell_setting 'monoclinic'
loop_
_space_group_symop_operation_xyz
x,y,z
-x,y,-z
-x,-y,-z
x,-y,z
1/2+x,1/2+y,z
1/2-x,1/2+y,-z
1/2-x,1/2-y,-z
1/2+x,1/2-y,z
loop_
_atom_site_type_symbol
_atom_site_label
_atom_site_fract_x
_atom_site_fract_y
_atom_site_fract_z
Si Si1 0.788749 0.170194 0.618121
Si Si2 0.796569 0.333268 0.791237
Si Si3 0.710784 0.672027 0.925686
Si Si4 0.583321 0.832501 0.117157
Si Si5 0.161196 0.672494 0.541310
Si Si6 0.419833 0.672504 0.060525
Si Si7 0.955377 0.174119 0.417065
Si Si8 0.496387 0.672572 0.769007
O O1 0.806023 0.223292 0.714779
O O2 0.824487 0.259148 0.551131
O O3 0.720789 0.199607 0.599265
O O4 0.797937 0.000000 0.605541
O O5 0.795392 0.500000 0.759006
O O6 0.737999 0.300635 0.834362
O O7 0.848348 0.323558 0.865407
O O8 0.714385 0.500000 0.941042
O O9 0.645235 0.714295 0.925809
O O10 0.750000 0.750000 0.000000
O O11 0.557480 0.759608 0.200720
O O12 0.566664 0.000000 0.111060
O O13 0.564299 0.750967 0.027610
O O14 0.152950 0.500000 0.535037
O O15 0.105027 0.747386 0.574228
O O16 0.423114 0.500000 0.045398
O O17 0.456937 0.703203 0.150315
O O18 0.981916 0.211394 0.325191
O O19 0.000000 0.209042 0.500000
O O20 0.946445 0.000000 0.417446
O O21 0.485051 0.500000 0.767917
#
# Coordination Sequence:
#
# PCOD9198423 Si02
#       8
#     8   8   8   8   8   8   8   8
#     4  10  22  39  62  91 120 156 199 241 291 356
#     4  10  22  37  57  87 121 155 194 241 299 355
#     4  10  20  36  57  83 116 153 191 234 290 348
#     4  11  23  39  59  87 121 157 198 249 301 348
#     4  10  22  41  63  90 122 155 193 244 303 353
#     4  10  21  38  61  86 115 158 202 243 296 355
#     4  10  23  42  64  91 120 157 203 249 297 358
#     4  10  23  41  61  86 117 156 202 249 296 352
#
# _framework density 19.26324
#
# number of rings (size 3 to 8) (size 9 to 14) (size 15 to 20)
#    0.000    1.875    1.250    1.500    3.500    5.750 
#    0.000    0.000    0.000    0.000    0.000    0.000 
#    0.000    0.000    0.000    0.000    0.000    0.000 
#
# Total GULP energy -178680.646362 kJ/mol
# GULP energy per Si atom -5583.770199 kJ/mol
# Density = 1.921940 g / cm^3
# Si number density = 19.263240 Si / 1000 Ang^3
#
#
#
# Elastic Constant Matrix: (Units=GPa)
#
#
# Indices 1 2 3 4 5 6 
#
# 1 86.2997 38.7852 38.7973 0.0000 -27.1843 0.0000
# 2 38.7852 37.6365 45.5090 0.0000 -10.1114 0.0000
# 3 38.7973 45.5090 112.9666 0.0000 -14.1810 0.0000
# 4 0.0000 0.0000 0.0000 18.6071 0.0000 -6.4411
# 5 -27.1843 -10.1114 -14.1810 0.0000 25.6685 0.0000
# 6 0.0000 0.0000 0.0000 -6.4411 0.0000 30.5351
#
#
#
# Elastic Compliance Matrix: (Units=1/GPa)
#
#
# Indices 1 2 3 4 5 6 
#
# 1 0.030755 -0.031676 0.005072 0.000000 0.022896 0.000000
# 2 -0.031676 0.086699 -0.025758 0.000000 -0.013625 0.000000
# 3 0.005072 -0.025758 0.018146 0.000000 0.005250 0.000000
# 4 0.000000 0.000000 0.000000 0.057976 0.000000 0.012229
# 5 0.022896 -0.013625 0.005250 0.000000 0.060740 0.000000
# 6 0.000000 0.000000 0.000000 0.012229 0.000000 0.035329
#
#
# Mechanical properties :
#
#
# Convention : Reuss Voigt Hill
#
# Bulk Modulus (GPa) = 32.38782 53.67620 43.03201
# Shear Modulus (GPa) = 12.35600 22.54958 17.45279
#
# Velocity S-wave (km/s) = 2.53539 3.42512 3.01327
# Velocity P-wave (km/s) = 5.04190 6.60053 5.87315
#
# Compressibility (1/GPa) = 0.03087580
#
# Stress axis : x y z
#
# Youngs Moduli (GPa) = 32.51452 11.53416 55.10852
#
# Poissons Ratio (x) = 0.36536 -0.27954
# Poissons Ratio (y) = 1.02994 1.41951
# Poissons Ratio (z) = -0.16493 0.29710
#
# Static dielectric constant tensor:
#      x y z
#    x 1.691230 0.000000 0.005630 
#    y 0.000000 1.648980 0.000000 
#    z 0.005630 0.000000 1.652500 
# 
# From -- ./inp_files/238773.got.cif
#   From: 2010.05.17/outbox.cif.g08.bks.cpg/sg12_120_cif.got.tgz:238773.got - 2010.06.03 13:09:07.
