data_PCOD9198221
_publ_section_title
;
Structure prediction by ZEFSAII (Michael W. Deem and Ramdas Pophale) SiO2 
 PCOD9198221
Probable space group: C 2/M
;
_chemical_formula_sum "Si O2"
_cell_formula_units_Z 50
_cell_length_a 27.351310
_cell_length_b 14.024759
_cell_length_c 8.081774
_cell_angle_alpha 90.000000
_cell_angle_beta 136.663213
_cell_angle_gamma 90.000000
_cell_volume 2127.575849
_symmetry_space_group_name_H-M "C 2/M"
_symmetry_group_IT_number 12
_symmetry_cell_setting 'monoclinic'
loop_
_space_group_symop_operation_xyz
x,y,z
-x,y,-z
-x,-y,-z
x,-y,z
1/2+x,1/2+y,z
1/2-x,1/2+y,-z
1/2-x,1/2-y,-z
1/2+x,1/2-y,z
loop_
_atom_site_type_symbol
_atom_site_label
_atom_site_fract_x
_atom_site_fract_y
_atom_site_fract_z
Si Si1 0.000000 0.500000 0.000000
Si Si2 0.279784 0.390136 0.633964
Si Si3 0.410930 0.144983 0.619291
Si Si4 0.805415 0.383917 0.884932
Si Si5 0.254276 0.109612 0.100854
Si Si6 0.925046 0.831919 0.854637
Si Si7 0.540345 0.198693 0.750893
O O1 0.063086 0.582259 0.163430
O O2 0.258236 0.500000 0.607528
O O3 0.222739 0.348869 0.363421
O O4 0.284776 0.348535 0.832503
O O5 0.354587 0.388640 0.723700
O O6 0.336843 0.113080 0.361776
O O7 0.408454 0.254485 0.670209
O O8 0.477536 0.128234 0.659554
O O9 0.802798 0.500000 0.878365
O O10 0.756230 0.350404 0.919017
O O11 0.886207 0.351951 0.112859
O O12 0.229488 0.000000 0.021217
O O13 0.941717 0.770580 0.059070
O O14 0.000000 0.882340 0.000000
O O15 0.500000 0.249265 0.500000
#
# Coordination Sequence:
#
# PCOD9198221 Si02
#       7
#     2   8   8   8   8   8   8
#     4  12  20  32  58  88 118 172 196 230 284 354
#     4  10  23  43  66  83 113 159 201 257 315 346
#     4  11  21  33  57  85 122 164 199 233 282 354
#     4  10  22  36  59  93 126 160 204 242 282 359
#     4  10  20  36  56  87 124 158 201 244 288 350
#     4  10  23  43  60  86 118 146 206 259 295 363
#     4  11  21  35  55  87 125 165 194 231 296 350
#
# _framework density 23.500924999999999
#
# number of rings (size 3 to 8) (size 9 to 14) (size 15 to 20)
#    0.000    1.600    4.800    0.960    1.120    3.200 
#    5.760    1.600    0.000    0.480    0.000    0.000 
#    0.000    0.000    0.000    0.000    0.000    0.000 
#
# Total GULP energy -139325.211785 kJ/mol
# GULP energy per Si atom -5573.008471 kJ/mol
# Density = 2.344744 g / cm^3
# Si number density = 23.500925 Si / 1000 Ang^3
#
#
#
# Elastic Constant Matrix: (Units=GPa)
#
#
# Indices 1 2 3 4 5 6 
#
# 1 138.2224 11.8899 15.8152 0.0000 4.4816 0.0000
# 2 11.8899 46.5204 -2.9902 0.0000 -5.2449 0.0000
# 3 15.8152 -2.9902 65.2021 0.0000 -0.4691 0.0000
# 4 0.0000 0.0000 0.0000 17.8210 0.0000 -2.1979
# 5 4.4816 -5.2449 -0.4691 0.0000 43.5935 0.0000
# 6 0.0000 0.0000 0.0000 -2.1979 0.0000 49.1840
#
#
#
# Elastic Compliance Matrix: (Units=1/GPa)
#
#
# Indices 1 2 3 4 5 6 
#
# 1 0.007686 -0.002213 -0.001973 0.000000 -0.001078 0.000000
# 2 -0.002213 0.022496 0.001590 0.000000 0.002951 0.000000
# 3 -0.001973 0.001590 0.015893 0.000000 0.000565 0.000000
# 4 0.000000 0.000000 0.000000 0.056425 0.000000 0.002521
# 5 -0.001078 0.002951 0.000565 0.000000 0.023411 0.000000
# 6 0.000000 0.000000 0.000000 0.002521 0.000000 0.020444
#
#
# Mechanical properties :
#
#
# Convention : Reuss Voigt Hill
#
# Bulk Modulus (GPa) = 24.46084 33.26385 28.86235
# Shear Modulus (GPa) = 30.27087 37.13504 33.70296
#
# Velocity S-wave (km/s) = 3.59287 3.97943 3.79108
# Velocity P-wave (km/s) = 5.25763 5.94133 5.60990
#
# Compressibility (1/GPa) = 0.04088167
#
# Stress axis : x y z
#
# Youngs Moduli (GPa) = 130.11015 44.45158 62.92247
#
# Poissons Ratio (x) = 0.09836 0.12418
# Poissons Ratio (y) = 0.28790 -0.10002
# Poissons Ratio (z) = 0.25677 -0.07066
#
# Static dielectric constant tensor:
#      x y z
#    x 2.062320 0.000000 -0.106490 
#    y 0.000000 1.992690 0.000000 
#    z -0.106490 0.000000 1.900720 
# 
# From -- ./inp_files/105835.got.cif
#   From: 2010.05.17/outbox.cif.g08.bks.cpg/sg12_53_cif.got.tgz:105835.got - 2010.06.03 13:09:07.
