data_PCOD9198583
_publ_section_title
;
Structure prediction by ZEFSAII (Michael W. Deem and Ramdas Pophale) SiO2 
 PCOD9198583
Probable space group: C 2/M
;
_chemical_formula_sum "Si O2"
_cell_formula_units_Z 48
_cell_length_a 27.946602
_cell_length_b 7.636849
_cell_length_c 15.719709
_cell_angle_alpha 90.000000
_cell_angle_beta 41.326810
_cell_angle_gamma 90.000000
_cell_volume 2215.460218
_symmetry_space_group_name_H-M "C 2/M"
_symmetry_group_IT_number 12
_symmetry_cell_setting 'monoclinic'
loop_
_space_group_symop_operation_xyz
x,y,z
-x,y,-z
-x,-y,-z
x,-y,z
1/2+x,1/2+y,z
1/2-x,1/2+y,-z
1/2-x,1/2-y,-z
1/2+x,1/2-y,z
loop_
_atom_site_type_symbol
_atom_site_label
_atom_site_fract_x
_atom_site_fract_y
_atom_site_fract_z
Si Si1 0.969111 0.714928 0.949962
Si Si2 0.221596 0.291306 0.443744
Si Si3 0.540486 0.711536 0.361014
Si Si4 0.805086 0.294027 0.163219
Si Si5 0.058309 0.708651 0.668520
Si Si6 0.794639 0.210556 0.855497
O O1 0.968481 0.500000 0.949870
O O2 0.020372 0.775447 0.804917
O O3 0.886546 0.777067 0.048743
O O4 0.000000 0.767987 0.000000
O O5 0.220726 0.500000 0.434671
O O6 0.250000 0.250000 0.500000
O O7 0.272834 0.222228 0.300609
O O8 0.139308 0.222065 0.544925
O O9 0.500000 0.773536 0.500000
O O10 0.542481 0.500000 0.361328
O O11 0.494330 0.760409 0.340263
O O12 0.623091 0.776942 0.248072
O O13 0.811624 0.500000 0.135234
O O14 0.749254 0.220910 0.167920
O O15 0.066139 0.500000 0.669247
O O16 0.799893 0.000000 0.840320
O O17 0.750000 0.250000 0.000000
#
# Coordination Sequence:
#
# PCOD9198583 Si02
#       6
#     8   8   8   8   8   8
#     4   9  17  32  55  80 106 138 178 223 268 317
#     4  11  23  38  58  84 113 145 182 226 275 330
#     4  10  21  37  56  79 109 145 184 227 277 329
#     4  10  20  36  58  81 109 147 186 227 276 326
#     4  10  21  37  58  83 108 141 186 228 269 321
#     4  10  21  36  56  82 112 149 189 229 277 331
#
# _framework density 21.665928000000001
#
# number of rings (size 3 to 8) (size 9 to 14) (size 15 to 20)
#    0.000    2.000    0.000    3.500    0.000    8.333 
#    0.000    0.833    0.000    2.000    0.000    0.000 
#    0.000    0.000    0.000    0.000    0.000    0.000 
#
# Total GULP energy -134170.816258 kJ/mol
# GULP energy per Si atom -5590.450677 kJ/mol
# Density = 2.161662 g / cm^3
# Si number density = 21.665928 Si / 1000 Ang^3
#
#
#
# Elastic Constant Matrix: (Units=GPa)
#
#
# Indices 1 2 3 4 5 6 
#
# 1 71.8156 -8.8528 -12.0321 -0.0057 -6.6820 -0.0005
# 2 -8.8528 37.9517 -8.5888 0.0405 -9.7767 -0.0004
# 3 -12.0321 -8.5888 85.5348 0.0202 -9.2951 -0.0011
# 4 -0.0057 0.0405 0.0202 110.2653 -0.0007 16.5371
# 5 -6.6820 -9.7767 -9.2951 -0.0007 49.3449 0.0003
# 6 -0.0005 -0.0004 -0.0011 16.5371 0.0003 20.7164
#
#
#
# Elastic Compliance Matrix: (Units=1/GPa)
#
#
# Indices 1 2 3 4 5 6 
#
# 1 0.015439 0.005262 0.003104 -0.000002 0.003718 0.000002
# 2 0.005262 0.030598 0.004644 -0.000014 0.007650 0.000012
# 3 0.003104 0.004644 0.013006 -0.000005 0.003790 0.000004
# 4 -0.000002 -0.000014 -0.000005 0.010302 -0.000004 -0.008224
# 5 0.003718 0.007650 0.003790 -0.000004 0.022999 0.000003
# 6 0.000002 0.000012 0.000004 -0.008224 0.000003 0.054836
#
#
# Mechanical properties :
#
#
# Convention : Reuss Voigt Hill
#
# Bulk Modulus (GPa) = 11.75599 15.15051 13.45325
# Shear Modulus (GPa) = 33.44141 51.05037 42.24589
#
# Velocity S-wave (km/s) = 3.93301 4.85939 4.42053
# Velocity P-wave (km/s) = 5.10515 6.20426 5.68134
#
# Compressibility (1/GPa) = 0.08506302
#
# Stress axis : x y z
#
# Youngs Moduli (GPa) = 64.77029 32.68162 76.88746
#
# Poissons Ratio (x) = -0.17196 -0.23867
# Poissons Ratio (y) = -0.34080 -0.35706
# Poissons Ratio (z) = -0.20106 -0.15177
#
# Static dielectric constant tensor:
#      x y z
#    x 1.749490 0.000000 -0.025090 
#    y 0.000000 1.829000 0.000000 
#    z -0.025090 0.000000 1.752980 
# 
# From -- ./inp_files/244666.got.cif
#   From: 2010.05.17/outbox.cif.g08.bks.cpg/sg12_123_cif.got.tgz:244666.got - 2010.06.03 13:09:07.
