data_PCOD9198127
_publ_section_title
;
Structure prediction by ZEFSAII (Michael W. Deem and Ramdas Pophale) SiO2 
 PCOD9198127
Probable space group: C 2/M
;
_chemical_formula_sum "Si O2"
_cell_formula_units_Z 56
_cell_length_a 35.612839
_cell_length_b 12.736973
_cell_length_c 7.734636
_cell_angle_alpha 90.000000
_cell_angle_beta 119.960335
_cell_angle_gamma 90.000000
_cell_volume 3039.602417
_symmetry_space_group_name_H-M "C 2/M"
_symmetry_group_IT_number 12
_symmetry_cell_setting 'monoclinic'
loop_
_space_group_symop_operation_xyz
x,y,z
-x,y,-z
-x,-y,-z
x,-y,z
1/2+x,1/2+y,z
1/2-x,1/2+y,-z
1/2-x,1/2-y,-z
1/2+x,1/2-y,z
loop_
_atom_site_type_symbol
_atom_site_label
_atom_site_fract_x
_atom_site_fract_y
_atom_site_fract_z
Si Si1 0.703957 0.269239 0.980210
Si Si2 0.160575 0.880566 0.585800
Si Si3 0.411828 0.269318 0.992837
Si Si4 0.818800 0.875532 0.735165
Si Si5 0.078707 0.731506 0.368331
Si Si6 0.999912 0.120238 0.708008
Si Si7 0.879494 0.376968 0.225140
O O1 0.683425 0.362944 0.819756
O O2 0.668915 0.174758 0.876798
O O3 0.750000 0.250000 0.000000
O O4 0.706687 0.306526 0.184038
O O5 0.189524 0.849700 0.485867
O O6 0.117157 0.814553 0.486572
O O7 0.148833 0.000000 0.530720
O O8 0.453063 0.342661 0.120696
O O9 0.403403 0.189527 0.130384
O O10 0.369039 0.341934 0.878881
O O11 0.419035 0.207156 0.829838
O O12 0.812506 0.000000 0.748226
O O13 0.092598 0.641915 0.535495
O O14 0.034715 0.793595 0.308813
O O15 0.000000 0.120799 0.500000
O O16 0.990166 0.000000 0.742041
O O17 0.876501 0.500000 0.180544
#
# Coordination Sequence:
#
# PCOD9198127 Si02
#       7
#     8   8   8   8   8   8   8
#     4  10  21  35  55  81 107 137 172 220 272 324
#     4   9  18  33  54  79 107 138 169 207 262 327
#     4  10  20  36  56  80 110 145 183 223 269 320
#     4   9  18  33  54  79 107 138 169 207 262 327
#     4  10  20  36  56  80 110 145 183 223 269 320
#     4  11  21  33  55  87 119 146 175 220 280 334
#     4  10  22  40  57  76 107 146 190 233 268 312
#
# _framework density 18.423463000000002
#
# number of rings (size 3 to 8) (size 9 to 14) (size 15 to 20)
#    0.000    2.143    1.429    1.714    0.000    4.571 
#    0.000    1.429    0.000    1.714    0.000    0.000 
#    0.000    0.000    0.000    0.000    0.000    0.000 
#
# Total GULP energy -156083.936438 kJ/mol
# GULP energy per Si atom -5574.426301 kJ/mol
# Density = 1.838153 g / cm^3
# Si number density = 18.423463 Si / 1000 Ang^3
#
#
#
# Elastic Constant Matrix: (Units=GPa)
#
#
# Indices 1 2 3 4 5 6 
#
# 1 74.1970 8.7051 -8.7283 0.0000 -3.7494 0.0000
# 2 8.7051 58.1381 -6.0195 0.0000 3.0505 0.0000
# 3 -8.7283 -6.0195 34.1638 0.0000 -13.0824 0.0000
# 4 0.0000 0.0000 0.0000 9.6935 0.0000 -6.1343
# 5 -3.7494 3.0505 -13.0824 0.0000 19.6567 0.0000
# 6 0.0000 0.0000 0.0000 -6.1343 0.0000 7.7416
#
#
#
# Elastic Compliance Matrix: (Units=1/GPa)
#
#
# Indices 1 2 3 4 5 6 
#
# 1 0.014806 -0.001954 0.006222 0.000000 0.007268 0.000000
# 2 -0.001954 0.017790 0.001926 0.000000 -0.001852 0.000000
# 3 0.006222 0.001926 0.042327 0.000000 0.029058 0.000000
# 4 0.000000 0.000000 0.000000 0.206923 0.000000 0.163963
# 5 0.007268 -0.001852 0.029058 0.000000 0.071886 0.000000
# 6 0.000000 0.000000 0.000000 0.163963 0.000000 0.259094
#
#
# Mechanical properties :
#
#
# Convention : Reuss Voigt Hill
#
# Bulk Modulus (GPa) = 11.45341 17.15703 14.30522
# Shear Modulus (GPa) = 7.94227 18.92113 13.43170
#
# Velocity S-wave (km/s) = 2.07854 3.20818 2.70303
# Velocity P-wave (km/s) = 3.46275 4.80167 4.18609
#
# Compressibility (1/GPa) = 0.08731027
#
# Stress axis : x y z
#
# Youngs Moduli (GPa) = 67.53981 56.21256 23.62553
#
# Poissons Ratio (x) = 0.10985 -0.14699
# Poissons Ratio (y) = 0.13198 -0.04551
# Poissons Ratio (z) = -0.42021 -0.10828
#
# Static dielectric constant tensor:
#      x y z
#    x 1.645310 0.000000 -0.032530 
#    y 0.000000 1.606070 0.000000 
#    z -0.032530 0.000000 1.674400 
# 
# From -- ./inp_files/110091.got.cif
#   From: 2010.05.17/outbox.cif.g08.bks.cpg/sg12_56_cif.got.tgz:110091.got - 2010.06.03 13:09:07.
