data_PCOD9198439
_publ_section_title
;
Structure prediction by ZEFSAII (Michael W. Deem and Ramdas Pophale) SiO2 
 PCOD9198439
Probable space group: C 2/M
;
_chemical_formula_sum "Si O2"
_cell_formula_units_Z 32
_cell_length_a 14.354290
_cell_length_b 8.570138
_cell_length_c 12.356957
_cell_angle_alpha 90.000000
_cell_angle_beta 90.424132
_cell_angle_gamma 90.000000
_cell_volume 1520.089529
_symmetry_space_group_name_H-M "C 2/M"
_symmetry_group_IT_number 12
_symmetry_cell_setting 'monoclinic'
loop_
_space_group_symop_operation_xyz
x,y,z
-x,y,-z
-x,-y,-z
x,-y,z
1/2+x,1/2+y,z
1/2-x,1/2+y,-z
1/2-x,1/2-y,-z
1/2+x,1/2-y,z
loop_
_atom_site_type_symbol
_atom_site_label
_atom_site_fract_x
_atom_site_fract_y
_atom_site_fract_z
Si Si1 0.690271 0.679564 0.236426
Si Si2 0.529795 0.685708 0.379839
Si Si3 0.675598 0.318553 0.915540
Si Si4 0.991198 0.320036 0.839270
O O1 0.719253 0.500000 0.226839
O O2 0.639773 0.707125 0.351376
O O3 0.772710 0.789535 0.199274
O O4 0.601094 0.713404 0.156923
O O5 0.500000 0.726352 0.500000
O O6 0.511125 0.500000 0.362256
O O7 0.480648 0.786987 0.286289
O O8 0.660300 0.500000 0.933222
O O9 0.577920 0.229059 0.911962
O O10 0.750000 0.250000 0.000000
O O11 0.966475 0.500000 0.854682
#
# Coordination Sequence:
#
# PCOD9198439 Si02
#       4
#     8   8   8   8
#     4   9  19  37  58  83 114 146 184 230 275 327
#     4   8  16  34  59  83 112 148 183 225 276 326
#     4  12  24  39  58  82 111 147 188 231 279 330
#     4  10  20  36  57  84 115 147 185 228 274 329
#
# _framework density 21.051392
#
# number of rings (size 3 to 8) (size 9 to 14) (size 15 to 20)
#    1.500    0.750    0.000    4.500    0.000    1.500 
#    0.000    6.250    0.000    0.000    0.000    0.000 
#    0.000    0.000    0.000    0.000    0.000    0.000 
#
# Total GULP energy -89161.611766 kJ/mol
# GULP energy per Si atom -5572.600735 kJ/mol
# Density = 2.100348 g / cm^3
# Si number density = 21.051392 Si / 1000 Ang^3
#
#
#
# Elastic Constant Matrix: (Units=GPa)
#
#
# Indices 1 2 3 4 5 6 
#
# 1 56.2849 -5.2099 -2.9820 0.0000 -9.8354 0.0000
# 2 -5.2099 76.3770 3.6140 0.0000 -1.1968 0.0000
# 3 -2.9820 3.6140 68.5356 0.0000 -18.3680 0.0000
# 4 0.0000 0.0000 0.0000 29.8500 0.0000 -3.3466
# 5 -9.8354 -1.1968 -18.3680 0.0000 25.3792 0.0000
# 6 0.0000 0.0000 0.0000 -3.3466 0.0000 28.3613
#
#
#
# Elastic Compliance Matrix: (Units=1/GPa)
#
#
# Indices 1 2 3 4 5 6 
#
# 1 0.019890 0.001350 0.003570 0.000000 0.010355 0.000000
# 2 0.001350 0.013218 -0.000411 0.000000 0.000849 0.000000
# 3 0.003570 -0.000411 0.018775 0.000000 0.014952 0.000000
# 4 0.000000 0.000000 0.000000 0.033950 0.000000 0.004006
# 5 0.010355 0.000849 0.014952 0.000000 0.054277 0.000000
# 6 0.000000 0.000000 0.000000 0.004006 0.000000 0.035732
#
#
# Mechanical properties :
#
#
# Convention : Reuss Voigt Hill
#
# Bulk Modulus (GPa) = 16.41991 21.33796 18.87893
# Shear Modulus (GPa) = 26.72010 30.43647 28.57828
#
# Velocity S-wave (km/s) = 3.56656 3.80652 3.68849
# Velocity P-wave (km/s) = 4.97768 5.42932 5.20840
#
# Compressibility (1/GPa) = 0.06090167
#
# Stress axis : x y z
#
# Youngs Moduli (GPa) = 50.27556 75.65569 53.26149
#
# Poissons Ratio (x) = -0.10215 -0.19012
# Poissons Ratio (y) = -0.06788 0.02187
# Poissons Ratio (z) = -0.17946 0.03106
#
# Static dielectric constant tensor:
#      x y z
#    x 1.762480 0.000000 -0.054880 
#    y 0.000000 1.694750 0.000000 
#    z -0.054880 0.000000 1.897090 
# 
# From -- ./inp_files/138353.got.cif
#   From: 2010.05.17/outbox.cif.g08.bks.cpg/sg12_70_cif.got.tgz:138353.got - 2010.06.03 13:09:07.
