data_PCOD9198411
_publ_section_title
;
Structure prediction by ZEFSAII (Michael W. Deem and Ramdas Pophale) SiO2 
 PCOD9198411
Probable space group: C 2/M
;
_chemical_formula_sum "Si O2"
_cell_formula_units_Z 40
_cell_length_a 15.083206
_cell_length_b 26.767275
_cell_length_c 5.363317
_cell_angle_alpha 90.000000
_cell_angle_beta 56.140476
_cell_angle_gamma 90.000000
_cell_volume 1798.133020
_symmetry_space_group_name_H-M "C 2/M"
_symmetry_group_IT_number 12
_symmetry_cell_setting 'monoclinic'
loop_
_space_group_symop_operation_xyz
x,y,z
-x,y,-z
-x,-y,-z
x,-y,z
1/2+x,1/2+y,z
1/2-x,1/2+y,-z
1/2-x,1/2-y,-z
1/2+x,1/2-y,z
loop_
_atom_site_type_symbol
_atom_site_label
_atom_site_fract_x
_atom_site_fract_y
_atom_site_fract_z
Si Si1 0.371690 0.725113 0.710632
Si Si2 0.626682 0.104768 0.821218
Si Si3 0.128784 0.281554 0.787960
Si Si4 0.812734 0.111054 0.852164
Si Si5 0.174714 0.057621 0.664965
O O1 0.500000 0.723752 0.500000
O O2 0.342215 0.744239 0.480769
O O3 0.335551 0.669376 0.829156
O O4 0.342296 0.762894 0.980305
O O5 0.658536 0.161032 0.683075
O O6 0.684717 0.102947 0.002167
O O7 0.696176 0.064752 0.561292
O O8 0.500000 0.098644 0.000000
O O9 0.000000 0.282962 0.000000
O O10 0.863085 0.087814 0.520372
O O11 0.853878 0.083268 0.031164
O O12 0.144765 0.000000 0.702122
#
# Coordination Sequence:
#
# PCOD9198411 Si02
#       5
#     8   8   8   8   8
#     4  10  20  36  57  83 114 148 179 216 270 329
#     4   9  22  38  56  83 113 146 185 222 268 325
#     4   9  19  33  54  82 117 147 176 220 264 319
#     4  10  22  37  58  83 106 150 180 229 271 323
#     4  10  22  40  58  80 110 143 183 235 282 314
#
# _framework density 22.245294999999999
#
# number of rings (size 3 to 8) (size 9 to 14) (size 15 to 20)
#    1.200    1.200    0.000    1.800    2.800    2.800 
#    0.000    1.000    0.000    3.600    0.000    0.000 
#    0.000    0.000    0.000    0.000    0.000    0.000 
#
# Total GULP energy -111579.859859 kJ/mol
# GULP energy per Si atom -5578.992993 kJ/mol
# Density = 2.219466 g / cm^3
# Si number density = 22.245295 Si / 1000 Ang^3
#
#
#
# Elastic Constant Matrix: (Units=GPa)
#
#
# Indices 1 2 3 4 5 6 
#
# 1 56.8866 3.3456 26.4782 0.0000 21.6088 0.0000
# 2 3.3456 125.0372 32.9657 0.0000 27.0741 0.0000
# 3 26.4782 32.9657 84.2485 0.0000 24.4857 0.0000
# 4 0.0000 0.0000 0.0000 31.6335 0.0000 2.7120
# 5 21.6088 27.0741 24.4857 0.0000 44.7141 0.0000
# 6 0.0000 0.0000 0.0000 2.7120 0.0000 13.2890
#
#
#
# Elastic Compliance Matrix: (Units=1/GPa)
#
#
# Indices 1 2 3 4 5 6 
#
# 1 0.024000 0.003113 -0.005759 0.000000 -0.010330 0.000000
# 2 0.003113 0.010019 -0.003209 0.000000 -0.005814 0.000000
# 3 -0.005759 -0.003209 0.016129 0.000000 -0.004106 0.000000
# 4 0.000000 0.000000 0.000000 0.032175 0.000000 -0.006566
# 5 -0.010330 -0.005814 -0.004106 0.000000 0.033125 0.000000
# 6 0.000000 0.000000 0.000000 -0.006566 0.000000 0.076590
#
#
# Mechanical properties :
#
#
# Convention : Reuss Voigt Hill
#
# Bulk Modulus (GPa) = 26.01614 43.52791 34.77203
# Shear Modulus (GPa) = 23.08822 31.48618 27.28720
#
# Velocity S-wave (km/s) = 3.22513 3.76627 3.50616
# Velocity P-wave (km/s) = 5.05857 6.20667 5.66180
#
# Compressibility (1/GPa) = 0.03843768
#
# Stress axis : x y z
#
# Youngs Moduli (GPa) = 41.66667 99.80843 62.00175
#
# Poissons Ratio (x) = -0.31068 0.35705
# Poissons Ratio (y) = -0.12970 0.19897
# Poissons Ratio (z) = 0.23995 0.32030
#
# Static dielectric constant tensor:
#      x y z
#    x 1.927340 0.000000 -0.044040 
#    y 0.000000 1.740190 0.000000 
#    z -0.044040 0.000000 1.824950 
# 
# From -- ./inp_files/16519.got.cif
#   From: 2010.05.17/outbox.cif.g08.bks.cpg/sg12_9_cif.got.tgz:16519.got - 2010.06.03 13:09:07.
