data_PCOD9198612
_publ_section_title
;
Structure prediction by ZEFSAII (Michael W. Deem and Ramdas Pophale) SiO2 
 PCOD9198612
Probable space group: C 2/M
;
_chemical_formula_sum "Si O2"
_cell_formula_units_Z 48
_cell_length_a 19.624993
_cell_length_b 9.078804
_cell_length_c 12.093973
_cell_angle_alpha 90.000000
_cell_angle_beta 83.355094
_cell_angle_gamma 90.000000
_cell_volume 2140.325748
_symmetry_space_group_name_H-M "C 2/M"
_symmetry_group_IT_number 12
_symmetry_cell_setting 'monoclinic'
loop_
_space_group_symop_operation_xyz
x,y,z
-x,y,-z
-x,-y,-z
x,-y,z
1/2+x,1/2+y,z
1/2-x,1/2+y,-z
1/2-x,1/2-y,-z
1/2+x,1/2-y,z
loop_
_atom_site_type_symbol
_atom_site_label
_atom_site_fract_x
_atom_site_fract_y
_atom_site_fract_z
Si Si1 0.606415 0.326564 0.419721
Si Si2 0.455852 0.328625 0.338715
Si Si3 0.503196 0.173317 0.122486
Si Si4 0.840098 0.671571 0.921056
Si Si5 0.286923 0.827899 0.165859
Si Si6 0.242391 0.326112 0.382305
O O1 0.626986 0.500000 0.411665
O O2 0.533353 0.315813 0.373153
O O3 0.592533 0.284098 0.550458
O O4 0.665483 0.223278 0.361946
O O5 0.442719 0.500000 0.319854
O O6 0.456146 0.241525 0.225217
O O7 0.583463 0.189709 0.137948
O O8 0.487280 0.000000 0.118498
O O9 0.500000 0.238167 0.000000
O O10 0.818684 0.500000 0.907685
O O11 0.785052 0.779455 0.877563
O O12 0.839530 0.694883 0.054481
O O13 0.291839 0.734816 0.276947
O O14 0.286427 0.000000 0.194366
O O15 0.249058 0.500000 0.390760
O O16 0.250000 0.250000 0.500000
#
# Coordination Sequence:
#
# PCOD9198612 Si02
#       6
#     8   8   8   8   8   8
#     4   9  19  38  60  83 111 141 178 226 277 326
#     4   9  19  36  59  84 110 142 180 224 273 326
#     4  10  21  35  51  76 111 146 180 222 269 317
#     4   9  19  36  57  81 109 143 184 227 272 324
#     4  10  20  36  58  82 109 142 183 229 275 323
#     4  12  25  39  56  81 113 148 186 227 277 333
#
# _framework density 22.426493000000001
#
# number of rings (size 3 to 8) (size 9 to 14) (size 15 to 20)
#    0.000    2.167    0.000    4.000    0.000    7.000 
#    0.000    3.333    0.000    0.000    0.000    0.000 
#    0.000    0.000    0.000    0.000    0.000    0.000 
#
# Total GULP energy -134199.594630 kJ/mol
# GULP energy per Si atom -5591.649776 kJ/mol
# Density = 2.237545 g / cm^3
# Si number density = 22.426493 Si / 1000 Ang^3
#
#
#
# Elastic Constant Matrix: (Units=GPa)
#
#
# Indices 1 2 3 4 5 6 
#
# 1 45.8020 18.7694 8.0031 0.0000 -12.3713 0.0000
# 2 18.7694 80.5693 58.5019 0.0000 -15.8277 0.0000
# 3 8.0031 58.5019 149.1269 0.0000 -17.7557 0.0000
# 4 0.0000 0.0000 0.0000 40.7207 0.0000 1.0610
# 5 -12.3713 -15.8277 -17.7557 0.0000 38.9637 0.0000
# 6 0.0000 0.0000 0.0000 1.0610 0.0000 16.7452
#
#
#
# Elastic Compliance Matrix: (Units=1/GPa)
#
#
# Indices 1 2 3 4 5 6 
#
# 1 0.025745 -0.005978 0.001742 0.000000 0.006540 0.000000
# 2 -0.005978 0.019410 -0.006958 0.000000 0.002816 0.000000
# 3 0.001742 -0.006958 0.009592 0.000000 0.002097 0.000000
# 4 0.000000 0.000000 0.000000 0.024598 0.000000 -0.001559
# 5 0.006540 0.002816 0.002097 0.000000 0.029841 0.000000
# 6 0.000000 0.000000 0.000000 -0.001559 0.000000 0.059817
#
#
# Mechanical properties :
#
#
# Convention : Reuss Voigt Hill
#
# Bulk Modulus (GPa) = 30.90391 49.56077 40.23234
# Shear Modulus (GPa) = 24.73081 31.96751 28.34916
#
# Velocity S-wave (km/s) = 3.32437 3.77959 3.55927
# Velocity P-wave (km/s) = 5.34278 6.41827 5.90506
#
# Compressibility (1/GPa) = 0.03235837
#
# Stress axis : x y z
#
# Youngs Moduli (GPa) = 38.84281 51.52007 104.25694
#
# Poissons Ratio (x) = 0.30797 -0.18162
# Poissons Ratio (y) = 0.23219 0.72546
# Poissons Ratio (z) = -0.06767 0.35850
#
# Static dielectric constant tensor:
#      x y z
#    x 1.882830 0.000000 0.043310 
#    y 0.000000 1.751000 0.000000 
#    z 0.043310 0.000000 1.869540 
# 
# From -- ./inp_files/172173.got.cif
#   From: 2010.05.17/outbox.cif.g08.bks.cpg/sg12_87_cif.got.tgz:172173.got - 2010.06.03 13:09:07.
