data_PCOD9198500
_publ_section_title
;
Structure prediction by ZEFSAII (Michael W. Deem and Ramdas Pophale) SiO2 
 PCOD9198500
Probable space group: C 2/M
;
_chemical_formula_sum "Si O2"
_cell_formula_units_Z 60
_cell_length_a 18.804452
_cell_length_b 23.484491
_cell_length_c 13.140047
_cell_angle_alpha 90.000000
_cell_angle_beta 27.989357
_cell_angle_gamma 90.000000
_cell_volume 2723.305017
_symmetry_space_group_name_H-M "C 2/M"
_symmetry_group_IT_number 12
_symmetry_cell_setting 'monoclinic'
loop_
_space_group_symop_operation_xyz
x,y,z
-x,y,-z
-x,-y,-z
x,-y,z
1/2+x,1/2+y,z
1/2-x,1/2+y,-z
1/2-x,1/2-y,-z
1/2+x,1/2-y,z
loop_
_atom_site_type_symbol
_atom_site_label
_atom_site_fract_x
_atom_site_fract_y
_atom_site_fract_z
Si Si1 0.680865 0.564714 0.967016
Si Si2 0.032505 0.772340 0.854102
Si Si3 0.690499 0.312285 0.453991
Si Si4 0.698677 0.793252 0.977358
Si Si5 0.500000 0.308899 0.500000
Si Si6 0.345483 0.565901 0.451270
Si Si7 0.035377 0.355370 0.347172
Si Si8 0.254336 0.934997 0.655422
O O1 0.738401 0.500000 0.909483
O O2 0.809458 0.609684 0.831884
O O3 0.644852 0.570126 0.891788
O O4 0.527735 0.570677 0.223848
O O5 0.157864 0.724093 0.721092
O O6 0.096195 0.806649 0.678257
O O7 0.000000 0.805088 0.000000
O O8 0.877240 0.743170 0.015269
O O9 0.586359 0.288091 0.494302
O O10 0.718618 0.380190 0.405249
O O11 0.842277 0.829184 0.755563
O O12 0.750000 0.750000 0.000000
O O13 0.563205 0.824821 0.205651
O O14 0.305052 0.500000 0.530467
O O15 0.301027 0.574139 0.388920
O O16 0.000000 0.323636 0.500000
O O17 0.893505 0.395250 0.507780
O O18 0.308858 0.000000 0.588856
#
# Coordination Sequence:
#
# PCOD9198500 Si02
#       8
#     8   8   8   8   4   8   8   8
#     4   9  17  30  52  85 123 160 197 246 313 375
#     4  11  24  44  66  95 128 162 212 272 325 384
#     4  11  24  42  67  97 125 171 214 262 325 380
#     4  12  25  41  62  90 126 166 210 259 321 380
#     4  12  24  44  67  90 130 168 215 264 318 386
#     4  10  20  36  57  87 127 165 209 257 309 377
#     4  10  21  36  58  88 122 159 205 255 308 375
#     4   9  17  32  55  84 120 159 198 251 312 371
#
# _framework density 22.032052
#
# number of rings (size 3 to 8) (size 9 to 14) (size 15 to 20)
#    0.000    1.600    2.667    2.400    0.933    4.267 
#    2.400    0.333    0.000    2.000    0.000    0.000 
#    0.000    0.000    0.000    0.000    0.000    0.000 
#
# Total GULP energy -167182.806806 kJ/mol
# GULP energy per Si atom -5572.760227 kJ/mol
# Density = 2.198191 g / cm^3
# Si number density = 22.032052 Si / 1000 Ang^3
#
#
#
# Elastic Constant Matrix: (Units=GPa)
#
#
# Indices 1 2 3 4 5 6 
#
# 1 100.4907 20.5214 13.5327 -0.0202 6.4937 0.0010
# 2 20.5214 73.0822 6.3465 -0.0043 4.6712 0.0048
# 3 13.5327 6.3465 60.8181 -0.0180 15.5284 0.0067
# 4 -0.0202 -0.0043 -0.0180 22.6186 0.0175 1.1606
# 5 6.4937 4.6712 15.5284 0.0175 35.0638 -0.0089
# 6 0.0010 0.0048 0.0067 1.1606 -0.0089 28.4066
#
#
#
# Elastic Compliance Matrix: (Units=1/GPa)
#
#
# Indices 1 2 3 4 5 6 
#
# 1 0.010837 -0.002827 -0.001917 0.000008 -0.000782 0.000000
# 2 -0.002827 0.014603 -0.000600 0.000001 -0.001156 -0.000003
# 3 -0.001917 -0.000600 0.018965 0.000020 -0.007964 -0.000008
# 4 0.000008 0.000001 0.000020 0.044304 -0.000033 -0.001810
# 5 -0.000782 -0.001156 -0.007964 -0.000033 0.032345 0.000014
# 6 0.000000 -0.000003 -0.000008 -0.001810 0.000014 0.035277
#
#
# Mechanical properties :
#
#
# Convention : Reuss Voigt Hill
#
# Bulk Modulus (GPa) = 29.65711 35.02136 32.33924
# Shear Modulus (GPa) = 28.04934 30.15049 29.09992
#
# Velocity S-wave (km/s) = 3.57194 3.70331 3.63822
# Velocity P-wave (km/s) = 5.52285 5.84946 5.68850
#
# Compressibility (1/GPa) = 0.03371872
#
# Stress axis : x y z
#
# Youngs Moduli (GPa) = 92.27612 68.47951 52.72876
#
# Poissons Ratio (x) = 0.19357 0.10107
# Poissons Ratio (y) = 0.26083 0.03162
# Poissons Ratio (z) = 0.17688 0.04106
#
# Static dielectric constant tensor:
#      x y z
#    x 1.798730 -0.000020 0.015310 
#    y -0.000020 1.888780 -0.000100 
#    z 0.015310 -0.000100 1.344140 
# 
# From -- ./inp_files/160895.got.cif
#   From: 2010.05.17/outbox.cif.g08.bks.cpg/sg12_81_cif.got.tgz:160895.got - 2010.06.03 13:09:07.
