data_PCOD9198642
_publ_section_title
;
Structure prediction by ZEFSAII (Michael W. Deem and Ramdas Pophale) SiO2 
 PCOD9198642
Probable space group: C 2/M
;
_chemical_formula_sum "Si O2"
_cell_formula_units_Z 32
_cell_length_a 13.989268
_cell_length_b 7.870337
_cell_length_c 25.408430
_cell_angle_alpha 90.000000
_cell_angle_beta 33.818469
_cell_angle_gamma 90.000000
_cell_volume 1556.972107
_symmetry_space_group_name_H-M "C 2/M"
_symmetry_group_IT_number 12
_symmetry_cell_setting 'monoclinic'
loop_
_space_group_symop_operation_xyz
x,y,z
-x,y,-z
-x,-y,-z
x,-y,z
1/2+x,1/2+y,z
1/2-x,1/2+y,-z
1/2-x,1/2-y,-z
1/2+x,1/2-y,z
loop_
_atom_site_type_symbol
_atom_site_label
_atom_site_fract_x
_atom_site_fract_y
_atom_site_fract_z
Si Si1 0.177753 0.196353 0.277629
Si Si2 0.309682 0.795845 0.100640
Si Si3 0.717032 0.500000 0.624573
Si Si4 0.503550 0.000000 0.587147
Si Si5 0.546711 0.189212 0.755031
O O1 0.259355 0.240445 0.184059
O O2 0.037464 0.332291 0.360387
O O3 0.331006 0.205203 0.250443
O O4 0.117344 0.000000 0.304471
O O5 0.152190 0.718372 0.140083
O O6 0.307137 0.000000 0.094722
O O7 0.500000 0.734581 0.000000
O O8 0.864125 0.500000 0.602912
O O9 0.604235 0.333812 0.687859
O O10 0.813460 0.500000 0.525093
O O11 0.569366 0.000000 0.722820
#
# Coordination Sequence:
#
# PCOD9198642 Si02
#       5
#     8   8   4   4   8
#     4   9  20  37  56  82 115 145 183 230 272 325
#     4  10  21  38  59  81 113 150 183 229 279 326
#     4   9  18  36  57  84 111 143 186 229 274 326
#     4   9  18  34  61  82 107 149 186 223 278 326
#     4  10  20  36  58  82 113 147 183 229 274 325
#
# _framework density 20.552714000000002
#
# number of rings (size 3 to 8) (size 9 to 14) (size 15 to 20)
#    0.000    2.500    1.250    0.000    1.750    2.500 
#    0.000    6.250    0.000    0.000    0.000    0.000 
#    0.000    0.000    0.000    0.000    0.000    0.000 
#
# Total GULP energy -89370.329813 kJ/mol
# GULP energy per Si atom -5585.645613 kJ/mol
# Density = 2.050593 g / cm^3
# Si number density = 20.552714 Si / 1000 Ang^3
#
#
#
# Elastic Constant Matrix: (Units=GPa)
#
#
# Indices 1 2 3 4 5 6 
#
# 1 47.9893 17.7698 12.9310 0.0000 -5.5460 0.0001
# 2 17.7698 74.6409 31.8894 0.0000 4.2764 0.0001
# 3 12.9310 31.8894 91.2427 0.0000 -8.5452 0.0000
# 4 0.0000 0.0000 0.0000 15.3552 0.0000 4.8637
# 5 -5.5460 4.2764 -8.5452 0.0000 28.9558 0.0000
# 6 0.0001 0.0001 0.0000 4.8637 0.0000 18.0795
#
#
#
# Elastic Compliance Matrix: (Units=1/GPa)
#
#
# Indices 1 2 3 4 5 6 
#
# 1 0.023731 -0.005533 -0.000953 0.000000 0.005081 0.000000
# 2 -0.005533 0.017518 -0.005841 0.000000 -0.005371 0.000000
# 3 -0.000953 -0.005841 0.013575 0.000000 0.004686 0.000000
# 4 0.000000 0.000000 0.000000 0.071190 0.000000 -0.019151
# 5 0.005081 -0.005371 0.004686 0.000000 0.037685 0.000000
# 6 0.000000 0.000000 0.000000 -0.019151 0.000000 0.060463
#
#
# Mechanical properties :
#
#
# Convention : Reuss Voigt Hill
#
# Bulk Modulus (GPa) = 33.14757 37.67258 35.41007
# Shear Modulus (GPa) = 19.31431 22.56363 20.93897
#
# Velocity S-wave (km/s) = 3.06885 3.31696 3.19532
# Velocity P-wave (km/s) = 5.35912 5.74797 5.55695
#
# Compressibility (1/GPa) = 0.03016813
#
# Stress axis : x y z
#
# Youngs Moduli (GPa) = 42.13891 57.08339 73.66285
#
# Poissons Ratio (x) = 0.31587 0.07023
# Poissons Ratio (y) = 0.23317 0.43030
# Poissons Ratio (z) = 0.04017 0.33345
#
# Static dielectric constant tensor:
#      x y z
#    x 1.773030 0.000000 -0.019130 
#    y 0.000000 1.731670 0.000000 
#    z -0.019130 0.000000 1.683260 
# 
# From -- ./inp_files/210340.got.cif
#   From: 2010.05.17/outbox.cif.g08.bks.cpg/sg12_106_cif.got.tgz:210340.got - 2010.06.03 13:09:07.
