data_PCOD9198033
_publ_section_title
;
Structure prediction by ZEFSAII (Michael W. Deem and Ramdas Pophale) SiO2 
 PCOD9198033
Probable space group: C 2/M
;
_chemical_formula_sum "Si O2"
_cell_formula_units_Z 40
_cell_length_a 34.782483
_cell_length_b 10.762710
_cell_length_c 5.122953
_cell_angle_alpha 90.000000
_cell_angle_beta 89.625408
_cell_angle_gamma 90.000000
_cell_volume 1917.755821
_symmetry_space_group_name_H-M "C 2/M"
_symmetry_group_IT_number 12
_symmetry_cell_setting 'monoclinic'
loop_
_space_group_symop_operation_xyz
x,y,z
-x,y,-z
-x,-y,-z
x,-y,z
1/2+x,1/2+y,z
1/2-x,1/2+y,-z
1/2-x,1/2-y,-z
1/2+x,1/2-y,z
loop_
_atom_site_type_symbol
_atom_site_label
_atom_site_fract_x
_atom_site_fract_y
_atom_site_fract_z
Si Si1 0.295112 0.256899 0.425358
Si Si2 0.273261 0.500000 0.178883
Si Si3 0.856248 0.144313 0.787233
Si Si4 0.219573 0.500000 0.687220
Si Si5 0.408703 0.354345 0.275624
Si Si6 0.027471 0.359059 0.748974
O O1 0.250000 0.250000 0.500000
O O2 0.297613 0.377342 0.241595
O O3 0.320717 0.277065 0.679010
O O4 0.303924 0.126716 0.288712
O O5 0.239072 0.500000 0.398410
O O6 0.253257 0.500000 0.900343
O O7 0.888177 0.153386 0.556598
O O8 0.843734 0.000000 0.797036
O O9 0.877395 0.175773 0.053834
O O10 0.420632 0.500000 0.235454
O O11 0.442088 0.252584 0.255897
O O12 0.044609 0.500000 0.749649
O O13 0.000000 0.349694 0.500000
O O14 0.000000 0.348253 0.000000
#
# Coordination Sequence:
#
# PCOD9198033 Si02
#       6
#     8   4   8   4   8   8
#     4  10  21  39  58  82 110 151 200 251 294 346
#     4  10  20  36  56  74 104 142 178 240 300 340
#     4  10  21  39  59  82 116 159 194 241 299 349
#     4  10  22  34  52  82 104 130 188 246 292 338
#     4  10  22  39  61  89 119 153 197 236 284 344
#     4  10  21  39  64  93 124 158 189 226 281 344
#
# _framework density 20.857710999999998
#
# number of rings (size 3 to 8) (size 9 to 14) (size 15 to 20)
#    0.000    2.000    1.000    1.800    0.000    7.200 
#    3.600    0.000    0.000    0.000    0.000    0.000 
#    0.000    0.000    0.000    0.000    0.000    0.000 
#
# Total GULP energy -111801.934990 kJ/mol
# GULP energy per Si atom -5590.096749 kJ/mol
# Density = 2.081024 g / cm^3
# Si number density = 20.857711 Si / 1000 Ang^3
#
#
#
# Elastic Constant Matrix: (Units=GPa)
#
#
# Indices 1 2 3 4 5 6 
#
# 1 86.1573 59.5730 29.5460 0.0000 9.5230 0.0000
# 2 59.5730 174.5433 24.3131 0.0000 18.8114 0.0000
# 3 29.5460 24.3131 88.8968 0.0000 1.3081 0.0000
# 4 0.0000 0.0000 0.0000 27.6286 0.0000 10.9121
# 5 9.5230 18.8114 1.3081 0.0000 28.4945 0.0000
# 6 0.0000 0.0000 0.0000 10.9121 0.0000 35.1986
#
#
#
# Elastic Compliance Matrix: (Units=1/GPa)
#
#
# Indices 1 2 3 4 5 6 
#
# 1 0.016639 -0.004866 -0.004168 0.000000 -0.002157 0.000000
# 2 -0.004866 0.007836 -0.000474 0.000000 -0.003525 0.000000
# 3 -0.004168 -0.000474 0.012747 0.000000 0.001121 0.000000
# 4 0.000000 0.000000 0.000000 0.041244 0.000000 -0.012786
# 5 -0.002157 -0.003525 0.001121 0.000000 0.038091 0.000000
# 6 0.000000 0.000000 0.000000 -0.012786 0.000000 0.032374
#
#
# Mechanical properties :
#
#
# Convention : Reuss Voigt Hill
#
# Bulk Modulus (GPa) = 54.92370 64.05128 59.48749
# Shear Modulus (GPa) = 28.73302 34.00871 31.37086
#
# Velocity S-wave (km/s) = 3.71559 4.04234 3.88240
# Velocity P-wave (km/s) = 6.69307 7.25001 6.97710
#
# Compressibility (1/GPa) = 0.01820708
#
# Stress axis : x y z
#
# Youngs Moduli (GPa) = 60.10042 127.61646 78.44813
#
# Poissons Ratio (x) = 0.62098 0.32694
# Poissons Ratio (y) = 0.29245 0.03718
# Poissons Ratio (z) = 0.25047 0.06049
#
# Static dielectric constant tensor:
#      x y z
#    x 1.776280 0.000000 -0.054540 
#    y 0.000000 1.829090 0.000000 
#    z -0.054540 0.000000 1.735460 
# 
# From -- ./inp_files/30944.got.cif
#   From: 2010.05.17/outbox.cif.g08.bks.cpg/sg12_16_cif.got.tgz:30944.got - 2010.06.03 13:09:07.
