data_PCOD9198841
_publ_section_title
;
Structure prediction by ZEFSAII (Michael W. Deem and Ramdas Pophale) SiO2 
 PCOD9198841
Probable space group: C 2/M
;
_chemical_formula_sum "Si O2"
_cell_formula_units_Z 56
_cell_length_a 28.090496
_cell_length_b 8.441109
_cell_length_c 18.093694
_cell_angle_alpha 90.000000
_cell_angle_beta 141.321265
_cell_angle_gamma 90.000000
_cell_volume 2681.226403
_symmetry_space_group_name_H-M "C 2/M"
_symmetry_group_IT_number 12
_symmetry_cell_setting 'monoclinic'
loop_
_space_group_symop_operation_xyz
x,y,z
-x,y,-z
-x,-y,-z
x,-y,z
1/2+x,1/2+y,z
1/2-x,1/2+y,-z
1/2-x,1/2-y,-z
1/2+x,1/2-y,z
loop_
_atom_site_type_symbol
_atom_site_label
_atom_site_fract_x
_atom_site_fract_y
_atom_site_fract_z
Si Si1 0.787044 0.810403 0.622360
Si Si2 0.860788 0.315388 0.469213
Si Si3 0.259200 0.188245 0.928881
Si Si4 0.392089 0.688317 0.348016
Si Si5 0.483876 0.315402 0.318713
Si Si6 0.456363 0.192041 0.870520
Si Si7 0.920012 0.312870 0.095365
O O1 0.750000 0.750000 0.500000
O O2 0.723222 0.768295 0.606661
O O3 0.870365 0.748561 0.748029
O O4 0.792154 0.000000 0.623570
O O5 0.871901 0.500000 0.501643
O O6 0.876740 0.286482 0.402628
O O7 0.927378 0.214720 0.588028
O O8 0.182904 0.214260 0.791663
O O9 0.269411 0.000000 0.946692
O O10 0.250000 0.250000 0.000000
O O11 0.335102 0.253322 0.981333
O O12 0.399075 0.500000 0.375792
O O13 0.460488 0.728145 0.374385
O O14 0.464189 0.500000 0.286500
O O15 0.438597 0.216406 0.203513
O O16 0.512742 0.252000 0.874019
O O17 0.452301 0.000000 0.865535
O O18 0.500000 0.236899 0.000000
O O19 0.919051 0.500000 0.078528
#
# Coordination Sequence:
#
# PCOD9198841 Si02
#       7
#     8   8   8   8   8   8   8
#     4  11  25  45  67  93 124 162 211 263 314 373
#     4  11  25  41  60  88 120 155 198 247 302 359
#     4  10  20  36  58  86 121 158 197 240 288 349
#     4  10  22  38  58  87 122 157 199 243 291 355
#     4  11  22  38  60  89 121 158 201 245 294 355
#     4  10  23  42  66  95 126 163 209 260 316 375
#     4  10  21  37  60  89 121 159 201 244 295 357
#
# _framework density 20.885966
#
# number of rings (size 3 to 8) (size 9 to 14) (size 15 to 20)
#    0.000    1.571    1.429    2.571    2.000   10.000 
#    0.000    0.000    0.000    0.000    0.000    0.000 
#    0.000    0.000    0.000    0.000    0.000    0.000 
#
# Total GULP energy -156291.810029 kJ/mol
# GULP energy per Si atom -5581.850358 kJ/mol
# Density = 2.083843 g / cm^3
# Si number density = 20.885966 Si / 1000 Ang^3
#
#
#
# Elastic Constant Matrix: (Units=GPa)
#
#
# Indices 1 2 3 4 5 6 
#
# 1 137.2402 20.8263 56.6751 0.0000 32.6862 0.0000
# 2 20.8263 14.4604 23.6504 0.0000 7.7899 0.0000
# 3 56.6751 23.6504 106.4488 0.0000 29.7895 0.0000
# 4 0.0000 0.0000 0.0000 18.9264 0.0000 2.8318
# 5 32.6862 7.7899 29.7895 0.0000 42.0398 0.0000
# 6 0.0000 0.0000 0.0000 2.8318 0.0000 27.3604
#
#
#
# Elastic Compliance Matrix: (Units=1/GPa)
#
#
# Indices 1 2 3 4 5 6 
#
# 1 0.010837 -0.009045 -0.002334 0.000000 -0.005096 0.000000
# 2 -0.009045 0.116659 -0.021232 0.000000 0.000461 0.000000
# 3 -0.002334 -0.021232 0.017145 0.000000 -0.006400 0.000000
# 4 0.000000 0.000000 0.000000 0.053667 0.000000 -0.005555
# 5 -0.005096 0.000461 -0.006400 0.000000 0.032199 0.000000
# 6 0.000000 0.000000 0.000000 -0.005555 0.000000 0.037124
#
#
# Mechanical properties :
#
#
# Convention : Reuss Voigt Hill
#
# Bulk Modulus (GPa) = 12.59152 51.16145 31.87648
# Shear Modulus (GPa) = 13.91498 28.13184 21.02341
#
# Velocity S-wave (km/s) = 2.58395 3.67403 3.17611
# Velocity P-wave (km/s) = 3.86578 6.52279 5.36148
#
# Compressibility (1/GPa) = 0.07941851
#
# Stress axis : x y z
#
# Youngs Moduli (GPa) = 92.28068 8.57201 58.32527
#
# Poissons Ratio (x) = 0.07753 0.13613
# Poissons Ratio (y) = 0.83465 1.23838
# Poissons Ratio (z) = 0.21539 0.18200
#
# Static dielectric constant tensor:
#      x y z
#    x 1.767270 0.000000 0.016360 
#    y 0.000000 1.812600 0.000000 
#    z 0.016360 0.000000 1.759380 
# 
# From -- ./inp_files/292547.got.cif
#   From: 2010.05.17/outbox.cif.g08.bks.cpg/sg12_147_cif.got.tgz:292547.got - 2010.06.03 13:09:07.
