data_PCOD9198441
_publ_section_title
;
Structure prediction by ZEFSAII (Michael W. Deem and Ramdas Pophale) SiO2 
 PCOD9198441
Probable space group: C 2/M
;
_chemical_formula_sum "Si O2"
_cell_formula_units_Z 48
_cell_length_a 16.434900
_cell_length_b 29.415986
_cell_length_c 7.619087
_cell_angle_alpha 90.000000
_cell_angle_beta 142.250230
_cell_angle_gamma 90.000000
_cell_volume 2255.052934
_symmetry_space_group_name_H-M "C 2/M"
_symmetry_group_IT_number 12
_symmetry_cell_setting 'monoclinic'
loop_
_space_group_symop_operation_xyz
x,y,z
-x,y,-z
-x,-y,-z
x,-y,z
1/2+x,1/2+y,z
1/2-x,1/2+y,-z
1/2-x,1/2-y,-z
1/2+x,1/2-y,z
loop_
_atom_site_type_symbol
_atom_site_label
_atom_site_fract_x
_atom_site_fract_y
_atom_site_fract_z
Si Si1 0.801364 0.000000 0.842486
Si Si2 0.297321 0.097656 0.336107
Si Si3 0.049685 0.154755 0.786764
Si Si4 0.603979 0.753698 0.834709
Si Si5 0.799235 0.902766 0.427168
Si Si6 0.107757 0.000000 0.417901
Si Si7 0.948479 0.352592 0.111839
O O1 0.719142 0.045251 0.749410
O O2 0.845013 0.000000 0.708322
O O3 0.949301 0.000000 0.175721
O O4 0.260146 0.094317 0.479267
O O5 0.438130 0.123615 0.576713
O O6 0.185140 0.127584 0.049743
O O7 0.072791 0.206857 0.883246
O O8 0.000000 0.155673 0.500000
O O9 0.930358 0.127707 0.673488
O O10 0.500000 0.755881 0.500000
O O11 0.584007 0.800437 0.902227
O O12 0.750000 0.750000 0.000000
O O13 0.836813 0.952343 0.419669
O O14 0.689125 0.879855 0.117730
O O15 0.000000 0.354400 0.000000
#
# Coordination Sequence:
#
# PCOD9198441 Si02
#       7
#     4   8   8   8   8   4   8
#     4   9  16  31  57  85 110 150 189 224 282 343
#     4  10  20  36  58  84 117 149 185 235 287 335
#     4  11  22  36  57  83 107 147 197 238 278 336
#     4  11  23  41  60  80 112 157 195 232 285 351
#     4  10  20  36  57  84 115 149 187 231 285 339
#     4   9  16  31  57  83 112 148 189 228 273 345
#     4  10  22  37  57  88 119 147 188 243 290 332
#
# _framework density 21.285530999999999
#
# number of rings (size 3 to 8) (size 9 to 14) (size 15 to 20)
#    0.000    1.833    1.667    3.500    0.000    2.000 
#    0.000    9.167    0.000    0.000    0.000    4.667 
#    0.000    0.000    0.000    0.000    0.000    0.000 
#
# Total GULP energy -134064.887118 kJ/mol
# GULP energy per Si atom -5586.036963 kJ/mol
# Density = 2.123708 g / cm^3
# Si number density = 21.285531 Si / 1000 Ang^3
#
#
#
# Elastic Constant Matrix: (Units=GPa)
#
#
# Indices 1 2 3 4 5 6 
#
# 1 46.5971 30.1912 21.4549 0.0000 21.1659 0.0000
# 2 30.1912 252.6905 99.3550 0.0000 27.6661 0.0000
# 3 21.4549 99.3550 173.1234 0.0000 29.8917 0.0000
# 4 0.0000 0.0000 0.0000 41.9482 0.0000 14.1624
# 5 21.1659 27.6661 29.8917 0.0000 16.3421 0.0000
# 6 0.0000 0.0000 0.0000 14.1624 0.0000 20.9876
#
#
#
# Elastic Compliance Matrix: (Units=1/GPa)
#
#
# Indices 1 2 3 4 5 6 
#
# 1 0.060035 -0.000473 0.008943 0.000000 -0.093313 0.000000
# 2 -0.000473 0.005386 -0.002286 0.000000 -0.004325 0.000000
# 3 0.008943 -0.002286 0.010686 0.000000 -0.027260 0.000000
# 4 0.000000 0.000000 0.000000 0.030872 0.000000 -0.020833
# 5 -0.093313 -0.004325 -0.027260 0.000000 0.239233 0.000000
# 6 0.000000 0.000000 0.000000 -0.020833 0.000000 0.061705
#
#
# Mechanical properties :
#
#
# Convention : Reuss Voigt Hill
#
# Bulk Modulus (GPa) = 11.30244 86.04592 48.67418
# Shear Modulus (GPa) = 11.76357 37.28290 24.52324
#
# Velocity S-wave (km/s) = 2.35341 4.18971 3.39795
# Velocity P-wave (km/s) = 3.56457 7.99482 6.18964
#
# Compressibility (1/GPa) = 0.08847650
#
# Stress axis : x y z
#
# Youngs Moduli (GPa) = 16.65693 185.66092 93.57692
#
# Poissons Ratio (x) = 0.08775 -0.83684
# Poissons Ratio (y) = 0.00787 0.21389
# Poissons Ratio (z) = -0.14896 0.42436
#
# Static dielectric constant tensor:
#      x y z
#    x 1.818590 0.000000 -0.026780 
#    y 0.000000 1.778720 0.000000 
#    z -0.026780 0.000000 1.744230 
# 
# From -- ./inp_files/42302.got.cif
#   From: 2010.05.17/outbox.cif.g08.bks.cpg/sg12_22_cif.got.tgz:42302.got - 2010.06.03 13:09:07.
