data_PCOD9198710
_publ_section_title
;
Structure prediction by ZEFSAII (Michael W. Deem and Ramdas Pophale) SiO2 
 PCOD9198710
Probable space group: C 2/M
;
_chemical_formula_sum "Si O2"
_cell_formula_units_Z 48
_cell_length_a 25.909441
_cell_length_b 8.091968
_cell_length_c 14.608349
_cell_angle_alpha 90.000000
_cell_angle_beta 41.034007
_cell_angle_gamma 90.000000
_cell_volume 2010.724657
_symmetry_space_group_name_H-M "C 2/M"
_symmetry_group_IT_number 12
_symmetry_cell_setting 'monoclinic'
loop_
_space_group_symop_operation_xyz
x,y,z
-x,y,-z
-x,-y,-z
x,-y,z
1/2+x,1/2+y,z
1/2-x,1/2+y,-z
1/2-x,1/2-y,-z
1/2+x,1/2-y,z
loop_
_atom_site_type_symbol
_atom_site_label
_atom_site_fract_x
_atom_site_fract_y
_atom_site_fract_z
Si Si1 0.249204 0.199434 0.107571
Si Si2 0.491073 0.308650 0.747981
Si Si3 0.396485 0.193326 0.031023
Si Si4 0.170673 0.805786 0.702700
Si Si5 0.343502 0.810157 0.482113
Si Si6 0.421842 0.297994 0.655334
O O1 0.323912 0.259045 0.065547
O O2 0.164441 0.255083 0.260945
O O3 0.251348 0.000000 0.107296
O O4 0.250000 0.250000 0.000000
O O5 0.475736 0.500000 0.785549
O O6 0.579692 0.289977 0.592763
O O7 0.433937 0.246865 0.744649
O O8 0.473057 0.217419 0.866325
O O9 0.392575 0.280400 0.133788
O O10 0.385081 0.000000 0.063665
O O11 0.256536 0.753624 0.627013
O O12 0.157786 0.707140 0.626884
O O13 0.175826 0.000000 0.671458
O O14 0.354515 0.000000 0.493812
O O15 0.500000 0.238691 0.500000
O O16 0.423451 0.500000 0.650915
#
# Coordination Sequence:
#
# PCOD9198710 Si02
#       6
#     8   8   8   8   8   8
#     4  10  20  36  58  83 116 155 194 238 287 343
#     4  11  22  37  61  87 119 158 199 242 290 351
#     4  11  23  37  59  88 121 157 198 245 293 344
#     4  10  22  41  64  89 117 152 195 238 291 357
#     4  10  22  41  63  88 121 151 188 243 297 349
#     4   9  19  35  56  84 116 152 195 240 285 339
#
# _framework density 23.871988999999999
#
# number of rings (size 3 to 8) (size 9 to 14) (size 15 to 20)
#    0.000    1.833    1.667    2.000    2.333    3.333 
#    0.000    3.333    0.000    2.500    0.000    0.000 
#    0.000    0.000    0.000    0.000    0.000    0.000 
#
# Total GULP energy -134187.103789 kJ/mol
# GULP energy per Si atom -5591.129325 kJ/mol
# Density = 2.381765 g / cm^3
# Si number density = 23.871989 Si / 1000 Ang^3
#
#
#
# Elastic Constant Matrix: (Units=GPa)
#
#
# Indices 1 2 3 4 5 6 
#
# 1 43.0495 -3.5812 -5.8282 0.0020 -11.4024 -0.0006
# 2 -3.5812 34.1433 -3.7573 0.0036 -1.2640 -0.0025
# 3 -5.8282 -3.7573 98.3345 0.0034 -4.9538 -0.0020
# 4 0.0020 0.0036 0.0034 26.7209 -0.0008 -1.7793
# 5 -11.4024 -1.2640 -4.9538 -0.0008 38.9902 0.0001
# 6 -0.0006 -0.0025 -0.0020 -1.7793 0.0001 17.4582
#
#
#
# Elastic Compliance Matrix: (Units=1/GPa)
#
#
# Indices 1 2 3 4 5 6 
#
# 1 0.025878 0.003234 0.002057 -0.000002 0.007934 0.000001
# 2 0.003234 0.029863 0.001438 -0.000004 0.002097 0.000004
# 3 0.002057 0.001438 0.010446 -0.000002 0.001975 0.000001
# 4 -0.000002 -0.000004 -0.000002 0.037680 0.000000 0.003840
# 5 0.007934 0.002097 0.001975 0.000000 0.028287 0.000001
# 6 0.000001 0.000004 0.000001 0.003840 0.000001 0.057671
#
#
# Mechanical properties :
#
#
# Convention : Reuss Voigt Hill
#
# Bulk Modulus (GPa) = 12.55544 16.57714 14.56629
# Shear Modulus (GPa) = 24.64098 29.21346 26.92722
#
# Velocity S-wave (km/s) = 3.21629 3.50202 3.36219
# Velocity P-wave (km/s) = 4.36619 4.82819 4.60299
#
# Compressibility (1/GPa) = 0.07964674
#
# Stress axis : x y z
#
# Youngs Moduli (GPa) = 38.64275 33.48577 95.73266
#
# Poissons Ratio (x) = -0.10830 -0.19693
# Poissons Ratio (y) = -0.12498 -0.13770
# Poissons Ratio (z) = -0.07949 -0.04816
#
# Static dielectric constant tensor:
#      x y z
#    x 1.933870 0.000000 -0.019630 
#    y 0.000000 1.809530 0.000000 
#    z -0.019630 0.000000 1.909590 
# 
# From -- ./inp_files/244725.got.cif
#   From: 2010.05.17/outbox.cif.g08.bks.cpg/sg12_123_cif.got.tgz:244725.got - 2010.06.03 13:09:07.
