data_PCOD9198582
_publ_section_title
;
Structure prediction by ZEFSAII (Michael W. Deem and Ramdas Pophale) SiO2 
 PCOD9198582
Probable space group: C 2/M
;
_chemical_formula_sum "Si O2"
_cell_formula_units_Z 64
_cell_length_a 14.898795
_cell_length_b 8.451772
_cell_length_c 29.598413
_cell_angle_alpha 90.000000
_cell_angle_beta 118.580050
_cell_angle_gamma 90.000000
_cell_volume 3272.923472
_symmetry_space_group_name_H-M "C 2/M"
_symmetry_group_IT_number 12
_symmetry_cell_setting 'monoclinic'
loop_
_space_group_symop_operation_xyz
x,y,z
-x,y,-z
-x,-y,-z
x,-y,z
1/2+x,1/2+y,z
1/2-x,1/2+y,-z
1/2-x,1/2-y,-z
1/2+x,1/2-y,z
loop_
_atom_site_type_symbol
_atom_site_label
_atom_site_fract_x
_atom_site_fract_y
_atom_site_fract_z
Si Si1 0.430270 0.309082 0.621667
Si Si2 0.109023 0.808946 0.005383
Si Si3 0.019699 0.315850 0.807084
Si Si4 0.253791 0.807169 0.358959
Si Si5 0.902967 0.186552 0.266118
Si Si6 0.694333 0.687395 0.243254
Si Si7 0.328490 0.689000 0.081590
Si Si8 0.022257 0.308980 0.556175
O O1 0.430806 0.500000 0.621256
O O2 0.329515 0.257146 0.624228
O O3 0.527569 0.256730 0.675248
O O4 0.441494 0.246845 0.573926
O O5 0.209792 0.739736 0.053623
O O6 0.113524 0.000000 0.009729
O O7 0.124307 0.766879 0.956158
O O8 0.000000 0.757999 0.000000
O O9 0.025853 0.500000 0.797566
O O10 0.036412 0.217548 0.765274
O O11 0.105623 0.269505 0.863657
O O12 0.907181 0.273217 0.797884
O O13 0.220469 0.757407 0.300777
O O14 0.366466 0.753372 0.400008
O O15 0.254788 0.000000 0.358512
O O16 0.795217 0.274403 0.239260
O O17 0.885112 0.000000 0.267243
O O18 0.675767 0.500000 0.239436
O O19 0.335423 0.500000 0.087930
O O20 0.023051 0.500000 0.555996
O O21 0.000000 0.254522 0.500000
#
# Coordination Sequence:
#
# PCOD9198582 Si02
#       8
#     8   8   8   8   8   8   8   8
#     4  10  20  36  58  81 109 146 188 236 290 352
#     4   9  19  38  64  90 119 158 204 247 297 359
#     4  12  25  40  59  87 124 162 203 252 301 356
#     4   9  18  35  57  80 110 148 185 231 292 351
#     4  11  22  38  59  87 116 151 199 247 298 361
#     4  11  21  38  61  85 116 156 196 243 301 360
#     4  10  21  38  60  88 123 160 199 251 303 351
#     4  10  21  37  57  83 114 148 190 239 292 355
#
# _framework density 19.554383999999999
#
# number of rings (size 3 to 8) (size 9 to 14) (size 15 to 20)
#    0.000    1.750    2.500    2.250    0.000    3.000 
#    0.000    4.375    0.000    0.000    0.000    0.000 
#    0.000    0.000    0.000    0.000    0.000    0.000 
#
# Total GULP energy -178760.536022 kJ/mol
# GULP energy per Si atom -5586.266751 kJ/mol
# Density = 1.950988 g / cm^3
# Si number density = 19.554384 Si / 1000 Ang^3
#
#
#
# Elastic Constant Matrix: (Units=GPa)
#
#
# Indices 1 2 3 4 5 6 
#
# 1 84.7529 0.9261 -12.6530 0.0000 11.5403 0.0000
# 2 0.9261 18.4316 8.3490 0.0000 3.3292 0.0000
# 3 -12.6530 8.3490 42.1919 0.0000 9.2512 0.0000
# 4 0.0000 0.0000 0.0000 21.2161 0.0000 -2.4437
# 5 11.5403 3.3292 9.2512 0.0000 20.2703 0.0000
# 6 0.0000 0.0000 0.0000 -2.4437 0.0000 25.3523
#
#
#
# Elastic Compliance Matrix: (Units=1/GPa)
#
#
# Indices 1 2 3 4 5 6 
#
# 1 0.014405 -0.001949 0.007149 0.000000 -0.011144 0.000000
# 2 -0.001949 0.060301 -0.011766 0.000000 -0.003424 0.000000
# 3 0.007149 -0.011766 0.031827 0.000000 -0.016663 0.000000
# 4 0.000000 0.000000 0.000000 0.047663 0.000000 0.004594
# 5 -0.011144 -0.003424 -0.016663 0.000000 0.063845 0.000000
# 6 0.000000 0.000000 0.000000 0.004594 0.000000 0.039887
#
#
# Mechanical properties :
#
#
# Convention : Reuss Voigt Hill
#
# Bulk Modulus (GPa) = 10.70664 15.40230 13.05447
# Shear Modulus (GPa) = 16.54562 23.28468 19.91515
#
# Velocity S-wave (km/s) = 2.91199 3.45449 3.19478
# Velocity P-wave (km/s) = 4.09798 4.87905 4.50547
#
# Compressibility (1/GPa) = 0.09339997
#
# Stress axis : x y z
#
# Youngs Moduli (GPa) = 69.42045 16.58350 31.41964
#
# Poissons Ratio (x) = 0.03233 -0.22462
# Poissons Ratio (y) = 0.13532 0.36969
# Poissons Ratio (z) = -0.49629 0.19513
#
# Static dielectric constant tensor:
#      x y z
#    x 1.670540 0.000000 0.002330 
#    y 0.000000 1.666480 0.000000 
#    z 0.002330 0.000000 1.663490 
# 
# From -- ./inp_files/375097.got.cif
#   From: 2010.05.17/outbox.cif.g08.bks.cpg/sg12_188_cif.got.tgz:375097.got - 2010.06.03 13:09:07.
