data_PCOD9198372
_publ_section_title
;
Structure prediction by ZEFSAII (Michael W. Deem and Ramdas Pophale) SiO2 
 PCOD9198372
Probable space group: C 2/M
;
_chemical_formula_sum "Si O2"
_cell_formula_units_Z 38
_cell_length_a 16.440374
_cell_length_b 13.829157
_cell_length_c 30.447417
_cell_angle_alpha 90.000000
_cell_angle_beta 162.055659
_cell_angle_gamma 90.000000
_cell_volume 2132.748434
_symmetry_space_group_name_H-M "C 2/M"
_symmetry_group_IT_number 12
_symmetry_cell_setting 'monoclinic'
loop_
_space_group_symop_operation_xyz
x,y,z
-x,y,-z
-x,-y,-z
x,-y,z
1/2+x,1/2+y,z
1/2-x,1/2+y,-z
1/2-x,1/2-y,-z
1/2+x,1/2-y,z
loop_
_atom_site_type_symbol
_atom_site_label
_atom_site_fract_x
_atom_site_fract_y
_atom_site_fract_z
Si Si1 0.577264 0.387827 0.988501
Si Si2 0.000000 0.000000 0.500000
Si Si3 0.755247 0.890355 0.542442
Si Si4 0.815825 0.327843 0.709873
Si Si5 0.000000 0.668433 0.500000
Si Si6 0.845612 0.262268 0.280358
O O1 0.542318 0.500000 0.956622
O O2 0.881164 0.358040 0.139221
O O3 0.500000 0.382253 0.000000
O O4 0.388603 0.317067 0.864382
O O5 0.866018 0.915521 0.399860
O O6 0.606527 0.888231 0.512698
O O7 0.557920 0.842734 0.405343
O O8 0.001640 0.817106 0.670176
O O9 0.826397 0.000000 0.567361
O O10 0.735343 0.237403 0.637994
O O11 0.751172 0.293810 0.725935
#
# Coordination Sequence:
#
# PCOD9198372 Si02
#       6
#     8   2   8   8   4   8
#     4  11  22  37  57  85 117 160 197 242 294 346
#     4  10  20  36  60  92 112 142 206 220 300 348
#     4  10  20  36  57  82 111 152 193 244 288 346
#     4  10  20  37  58  84 117 152 186 250 285 350
#     4   9  19  35  57  82 112 148 190 240 294 340
#     4  10  22  37  55  86 117 151 195 244 295 341
#
# _framework density 17.817384000000001
#
# number of rings (size 3 to 8) (size 9 to 14) (size 15 to 20)
#    0.000    1.895    1.053    2.842    1.474    1.684 
#    0.000    0.000    0.000    6.947    0.000    0.000 
#    0.000    0.000    0.000    0.000    0.000    0.000 
#
# Total GULP energy -105771.746753 kJ/mol
# GULP energy per Si atom -5566.934040 kJ/mol
# Density = 1.777683 g / cm^3
# Si number density = 17.817384 Si / 1000 Ang^3
#
#
#
# Elastic Constant Matrix: (Units=GPa)
#
#
# Indices 1 2 3 4 5 6 
#
# 1 56.7752 49.9908 42.6529 0.0666 0.1516 -0.0038
# 2 49.9908 149.4549 71.6709 0.1857 -4.4497 -0.0043
# 3 42.6529 71.6709 106.6274 1.2978 -6.3473 -0.0256
# 4 0.0666 0.1857 1.2978-1427.1034 0.0611 10.7887
# 5 0.1516 -4.4497 -6.3473 0.0611 21.1342 -0.0011
# 6 -0.0038 -0.0043 -0.0256 10.7887 -0.0011 18.5082
#
#
#
# Elastic Compliance Matrix: (Units=1/GPa)
#
#
# Indices 1 2 3 4 5 6 
#
# 1 0.028681 -0.006045 -0.007634 -0.000007 -0.003771 -0.000002
# 2 -0.006045 0.011148 -0.005022 -0.000003 0.000882 -0.000004
# 3 -0.007634 -0.005022 0.016035 0.000014 0.003813 0.000012
# 4 -0.000007 -0.000003 0.000014 -0.000698 0.000006 0.000407
# 5 -0.003771 0.000882 0.003813 0.000006 0.048675 0.000004
# 6 -0.000002 -0.000004 0.000012 0.000407 0.000004 0.053793
#
#
# Mechanical properties :
#
#
# Convention : Reuss Voigt Hill
#
# Bulk Modulus (GPa) = 54.16896 71.27630 62.72263
# Shear Modulus (GPa) = 24.85202 -267.58936 -121.36867
#
# Velocity S-wave (km/s) = 3.73878 -12.26827 -8.26232
# Velocity P-wave (km/s) = 7.00759 12.67241 7.46605
#
# Compressibility (1/GPa) = 0.01846076
#
# Stress axis : x y z
#
# Youngs Moduli (GPa) = 34.86604 89.70489 62.36319
#
# Poissons Ratio (x) = 0.54224 0.47610
# Poissons Ratio (y) = 0.21076 0.31322
# Poissons Ratio (z) = 0.26618 0.45054
#
# Static dielectric constant tensor:
#      x y z
#    x 1.625350 0.000000 0.011890 
#    y 0.000000 1.588010 -0.000010 
#    z 0.011890 -0.000010 1.581280 
# 
# From -- ./inp_files/59269.got.cif
#   From: 2010.05.17/outbox.cif.g08.bks.cpg/sg12_30_cif.got.tgz:59269.got - 2010.06.03 13:09:07.
