data_PCOD9198789
_publ_section_title
;
Structure prediction by ZEFSAII (Michael W. Deem and Ramdas Pophale) SiO2 
 PCOD9198789
Probable space group: C 2/M
;
_chemical_formula_sum "Si O2"
_cell_formula_units_Z 44
_cell_length_a 14.177671
_cell_length_b 11.226878
_cell_length_c 22.463284
_cell_angle_alpha 90.000000
_cell_angle_beta 144.552265
_cell_angle_gamma 90.000000
_cell_volume 2073.649002
_symmetry_space_group_name_H-M "C 2/M"
_symmetry_group_IT_number 12
_symmetry_cell_setting 'monoclinic'
loop_
_space_group_symop_operation_xyz
x,y,z
-x,y,-z
-x,-y,-z
x,-y,z
1/2+x,1/2+y,z
1/2-x,1/2+y,-z
1/2-x,1/2-y,-z
1/2+x,1/2-y,z
loop_
_atom_site_type_symbol
_atom_site_label
_atom_site_fract_x
_atom_site_fract_y
_atom_site_fract_z
Si Si1 0.396379 0.758482 0.122090
Si Si2 0.198851 0.000000 0.777732
Si Si3 0.100908 0.635860 0.754850
Si Si4 0.033885 0.500000 0.900273
Si Si5 0.903190 0.780687 0.356050
Si Si6 0.218326 0.141950 0.579899
Si Si7 0.596499 0.500000 0.859574
O O1 0.334093 0.782535 0.157532
O O2 0.478783 0.628077 0.161889
O O3 0.488336 0.879633 0.150098
O O4 0.250000 0.750000 0.000000
O O5 0.141446 0.888089 0.710341
O O6 0.395102 0.000000 0.878788
O O7 0.118170 0.000000 0.800119
O O8 0.145777 0.500000 0.790983
O O9 0.141372 0.669209 0.708012
O O10 0.905674 0.651178 0.658940
O O11 0.218239 0.500000 0.019046
O O12 0.813154 0.798186 0.372297
O O13 0.093173 0.794956 0.470777
O O14 0.178538 0.000000 0.563013
#
# Coordination Sequence:
#
# PCOD9198789 Si02
#       7
#     8   4   8   4   8   8   4
#     4  10  20  36  58  85 115 150 192 240 292 347
#     4  12  19  33  60  86 112 146 193 241 286 341
#     4  11  22  37  60  83 118 160 197 236 301 362
#     4  10  21  36  59  84 116 155 190 236 298 361
#     4  11  20  35  59  88 116 145 197 245 289 340
#     4  10  20  37  59  86 113 154 199 243 292 354
#     4  10  21  36  57  88 116 146 195 247 292 339
#
# _framework density 21.218636
#
# number of rings (size 3 to 8) (size 9 to 14) (size 15 to 20)
#    0.000    1.455    4.545    2.455    0.000    0.000 
#    0.000    1.818   10.000    0.000    0.000   12.727 
#    0.000    0.000    0.000    0.000    0.000    0.000 
#
# Total GULP energy -122774.791442 kJ/mol
# GULP energy per Si atom -5580.672338 kJ/mol
# Density = 2.117034 g / cm^3
# Si number density = 21.218636 Si / 1000 Ang^3
#
#
#
# Elastic Constant Matrix: (Units=GPa)
#
#
# Indices 1 2 3 4 5 6 
#
# 1 50.0621 14.8666 19.0708 0.0000 -16.1025 0.0000
# 2 14.8666 131.5885 24.1667 0.0000 -16.9439 0.0000
# 3 19.0708 24.1667 95.1672 0.0001 -19.8345 0.0000
# 4 0.0000 0.0000 0.0001 25.7281 0.0000 -11.0280
# 5 -16.1025 -16.9439 -19.8345 0.0000 29.3904 0.0000
# 6 0.0000 0.0000 0.0000 -11.0280 0.0000 3.4064
#
#
#
# Elastic Compliance Matrix: (Units=1/GPa)
#
#
# Indices 1 2 3 4 5 6 
#
# 1 0.024837 -0.000892 -0.002353 0.000000 0.011506 0.000000
# 2 -0.000892 0.008377 -0.001215 0.000000 0.003521 0.000000
# 3 -0.002353 -0.001215 0.012653 0.000000 0.006550 0.000001
# 4 0.000000 0.000000 0.000000 -0.100260 0.000001 -0.324582
# 5 0.011506 0.003521 0.006550 0.000001 0.046778 0.000001
# 6 0.000000 0.000000 0.000001 -0.324582 0.000001 -0.757241
#
#
# Mechanical properties :
#
#
# Convention : Reuss Voigt Hill
#
# Bulk Modulus (GPa) = 27.06549 43.66955 35.36752
# Shear Modulus (GPa) = -6.72386 26.28590 9.78102
#
# Velocity S-wave (km/s) = -1.78206 3.52349 2.14934
# Velocity P-wave (km/s) = 2.92385 6.09744 4.78162
#
# Compressibility (1/GPa) = 0.03694742
#
# Stress axis : x y z
#
# Youngs Moduli (GPa) = 40.26212 119.37923 79.03409
#
# Poissons Ratio (x) = 0.10654 0.18593
# Poissons Ratio (y) = 0.03593 0.09599
# Poissons Ratio (z) = 0.09472 0.14499
#
# Static dielectric constant tensor:
#      x y z
#    x 1.763820 0.000000 0.001590 
#    y 0.000000 1.878930 0.000000 
#    z 0.001590 0.000000 1.783280 
# 
# From -- ./inp_files/262258.got.cif
#   From: 2010.05.17/outbox.cif.g08.bks.cpg/sg12_132_cif.got.tgz:262258.got - 2010.06.03 13:09:07.
