data_PCOD9198166
_publ_section_title
;
Structure prediction by ZEFSAII (Michael W. Deem and Ramdas Pophale) SiO2 
 PCOD9198166
Probable space group: C 2/M
;
_chemical_formula_sum "Si O2"
_cell_formula_units_Z 48
_cell_length_a 9.181235
_cell_length_b 27.071073
_cell_length_c 11.348507
_cell_angle_alpha 90.000000
_cell_angle_beta 66.313623
_cell_angle_gamma 90.000000
_cell_volume 2583.010013
_symmetry_space_group_name_H-M "C 2/M"
_symmetry_group_IT_number 12
_symmetry_cell_setting 'monoclinic'
loop_
_space_group_symop_operation_xyz
x,y,z
-x,y,-z
-x,-y,-z
x,-y,z
1/2+x,1/2+y,z
1/2-x,1/2+y,-z
1/2-x,1/2-y,-z
1/2+x,1/2-y,z
loop_
_atom_site_type_symbol
_atom_site_label
_atom_site_fract_x
_atom_site_fract_y
_atom_site_fract_z
Si Si1 0.909374 0.305039 0.184171
Si Si2 0.688244 0.444109 0.904328
Si Si3 0.665957 0.804177 0.519952
Si Si4 0.277163 0.293635 0.109083
Si Si5 0.151737 0.872670 0.714055
Si Si6 0.302931 0.364780 0.904622
O O1 0.865853 0.314624 0.333274
O O2 0.827820 0.257796 0.148956
O O3 0.842432 0.350000 0.130119
O O4 0.095069 0.293747 0.126639
O O5 0.747746 0.500000 0.893444
O O6 0.708028 0.422171 0.765583
O O7 0.500000 0.444373 0.000000
O O8 0.748938 0.406417 0.984656
O O9 0.500000 0.800524 0.500000
O O10 0.750000 0.750000 0.500000
O O11 0.771294 0.848436 0.427667
O O12 0.297780 0.331741 0.207443
O O13 0.358729 0.318152 0.968220
O O14 0.959741 0.876788 0.776796
#
# Coordination Sequence:
#
# PCOD9198166 Si02
#       6
#     8   8   8   8   8   8
#     4  12  22  35  53  74 114 155 187 223 268 323
#     4   8  16  35  62  88 111 136 176 233 292 339
#     4  12  24  39  52  75 112 159 196 226 258 326
#     4  11  21  36  51  77 112 149 184 226 271 332
#     4  10  20  36  56  82 109 143 189 229 272 327
#     4  10  22  34  55  86 109 139 182 233 285 332
#
# _framework density 18.58297
#
# number of rings (size 3 to 8) (size 9 to 14) (size 15 to 20)
#    0.000    1.500    3.333    3.500    2.333    1.333 
#    0.000    0.000    0.000    9.500    0.000    4.667 
#    0.000    0.000    0.000    0.000    0.000    0.000 
#
# Total GULP energy -133728.380518 kJ/mol
# GULP energy per Si atom -5572.015855 kJ/mol
# Density = 1.854067 g / cm^3
# Si number density = 18.582970 Si / 1000 Ang^3
#
#
#
# Elastic Constant Matrix: (Units=GPa)
#
#
# Indices 1 2 3 4 5 6 
#
# 1 113.9217 37.0822 27.0243 0.0000 4.2587 0.0000
# 2 37.0822 107.3168 40.7930 0.0000 8.5436 0.0000
# 3 27.0243 40.7930 119.4167 0.0000 12.6283 0.0000
# 4 0.0000 0.0000 0.0000 18.2420 0.0000 0.6760
# 5 4.2587 8.5436 12.6283 0.0000 26.4850 0.0000
# 6 0.0000 0.0000 0.0000 0.6760 0.0000 13.4505
#
#
#
# Elastic Compliance Matrix: (Units=1/GPa)
#
#
# Indices 1 2 3 4 5 6 
#
# 1 0.010050 -0.002995 -0.001245 0.000000 -0.000056 0.000000
# 2 -0.002995 0.011683 -0.003123 0.000000 -0.001798 0.000000
# 3 -0.001245 -0.003123 0.010105 0.000000 -0.003610 0.000000
# 4 0.000000 0.000000 0.000000 0.054921 0.000000 -0.002760
# 5 -0.000056 -0.001798 -0.003610 0.000000 0.040068 0.000000
# 6 0.000000 0.000000 0.000000 -0.002760 0.000000 0.074486
#
#
# Mechanical properties :
#
#
# Convention : Reuss Voigt Hill
#
# Bulk Modulus (GPa) = 58.44095 61.16158 59.80127
# Shear Modulus (GPa) = 22.54860 27.35253 24.95056
#
# Velocity S-wave (km/s) = 3.48717 3.84071 3.66820
# Velocity P-wave (km/s) = 6.90874 7.25619 7.08460
#
# Compressibility (1/GPa) = 0.01711129
#
# Stress axis : x y z
#
# Youngs Moduli (GPa) = 99.49897 85.59163 98.96541
#
# Poissons Ratio (x) = 0.25634 0.12325
# Poissons Ratio (y) = 0.29799 0.30908
# Poissons Ratio (z) = 0.12392 0.26732
#
# Static dielectric constant tensor:
#      x y z
#    x 1.672570 0.000000 -0.039860 
#    y 0.000000 1.674690 0.000000 
#    z -0.039860 0.000000 1.702260 
# 
# From -- ./inp_files/123492.got.cif
#   From: 2010.05.17/outbox.cif.g08.bks.cpg/sg12_62_cif.got.tgz:123492.got - 2010.06.03 13:09:07.
