data_PCOD9198152
_publ_section_title
;
Structure prediction by ZEFSAII (Michael W. Deem and Ramdas Pophale) SiO2 
 PCOD9198152
Probable space group: C 2/M
;
_chemical_formula_sum "Si O2"
_cell_formula_units_Z 64
_cell_length_a 14.782075
_cell_length_b 8.760625
_cell_length_c 31.175917
_cell_angle_alpha 90.000000
_cell_angle_beta 121.518123
_cell_angle_gamma 90.000000
_cell_volume 3441.686474
_symmetry_space_group_name_H-M "C 2/M"
_symmetry_group_IT_number 12
_symmetry_cell_setting 'monoclinic'
loop_
_space_group_symop_operation_xyz
x,y,z
-x,y,-z
-x,-y,-z
x,-y,z
1/2+x,1/2+y,z
1/2-x,1/2+y,-z
1/2-x,1/2-y,-z
1/2+x,1/2-y,z
loop_
_atom_site_type_symbol
_atom_site_label
_atom_site_fract_x
_atom_site_fract_y
_atom_site_fract_z
Si Si1 0.336175 0.317138 0.756114
Si Si2 0.838280 0.682622 0.578917
Si Si3 0.581345 0.316951 0.312175
Si Si4 0.598624 0.315880 0.494691
Si Si5 0.018282 0.317276 0.137788
Si Si6 0.219131 0.683528 0.946462
Si Si7 0.290540 0.817141 0.878595
Si Si8 0.855615 0.683665 0.229165
O O1 0.342750 0.500000 0.759411
O O2 0.340911 0.270969 0.707756
O O3 0.435699 0.252273 0.807197
O O4 0.230652 0.272620 0.755699
O O5 0.845149 0.500000 0.580422
O O6 0.884264 0.746958 0.634314
O O7 0.713646 0.725704 0.543047
O O8 0.899661 0.746950 0.552593
O O9 0.580140 0.500000 0.315159
O O10 0.466555 0.257324 0.269159
O O11 0.500000 0.266772 0.500000
O O12 0.594592 0.500000 0.490330
O O13 0.017591 0.500000 0.142429
O O14 0.103146 0.278754 0.121662
O O15 0.900971 0.268458 0.095617
O O16 0.223877 0.500000 0.948534
O O17 0.291175 0.748700 0.926124
O O18 0.250000 0.750000 0.000000
O O19 0.193780 0.745207 0.827387
O O20 0.279634 0.000000 0.877254
O O21 0.864353 0.500000 0.229318
#
# Coordination Sequence:
#
# PCOD9198152 Si02
#       8
#     8   8   8   8   8   8   8   8
#     4   9  20  36  55  79 108 141 178 218 263 315
#     4  10  21  36  55  82 112 143 181 224 270 319
#     4  11  22  36  54  79 113 149 181 221 269 316
#     4   9  19  38  61  82 107 142 183 225 270 321
#     4   9  20  37  57  78 105 140 177 216 264 320
#     4  11  23  38  55  79 107 139 177 221 270 320
#     4  10  20  37  58  80 106 140 178 218 265 321
#     4  10  20  36  56  81 110 141 179 221 265 318
#
# _framework density 18.595535000000002
#
# number of rings (size 3 to 8) (size 9 to 14) (size 15 to 20)
#    0.000    2.125    0.000    2.625    0.000    7.250 
#    0.000    5.000    0.000    0.000    0.000    0.000 
#    0.000    0.000    0.000    0.000    0.000    0.000 
#
# Total GULP energy -178711.316090 kJ/mol
# GULP energy per Si atom -5584.728628 kJ/mol
# Density = 1.855321 g / cm^3
# Si number density = 18.595535 Si / 1000 Ang^3
#
#
#
# Elastic Constant Matrix: (Units=GPa)
#
#
# Indices 1 2 3 4 5 6 
#
# 1 98.4015 26.2724 45.7195 0.0000 -25.4638 0.0000
# 2 26.2724 28.6739 21.0733 0.0000 -11.0010 0.0000
# 3 45.7195 21.0733 85.4100 0.0000 -35.1481 0.0000
# 4 0.0000 0.0000 0.0000 32.8061 0.0000 -2.2351
# 5 -25.4638 -11.0010 -35.1481 0.0000 27.7429 0.0000
# 6 0.0000 0.0000 0.0000 -2.2351 0.0000 24.0990
#
#
#
# Elastic Compliance Matrix: (Units=1/GPa)
#
#
# Indices 1 2 3 4 5 6 
#
# 1 0.016048 -0.009619 -0.003604 0.000000 0.006349 0.000000
# 2 -0.009619 0.049120 -0.005407 0.000000 0.003798 0.000000
# 3 -0.003604 -0.005407 0.026592 0.000000 0.028238 0.000000
# 4 0.000000 0.000000 0.000000 0.030676 0.000000 0.002845
# 5 0.006349 0.003798 0.028238 0.000000 0.079154 0.000000
# 6 0.000000 0.000000 0.000000 0.002845 0.000000 0.041759
#
#
# Mechanical properties :
#
#
# Convention : Reuss Voigt Hill
#
# Bulk Modulus (GPa) = 18.34917 44.29065 31.31991
# Shear Modulus (GPa) = 16.73482 24.89094 20.81288
#
# Velocity S-wave (km/s) = 3.00315 3.66258 3.34913
# Velocity P-wave (km/s) = 4.68126 6.46186 5.64224
#
# Compressibility (1/GPa) = 0.05449839
#
# Stress axis : x y z
#
# Youngs Moduli (GPa) = 62.31136 20.35841 37.60484
#
# Poissons Ratio (x) = 0.19584 0.13554
# Poissons Ratio (y) = 0.59940 0.20333
# Poissons Ratio (z) = 0.22460 0.11008
#
# Static dielectric constant tensor:
#      x y z
#    x 1.663590 0.000000 -0.004160 
#    y 0.000000 1.620560 0.000000 
#    z -0.004160 0.000000 1.603850 
# 
# From -- ./inp_files/375610.got.cif
#   From: 2010.05.17/outbox.cif.g08.bks.cpg/sg12_188_cif.got.tgz:375610.got - 2010.06.03 13:09:07.
