data_PCOD9198801
_publ_section_title
;
Structure prediction by ZEFSAII (Michael W. Deem and Ramdas Pophale) SiO2 
 PCOD9198801
Probable space group: C 2/M
;
_chemical_formula_sum "Si O2"
_cell_formula_units_Z 52
_cell_length_a 14.050485
_cell_length_b 9.233104
_cell_length_c 19.958433
_cell_angle_alpha 90.000000
_cell_angle_beta 100.112563
_cell_angle_gamma 90.000000
_cell_volume 2548.975339
_symmetry_space_group_name_H-M "C 2/M"
_symmetry_group_IT_number 12
_symmetry_cell_setting 'monoclinic'
loop_
_space_group_symop_operation_xyz
x,y,z
-x,y,-z
-x,-y,-z
x,-y,z
1/2+x,1/2+y,z
1/2-x,1/2+y,-z
1/2-x,1/2-y,-z
1/2+x,1/2-y,z
loop_
_atom_site_type_symbol
_atom_site_label
_atom_site_fract_x
_atom_site_fract_y
_atom_site_fract_z
Si Si1 0.145874 0.287468 0.546072
Si Si2 0.176814 0.174042 0.749909
Si Si3 0.887420 0.331227 0.982713
Si Si4 0.494325 0.827771 0.354878
Si Si5 0.754111 0.500000 0.529210
Si Si6 0.816545 0.164547 0.671563
Si Si7 0.276699 0.831092 0.109793
O O1 0.048236 0.307263 0.575584
O O2 0.165123 0.376647 0.481718
O O3 0.231722 0.346139 0.605769
O O4 0.174532 0.124376 0.536961
O O5 0.088428 0.255063 0.702249
O O6 0.272360 0.233286 0.723642
O O7 0.183325 0.230847 0.826337
O O8 0.169590 0.000000 0.743785
O O9 0.876500 0.500000 0.960260
O O10 0.842288 0.319314 0.051354
O O11 0.827487 0.228472 0.926151
O O12 0.000000 0.296200 0.000000
O O13 0.590424 0.740139 0.348526
O O14 0.504132 0.000000 0.342852
O O15 0.837244 0.000000 0.696952
O O16 0.273462 0.000000 0.129797
#
# Coordination Sequence:
#
# PCOD9198801 Si02
#       7
#     8   8   8   8   4   8   8
#     4  10  21  40  61  84 119 152 194 238 292 347
#     4  11  23  40  62  85 116 157 200 247 296 348
#     4   9  19  36  58  84 118 157 195 238 289 343
#     4  11  23  40  61  87 118 154 195 242 297 351
#     4  10  20  38  64  84 116 158 188 238 290 344
#     4  11  23  40  61  87 117 152 195 244 298 351
#     4  10  20  36  58  85 118 154 195 243 292 346
#
# _framework density 20.400355000000001
#
# number of rings (size 3 to 8) (size 9 to 14) (size 15 to 20)
#    0.000    1.692    1.538    3.692    6.462    2.154 
#    0.000    9.231    0.000    0.000    0.000    0.000 
#    0.000    0.000    0.000    0.000    0.000    0.000 
#
# Total GULP energy -144785.365897 kJ/mol
# GULP energy per Si atom -5568.667919 kJ/mol
# Density = 2.035392 g / cm^3
# Si number density = 20.400355 Si / 1000 Ang^3
#
#
#
# Elastic Constant Matrix: (Units=GPa)
#
#
# Indices 1 2 3 4 5 6 
#
# 1 113.0613 34.8294 5.3757 0.0000 -5.9188 0.0000
# 2 34.8294 189.1871 26.4001 0.0000 1.8865 0.0000
# 3 5.3757 26.4001 46.5234 0.0000 13.3962 0.0000
# 4 0.0000 0.0000 0.0000 56.9096 0.0000 13.5358
# 5 -5.9188 1.8865 13.3962 0.0000 13.3183 0.0000
# 6 0.0000 0.0000 0.0000 13.5358 0.0000 41.5501
#
#
#
# Elastic Compliance Matrix: (Units=1/GPa)
#
#
# Indices 1 2 3 4 5 6 
#
# 1 0.009785 -0.001563 -0.002196 0.000000 0.006779 0.000000
# 2 -0.001563 0.006106 -0.003991 0.000000 0.002455 0.000000
# 3 -0.002196 -0.003991 0.033970 0.000000 -0.034579 0.000000
# 4 0.000000 0.000000 0.000000 0.019048 0.000000 -0.006205
# 5 0.006779 0.002455 -0.034579 0.000000 0.112531 0.000000
# 6 0.000000 0.000000 0.000000 -0.006205 0.000000 0.026089
#
#
# Mechanical properties :
#
#
# Convention : Reuss Voigt Hill
#
# Bulk Modulus (GPa) = 29.10211 53.55359 41.32785
# Shear Modulus (GPa) = 21.32361 41.16670 31.24515
#
# Velocity S-wave (km/s) = 3.23655 4.49702 3.91781
# Velocity P-wave (km/s) = 5.31634 7.29881 6.38498
#
# Compressibility (1/GPa) = 0.03436177
#
# Stress axis : x y z
#
# Youngs Moduli (GPa) = 102.19279 163.77490 29.43774
#
# Poissons Ratio (x) = 0.25593 0.06464
# Poissons Ratio (y) = 0.15969 0.11749
# Poissons Ratio (z) = 0.22440 0.65367
#
# Static dielectric constant tensor:
#      x y z
#    x 1.723250 0.000000 0.016570 
#    y 0.000000 1.701630 0.000000 
#    z 0.016570 0.000000 1.778440 
# 
# From -- ./inp_files/308457.got.cif
#   From: 2010.05.17/outbox.cif.g08.bks.cpg/sg12_155_cif.got.tgz:308457.got - 2010.06.03 13:09:07.
