data_PCOD9198311
_publ_section_title
;
Structure prediction by ZEFSAII (Michael W. Deem and Ramdas Pophale) SiO2 
 PCOD9198311
Probable space group: C 2/M
;
_chemical_formula_sum "Si O2"
_cell_formula_units_Z 42
_cell_length_a 25.379196
_cell_length_b 9.341458
_cell_length_c 12.282507
_cell_angle_alpha 90.000000
_cell_angle_beta 143.049951
_cell_angle_gamma 90.000000
_cell_volume 1750.409517
_symmetry_space_group_name_H-M "C 2/M"
_symmetry_group_IT_number 12
_symmetry_cell_setting 'monoclinic'
loop_
_space_group_symop_operation_xyz
x,y,z
-x,y,-z
-x,-y,-z
x,-y,z
1/2+x,1/2+y,z
1/2-x,1/2+y,-z
1/2-x,1/2-y,-z
1/2+x,1/2-y,z
loop_
_atom_site_type_symbol
_atom_site_label
_atom_site_fract_x
_atom_site_fract_y
_atom_site_fract_z
Si Si1 0.239166 0.826953 0.141086
Si Si2 0.400105 0.724238 0.925797
Si Si3 0.110159 0.329164 0.758440
Si Si4 0.974536 0.163586 0.667262
Si Si5 0.669722 0.659851 0.411958
Si Si6 0.500000 0.000000 0.000000
O O1 0.199084 0.780372 0.189937
O O2 0.339660 0.798731 0.272359
O O3 0.226477 0.000000 0.107358
O O4 0.180073 0.734608 0.960309
O O5 0.394118 0.650987 0.798674
O O6 0.456222 0.659334 0.117299
O O7 0.442354 0.876197 0.968383
O O8 0.100240 0.500000 0.751934
O O9 0.020800 0.255149 0.649944
O O10 0.887822 0.221675 0.584370
O O11 0.959447 0.000000 0.605932
O O12 0.698560 0.500000 0.489066
O O13 0.750000 0.750000 0.500000
#
# Coordination Sequence:
#
# PCOD9198311 Si02
#       6
#     8   8   8   8   8   2
#     4   9  18  31  48  75 109 142 176 215 268 325
#     4  11  21  36  56  79 113 143 181 225 272 321
#     4   9  17  28  49  79 108 137 174 221 266 315
#     4  10  20  36  57  80 110 144 180 220 272 329
#     4  11  24  38  56  78 109 146 184 228 275 329
#     4  12  24  32  54  92 112 138 186 240 262 332
#
# _framework density 23.994387
#
# number of rings (size 3 to 8) (size 9 to 14) (size 15 to 20)
#    0.000    1.905    1.905    3.429    6.667    3.048 
#    0.000    0.000    0.000    1.143    0.000    6.667 
#    0.000    0.000    0.000    0.000    0.000    0.000 
#
# Total GULP energy -116959.624958 kJ/mol
# GULP energy per Si atom -5569.505950 kJ/mol
# Density = 2.393977 g / cm^3
# Si number density = 23.994387 Si / 1000 Ang^3
#
#
#
# Elastic Constant Matrix: (Units=GPa)
#
#
# Indices 1 2 3 4 5 6 
#
# 1 284.4823 82.2067 46.8084 0.0000 39.9394 0.0000
# 2 82.2067 122.6822 8.3265 0.0000 24.7815 0.0000
# 3 46.8084 8.3265 71.6395 0.0000 18.1743 0.0000
# 4 0.0000 0.0000 0.0000 -6.8121 0.0000 19.8599
# 5 39.9394 24.7815 18.1743 0.0000 58.5413 0.0000
# 6 0.0000 0.0000 0.0000 19.8599 0.0000 47.2009
#
#
#
# Elastic Compliance Matrix: (Units=1/GPa)
#
#
# Indices 1 2 3 4 5 6 
#
# 1 0.004959 -0.002872 -0.002558 0.000000 -0.001373 0.000000
# 2 -0.002872 0.010577 0.001396 0.000000 -0.002951 0.000000
# 3 -0.002558 0.001396 0.016472 0.000000 -0.003960 0.000000
# 4 0.000000 0.000000 0.000000 -0.065928 0.000000 0.027739
# 5 -0.001373 -0.002951 -0.003960 0.000000 0.020498 0.000000
# 6 0.000000 0.000000 0.000000 0.027739 0.000000 0.009515
#
#
# Mechanical properties :
#
#
# Convention : Reuss Voigt Hill
#
# Bulk Modulus (GPa) = 41.77031 83.72081 62.74556
# Shear Modulus (GPa) = 411.86162 42.55019 227.20590
#
# Velocity S-wave (km/s) = 13.11571 4.21567 9.74150
# Velocity P-wave (km/s) = 15.71014 7.65921 12.35864
#
# Compressibility (1/GPa) = 0.02394045
#
# Stress axis : x y z
#
# Youngs Moduli (GPa) = 201.66824 94.54610 60.70800
#
# Poissons Ratio (x) = 0.27151 0.15528
# Poissons Ratio (y) = 0.57913 -0.08473
# Poissons Ratio (z) = 0.51582 -0.13196
#
# Static dielectric constant tensor:
#      x y z
#    x 1.945450 0.000000 0.036860 
#    y 0.000000 1.835510 0.000000 
#    z 0.036860 0.000000 1.998020 
# 
# From -- ./inp_files/244468.got.cif
#   From: 2010.05.17/outbox.cif.g08.bks.cpg/sg12_123_cif.got.tgz:244468.got - 2010.06.03 13:09:07.
