data_PCOD9198963
_publ_section_title
;
Structure prediction by ZEFSAII (Michael W. Deem and Ramdas Pophale) SiO2 
 PCOD9198963
Probable space group: C 2/M
;
_chemical_formula_sum "Si O2"
_cell_formula_units_Z 48
_cell_length_a 18.627942
_cell_length_b 7.523941
_cell_length_c 20.957044
_cell_angle_alpha 90.000000
_cell_angle_beta 130.415041
_cell_angle_gamma 90.000000
_cell_volume 2236.325331
_symmetry_space_group_name_H-M "C 2/M"
_symmetry_group_IT_number 12
_symmetry_cell_setting 'monoclinic'
loop_
_space_group_symop_operation_xyz
x,y,z
-x,y,-z
-x,-y,-z
x,-y,z
1/2+x,1/2+y,z
1/2-x,1/2+y,-z
1/2-x,1/2-y,-z
1/2+x,1/2-y,z
loop_
_atom_site_type_symbol
_atom_site_label
_atom_site_fract_x
_atom_site_fract_y
_atom_site_fract_z
Si Si1 0.264047 0.711571 0.082589
Si Si2 0.507651 0.214749 0.401731
Si Si3 0.470591 0.707719 0.234885
Si Si4 0.356176 0.281612 0.749971
Si Si5 0.348538 0.783418 0.410669
Si Si6 0.902115 0.207310 0.917527
O O1 0.262532 0.500000 0.091209
O O2 0.366186 0.783104 0.163294
O O3 0.178978 0.782874 0.076373
O O4 0.250000 0.750000 0.000000
O O5 0.499427 0.278157 0.325103
O O6 0.600057 0.272846 0.494435
O O7 0.417388 0.269463 0.392174
O O8 0.507835 0.000000 0.400295
O O9 0.463265 0.500000 0.213435
O O10 0.553528 0.780194 0.238148
O O11 0.353677 0.500000 0.746981
O O12 0.257395 0.222872 0.662487
O O13 0.366722 0.221479 0.829217
O O14 0.348371 0.000000 0.411094
O O15 0.922035 0.000000 0.915809
O O16 0.000000 0.286309 0.000000
#
# Coordination Sequence:
#
# PCOD9198963 Si02
#       6
#     8   8   8   8   8   8
#     4  11  23  38  56  79 108 140 176 218 263 313
#     4   9  17  31  52  76 100 130 173 220 260 304
#     4  10  21  35  51  75 106 137 170 211 259 310
#     4   9  17  31  51  73 102 140 175 209 257 315
#     4   8  15  29  50  74  99 132 175 216 255 306
#     4  10  20  36  59  83 106 136 176 218 263 318
#
# _framework density 21.463782999999999
#
# number of rings (size 3 to 8) (size 9 to 14) (size 15 to 20)
#    0.000    2.500    0.000    3.500    0.000    6.333 
#    0.000    2.500    0.000    2.000    0.000    0.000 
#    0.000    0.000    0.000    0.000    0.000    0.000 
#
# Total GULP energy -134043.466081 kJ/mol
# GULP energy per Si atom -5585.144420 kJ/mol
# Density = 2.141493 g / cm^3
# Si number density = 21.463783 Si / 1000 Ang^3
#
#
#
# Elastic Constant Matrix: (Units=GPa)
#
#
# Indices 1 2 3 4 5 6 
#
# 1 142.4912 -18.4859 107.0216 0.0000 14.8637 0.0000
# 2 -18.4859 50.4269 -11.8560 0.0000 9.8242 0.0000
# 3 107.0216 -11.8560 181.8503 0.0000 17.8937 0.0000
# 4 0.0000 0.0000 0.0000 8.7697 0.0000 -11.7319
# 5 14.8637 9.8242 17.8937 0.0000 44.1859 0.0000
# 6 0.0000 0.0000 0.0000 -11.7319 0.0000 3.1207
#
#
#
# Elastic Compliance Matrix: (Units=1/GPa)
#
#
# Indices 1 2 3 4 5 6 
#
# 1 0.013218 0.003567 -0.007322 0.000000 -0.002274 0.000000
# 2 0.003567 0.022327 -0.000039 0.000000 -0.006148 0.000000
# 3 -0.007322 -0.000039 0.009960 0.000000 -0.001561 0.000000
# 4 0.000000 0.000000 0.000000 -0.028301 0.000000 -0.106393
# 5 -0.002274 -0.006148 -0.001561 0.000000 0.025396 0.000000
# 6 0.000000 0.000000 0.000000 -0.106393 0.000000 -0.079529
#
#
# Mechanical properties :
#
#
# Convention : Reuss Voigt Hill
#
# Bulk Modulus (GPa) = 26.37412 58.68086 42.52749
# Shear Modulus (GPa) = -299.35526 31.08783 -134.13371
#
# Velocity S-wave (km/s) = -11.82255 3.80989 -7.91383
# Velocity P-wave (km/s) = 13.19277 6.83758 7.97799
#
# Compressibility (1/GPa) = 0.03791595
#
# Stress axis : x y z
#
# Youngs Moduli (GPa) = 75.65628 44.78876 100.40600
#
# Poissons Ratio (x) = -0.15975 0.73522
# Poissons Ratio (y) = -0.26985 0.00387
# Poissons Ratio (z) = 0.55399 0.00172
#
# Static dielectric constant tensor:
#      x y z
#    x 1.693200 0.000000 0.033450 
#    y 0.000000 1.824830 0.000000 
#    z 0.033450 0.000000 1.754760 
# 
# From -- ./inp_files/313631.got.cif
#   From: 2010.05.17/outbox.cif.g08.bks.cpg/sg12_157_cif.got.tgz:313631.got - 2010.06.03 13:09:07.
