data_PCOD9198214
_publ_section_title
;
Structure prediction by ZEFSAII (Michael W. Deem and Ramdas Pophale) SiO2 
 PCOD9198214
Probable space group: C 2/M
;
_chemical_formula_sum "Si O2"
_cell_formula_units_Z 50
_cell_length_a 14.820526
_cell_length_b 9.926585
_cell_length_c 17.073876
_cell_angle_alpha 90.000000
_cell_angle_beta 118.815950
_cell_angle_gamma 90.000000
_cell_volume 2200.823638
_symmetry_space_group_name_H-M "C 2/M"
_symmetry_group_IT_number 12
_symmetry_cell_setting 'monoclinic'
loop_
_space_group_symop_operation_xyz
x,y,z
-x,y,-z
-x,-y,-z
x,-y,z
1/2+x,1/2+y,z
1/2-x,1/2+y,-z
1/2-x,1/2-y,-z
1/2+x,1/2-y,z
loop_
_atom_site_type_symbol
_atom_site_label
_atom_site_fract_x
_atom_site_fract_y
_atom_site_fract_z
Si Si1 0.315618 0.211491 0.904523
Si Si2 0.811308 0.652418 0.271266
Si Si3 0.500000 0.000000 0.000000
Si Si4 0.641196 0.847322 0.534069
Si Si5 0.998706 0.345255 0.225441
Si Si6 0.885260 0.846497 0.611662
Si Si7 0.616624 0.644227 0.924590
O O1 0.274834 0.252885 0.802383
O O2 0.218709 0.151403 0.912887
O O3 0.411437 0.114507 0.945426
O O4 0.347534 0.338911 0.971276
O O5 0.770713 0.500000 0.264241
O O6 0.857080 0.691298 0.374175
O O7 0.903090 0.648634 0.246410
O O8 0.761909 0.855264 0.563141
O O9 0.590139 0.737478 0.456663
O O10 0.600118 0.000000 0.504477
O O11 0.031279 0.500000 0.223711
O O12 0.953046 0.269493 0.131062
O O13 0.078817 0.247167 0.301551
O O14 0.926508 0.000000 0.631369
O O15 0.565128 0.500000 0.890136
#
# Coordination Sequence:
#
# PCOD9198214 Si02
#       7
#     8   8   2   8   8   8   8
#     4  10  22  37  61  85 126 154 202 249 309 360
#     4   9  19  39  60  84 110 157 198 245 298 359
#     4  12  24  40  54  96 124 160 190 270 308 360
#     4   9  19  37  60  79 112 155 197 238 305 356
#     4  10  21  35  59  87 118 149 204 251 294 349
#     4  10  20  36  56  85 116 152 196 249 295 366
#     4  10  20  39  63  86 114 169 205 244 298 373
#
# _framework density 22.718767
#
# number of rings (size 3 to 8) (size 9 to 14) (size 15 to 20)
#    0.000    2.240    0.800    1.440    1.120    4.480 
#    1.440    6.400    0.000    0.000    0.000    0.000 
#    0.000    0.000    0.000    0.000    0.000    0.000 
#
# Total GULP energy -139439.369001 kJ/mol
# GULP energy per Si atom -5577.574760 kJ/mol
# Density = 2.266706 g / cm^3
# Si number density = 22.718767 Si / 1000 Ang^3
#
#
#
# Elastic Constant Matrix: (Units=GPa)
#
#
# Indices 1 2 3 4 5 6 
#
# 1 56.1395 36.7962 23.2613 0.0000 9.8756 0.0000
# 2 36.7962 172.2320 59.6048 0.0000 12.8469 0.0000
# 3 23.2613 59.6048 60.7876 0.0000 -15.2293 0.0000
# 4 0.0000 0.0000 0.0000 21.0467 0.0000 6.0667
# 5 9.8756 12.8469 -15.2293 0.0000 35.4021 0.0000
# 6 0.0000 0.0000 0.0000 6.0667 0.0000 -10.7988
#
#
#
# Elastic Compliance Matrix: (Units=1/GPa)
#
#
# Indices 1 2 3 4 5 6 
#
# 1 0.025361 -0.000050 -0.012803 0.000000 -0.012564 0.000000
# 2 -0.000050 0.011191 -0.013414 0.000000 -0.009818 0.000000
# 3 -0.012803 -0.013414 0.041041 0.000000 0.026094 0.000000
# 4 0.000000 0.000000 0.000000 0.040891 0.000000 0.022973
# 5 -0.012564 -0.009818 0.026094 0.000000 0.046540 0.000000
# 6 0.000000 0.000000 0.000000 0.022973 0.000000 -0.079697
#
#
# Mechanical properties :
#
#
# Convention : Reuss Voigt Hill
#
# Bulk Modulus (GPa) = 39.90759 58.72040 49.31400
# Shear Modulus (GPa) = 34.19633 20.42977 27.31305
#
# Velocity S-wave (km/s) = 3.88390 3.00200 3.47107
# Velocity P-wave (km/s) = 6.14141 6.15782 6.14962
#
# Compressibility (1/GPa) = 0.02505789
#
# Stress axis : x y z
#
# Youngs Moduli (GPa) = 39.43095 89.35418 24.36608
#
# Poissons Ratio (x) = 0.00448 0.31196
# Poissons Ratio (y) = 0.00198 0.32685
# Poissons Ratio (z) = 0.50484 1.19861
#
# Static dielectric constant tensor:
#      x y z
#    x 1.878560 0.000000 -0.026510 
#    y 0.000000 1.822910 0.000000 
#    z -0.026510 0.000000 1.840260 
# 
# From -- ./inp_files/275789.got.cif
#   From: 2010.05.17/outbox.cif.g08.bks.cpg/sg12_138_cif.got.tgz:275789.got - 2010.06.03 13:09:07.
