data_PCOD9198088
_publ_section_title
;
Structure prediction by ZEFSAII (Michael W. Deem and Ramdas Pophale) SiO2 
 PCOD9198088
Probable space group: C 2/M
;
_chemical_formula_sum "Si O2"
_cell_formula_units_Z 48
_cell_length_a 23.539946
_cell_length_b 21.168263
_cell_length_c 12.568820
_cell_angle_alpha 90.000000
_cell_angle_beta 157.326201
_cell_angle_gamma 90.000000
_cell_volume 2414.302567
_symmetry_space_group_name_H-M "C 2/M"
_symmetry_group_IT_number 12
_symmetry_cell_setting 'monoclinic'
loop_
_space_group_symop_operation_xyz
x,y,z
-x,y,-z
-x,-y,-z
x,-y,z
1/2+x,1/2+y,z
1/2-x,1/2+y,-z
1/2-x,1/2-y,-z
1/2+x,1/2-y,z
loop_
_atom_site_type_symbol
_atom_site_label
_atom_site_fract_x
_atom_site_fract_y
_atom_site_fract_z
Si Si1 0.137361 0.174899 0.996560
Si Si2 0.658372 0.740063 0.503893
Si Si3 0.972577 0.430294 0.323920
Si Si4 0.275169 0.571522 0.709260
Si Si5 0.349787 0.152362 0.686339
Si Si6 0.658023 0.185722 0.826968
O O1 0.241856 0.225526 0.236805
O O2 0.113847 0.119559 0.041266
O O3 0.232298 0.149151 0.063396
O O4 0.989217 0.209307 0.706475
O O5 0.616975 0.792890 0.344011
O O6 0.750085 0.686636 0.601563
O O7 0.907442 0.500000 0.186502
O O8 0.881089 0.365269 0.148923
O O9 0.000000 0.430537 0.500000
O O10 0.122892 0.425799 0.515606
O O11 0.326866 0.500000 0.796571
O O12 0.234460 0.598426 0.523681
O O13 0.500000 0.130288 0.000000
O O14 0.500000 0.200968 0.500000
O O15 0.750000 0.250000 0.000000
#
# Coordination Sequence:
#
# PCOD9198088 Si02
#       6
#     8   8   8   8   8   8
#     4  11  20  35  56  82 115 144 188 229 282 335
#     4  10  21  34  55  82 110 150 181 227 284 339
#     4   9  17  34  55  79 106 145 189 227 273 330
#     4  10  21  35  57  82 108 146 194 235 271 330
#     4  10  20  36  56  78 112 148 188 226 280 338
#     4  11  21  33  54  87 116 145 181 237 282 325
#
# _framework density 19.881516999999999
#
# number of rings (size 3 to 8) (size 9 to 14) (size 15 to 20)
#    0.000    1.833    5.000    1.000    2.333    0.333 
#    0.000    1.667    0.000    0.500    0.000    1.167 
#    0.000    0.000    0.000    0.000    0.000    0.000 
#
# Total GULP energy -133843.825059 kJ/mol
# GULP energy per Si atom -5576.826044 kJ/mol
# Density = 1.983627 g / cm^3
# Si number density = 19.881517 Si / 1000 Ang^3
#
#
#
# Elastic Constant Matrix: (Units=GPa)
#
#
# Indices 1 2 3 4 5 6 
#
# 1 31.6285 -8.2424 -10.5966 0.0000 8.2140 0.0000
# 2 -8.2424 129.5157 29.8702 0.0000 -0.6567 0.0000
# 3 -10.5966 29.8702 38.3434 0.0000 9.3657 0.0000
# 4 0.0000 0.0000 0.0000 13.0491 0.0000 2.6364
# 5 8.2140 -0.6567 9.3657 0.0000 21.3802 0.0000
# 6 0.0000 0.0000 0.0000 2.6364 0.0000 22.2648
#
#
#
# Elastic Compliance Matrix: (Units=1/GPa)
#
#
# Indices 1 2 3 4 5 6 
#
# 1 0.044662 -0.001958 0.020239 0.000000 -0.026085 0.000000
# 2 -0.001958 0.009801 -0.009444 0.000000 0.005190 0.000000
# 3 0.020239 -0.009444 0.045913 0.000000 -0.028178 0.000000
# 4 0.000000 0.000000 0.000000 0.078512 0.000000 -0.009297
# 5 -0.026085 0.005190 -0.028178 0.000000 0.069297 0.000000
# 6 0.000000 0.000000 0.000000 -0.009297 0.000000 0.046015
#
#
# Mechanical properties :
#
#
# Convention : Reuss Voigt Hill
#
# Bulk Modulus (GPa) = 8.47089 24.61665 16.54377
# Shear Modulus (GPa) = 15.82909 23.90258 19.86584
#
# Velocity S-wave (km/s) = 2.82471 3.47111 3.16446
# Velocity P-wave (km/s) = 3.86117 5.33604 4.65736
#
# Compressibility (1/GPa) = 0.11805129
#
# Stress axis : x y z
#
# Youngs Moduli (GPa) = 22.39048 102.03238 21.78027
#
# Poissons Ratio (x) = 0.19975 -0.44082
# Poissons Ratio (y) = 0.04383 0.20569
# Poissons Ratio (z) = -0.45317 0.96357
#
# Static dielectric constant tensor:
#      x y z
#    x 1.763710 0.000000 -0.004700 
#    y 0.000000 1.757590 0.000000 
#    z -0.004700 0.000000 1.679120 
# 
# From -- ./inp_files/132599.got.cif
#   From: 2010.05.17/outbox.cif.g08.bks.cpg/sg12_67_cif.got.tgz:132599.got - 2010.06.03 13:09:07.
