data_PCOD9198505
_publ_section_title
;
Structure prediction by ZEFSAII (Michael W. Deem and Ramdas Pophale) SiO2 
 PCOD9198505
Probable space group: C 2/M
;
_chemical_formula_sum "Si O2"
_cell_formula_units_Z 64
_cell_length_a 15.410323
_cell_length_b 15.586309
_cell_length_c 18.481008
_cell_angle_alpha 90.000000
_cell_angle_beta 131.979181
_cell_angle_gamma 90.000000
_cell_volume 3299.865003
_symmetry_space_group_name_H-M "C 2/M"
_symmetry_group_IT_number 12
_symmetry_cell_setting 'monoclinic'
loop_
_space_group_symop_operation_xyz
x,y,z
-x,y,-z
-x,-y,-z
x,-y,z
1/2+x,1/2+y,z
1/2-x,1/2+y,-z
1/2-x,1/2-y,-z
1/2+x,1/2-y,z
loop_
_atom_site_type_symbol
_atom_site_label
_atom_site_fract_x
_atom_site_fract_y
_atom_site_fract_z
Si Si1 0.203637 0.243918 0.210444
Si Si2 0.138397 0.094942 0.064588
Si Si3 0.364515 0.098057 0.916570
Si Si4 0.540137 0.727395 0.257066
Si Si5 0.695795 0.338268 0.940671
Si Si6 0.101973 0.653175 0.609264
Si Si7 0.059493 0.402985 0.354489
Si Si8 0.774388 0.902911 0.581992
O O1 0.192209 0.170981 0.142447
O O2 0.190739 0.336571 0.170018
O O3 0.103631 0.230554 0.214481
O O4 0.327296 0.230450 0.316698
O O5 0.181846 0.000000 0.110230
O O6 0.158615 0.110370 0.991178
O O7 0.000000 0.097795 0.000000
O O8 0.294279 0.111807 0.951333
O O9 0.358723 0.000000 0.890119
O O10 0.500000 0.122605 0.000000
O O11 0.413870 0.685952 0.171577
O O12 0.536123 0.823343 0.287977
O O13 0.623282 0.666824 0.352772
O O14 0.750000 0.250000 0.000000
O O15 0.194643 0.603658 0.610375
O O16 0.000000 0.683737 0.500000
O O17 0.039047 0.601030 0.637723
O O18 0.059778 0.500000 0.323572
O O19 0.183455 0.388691 0.465274
O O20 0.820390 0.000000 0.602500
#
# Coordination Sequence:
#
# PCOD9198505 Si02
#       8
#     8   8   8   8   8   8   8   8
#     4  11  21  40  61  84 120 159 195 247 295 350
#     4  11  23  40  63  91 122 153 193 248 306 358
#     4  11  24  42  63  85 118 162 205 246 293 349
#     4  11  23  36  60  88 118 160 200 243 298 357
#     4  12  23  41  63  85 121 159 199 249 300 349
#     4   9  19  36  59  87 117 154 195 242 304 357
#     4  10  20  36  57  88 122 154 197 246 293 353
#     4   9  19  36  60  86 119 155 193 247 303 354
#
# _framework density 19.394732999999999
#
# number of rings (size 3 to 8) (size 9 to 14) (size 15 to 20)
#    0.000    1.500    2.500    3.000    0.000    5.500 
#    0.000    0.625    0.000    0.375    0.000    0.000 
#    0.000    0.000    0.000    0.000    0.000    0.000 
#
# Total GULP energy -178728.958998 kJ/mol
# GULP energy per Si atom -5585.279969 kJ/mol
# Density = 1.935059 g / cm^3
# Si number density = 19.394733 Si / 1000 Ang^3
#
#
#
# Elastic Constant Matrix: (Units=GPa)
#
#
# Indices 1 2 3 4 5 6 
#
# 1 84.9029 17.9410 36.5256 0.0000 8.6060 0.0000
# 2 17.9410 63.6377 43.7613 0.0000 2.6794 0.0000
# 3 36.5256 43.7613 69.5110 0.0000 4.5684 0.0000
# 4 0.0000 0.0000 0.0000 -188.4405 0.0000 10.1810
# 5 8.6060 2.6794 4.5684 0.0000 24.9383 0.0000
# 6 0.0000 0.0000 0.0000 10.1810 0.0000 16.0143
#
#
#
# Elastic Compliance Matrix: (Units=1/GPa)
#
#
# Indices 1 2 3 4 5 6 
#
# 1 0.015760 0.002186 -0.009397 0.000000 -0.003952 0.000000
# 2 0.002186 0.028015 -0.018764 0.000000 -0.000327 0.000000
# 3 -0.009397 -0.018764 0.031167 0.000000 -0.000450 0.000000
# 4 0.000000 0.000000 0.000000 -0.005130 0.000000 0.003262
# 5 -0.003952 -0.000327 -0.000450 0.000000 0.041580 0.000000
# 6 0.000000 0.000000 0.000000 0.003262 0.000000 0.060371
#
#
# Mechanical properties :
#
#
# Convention : Reuss Voigt Hill
#
# Bulk Modulus (GPa) = 43.49750 46.05637 44.77694
# Shear Modulus (GPa) = 21.60977 -21.50933 0.05022
#
# Velocity S-wave (km/s) = 3.34160 -3.33382 0.16109
# Velocity P-wave (km/s) = 6.11265 2.99654 4.81372
#
# Compressibility (1/GPa) = 0.02298983
#
# Stress axis : x y z
#
# Youngs Moduli (GPa) = 63.45298 35.69531 32.08531
#
# Poissons Ratio (x) = -0.07802 0.30152
# Poissons Ratio (y) = -0.13868 0.60205
# Poissons Ratio (z) = 0.59629 0.66979
#
# Static dielectric constant tensor:
#      x y z
#    x 1.700990 0.000000 -0.004820 
#    y 0.000000 1.665810 0.000000 
#    z -0.004820 0.000000 1.679520 
# 
# From -- ./inp_files/270722.got.cif
#   From: 2010.05.17/outbox.cif.g08.bks.cpg/sg12_136_cif.got.tgz:270722.got - 2010.06.03 13:09:07.
