data_PCOD9198016
_publ_section_title
;
Structure prediction by ZEFSAII (Michael W. Deem and Ramdas Pophale) SiO2 
 PCOD9198016
Probable space group: C 2/M
;
_chemical_formula_sum "Si O2"
_cell_formula_units_Z 48
_cell_length_a 7.801358
_cell_length_b 22.754625
_cell_length_c 16.513385
_cell_angle_alpha 90.000000
_cell_angle_beta 52.433623
_cell_angle_gamma 90.000000
_cell_volume 2323.571943
_symmetry_space_group_name_H-M "C 2/M"
_symmetry_group_IT_number 12
_symmetry_cell_setting 'monoclinic'
loop_
_space_group_symop_operation_xyz
x,y,z
-x,y,-z
-x,-y,-z
x,-y,z
1/2+x,1/2+y,z
1/2-x,1/2+y,-z
1/2-x,1/2-y,-z
1/2+x,1/2-y,z
loop_
_atom_site_type_symbol
_atom_site_label
_atom_site_fract_x
_atom_site_fract_y
_atom_site_fract_z
Si Si1 0.412790 0.667137 0.683949
Si Si2 0.740439 0.173413 0.075057
Si Si3 0.238118 0.432790 0.395356
Si Si4 0.342408 0.779664 0.391844
Si Si5 0.212068 0.365840 0.250893
Si Si6 0.193044 0.187497 0.120840
O O1 0.574388 0.612098 0.629406
O O2 0.552694 0.722045 0.675987
O O3 0.314594 0.688127 0.626670
O O4 0.243891 0.664022 0.807478
O O5 0.650468 0.133171 0.173980
O O6 0.701146 0.241604 0.111538
O O7 0.686154 0.166652 0.995928
O O8 0.000000 0.165328 0.000000
O O9 0.290423 0.500000 0.400862
O O10 0.224343 0.423446 0.302274
O O11 0.000000 0.419557 0.500000
O O12 0.250000 0.750000 0.500000
O O13 0.537662 0.825037 0.347408
O O14 0.448691 0.337069 0.182554
#
# Coordination Sequence:
#
# PCOD9198016 Si02
#       6
#     8   8   8   8   8   8
#     4  11  22  36  57  85 120 156 193 242 298 359
#     4   9  17  29  52  82 123 158 191 235 290 366
#     4  10  22  42  63  83 112 159 213 256 295 347
#     4  12  24  36  56  89 126 155 188 242 308 368
#     4  10  20  36  55  84 120 159 196 244 298 356
#     4   9  18  31  51  82 119 159 190 233 290 364
#
# _framework density 20.657848000000001
#
# number of rings (size 3 to 8) (size 9 to 14) (size 15 to 20)
#    0.000    1.833    1.667    3.500    2.333    0.000 
#    0.000    0.833    0.000   16.500    0.000    0.000 
#    0.000   33.333    0.000    0.000    0.000    0.000 
#
# Total GULP energy -133710.732404 kJ/mol
# GULP energy per Si atom -5571.280517 kJ/mol
# Density = 2.061083 g / cm^3
# Si number density = 20.657848 Si / 1000 Ang^3
#
#
#
# Elastic Constant Matrix: (Units=GPa)
#
#
# Indices 1 2 3 4 5 6 
#
# 1 110.2711 27.9512 39.5585 0.0000 21.2852 0.0000
# 2 27.9512 79.8486 19.3086 0.0000 -4.6360 0.0000
# 3 39.5585 19.3086 143.6526 0.0000 21.2278 0.0000
# 4 0.0000 0.0000 0.0000 18.5367 0.0000 -1.3359
# 5 21.2852 -4.6360 21.2278 0.0000 34.9697 0.0000
# 6 0.0000 0.0000 0.0000 -1.3359 0.0000 19.6377
#
#
#
# Elastic Compliance Matrix: (Units=1/GPa)
#
#
# Indices 1 2 3 4 5 6 
#
# 1 0.012085 -0.004205 -0.001750 0.000000 -0.006851 0.000000
# 2 -0.004205 0.014710 -0.001632 0.000000 0.005500 0.000000
# 3 -0.001750 -0.001632 0.008280 0.000000 -0.004177 0.000000
# 4 0.000000 0.000000 0.000000 0.054213 0.000000 0.003688
# 5 -0.006851 0.005500 -0.004177 0.000000 0.036031 0.000000
# 6 0.000000 0.000000 0.000000 0.003688 0.000000 0.051173
#
#
# Mechanical properties :
#
#
# Convention : Reuss Voigt Hill
#
# Bulk Modulus (GPa) = 50.25156 56.37876 53.31516
# Shear Modulus (GPa) = 25.21453 31.09243 28.15348
#
# Velocity S-wave (km/s) = 3.49747 3.88379 3.69568
# Velocity P-wave (km/s) = 6.37873 6.88932 6.63893
#
# Compressibility (1/GPa) = 0.01989988
#
# Stress axis : x y z
#
# Youngs Moduli (GPa) = 82.74989 67.98304 120.77502
#
# Poissons Ratio (x) = 0.28585 0.21140
# Poissons Ratio (y) = 0.34794 0.19711
# Poissons Ratio (z) = 0.14484 0.11095
#
# Static dielectric constant tensor:
#      x y z
#    x 1.974620 0.000000 -0.015120 
#    y 0.000000 1.671860 0.000000 
#    z -0.015120 0.000000 1.981200 
# 
# From -- ./inp_files/306450.got.cif
#   From: 2010.05.17/outbox.cif.g08.bks.cpg/sg12_154_cif.got.tgz:306450.got - 2010.06.03 13:09:07.
