data_PCOD9198284
_publ_section_title
;
Structure prediction by ZEFSAII (Michael W. Deem and Ramdas Pophale) SiO2 
 PCOD9198284
Probable space group: C 2/M
;
_chemical_formula_sum "Si O2"
_cell_formula_units_Z 56
_cell_length_a 18.282842
_cell_length_b 14.030329
_cell_length_c 20.710037
_cell_angle_alpha 90.000000
_cell_angle_beta 30.290667
_cell_angle_gamma 90.000000
_cell_volume 2679.515669
_symmetry_space_group_name_H-M "C 2/M"
_symmetry_group_IT_number 12
_symmetry_cell_setting 'monoclinic'
loop_
_space_group_symop_operation_xyz
x,y,z
-x,y,-z
-x,-y,-z
x,-y,z
1/2+x,1/2+y,z
1/2-x,1/2+y,-z
1/2-x,1/2-y,-z
1/2+x,1/2-y,z
loop_
_atom_site_type_symbol
_atom_site_label
_atom_site_fract_x
_atom_site_fract_y
_atom_site_fract_z
Si Si1 0.018733 0.885069 0.060074
Si Si2 0.993104 0.699253 0.612631
Si Si3 0.657551 0.115186 0.149576
Si Si4 0.334236 0.892314 0.216329
Si Si5 0.147136 0.615464 0.012481
Si Si6 0.618071 0.608734 0.261336
Si Si7 0.268552 0.800975 0.665474
O O1 0.885576 0.848610 0.204187
O O2 0.015364 0.000000 0.063693
O O3 0.000000 0.854221 0.000000
O O4 0.176948 0.853884 0.962680
O O5 0.946079 0.648788 0.714105
O O6 0.991978 0.812203 0.629447
O O7 0.868750 0.682109 0.652771
O O8 0.141585 0.667994 0.465533
O O9 0.619586 0.147588 0.106387
O O10 0.656332 0.000000 0.150741
O O11 0.502466 0.863337 0.082205
O O12 0.248324 0.893742 0.214639
O O13 0.256996 0.812575 0.317758
O O14 0.328971 0.000000 0.246948
O O15 0.159072 0.500000 0.003287
O O16 0.299806 0.645172 0.865419
O O17 0.564008 0.500000 0.295699
#
# Coordination Sequence:
#
# PCOD9198284 Si02
#       7
#     8   8   8   8   8   8   8
#     4  10  20  36  57  80 104 141 186 229 274 316
#     4  10  21  35  53  83 112 144 181 219 274 323
#     4  10  21  37  57  80 110 143 181 227 275 323
#     4   9  18  33  55  82 110 142 179 221 271 320
#     4   9  18  33  55  82 109 141 182 226 272 319
#     4   9  18  33  55  82 112 142 180 224 265 319
#     4  10  21  35  55  82 112 142 181 227 267 321
#
# _framework density 20.899298999999999
#
# number of rings (size 3 to 8) (size 9 to 14) (size 15 to 20)
#    0.000    2.429    1.429    0.429    2.000    3.429 
#    0.000    5.000    0.000    0.000    0.000    0.000 
#    0.000    0.000    0.000    0.000    0.000    0.000 
#
# Total GULP energy -156294.487566 kJ/mol
# GULP energy per Si atom -5581.945984 kJ/mol
# Density = 2.085173 g / cm^3
# Si number density = 20.899299 Si / 1000 Ang^3
#
#
#
# Elastic Constant Matrix: (Units=GPa)
#
#
# Indices 1 2 3 4 5 6 
#
# 1 34.4078 16.2532 22.8998 0.0001 16.0255 0.0001
# 2 16.2532 41.0630 19.1750 -0.0005 2.9645 0.0002
# 3 22.8998 19.1750 128.2268 -0.0009 27.6004 0.0004
# 4 0.0001 -0.0005 -0.0009 15.2363 0.0004 4.6393
# 5 16.0255 2.9645 27.6004 0.0004 23.3980 -0.0002
# 6 0.0001 0.0002 0.0004 4.6393 -0.0002 17.6241
#
#
#
# Elastic Compliance Matrix: (Units=1/GPa)
#
#
# Indices 1 2 3 4 5 6 
#
# 1 0.054243 -0.019308 0.000898 0.000000 -0.035765 -0.000001
# 2 -0.019308 0.033107 -0.004619 0.000001 0.014478 0.000000
# 3 0.000898 -0.004619 0.011172 0.000001 -0.013209 -0.000001
# 4 0.000000 0.000001 0.000001 0.071352 -0.000003 -0.018782
# 5 -0.035765 0.014478 -0.013209 -0.000003 0.080982 0.000002
# 6 -0.000001 0.000000 -0.000001 -0.018782 0.000002 0.061685
#
#
# Mechanical properties :
#
#
# Convention : Reuss Voigt Hill
#
# Bulk Modulus (GPa) = 19.06006 35.59485 27.32745
# Shear Modulus (GPa) = 13.29486 20.94300 17.11893
#
# Velocity S-wave (km/s) = 2.52492 3.16902 2.86512
# Velocity P-wave (km/s) = 4.20000 5.51895 4.90402
#
# Compressibility (1/GPa) = 0.05246573
#
# Stress axis : x y z
#
# Youngs Moduli (GPa) = 18.43542 30.20535 89.50868
#
# Poissons Ratio (x) = 0.58319 -0.08042
# Poissons Ratio (y) = 0.35594 0.41344
# Poissons Ratio (z) = -0.01656 0.13952
#
# Static dielectric constant tensor:
#      x y z
#    x 1.750670 0.000000 0.000370 
#    y 0.000000 1.801390 0.000000 
#    z 0.000370 0.000000 1.729120 
# 
# From -- ./inp_files/316702.got.cif
#   From: 2010.05.17/outbox.cif.g08.bks.cpg/sg12_159_cif.got.tgz:316702.got - 2010.06.03 13:09:07.
