data_PCOD9198451
_publ_section_title
;
Structure prediction by ZEFSAII (Michael W. Deem and Ramdas Pophale) SiO2 
 PCOD9198451
Probable space group: C 2/M
;
_chemical_formula_sum "Si O2"
_cell_formula_units_Z 56
_cell_length_a 23.143358
_cell_length_b 9.398184
_cell_length_c 16.298496
_cell_angle_alpha 90.000000
_cell_angle_beta 127.727145
_cell_angle_gamma 90.000000
_cell_volume 2803.870421
_symmetry_space_group_name_H-M "C 2/M"
_symmetry_group_IT_number 12
_symmetry_cell_setting 'monoclinic'
loop_
_space_group_symop_operation_xyz
x,y,z
-x,y,-z
-x,-y,-z
x,-y,z
1/2+x,1/2+y,z
1/2-x,1/2+y,-z
1/2-x,1/2-y,-z
1/2+x,1/2-y,z
loop_
_atom_site_type_symbol
_atom_site_label
_atom_site_fract_x
_atom_site_fract_y
_atom_site_fract_z
Si Si1 0.213312 0.673203 0.047236
Si Si2 0.522152 0.162718 0.609792
Si Si3 0.579124 0.169088 0.035939
Si Si4 0.571591 0.335535 0.346568
Si Si5 0.797532 0.161247 0.414556
Si Si6 0.692695 0.836901 0.738901
Si Si7 0.870164 0.339368 0.741827
O O1 0.215791 0.500000 0.041414
O O2 0.129431 0.715054 0.001896
O O3 0.262083 0.730273 0.165046
O O4 0.250000 0.750000 0.000000
O O5 0.500000 0.217518 0.500000
O O6 0.486521 0.254186 0.649280
O O7 0.608785 0.161593 0.694092
O O8 0.494468 0.000000 0.590363
O O9 0.628936 0.187460 0.160431
O O10 0.567909 0.000000 0.012526
O O11 0.500000 0.225595 0.000000
O O12 0.553773 0.500000 0.325390
O O13 0.647900 0.319861 0.462633
O O14 0.580586 0.267471 0.265657
O O15 0.809537 0.278205 0.355488
O O16 0.712369 0.168139 0.362174
O O17 0.810732 0.000000 0.393118
O O18 0.720679 0.000000 0.766942
O O19 0.897747 0.500000 0.753340
#
# Coordination Sequence:
#
# PCOD9198451 Si02
#       7
#     8   8   8   8   8   8   8
#     4  11  23  42  66  94 127 157 202 257 313 375
#     4  10  21  38  57  81 115 158 205 247 292 357
#     4   9  19  38  65  91 116 155 203 250 300 361
#     4  11  23  35  54  87 123 157 197 248 302 354
#     4  10  20  36  57  84 117 155 197 240 295 354
#     4  11  22  37  62  89 115 154 202 247 298 357
#     4  10  20  37  59  83 116 158 199 240 294 359
#
# _framework density 19.972391999999999
#
# number of rings (size 3 to 8) (size 9 to 14) (size 15 to 20)
#    0.000    1.714    2.857    1.714    0.000    3.714 
#    0.000    2.857    0.000    3.000    0.000    0.000 
#    0.000    0.000    0.000    0.000    0.000    0.000 
#
# Total GULP energy -156151.411462 kJ/mol
# GULP energy per Si atom -5576.836124 kJ/mol
# Density = 1.992693 g / cm^3
# Si number density = 19.972392 Si / 1000 Ang^3
#
#
#
# Elastic Constant Matrix: (Units=GPa)
#
#
# Indices 1 2 3 4 5 6 
#
# 1 126.3059 61.5176 16.1300 0.0000 -4.1487 0.0000
# 2 61.5176 87.4181 14.2027 0.0000 -16.0083 0.0000
# 3 16.1300 14.2027 16.8615 0.0000 3.1434 0.0000
# 4 0.0000 0.0000 0.0000 23.0258 0.0000 -1.9061
# 5 -4.1487 -16.0083 3.1434 0.0000 23.6959 0.0000
# 6 0.0000 0.0000 0.0000 -1.9061 0.0000 23.9625
#
#
#
# Elastic Compliance Matrix: (Units=1/GPa)
#
#
# Indices 1 2 3 4 5 6 
#
# 1 0.012620 -0.008809 -0.004056 0.000000 -0.003203 0.000000
# 2 -0.008809 0.022706 -0.013608 0.000000 0.015603 0.000000
# 3 -0.004056 -0.013608 0.078435 0.000000 -0.020308 0.000000
# 4 0.000000 0.000000 0.000000 0.043717 0.000000 0.003478
# 5 -0.003203 0.015603 -0.020308 0.000000 0.054875 0.000000
# 6 0.000000 0.000000 0.000000 0.003478 0.000000 0.042008
#
#
# Mechanical properties :
#
#
# Convention : Reuss Voigt Hill
#
# Bulk Modulus (GPa) = 16.44300 46.03178 31.23739
# Shear Modulus (GPa) = 15.26347 23.38586 19.32467
#
# Velocity S-wave (km/s) = 2.76747 3.42557 3.11395
# Velocity P-wave (km/s) = 4.29681 6.22445 5.34819
#
# Compressibility (1/GPa) = 0.06081614
#
# Stress axis : x y z
#
# Youngs Moduli (GPa) = 79.23673 44.04067 12.74948
#
# Poissons Ratio (x) = 0.38795 0.05171
# Poissons Ratio (y) = 0.69799 0.17349
# Poissons Ratio (z) = 0.32138 0.59930
#
# Static dielectric constant tensor:
#      x y z
#    x 1.731780 0.000000 0.017870 
#    y 0.000000 1.687560 0.000000 
#    z 0.017870 0.000000 1.725390 
# 
# From -- ./inp_files/280989.got.cif
#   From: 2010.05.17/outbox.cif.g08.bks.cpg/sg12_141_cif.got.tgz:280989.got - 2010.06.03 13:09:07.
