data_PCOD9198743
_publ_section_title
;
Structure prediction by ZEFSAII (Michael W. Deem and Ramdas Pophale) SiO2 
 PCOD9198743
Probable space group: C 2/M
;
_chemical_formula_sum "Si O2"
_cell_formula_units_Z 48
_cell_length_a 24.593128
_cell_length_b 8.673118
_cell_length_c 10.051070
_cell_angle_alpha 90.000000
_cell_angle_beta 82.524388
_cell_angle_gamma 90.000000
_cell_volume 2125.661889
_symmetry_space_group_name_H-M "C 2/M"
_symmetry_group_IT_number 12
_symmetry_cell_setting 'monoclinic'
loop_
_space_group_symop_operation_xyz
x,y,z
-x,y,-z
-x,-y,-z
x,-y,z
1/2+x,1/2+y,z
1/2-x,1/2+y,-z
1/2-x,1/2-y,-z
1/2+x,1/2-y,z
loop_
_atom_site_type_symbol
_atom_site_label
_atom_site_fract_x
_atom_site_fract_y
_atom_site_fract_z
Si Si1 0.097417 0.818706 0.943723
Si Si2 0.452458 0.687054 0.321495
Si Si3 0.429586 0.318441 0.752493
Si Si4 0.335678 0.316196 0.451673
Si Si5 0.311725 0.819861 0.731303
Si Si6 0.297439 0.181366 0.183116
O O1 0.065607 0.765132 0.821971
O O2 0.154990 0.729537 0.934038
O O3 0.110279 0.000000 0.920132
O O4 0.063482 0.807583 0.089752
O O5 0.455744 0.500000 0.320141
O O6 0.514078 0.740366 0.330607
O O7 0.400823 0.725521 0.430519
O O8 0.422012 0.500000 0.720831
O O9 0.373300 0.232833 0.742131
O O10 0.330231 0.500000 0.472712
O O11 0.305601 0.226184 0.577947
O O12 0.314412 0.269931 0.313303
O O13 0.264449 0.731580 0.826710
O O14 0.304652 0.000000 0.753548
O O15 0.299397 0.000000 0.204989
#
# Coordination Sequence:
#
# PCOD9198743 Si02
#       6
#     8   8   8   8   8   8
#     4   9  18  35  60  87 113 144 184 229 274 323
#     4   8  16  33  60  88 111 141 183 228 270 322
#     4  10  20  36  58  84 114 149 188 226 269 324
#     4  10  20  38  62  86 111 142 184 229 275 326
#     4  12  25  39  54  78 114 151 187 228 279 332
#     4  11  22  38  60  84 110 143 185 230 278 330
#
# _framework density 22.581201
#
# number of rings (size 3 to 8) (size 9 to 14) (size 15 to 20)
#    0.000    2.000    0.000    5.500    0.000    4.000 
#    0.000    7.500    0.000    5.000    0.000    0.000 
#    0.000    0.000    0.000    0.000    0.000    0.000 
#
# Total GULP energy -134178.248370 kJ/mol
# GULP energy per Si atom -5590.760349 kJ/mol
# Density = 2.252981 g / cm^3
# Si number density = 22.581201 Si / 1000 Ang^3
#
#
#
# Elastic Constant Matrix: (Units=GPa)
#
#
# Indices 1 2 3 4 5 6 
#
# 1 128.5898 9.7667 12.1920 0.0000 -32.3112 0.0000
# 2 9.7667 33.1908 3.4891 0.0000 -13.8295 0.0000
# 3 12.1920 3.4891 47.1925 0.0000 -14.2260 0.0000
# 4 0.0000 0.0000 0.0000 21.4317 0.0000 -2.0590
# 5 -32.3112 -13.8295 -14.2260 0.0000 37.9916 0.0000
# 6 0.0000 0.0000 0.0000 -2.0590 0.0000 25.1958
#
#
#
# Elastic Compliance Matrix: (Units=1/GPa)
#
#
# Indices 1 2 3 4 5 6 
#
# 1 0.009904 0.000702 0.000006 0.000000 0.008681 0.000000
# 2 0.000702 0.035652 0.001437 0.000000 0.014113 0.000000
# 3 0.000006 0.001437 0.023944 0.000000 0.009494 0.000000
# 4 0.000000 0.000000 0.000000 0.047029 0.000000 0.003843
# 5 0.008681 0.014113 0.009494 0.000000 0.042397 0.000000
# 6 0.000000 0.000000 0.000000 0.003843 0.000000 0.040003
#
#
# Mechanical properties :
#
#
# Convention : Reuss Voigt Hill
#
# Bulk Modulus (GPa) = 13.55185 28.87429 21.21307
# Shear Modulus (GPa) = 22.80657 29.15884 25.98271
#
# Velocity S-wave (km/s) = 3.18147 3.59735 3.39578
# Velocity P-wave (km/s) = 4.41702 5.48354 4.97892
#
# Compressibility (1/GPa) = 0.07379066
#
# Stress axis : x y z
#
# Youngs Moduli (GPa) = 100.96829 28.04926 41.76416
#
# Poissons Ratio (x) = -0.01969 -0.00026
# Poissons Ratio (y) = -0.07089 -0.06002
# Poissons Ratio (z) = -0.00064 -0.04031
#
# Static dielectric constant tensor:
#      x y z
#    x 1.891060 0.000000 0.028110 
#    y 0.000000 1.751570 0.000000 
#    z 0.028110 0.000000 1.852110 
# 
# From -- ./inp_files/172200.got.cif
#   From: 2010.05.17/outbox.cif.g08.bks.cpg/sg12_87_cif.got.tgz:172200.got - 2010.06.03 13:09:07.
