data_PCOD9198481
_publ_section_title
;
Structure prediction by ZEFSAII (Michael W. Deem and Ramdas Pophale) SiO2 
 PCOD9198481
Probable space group: C 2/M
;
_chemical_formula_sum "Si O2"
_cell_formula_units_Z 54
_cell_length_a 8.033560
_cell_length_b 21.813231
_cell_length_c 18.743990
_cell_angle_alpha 90.000000
_cell_angle_beta 119.180098
_cell_angle_gamma 90.000000
_cell_volume 2867.806448
_symmetry_space_group_name_H-M "C 2/M"
_symmetry_group_IT_number 12
_symmetry_cell_setting 'monoclinic'
loop_
_space_group_symop_operation_xyz
x,y,z
-x,y,-z
-x,-y,-z
x,-y,z
1/2+x,1/2+y,z
1/2-x,1/2+y,-z
1/2-x,1/2-y,-z
1/2+x,1/2-y,z
loop_
_atom_site_type_symbol
_atom_site_label
_atom_site_fract_x
_atom_site_fract_y
_atom_site_fract_z
Si Si1 0.830899 0.410133 0.109292
Si Si2 0.000000 0.597157 0.000000
Si Si3 0.350156 0.713551 0.905582
Si Si4 0.852577 0.837217 0.141677
Si Si5 0.000000 0.000000 0.000000
Si Si6 0.088624 0.427540 0.302511
Si Si7 0.952233 0.925799 0.292695
Si Si8 0.394743 0.925518 0.406496
O O1 0.794687 0.337392 0.094664
O O2 0.947467 0.419390 0.205957
O O3 0.946795 0.433544 0.064189
O O4 0.633189 0.446620 0.065923
O O5 0.191478 0.633225 0.058372
O O6 0.241451 0.773002 0.854406
O O7 0.465526 0.680443 0.867091
O O8 0.500000 0.729631 0.000000
O O9 0.901149 0.885964 0.212627
O O10 0.106989 0.500000 0.318350
O O11 0.297996 0.407419 0.320643
O O12 0.997500 0.401847 0.355977
O O13 0.169857 0.912062 0.358773
O O14 0.935484 0.000000 0.276145
O O15 0.500000 0.904078 0.500000
O O16 0.406587 0.000000 0.408306
#
# Coordination Sequence:
#
# PCOD9198481 Si02
#       8
#     8   4   8   8   2   8   8   8
#     4  12  23  39  54  85 118 168 213 255 304 356
#     4  12  22  38  56  78 117 161 218 250 292 354
#     4  12  23  38  56  77 113 160 216 262 300 346
#     4  12  23  39  58  83 115 163 208 260 303 349
#     4  12  24  40  56  84 124 176 218 248 310 368
#     4  10  20  36  57  85 125 158 194 250 304 362
#     4  10  22  40  61  91 122 157 198 251 312 374
#     4   9  19  37  62  92 124 156 189 240 317 395
#
# _framework density 18.829722
#
# number of rings (size 3 to 8) (size 9 to 14) (size 15 to 20)
#    0.000    1.037    5.185    2.222    0.000    0.889 
#    8.000    2.963    0.000    0.000    0.000    4.148 
#    0.000    0.000    0.000    0.000    0.000    0.000 
#
# Total GULP energy -150423.186985 kJ/mol
# GULP energy per Si atom -5571.229148 kJ/mol
# Density = 1.878686 g / cm^3
# Si number density = 18.829722 Si / 1000 Ang^3
#
#
#
# Elastic Constant Matrix: (Units=GPa)
#
#
# Indices 1 2 3 4 5 6 
#
# 1 140.2087 28.1660 93.7523 0.0000 -4.0174 0.0000
# 2 28.1660 58.2303 24.7750 0.0000 5.1553 0.0000
# 3 93.7523 24.7750 129.6807 0.0000 -7.7310 0.0000
# 4 0.0000 0.0000 0.0000 12.2639 0.0000 0.9858
# 5 -4.0174 5.1553 -7.7310 0.0000 22.8224 0.0000
# 6 0.0000 0.0000 0.0000 0.9858 0.0000 -16.8969
#
#
#
# Elastic Compliance Matrix: (Units=1/GPa)
#
#
# Indices 1 2 3 4 5 6 
#
# 1 0.014192 -0.002696 -0.009757 0.000000 -0.000198 0.000000
# 2 -0.002696 0.019918 -0.002197 0.000000 -0.005718 0.000000
# 3 -0.009757 -0.002197 0.015423 0.000000 0.004003 0.000000
# 4 0.000000 0.000000 0.000000 0.081160 0.000000 0.004735
# 5 -0.000198 -0.005718 0.004003 0.000000 0.046430 0.000000
# 6 0.000000 0.000000 0.000000 0.004735 0.000000 -0.058906
#
#
# Mechanical properties :
#
#
# Convention : Reuss Voigt Hill
#
# Bulk Modulus (GPa) = 49.42240 69.05626 59.23933
# Shear Modulus (GPa) = 32.41237 15.73295 24.07266
#
# Velocity S-wave (km/s) = 4.15341 2.89370 3.57941
# Velocity P-wave (km/s) = 7.02175 6.92231 6.97221
#
# Compressibility (1/GPa) = 0.02023374
#
# Stress axis : x y z
#
# Youngs Moduli (GPa) = 70.46063 50.20515 64.83617
#
# Poissons Ratio (x) = 0.13535 0.63261
# Poissons Ratio (y) = 0.18996 0.14245
# Poissons Ratio (z) = 0.68749 0.11031
#
# Static dielectric constant tensor:
#      x y z
#    x 1.735690 0.000000 -0.016300 
#    y 0.000000 1.648070 0.000000 
#    z -0.016300 0.000000 1.620860 
# 
# From -- ./inp_files/259282.got.cif
#   From: 2010.05.17/outbox.cif.g08.bks.cpg/sg12_130_cif.got.tgz:259282.got - 2010.06.03 13:09:07.
