data_PCOD9198217
_publ_section_title
;
Structure prediction by ZEFSAII (Michael W. Deem and Ramdas Pophale) SiO2 
 PCOD9198217
Probable space group: C 2/M
;
_chemical_formula_sum "Si O2"
_cell_formula_units_Z 52
_cell_length_a 13.441057
_cell_length_b 11.587472
_cell_length_c 13.677716
_cell_angle_alpha 90.000000
_cell_angle_beta 87.351066
_cell_angle_gamma 90.000000
_cell_volume 2127.998878
_symmetry_space_group_name_H-M "C 2/M"
_symmetry_group_IT_number 12
_symmetry_cell_setting 'monoclinic'
loop_
_space_group_symop_operation_xyz
x,y,z
-x,y,-z
-x,-y,-z
x,-y,z
1/2+x,1/2+y,z
1/2-x,1/2+y,-z
1/2-x,1/2-y,-z
1/2+x,1/2-y,z
loop_
_atom_site_type_symbol
_atom_site_label
_atom_site_fract_x
_atom_site_fract_y
_atom_site_fract_z
Si Si1 0.850791 0.129927 0.916740
Si Si2 0.202883 0.625926 0.399263
Si Si3 0.128368 0.292300 0.901148
Si Si4 0.496422 0.000000 0.173741
Si Si5 0.261252 0.874895 0.380905
Si Si6 0.495293 0.838832 0.354191
Si Si7 0.028073 0.869754 0.755804
O O1 0.739198 0.156456 0.887826
O O2 0.928275 0.133177 0.825301
O O3 0.854729 0.000000 0.959534
O O4 0.878629 0.223950 0.996813
O O5 0.224229 0.500000 0.352568
O O6 0.226324 0.748518 0.346928
O O7 0.257819 0.626265 0.501521
O O8 0.083393 0.630535 0.423608
O O9 0.053706 0.397977 0.891320
O O10 0.107364 0.199526 0.817410
O O11 0.531796 0.100660 0.251741
O O12 0.381166 0.878329 0.364822
O O13 0.224346 0.000000 0.342365
O O14 0.489772 0.701926 0.341164
O O15 0.056886 0.000000 0.736881
#
# Coordination Sequence:
#
# PCOD9198217 Si02
#       7
#     8   8   8   4   8   8   8
#     4  10  20  39  63  84 108 157 201 247 304 360
#     4  10  21  39  64  93 122 157 210 252 290 356
#     4  10  20  36  63  83 115 149 198 254 294 356
#     4  10  20  36  56  86 115 148 196 240 290 362
#     4  10  21  39  64  92 121 164 206 246 297 356
#     4  11  21  38  62  85 121 165 196 243 305 357
#     4  10  23  39  57  87 119 154 202 247 305 365
#
# _framework density 24.436102000000002
#
# number of rings (size 3 to 8) (size 9 to 14) (size 15 to 20)
#    0.000    1.846    2.308    1.385    0.000    6.154 
#    0.000    6.154    0.000    4.615    0.000    0.000 
#    0.000    0.000    0.000    0.000    0.000    0.000 
#
# Total GULP energy -144761.496584 kJ/mol
# GULP energy per Si atom -5567.749869 kJ/mol
# Density = 2.438048 g / cm^3
# Si number density = 24.436102 Si / 1000 Ang^3
#
#
#
# Elastic Constant Matrix: (Units=GPa)
#
#
# Indices 1 2 3 4 5 6 
#
# 1 65.7088 18.2654 1.9980 0.0000 -6.6635 0.0000
# 2 18.2654 262.6950 19.0492 0.0000 1.1386 0.0000
# 3 1.9980 19.0492 25.9409 0.0000 10.4016 0.0000
# 4 0.0000 0.0000 0.0000 25.1107 0.0000 7.0071
# 5 -6.6635 1.1386 10.4016 0.0000 23.6772 0.0000
# 6 0.0000 0.0000 0.0000 7.0071 0.0000 17.4813
#
#
#
# Elastic Compliance Matrix: (Units=1/GPa)
#
#
# Indices 1 2 3 4 5 6 
#
# 1 0.016164 -0.000938 -0.002911 0.000000 0.005873 0.000000
# 2 -0.000938 0.004111 -0.003351 0.000000 0.001011 0.000000
# 3 -0.002911 -0.003351 0.050371 0.000000 -0.022787 0.000000
# 4 0.000000 0.000000 0.000000 0.044839 0.000000 -0.017973
# 5 0.005873 0.001011 -0.022787 0.000000 0.053849 0.000000
# 6 0.000000 0.000000 0.000000 -0.017973 0.000000 0.064408
#
#
# Mechanical properties :
#
#
# Convention : Reuss Voigt Hill
#
# Bulk Modulus (GPa) = 17.77957 48.10777 32.94367
# Shear Modulus (GPa) = 18.73427 34.25598 26.49512
#
# Velocity S-wave (km/s) = 2.77187 3.74820 3.29638
# Velocity P-wave (km/s) = 4.18761 6.20177 5.29141
#
# Compressibility (1/GPa) = 0.05624432
#
# Stress axis : x y z
#
# Youngs Moduli (GPa) = 61.86769 243.27444 19.85264
#
# Poissons Ratio (x) = 0.22825 0.05779
# Poissons Ratio (y) = 0.05805 0.06654
# Poissons Ratio (z) = 0.18008 0.81533
#
# Static dielectric constant tensor:
#      x y z
#    x 1.983250 0.000000 -0.025390 
#    y 0.000000 1.956490 0.000000 
#    z -0.025390 0.000000 1.975640 
# 
# From -- ./inp_files/268180.got.cif
#   From: 2010.05.17/outbox.cif.g08.bks.cpg/sg12_135_cif.got.tgz:268180.got - 2010.06.03 13:09:07.
