data_PCOD9198138
_publ_section_title
;
Structure prediction by ZEFSAII (Michael W. Deem and Ramdas Pophale) SiO2 
 PCOD9198138
Probable space group: C 2/M
;
_chemical_formula_sum "Si O2"
_cell_formula_units_Z 64
_cell_length_a 13.784264
_cell_length_b 13.387409
_cell_length_c 26.843873
_cell_angle_alpha 90.000000
_cell_angle_beta 43.198376
_cell_angle_gamma 90.000000
_cell_volume 3390.904193
_symmetry_space_group_name_H-M "C 2/M"
_symmetry_group_IT_number 12
_symmetry_cell_setting 'monoclinic'
loop_
_space_group_symop_operation_xyz
x,y,z
-x,y,-z
-x,-y,-z
x,-y,z
1/2+x,1/2+y,z
1/2-x,1/2+y,-z
1/2-x,1/2-y,-z
1/2+x,1/2-y,z
loop_
_atom_site_type_symbol
_atom_site_label
_atom_site_fract_x
_atom_site_fract_y
_atom_site_fract_z
Si Si1 0.109869 0.612379 0.252642
Si Si2 0.719438 0.303013 0.896926
Si Si3 0.337056 0.616876 0.453829
Si Si4 0.599105 0.617432 0.150817
Si Si5 0.777931 0.884081 0.288073
Si Si6 0.437517 0.381774 0.953691
Si Si7 0.086137 0.770004 0.419203
Si Si8 0.172515 0.698546 0.605266
O O1 0.054885 0.500000 0.276946
O O2 0.166004 0.634596 0.176997
O O3 0.236991 0.621626 0.244901
O O4 0.983983 0.682635 0.317084
O O5 0.779111 0.190947 0.875809
O O6 0.572971 0.319469 0.921965
O O7 0.689880 0.345451 0.963084
O O8 0.351804 0.500000 0.438937
O O9 0.477168 0.665117 0.427262
O O10 0.210629 0.638706 0.540583
O O11 0.308193 0.685181 0.416621
O O12 0.623942 0.500000 0.151732
O O13 0.443309 0.644188 0.231069
O O14 0.590059 0.630179 0.094345
O O15 0.665699 0.815168 0.358464
O O16 0.762763 0.000000 0.308682
O O17 0.465458 0.500000 0.952193
O O18 0.213614 0.833162 0.396068
O O19 0.000000 0.732278 0.500000
#
# Coordination Sequence:
#
# PCOD9198138 Si02
#       8
#     8   8   8   8   8   8   8   8
#     4  11  20  34  58  83 110 147 189 236 281 329
#     4  11  20  34  60  88 112 148 191 230 275 332
#     4  10  21  38  57  80 113 147 184 233 287 340
#     4  10  21  38  59  83 116 155 189 227 283 338
#     4  10  20  36  56  80 112 148 187 234 285 333
#     4  10  20  37  60  90 120 146 187 235 280 330
#     4  10  21  37  56  80 111 145 188 234 286 339
#     4  10  21  36  56  82 108 147 189 231 281 342
#
# _framework density 18.874022
#
# number of rings (size 3 to 8) (size 9 to 14) (size 15 to 20)
#    0.000    1.750    2.500    3.000    0.000    3.500 
#    0.000    1.875    0.000    2.250    0.000    0.000 
#    0.000    0.000    0.000    0.000    0.000    0.000 
#
# Total GULP energy -178545.297110 kJ/mol
# GULP energy per Si atom -5579.540535 kJ/mol
# Density = 1.883106 g / cm^3
# Si number density = 18.874022 Si / 1000 Ang^3
#
#
#
# Elastic Constant Matrix: (Units=GPa)
#
#
# Indices 1 2 3 4 5 6 
#
# 1 44.2923 24.2640 6.5514 0.0000 -14.4019 0.0000
# 2 24.2640 100.8989 39.3365 0.0000 -9.9717 0.0000
# 3 6.5514 39.3365 96.2946 0.0000 -9.6654 0.0000
# 4 0.0000 0.0000 0.0000 19.3317 0.0000 -4.3797
# 5 -14.4019 -9.9717 -9.6654 0.0000 23.1402 0.0000
# 6 0.0000 0.0000 0.0000 -4.3797 0.0000 25.6421
#
#
#
# Elastic Compliance Matrix: (Units=1/GPa)
#
#
# Indices 1 2 3 4 5 6 
#
# 1 0.031752 -0.006814 0.002413 0.000000 0.017833 0.000000
# 2 -0.006814 0.013483 -0.005100 0.000000 -0.000561 0.000000
# 3 0.002413 -0.005100 0.012770 0.000000 0.004638 0.000000
# 4 0.000000 0.000000 0.000000 0.053811 0.000000 0.009191
# 5 0.017833 -0.000561 0.004638 0.000000 0.056009 0.000000
# 6 0.000000 0.000000 0.000000 0.009191 0.000000 0.040568
#
#
# Mechanical properties :
#
#
# Convention : Reuss Voigt Hill
#
# Bulk Modulus (GPa) = 25.63990 42.42107 34.03049
# Shear Modulus (GPa) = 20.79911 25.04505 22.92208
#
# Velocity S-wave (km/s) = 3.32323 3.64670 3.48872
# Velocity P-wave (km/s) = 5.32348 6.34475 5.85642
#
# Compressibility (1/GPa) = 0.03900171
#
# Stress axis : x y z
#
# Youngs Moduli (GPa) = 31.49428 74.17020 78.31078
#
# Poissons Ratio (x) = 0.50540 -0.18899
# Poissons Ratio (y) = 0.21460 0.39941
# Poissons Ratio (z) = -0.07601 0.37830
#
# Static dielectric constant tensor:
#      x y z
#    x 1.681990 0.000000 0.007520 
#    y 0.000000 1.639570 0.000000 
#    z 0.007520 0.000000 1.670200 
# 
# From -- ./inp_files/376099.got.cif
#   From: 2010.05.17/outbox.cif.g08.bks.cpg/sg12_189_cif.got.tgz:376099.got - 2010.06.03 13:09:07.
