data_PCOD9198684
_publ_section_title
;
Structure prediction by ZEFSAII (Michael W. Deem and Ramdas Pophale) SiO2 
 PCOD9198684
Probable space group: C 2/M
;
_chemical_formula_sum "Si O2"
_cell_formula_units_Z 40
_cell_length_a 9.026861
_cell_length_b 10.204394
_cell_length_c 20.468398
_cell_angle_alpha 90.000000
_cell_angle_beta 101.054801
_cell_angle_gamma 90.000000
_cell_volume 1850.433382
_symmetry_space_group_name_H-M "C 2/M"
_symmetry_group_IT_number 12
_symmetry_cell_setting 'monoclinic'
loop_
_space_group_symop_operation_xyz
x,y,z
-x,y,-z
-x,-y,-z
x,-y,z
1/2+x,1/2+y,z
1/2-x,1/2+y,-z
1/2-x,1/2-y,-z
1/2+x,1/2-y,z
loop_
_atom_site_type_symbol
_atom_site_label
_atom_site_fract_x
_atom_site_fract_y
_atom_site_fract_z
Si Si1 0.287444 0.348657 0.355672
Si Si2 0.618511 0.222883 0.843921
Si Si3 0.651381 0.355768 0.246168
Si Si4 0.478571 0.852756 0.575325
Si Si5 0.396940 0.147439 0.934396
O O1 0.312619 0.500000 0.338779
O O2 0.188586 0.267318 0.295478
O O3 0.434463 0.262213 0.380325
O O4 0.193243 0.348654 0.415224
O O5 0.512758 0.330448 0.799448
O O6 0.717669 0.149563 0.797937
O O7 0.498799 0.145258 0.877658
O O8 0.743649 0.280581 0.903323
O O9 0.654502 0.500000 0.277746
O O10 0.500000 0.838017 0.500000
O O11 0.534792 0.000000 0.598125
O O12 0.359690 0.000000 0.952246
O O13 0.500000 0.208887 0.000000
#
# Coordination Sequence:
#
# PCOD9198684 Si02
#       5
#     8   8   8   8   8
#     4  11  24  39  60  90 119 152 196 242 289 344
#     4  10  22  37  57  84 114 148 194 239 285 344
#     4  11  23  39  59  83 116 156 195 239 290 344
#     4  10  22  41  63  88 120 156 194 238 289 345
#     4  10  20  36  58  83 113 148 187 235 289 344
#
# _framework density 21.616558999999999
#
# number of rings (size 3 to 8) (size 9 to 14) (size 15 to 20)
#    0.000    1.600    0.000    4.200    0.000   10.000 
#    0.000    0.000    0.000    9.600    0.000    0.000 
#    0.000    0.000    0.000    0.000    0.000    0.000 
#
# Total GULP energy -111673.027201 kJ/mol
# GULP energy per Si atom -5583.651360 kJ/mol
# Density = 2.156736 g / cm^3
# Si number density = 21.616559 Si / 1000 Ang^3
#
#
#
# Elastic Constant Matrix: (Units=GPa)
#
#
# Indices 1 2 3 4 5 6 
#
# 1 93.8509 27.3158 1.9218 0.0000 1.9684 0.0000
# 2 27.3158 149.3770 22.7093 0.0000 20.2060 0.0000
# 3 1.9218 22.7093 34.2880 0.0000 -3.6400 0.0000
# 4 0.0000 0.0000 0.0000 22.1363 0.0000 0.8225
# 5 1.9684 20.2060 -3.6400 0.0000 36.6009 0.0000
# 6 0.0000 0.0000 0.0000 0.8225 0.0000 14.8688
#
#
#
# Elastic Compliance Matrix: (Units=1/GPa)
#
#
# Indices 1 2 3 4 5 6 
#
# 1 0.011294 -0.002319 0.000985 0.000000 0.000771 0.000000
# 2 -0.002319 0.008795 -0.006263 0.000000 -0.005354 0.000000
# 3 0.000985 -0.006263 0.033978 0.000000 0.006784 0.000000
# 4 0.000000 0.000000 0.000000 0.045268 0.000000 -0.002504
# 5 0.000771 -0.005354 0.006784 0.000000 0.030910 0.000000
# 6 0.000000 0.000000 0.000000 -0.002504 0.000000 0.067393
#
#
# Mechanical properties :
#
#
# Convention : Reuss Voigt Hill
#
# Bulk Modulus (GPa) = 25.72585 42.37887 34.05236
# Shear Modulus (GPa) = 22.14439 29.75914 25.95177
#
# Velocity S-wave (km/s) = 3.20413 3.71439 3.46865
# Velocity P-wave (km/s) = 5.06116 6.16790 5.64174
#
# Compressibility (1/GPa) = 0.03887141
#
# Stress axis : x y z
#
# Youngs Moduli (GPa) = 88.54342 113.70181 29.43086
#
# Poissons Ratio (x) = 0.26371 -0.02899
# Poissons Ratio (y) = 0.20536 0.18433
# Poissons Ratio (z) = -0.08721 0.71215
#
# Static dielectric constant tensor:
#      x y z
#    x 1.761840 0.000000 -0.011400 
#    y 0.000000 1.775490 0.000000 
#    z -0.011400 0.000000 1.801610 
# 
# From -- ./inp_files/299045.got.cif
#   From: 2010.05.17/outbox.cif.g08.bks.cpg/sg12_150_cif.got.tgz:299045.got - 2010.06.03 13:09:07.
