data_PCOD9198227
_publ_section_title
;
Structure prediction by ZEFSAII (Michael W. Deem and Ramdas Pophale) SiO2 
 PCOD9198227
Probable space group: C 2/M
;
_chemical_formula_sum "Si O2"
_cell_formula_units_Z 44
_cell_length_a 11.059404
_cell_length_b 25.268711
_cell_length_c 8.821364
_cell_angle_alpha 90.000000
_cell_angle_beta 63.416632
_cell_angle_gamma 90.000000
_cell_volume 2204.581206
_symmetry_space_group_name_H-M "C 2/M"
_symmetry_group_IT_number 12
_symmetry_cell_setting 'monoclinic'
loop_
_space_group_symop_operation_xyz
x,y,z
-x,y,-z
-x,-y,-z
x,-y,z
1/2+x,1/2+y,z
1/2-x,1/2+y,-z
1/2-x,1/2-y,-z
1/2+x,1/2-y,z
loop_
_atom_site_type_symbol
_atom_site_label
_atom_site_fract_x
_atom_site_fract_y
_atom_site_fract_z
Si Si1 0.304747 0.692636 0.511965
Si Si2 0.033842 0.500000 0.752305
Si Si3 0.000000 0.593089 0.000000
Si Si4 0.082406 0.791141 0.213791
Si Si5 0.659473 0.889493 0.415828
Si Si6 0.797588 0.500000 0.652521
Si Si7 0.332068 0.826116 0.893236
O O1 0.250000 0.750000 0.500000
O O2 0.346694 0.698511 0.663124
O O3 0.434175 0.686023 0.328185
O O4 0.202315 0.644511 0.537648
O O5 0.055517 0.448035 0.842208
O O6 0.884895 0.500000 0.759396
O O7 0.126797 0.500000 0.553224
O O8 0.102203 0.631872 0.029159
O O9 0.084237 0.728810 0.168767
O O10 0.180141 0.815541 0.033888
O O11 0.500000 0.906118 0.500000
O O12 0.670398 0.849540 0.271735
O O13 0.755270 0.939969 0.327817
#
# Coordination Sequence:
#
# PCOD9198227 Si02
#       7
#     8   4   4   8   8   4   8
#     4  11  23  41  63  84 123 159 207 245 301 366
#     4  10  20  36  56  88 124 150 201 253 305 351
#     4  11  22  34  60  90 124 162 188 255 306 360
#     4  10  25  41  56  92 121 162 197 248 300 365
#     4  12  22  38  64  92 121 160 200 257 304 361
#     4  11  20  38  58  90 120 153 208 256 299 359
#     4  11  23  37  59  91 124 158 199 238 313 361
#
# _framework density 19.958438999999998
#
# number of rings (size 3 to 8) (size 9 to 14) (size 15 to 20)
#    0.000    1.091    5.455    1.091    7.636    0.727 
#    0.000    0.000    0.000    6.545    0.000    0.000 
#    0.000    0.000    0.000    0.000    0.000    0.000 
#
# Total GULP energy -122655.009684 kJ/mol
# GULP energy per Si atom -5575.227713 kJ/mol
# Density = 1.991301 g / cm^3
# Si number density = 19.958439 Si / 1000 Ang^3
#
#
#
# Elastic Constant Matrix: (Units=GPa)
#
#
# Indices 1 2 3 4 5 6 
#
# 1 50.2575 25.3086 3.5859 0.0000 13.7390 0.0000
# 2 25.3086 116.6322 1.0540 0.0000 10.2446 0.0000
# 3 3.5859 1.0540 68.5385 0.0000 1.2174 0.0000
# 4 0.0000 0.0000 0.0000 30.6377 0.0000 15.3438
# 5 13.7390 10.2446 1.2174 0.0000 28.3596 0.0000
# 6 0.0000 0.0000 0.0000 15.3438 0.0000 28.0925
#
#
#
# Elastic Compliance Matrix: (Units=1/GPa)
#
#
# Indices 1 2 3 4 5 6 
#
# 1 0.025116 -0.004519 -0.001058 0.000000 -0.010490 0.000000
# 2 -0.004519 0.009668 0.000111 0.000000 -0.001308 0.000000
# 3 -0.001058 0.000111 0.014647 0.000000 -0.000156 0.000000
# 4 0.000000 0.000000 0.000000 0.044930 0.000000 -0.024540
# 5 -0.010490 -0.001308 -0.000156 0.000000 0.040823 0.000000
# 6 0.000000 0.000000 0.000000 -0.024540 0.000000 0.049000
#
#
# Mechanical properties :
#
#
# Convention : Reuss Voigt Hill
#
# Bulk Modulus (GPa) = 25.97483 32.81391 29.39437
# Shear Modulus (GPa) = 24.04428 31.11662 27.58045
#
# Velocity S-wave (km/s) = 3.47467 3.95279 3.72142
# Velocity P-wave (km/s) = 5.39819 6.10815 5.76411
#
# Compressibility (1/GPa) = 0.03849881
#
# Stress axis : x y z
#
# Youngs Moduli (GPa) = 39.81456 103.42874 68.27443
#
# Poissons Ratio (x) = 0.46741 0.07225
# Poissons Ratio (y) = 0.17993 -0.00758
# Poissons Ratio (z) = 0.04213 -0.01148
#
# Static dielectric constant tensor:
#      x y z
#    x 1.750820 0.000000 -0.008350 
#    y 0.000000 1.743490 0.000000 
#    z -0.008350 0.000000 1.730710 
# 
# From -- ./inp_files/51247.got.cif
#   From: 2010.05.17/outbox.cif.g08.bks.cpg/sg12_26_cif.got.tgz:51247.got - 2010.06.03 13:09:07.
