data_PCOD9198522
_publ_section_title
;
Structure prediction by ZEFSAII (Michael W. Deem and Ramdas Pophale) SiO2 
 PCOD9198522
Probable space group: C 2/M
;
_chemical_formula_sum "Si O2"
_cell_formula_units_Z 42
_cell_length_a 15.753744
_cell_length_b 17.301205
_cell_length_c 6.885697
_cell_angle_alpha 90.000000
_cell_angle_beta 62.520855
_cell_angle_gamma 90.000000
_cell_volume 1665.019107
_symmetry_space_group_name_H-M "C 2/M"
_symmetry_group_IT_number 12
_symmetry_cell_setting 'monoclinic'
loop_
_space_group_symop_operation_xyz
x,y,z
-x,y,-z
-x,-y,-z
x,-y,z
1/2+x,1/2+y,z
1/2-x,1/2+y,-z
1/2-x,1/2-y,-z
1/2+x,1/2-y,z
loop_
_atom_site_type_symbol
_atom_site_label
_atom_site_fract_x
_atom_site_fract_y
_atom_site_fract_z
Si Si1 0.025919 0.087714 0.202297
Si Si2 0.318540 0.918762 0.234314
Si Si3 0.212605 0.177748 0.917526
Si Si4 0.652032 0.311001 0.525834
Si Si5 0.500000 0.000000 0.000000
Si Si6 0.891464 0.364773 0.559431
O O1 0.936550 0.130710 0.392357
O O2 0.040054 0.000000 0.251746
O O3 0.121351 0.138429 0.110141
O O4 0.000000 0.084643 0.000000
O O5 0.242819 0.849960 0.322295
O O6 0.419805 0.932651 0.020860
O O7 0.362262 0.915004 0.406297
O O8 0.264194 0.000000 0.265599
O O9 0.180758 0.194216 0.725955
O O10 0.305813 0.123073 0.803460
O O11 0.250000 0.250000 0.000000
O O12 0.619396 0.226642 0.487147
O O13 0.000000 0.380037 0.500000
#
# Coordination Sequence:
#
# PCOD9198522 Si02
#       6
#     8   8   8   8   2   8
#     4   9  18  34  60  92 118 153 198 250 304 361
#     4   9  19  39  63  91 119 159 207 255 313 369
#     4  10  20  36  57  91 124 160 201 247 305 373
#     4  10  20  39  66  89 123 159 202 258 317 365
#     4   8  20  40  62 100 116 160 212 258 316 370
#     4  11  23  40  61  90 125 165 206 254 311 370
#
# _framework density 25.224934000000001
#
# number of rings (size 3 to 8) (size 9 to 14) (size 15 to 20)
#    0.571    1.714    0.000    4.000    0.000    4.952 
#   15.429    0.000    0.000   16.000    0.000    0.000 
#    0.000    0.762    0.000    0.000    0.000    0.000 
#
# Total GULP energy -117051.988995 kJ/mol
# GULP energy per Si atom -5573.904238 kJ/mol
# Density = 2.516752 g / cm^3
# Si number density = 25.224934 Si / 1000 Ang^3
#
#
#
# Elastic Constant Matrix: (Units=GPa)
#
#
# Indices 1 2 3 4 5 6 
#
# 1 173.0711 43.5756 48.7242 0.0000 -24.5673 0.0000
# 2 43.5756 135.3249 23.4887 0.0000 -17.4308 0.0000
# 3 48.7242 23.4887 96.8551 0.0000 -29.5129 0.0000
# 4 0.0000 0.0000 0.0000 -16.0165 0.0000 -9.2714
# 5 -24.5673 -17.4308 -29.5129 0.0000 51.8219 0.0000
# 6 0.0000 0.0000 0.0000 -9.2714 0.0000 38.6768
#
#
#
# Elastic Compliance Matrix: (Units=1/GPa)
#
#
# Indices 1 2 3 4 5 6 
#
# 1 0.007166 -0.001658 -0.002828 0.000000 0.001229 0.000000
# 2 -0.001658 0.008248 -0.000678 0.000000 0.001602 0.000000
# 3 -0.002828 -0.000678 0.013835 0.000000 0.006310 0.000000
# 4 0.000000 0.000000 0.000000 -0.054828 0.000000 -0.013143
# 5 0.001229 0.001602 0.006310 0.000000 0.024012 0.000000
# 6 0.000000 0.000000 0.000000 -0.013143 0.000000 0.022705
#
#
# Mechanical properties :
#
#
# Convention : Reuss Voigt Hill
#
# Bulk Modulus (GPa) = 52.85594 70.75869 61.80732
# Shear Modulus (GPa) = 132.36913 34.19395 83.28154
#
# Velocity S-wave (km/s) = 7.25186 3.68579 5.75215
# Velocity P-wave (km/s) = 9.54561 6.79892 8.28686
#
# Compressibility (1/GPa) = 0.01891935
#
# Stress axis : x y z
#
# Youngs Moduli (GPa) = 139.54362 121.24718 72.28177
#
# Poissons Ratio (x) = 0.20107 0.20445
# Poissons Ratio (y) = 0.23141 0.04899
# Poissons Ratio (z) = 0.39470 0.08218
#
# Static dielectric constant tensor:
#      x y z
#    x 1.989390 0.000000 0.069580 
#    y 0.000000 1.908600 0.000000 
#    z 0.069580 0.000000 2.195970 
# 
# From -- ./inp_files/61632.got.cif
#   From: 2010.05.17/outbox.cif.g08.bks.cpg/sg12_31_cif.got.tgz:61632.got - 2010.06.03 13:09:07.
