data_PCOD9198608
_publ_section_title
;
Structure prediction by ZEFSAII (Michael W. Deem and Ramdas Pophale) SiO2 
 PCOD9198608
Probable space group: C 2/M
;
_chemical_formula_sum "Si O2"
_cell_formula_units_Z 56
_cell_length_a 16.744878
_cell_length_b 7.406197
_cell_length_c 18.404175
_cell_angle_alpha 90.000000
_cell_angle_beta 69.324845
_cell_angle_gamma 90.000000
_cell_volume 2135.416155
_symmetry_space_group_name_H-M "C 2/M"
_symmetry_group_IT_number 12
_symmetry_cell_setting 'monoclinic'
loop_
_space_group_symop_operation_xyz
x,y,z
-x,y,-z
-x,-y,-z
x,-y,z
1/2+x,1/2+y,z
1/2-x,1/2+y,-z
1/2-x,1/2-y,-z
1/2+x,1/2-y,z
loop_
_atom_site_type_symbol
_atom_site_label
_atom_site_fract_x
_atom_site_fract_y
_atom_site_fract_z
Si Si1 0.976490 0.793038 0.737480
Si Si2 0.909463 0.794501 0.547063
Si Si3 0.991019 0.717841 0.116347
Si Si4 0.631184 0.793867 0.595346
Si Si5 0.787764 0.779754 0.831582
Si Si6 0.361045 0.219006 0.028546
Si Si7 0.748110 0.720933 0.315539
O O1 0.026668 0.784238 0.797615
O O2 0.884074 0.714867 0.788038
O O3 0.034271 0.709692 0.656530
O O4 0.963095 0.000000 0.720777
O O5 0.862071 0.798259 0.484560
O O6 0.845603 0.719627 0.627375
O O7 0.000000 0.705561 0.500000
O O8 0.927533 0.000000 0.564463
O O9 0.991059 0.500000 0.119288
O O10 0.922295 0.765939 0.077265
O O11 0.084519 0.781573 0.058223
O O12 0.686805 0.716507 0.643554
O O13 0.656972 0.000000 0.575274
O O14 0.732987 0.716959 0.918524
O O15 0.739333 0.730569 0.772167
O O16 0.790350 0.000000 0.834798
O O17 0.358673 0.000000 0.025123
O O18 0.750750 0.500000 0.316200
#
# Coordination Sequence:
#
# PCOD9198608 Si02
#       7
#     8   8   8   8   8   8   8
#     4  11  22  34  51  76 106 140 174 212 261 312
#     4  10  20  36  58  82 109 139 169 205 254 312
#     4   9  17  32  55  79 102 132 173 218 259 305
#     4  11  22  36  56  79 104 136 175 219 258 297
#     4   9  17  31  51  75 103 136 175 213 252 306
#     4   8  15  30  54  79 101 133 176 215 254 305
#     4   9  18  33  55  80 103 133 174 214 253 300
#
# _framework density 26.224395999999999
#
# number of rings (size 3 to 8) (size 9 to 14) (size 15 to 20)
#    0.000    2.429    0.000    3.857    0.000    5.429 
#    0.000    2.143    0.000   11.143    0.000    0.000 
#    0.000    0.000    0.000    0.000    0.000    0.000 
#
# Total GULP energy -156638.970786 kJ/mol
# GULP energy per Si atom -5594.248957 kJ/mol
# Density = 2.616471 g / cm^3
# Si number density = 26.224396 Si / 1000 Ang^3
#
#
#
# Elastic Constant Matrix: (Units=GPa)
#
#
# Indices 1 2 3 4 5 6 
#
# 1 61.5116 -4.2565 2.3207 0.0000 -10.5344 0.0001
# 2 -4.2565 90.9327 -2.4898 0.0001 -0.9795 0.0003
# 3 2.3207 -2.4898 151.2696 0.0000 -8.6964 0.0000
# 4 0.0000 0.0001 0.0000 13.1963 0.0000 3.5122
# 5 -10.5344 -0.9795 -8.6964 0.0000 53.2599 0.0000
# 6 0.0001 0.0003 0.0000 3.5122 0.0000 4.4069
#
#
#
# Elastic Compliance Matrix: (Units=1/GPa)
#
#
# Indices 1 2 3 4 5 6 
#
# 1 0.016889 0.000825 -0.000053 0.000000 0.003347 0.000000
# 2 0.000825 0.011045 0.000192 0.000000 0.000398 -0.000001
# 3 -0.000053 0.000192 0.006677 0.000000 0.001083 0.000000
# 4 0.000000 0.000000 0.000000 0.096180 0.000000 -0.076653
# 5 0.003347 0.000398 0.001083 0.000000 0.019622 0.000000
# 6 0.000000 -0.000001 0.000000 -0.076653 0.000000 0.288006
#
#
# Mechanical properties :
#
#
# Convention : Reuss Voigt Hill
#
# Bulk Modulus (GPa) = 27.36737 32.76251 30.06494
# Shear Modulus (GPa) = 11.14402 34.71527 22.92965
#
# Velocity S-wave (km/s) = 2.06366 3.64232 2.96017
# Velocity P-wave (km/s) = 4.01706 5.49627 4.81382
#
# Compressibility (1/GPa) = 0.03653987
#
# Stress axis : x y z
#
# Youngs Moduli (GPa) = 59.20867 90.53614 149.76866
#
# Poissons Ratio (x) = -0.07471 0.00795
# Poissons Ratio (y) = -0.04886 -0.02876
# Poissons Ratio (z) = 0.00314 -0.01738
#
# Static dielectric constant tensor:
#      x y z
#    x 2.137460 0.000000 -0.030410 
#    y 0.000000 2.027580 0.000000 
#    z -0.030410 0.000000 1.962520 
# 
# From -- ./inp_files/313779.got.cif
#   From: 2010.05.17/outbox.cif.g08.bks.cpg/sg12_157_cif.got.tgz:313779.got - 2010.06.03 13:09:07.
