data_PCOD9198478
_publ_section_title
;
Structure prediction by ZEFSAII (Michael W. Deem and Ramdas Pophale) SiO2 
 PCOD9198478
Probable space group: C 2/M
;
_chemical_formula_sum "Si O2"
_cell_formula_units_Z 56
_cell_length_a 29.593548
_cell_length_b 11.654127
_cell_length_c 9.614993
_cell_angle_alpha 90.000000
_cell_angle_beta 63.534734
_cell_angle_gamma 90.000000
_cell_volume 2968.575543
_symmetry_space_group_name_H-M "C 2/M"
_symmetry_group_IT_number 12
_symmetry_cell_setting 'monoclinic'
loop_
_space_group_symop_operation_xyz
x,y,z
-x,y,-z
-x,-y,-z
x,-y,z
1/2+x,1/2+y,z
1/2-x,1/2+y,-z
1/2-x,1/2-y,-z
1/2+x,1/2-y,z
loop_
_atom_site_type_symbol
_atom_site_label
_atom_site_fract_x
_atom_site_fract_y
_atom_site_fract_z
Si Si1 0.382802 0.779423 0.399442
Si Si2 0.285225 0.371051 0.600858
Si Si3 0.619102 0.273098 0.073946
Si Si4 0.056778 0.865407 0.905132
Si Si5 0.675307 0.128370 0.763723
Si Si6 0.719094 0.628771 0.063119
Si Si7 0.939629 0.362479 0.600043
O O1 0.333468 0.704310 0.500243
O O2 0.418895 0.700490 0.256928
O O3 0.361596 0.870473 0.317348
O O4 0.410210 0.827517 0.498401
O O5 0.289660 0.500000 0.532133
O O6 0.229571 0.319535 0.648005
O O7 0.285469 0.380097 0.766305
O O8 0.663270 0.350022 0.079016
O O9 0.586364 0.207699 0.236936
O O10 0.584818 0.342304 0.012201
O O11 0.648874 0.186828 0.930389
O O12 0.057270 0.000000 0.874750
O O13 0.000000 0.823829 0.000000
O O14 0.687664 0.000000 0.788788
O O15 0.738024 0.500000 0.987702
O O16 0.750000 0.750000 0.000000
O O17 0.934327 0.500000 0.630193
O O18 0.000000 0.338299 0.500000
#
# Coordination Sequence:
#
# PCOD9198478 Si02
#       7
#     8   8   8   8   8   8   8
#     4  11  21  38  60  84 118 155 198 244 308 360
#     4  10  20  36  57  85 121 154 193 245 300 360
#     4  11  21  39  62  85 118 158 201 248 304 363
#     4  10  22  40  61  85 112 148 198 252 305 365
#     4  10  21  36  58  86 118 156 198 243 297 362
#     4  11  22  38  61  92 127 163 205 250 299 365
#     4  11  24  40  59  87 121 158 206 260 311 365
#
# _framework density 18.864267999999999
#
# number of rings (size 3 to 8) (size 9 to 14) (size 15 to 20)
#    0.000    1.429    2.857    3.000    0.000    0.571 
#    0.000    0.000    0.000   10.286    0.000    0.000 
#    0.000    0.000    0.000    0.000    0.000    0.000 
#
# Total GULP energy -156014.346247 kJ/mol
# GULP energy per Si atom -5571.940937 kJ/mol
# Density = 1.882133 g / cm^3
# Si number density = 18.864268 Si / 1000 Ang^3
#
#
#
# Elastic Constant Matrix: (Units=GPa)
#
#
# Indices 1 2 3 4 5 6 
#
# 1 97.5666 13.8462 27.3752 0.0000 -13.5572 0.0000
# 2 13.8462 70.7721 40.9768 0.0000 -18.3801 0.0000
# 3 27.3752 40.9768 91.5225 0.0000 -13.2125 0.0000
# 4 0.0000 0.0000 0.0000 18.7251 0.0000 -2.8234
# 5 -13.5572 -18.3801 -13.2125 0.0000 35.0725 0.0000
# 6 0.0000 0.0000 0.0000 -2.8234 0.0000 29.8245
#
#
#
# Elastic Compliance Matrix: (Units=1/GPa)
#
#
# Indices 1 2 3 4 5 6 
#
# 1 0.011559 0.000489 -0.003167 0.000000 0.003532 0.000000
# 2 0.000489 0.020967 -0.008376 0.000000 0.008022 0.000000
# 3 -0.003167 -0.008376 0.015665 0.000000 0.000288 0.000000
# 4 0.000000 0.000000 0.000000 0.054177 0.000000 0.005129
# 5 0.003532 0.008022 0.000288 0.000000 0.034190 0.000000
# 6 0.000000 0.000000 0.000000 0.005129 0.000000 0.034015
#
#
# Mechanical properties :
#
#
# Convention : Reuss Voigt Hill
#
# Bulk Modulus (GPa) = 38.33646 47.13975 42.73810
# Shear Modulus (GPa) = 24.82934 28.56863 26.69898
#
# Velocity S-wave (km/s) = 3.63190 3.89579 3.76616
# Velocity P-wave (km/s) = 6.16068 6.72900 6.45110
#
# Compressibility (1/GPa) = 0.02608483
#
# Stress axis : x y z
#
# Youngs Moduli (GPa) = 86.51106 47.69415 63.83661
#
# Poissons Ratio (x) = -0.02333 0.20215
# Poissons Ratio (y) = -0.04232 0.53467
# Poissons Ratio (z) = 0.27395 0.39947
#
# Static dielectric constant tensor:
#      x y z
#    x 1.677760 0.000000 -0.021900 
#    y 0.000000 1.704130 0.000000 
#    z -0.021900 0.000000 1.636320 
# 
# From -- ./inp_files/103168.got.cif
#   From: 2010.05.17/outbox.cif.g08.bks.cpg/sg12_52_cif.got.tgz:103168.got - 2010.06.03 13:09:07.
