data_PCOD9198680
_publ_section_title
;
Structure prediction by ZEFSAII (Michael W. Deem and Ramdas Pophale) SiO2 
 PCOD9198680
Probable space group: C 2/M
;
_chemical_formula_sum "Si O2"
_cell_formula_units_Z 48
_cell_length_a 8.599012
_cell_length_b 17.055504
_cell_length_c 31.658191
_cell_angle_alpha 90.000000
_cell_angle_beta 148.521352
_cell_angle_gamma 90.000000
_cell_volume 2424.488292
_symmetry_space_group_name_H-M "C 2/M"
_symmetry_group_IT_number 12
_symmetry_cell_setting 'monoclinic'
loop_
_space_group_symop_operation_xyz
x,y,z
-x,y,-z
-x,-y,-z
x,-y,z
1/2+x,1/2+y,z
1/2-x,1/2+y,-z
1/2-x,1/2-y,-z
1/2+x,1/2-y,z
loop_
_atom_site_type_symbol
_atom_site_label
_atom_site_fract_x
_atom_site_fract_y
_atom_site_fract_z
Si Si1 0.841270 0.206491 0.077936
Si Si2 0.230834 0.324917 0.592380
Si Si3 0.784312 0.915966 0.989725
Si Si4 0.798445 0.842595 0.161773
Si Si5 0.228565 0.500000 0.592166
Si Si6 0.654046 0.000000 0.409694
Si Si7 0.428902 0.833174 0.349436
O O1 0.836934 0.147469 0.037873
O O2 0.897188 0.167981 0.136165
O O3 0.092281 0.269778 0.127634
O O4 0.500000 0.237670 0.000000
O O5 0.379058 0.412987 0.624702
O O6 0.440199 0.247783 0.639238
O O7 0.056361 0.323757 0.596462
O O8 0.000000 0.319215 0.500000
O O9 0.837402 0.000000 0.022223
O O10 0.445393 0.910854 0.894747
O O11 0.000000 0.908186 0.000000
O O12 0.085187 0.845393 0.257210
O O13 0.000000 0.500000 0.500000
O O14 0.046371 0.500000 0.594050
O O15 0.585286 0.084619 0.372540
O O16 0.000000 0.000000 0.500000
#
# Coordination Sequence:
#
# PCOD9198680 Si02
#       7
#     8   8   8   8   4   4   8
#     4  10  20  36  58  83 112 157 192 232 285 347
#     4  10  20  38  60  86 115 154 203 241 297 363
#     4  10  21  37  59  84 111 154 197 231 280 347
#     4  11  21  35  58  83 120 146 194 243 290 344
#     4   8  18  36  60  82 106 144 188 243 284 341
#     4  10  22  40  58  82 116 154 198 239 291 361
#     4  11  23  37  60  89 119 158 194 248 309 341
#
# _framework density 19.797991
#
# number of rings (size 3 to 8) (size 9 to 14) (size 15 to 20)
#    0.000    1.833    0.000    5.500    1.167    5.667 
#    0.000    0.000    1.833    0.000    0.000    0.000 
#    0.000    0.000    0.000    0.000    0.000    0.000 
#
# Total GULP energy -133775.609724 kJ/mol
# GULP energy per Si atom -5573.983739 kJ/mol
# Density = 1.975293 g / cm^3
# Si number density = 19.797991 Si / 1000 Ang^3
#
#
#
# Elastic Constant Matrix: (Units=GPa)
#
#
# Indices 1 2 3 4 5 6 
#
# 1 55.3878 34.0786 16.0328 -0.0001 3.2057 0.0001
# 2 34.0786 174.7796 24.5423 0.0000 22.0059 0.0001
# 3 16.0328 24.5423 82.3436 0.0005 10.7804 0.0003
# 4 -0.0001 0.0000 0.0005 22.7552 -0.0009 4.2792
# 5 3.2057 22.0059 10.7804 -0.0009 21.5345 0.0002
# 6 0.0001 0.0001 0.0003 4.2792 0.0002 14.3548
#
#
#
# Elastic Compliance Matrix: (Units=1/GPa)
#
#
# Indices 1 2 3 4 5 6 
#
# 1 0.021333 -0.004022 -0.003293 0.000000 0.002583 0.000000
# 2 -0.004022 0.007429 -0.000552 0.000000 -0.006717 0.000000
# 3 -0.003293 -0.000552 0.013710 -0.000001 -0.005810 0.000000
# 4 0.000000 0.000000 -0.000001 0.046556 0.000003 -0.013879
# 5 0.002583 -0.006717 -0.005810 0.000003 0.055824 -0.000001
# 6 0.000000 0.000000 0.000000 -0.013879 -0.000001 0.073800
#
#
# Mechanical properties :
#
#
# Convention : Reuss Voigt Hill
#
# Bulk Modulus (GPa) = 37.39955 51.31316 44.35636
# Shear Modulus (GPa) = 20.55076 27.58606 24.06841
#
# Velocity S-wave (km/s) = 3.22533 3.73685 3.49047
# Velocity P-wave (km/s) = 5.72730 6.67782 6.22074
#
# Compressibility (1/GPa) = 0.02673829
#
# Stress axis : x y z
#
# Youngs Moduli (GPa) = 46.87560 134.60960 72.93720
#
# Poissons Ratio (x) = 0.54145 0.24018
# Poissons Ratio (y) = 0.18855 0.04024
# Poissons Ratio (z) = 0.15436 0.07426
#
# Static dielectric constant tensor:
#      x y z
#    x 1.684520 0.000000 -0.007000 
#    y 0.000000 1.772710 0.000000 
#    z -0.007000 0.000000 1.684790 
# 
# From -- ./inp_files/256499.got.cif
#   From: 2010.05.17/outbox.cif.g08.bks.cpg/sg12_129_cif.got.tgz:256499.got - 2010.06.03 13:09:07.
