data_PCOD9198858
_publ_section_title
;
Structure prediction by ZEFSAII (Michael W. Deem and Ramdas Pophale) SiO2 
 PCOD9198858
Probable space group: C 2/M
;
_chemical_formula_sum "Si O2"
_cell_formula_units_Z 60
_cell_length_a 23.523273
_cell_length_b 9.555610
_cell_length_c 14.216556
_cell_angle_alpha 90.000000
_cell_angle_beta 82.804299
_cell_angle_gamma 90.000000
_cell_volume 3170.418296
_symmetry_space_group_name_H-M "C 2/M"
_symmetry_group_IT_number 12
_symmetry_cell_setting 'monoclinic'
loop_
_space_group_symop_operation_xyz
x,y,z
-x,y,-z
-x,-y,-z
x,-y,z
1/2+x,1/2+y,z
1/2-x,1/2+y,-z
1/2-x,1/2-y,-z
1/2+x,1/2-y,z
loop_
_atom_site_type_symbol
_atom_site_label
_atom_site_fract_x
_atom_site_fract_y
_atom_site_fract_z
Si Si1 0.058926 0.339370 0.044077
Si Si2 0.458533 0.332511 0.419059
Si Si3 0.666884 0.337006 0.969748
Si Si4 0.328789 0.237947 0.480381
Si Si5 0.246384 0.500000 0.541814
Si Si6 0.261858 0.663151 0.849787
Si Si7 0.537257 0.165167 0.267447
Si Si8 0.165288 0.341384 0.307264
O O1 0.081226 0.500000 0.035171
O O2 0.105633 0.234802 0.993514
O O3 0.045890 0.307925 0.155472
O O4 0.000000 0.332759 0.000000
O O5 0.500000 0.302949 0.500000
O O6 0.455565 0.500000 0.408807
O O7 0.394877 0.272777 0.446908
O O8 0.489255 0.259482 0.324756
O O9 0.663741 0.500000 0.944687
O O10 0.697483 0.327930 0.066018
O O11 0.705850 0.250561 0.889216
O O12 0.292037 0.378143 0.497373
O O13 0.324681 0.164263 0.583928
O O14 0.299452 0.125142 0.418950
O O15 0.250038 0.500000 0.834165
O O16 0.295091 0.733738 0.756642
O O17 0.598931 0.193360 0.302117
O O18 0.524343 0.000000 0.283107
O O19 0.175639 0.500000 0.270096
#
# Coordination Sequence:
#
# PCOD9198858 Si02
#       8
#     8   8   8   8   4   8   8   8
#     4  10  21  40  63  85 120 165 204 247 308 378
#     4  11  23  38  62  96 128 158 204 267 319 360
#     4  10  20  36  58  87 118 155 197 246 303 355
#     4  11  22  42  63  91 118 171 205 253 303 374
#     4  10  24  42  62  80 124 166 208 234 306 376
#     4  10  21  34  58  90 120 152 194 250 302 357
#     4  10  22  37  60  94 122 156 202 258 312 365
#     4  11  21  36  61  94 122 151 202 256 307 360
#
# _framework density 18.924948000000001
#
# number of rings (size 3 to 8) (size 9 to 14) (size 15 to 20)
#    0.000    1.600    4.000    0.800    1.867    2.667 
#    0.000    2.667    2.933    0.000    0.000    0.000 
#    0.000    0.000    0.000    0.000    0.000    0.000 
#
# Total GULP energy -167046.665122 kJ/mol
# GULP energy per Si atom -5568.222171 kJ/mol
# Density = 1.888187 g / cm^3
# Si number density = 18.924948 Si / 1000 Ang^3
#
#
#
# Elastic Constant Matrix: (Units=GPa)
#
#
# Indices 1 2 3 4 5 6 
#
# 1 95.9991 60.9011 18.2400 0.0000 -31.5060 0.0000
# 2 60.9011 139.4509 32.2412 0.0000 -37.7295 0.0000
# 3 18.2400 32.2412 40.8482 0.0000 -25.4093 0.0000
# 4 0.0000 0.0000 0.0000 34.8094 0.0000 2.3371
# 5 -31.5060 -37.7295 -25.4093 0.0000 32.5972 0.0000
# 6 0.0000 0.0000 0.0000 2.3371 0.0000 55.2364
#
#
#
# Elastic Compliance Matrix: (Units=1/GPa)
#
#
# Indices 1 2 3 4 5 6 
#
# 1 0.017560 -0.004654 0.005899 0.000000 0.016184 0.000000
# 2 -0.004654 0.011716 -0.002974 0.000000 0.006744 0.000000
# 3 0.005899 -0.002974 0.049696 0.000000 0.040997 0.000000
# 4 0.000000 0.000000 0.000000 0.028810 0.000000 -0.001219
# 5 0.016184 0.006744 0.040997 0.000000 0.086082 0.000000
# 6 0.000000 0.000000 0.000000 -0.001219 0.000000 0.018156
#
#
# Mechanical properties :
#
#
# Convention : Reuss Voigt Hill
#
# Bulk Modulus (GPa) = 13.24258 55.45140 34.34699
# Shear Modulus (GPa) = 20.77728 35.52300 28.15014
#
# Velocity S-wave (km/s) = 3.31702 4.33719 3.86095
# Velocity P-wave (km/s) = 4.65648 7.37875 6.16963
#
# Compressibility (1/GPa) = 0.07551398
#
# Stress axis : x y z
#
# Youngs Moduli (GPa) = 56.94874 85.35573 20.12234
#
# Poissons Ratio (x) = 0.39724 -0.11871
# Poissons Ratio (y) = 0.26504 0.05984
# Poissons Ratio (z) = -0.33596 0.25384
#
# Static dielectric constant tensor:
#      x y z
#    x 1.664780 0.000000 0.045340 
#    y 0.000000 1.640220 0.000000 
#    z 0.045340 0.000000 1.655590 
# 
# From -- ./inp_files/238493.got.cif
#   From: 2010.05.17/outbox.cif.g08.bks.cpg/sg12_120_cif.got.tgz:238493.got - 2010.06.03 13:09:07.
