data_PCOD9198514
_publ_section_title
;
Structure prediction by ZEFSAII (Michael W. Deem and Ramdas Pophale) SiO2 
 PCOD9198514
Probable space group: C 2/M
;
_chemical_formula_sum "Si O2"
_cell_formula_units_Z 46
_cell_length_a 10.776808
_cell_length_b 18.315677
_cell_length_c 11.830661
_cell_angle_alpha 90.000000
_cell_angle_beta 100.978343
_cell_angle_gamma 90.000000
_cell_volume 2292.453762
_symmetry_space_group_name_H-M "C 2/M"
_symmetry_group_IT_number 12
_symmetry_cell_setting 'monoclinic'
loop_
_space_group_symop_operation_xyz
x,y,z
-x,y,-z
-x,-y,-z
x,-y,z
1/2+x,1/2+y,z
1/2-x,1/2+y,-z
1/2-x,1/2-y,-z
1/2+x,1/2-y,z
loop_
_atom_site_type_symbol
_atom_site_label
_atom_site_fract_x
_atom_site_fract_y
_atom_site_fract_z
Si Si1 0.887158 0.416688 0.891681
Si Si2 0.000000 0.500000 0.500000
Si Si3 0.312024 0.301062 0.149366
Si Si4 0.476337 0.125846 0.312022
Si Si5 0.496099 0.297456 0.630869
Si Si6 0.807706 0.152885 0.788532
Si Si7 0.500000 0.664098 0.000000
O O1 0.846060 0.500000 0.868315
O O2 0.773412 0.365878 0.910386
O O3 0.942324 0.384289 0.786083
O O4 0.000000 0.415454 0.000000
O O5 0.984806 0.564497 0.593456
O O6 0.381094 0.323189 0.277752
O O7 0.231666 0.230151 0.162923
O O8 0.420251 0.287796 0.075287
O O9 0.498487 0.208986 0.357838
O O10 0.326532 0.115106 0.258106
O O11 0.500000 0.317544 0.500000
O O12 0.379064 0.329872 0.682720
O O13 0.905788 0.120837 0.898336
#
# Coordination Sequence:
#
# PCOD9198514 Si02
#       7
#     8   2   8   8   8   8   4
#     4  11  23  39  60  86 120 157 196 240 295 359
#     4  12  24  40  62  82 126 154 190 246 280 360
#     4  10  21  35  59  86 120 158 192 248 293 357
#     4  11  22  39  60  90 118 155 199 239 300 349
#     4  10  21  38  60  88 118 154 200 247 296 346
#     4  10  21  35  60  90 121 154 193 249 299 351
#     4  10  20  36  57  90 117 154 194 240 306 348
#
# _framework density 20.065835
#
# number of rings (size 3 to 8) (size 9 to 14) (size 15 to 20)
#    0.000    1.565    3.478    1.565    1.217    4.174 
#    0.000    0.435    7.652    0.522    0.000    0.000 
#    0.000    0.000    0.000    0.000    0.000    0.000 
#
# Total GULP energy -128142.681572 kJ/mol
# GULP energy per Si atom -5571.420938 kJ/mol
# Density = 2.002016 g / cm^3
# Si number density = 20.065835 Si / 1000 Ang^3
#
#
#
# Elastic Constant Matrix: (Units=GPa)
#
#
# Indices 1 2 3 4 5 6 
#
# 1 71.6481 8.3723 19.1857 0.0000 -17.8373 0.0000
# 2 8.3723 36.0833 -8.5549 0.0000 -6.9180 0.0000
# 3 19.1857 -8.5549 114.2408 0.0000 -26.5395 0.0000
# 4 0.0000 0.0000 0.0000 3.3304 0.0000 2.8114
# 5 -17.8373 -6.9180 -26.5395 0.0000 18.9950 0.0000
# 6 0.0000 0.0000 0.0000 2.8114 0.0000 7.5887
#
#
#
# Elastic Compliance Matrix: (Units=1/GPa)
#
#
# Indices 1 2 3 4 5 6 
#
# 1 0.018361 -0.000327 0.001288 0.000000 0.018922 0.000000
# 2 -0.000327 0.034181 0.008047 0.000000 0.023385 0.000000
# 3 0.001288 0.008047 0.014956 0.000000 0.025036 0.000000
# 4 0.000000 0.000000 0.000000 0.436914 0.000000 -0.161866
# 5 0.018922 0.023385 0.025036 0.000000 0.113911 0.000000
# 6 0.000000 0.000000 0.000000 -0.161866 0.000000 0.191743
#
#
# Mechanical properties :
#
#
# Convention : Reuss Voigt Hill
#
# Bulk Modulus (GPa) = 11.69402 28.88646 20.29024
# Shear Modulus (GPa) = 6.09344 19.51409 12.80376
#
# Velocity S-wave (km/s) = 1.74451 3.12188 2.52878
# Velocity P-wave (km/s) = 3.14615 5.23660 4.31973
#
# Compressibility (1/GPa) = 0.08551380
#
# Stress axis : x y z
#
# Youngs Moduli (GPa) = 54.46225 29.25612 66.86270
#
# Poissons Ratio (x) = 0.00957 -0.08610
# Poissons Ratio (y) = 0.01782 -0.53805
# Poissons Ratio (z) = -0.07013 -0.23543
#
# Static dielectric constant tensor:
#      x y z
#    x 1.778300 0.000000 0.029890 
#    y 0.000000 1.651070 0.000000 
#    z 0.029890 0.000000 1.731680 
# 
# From -- ./inp_files/131267.got.cif
#   From: 2010.05.17/outbox.cif.g08.bks.cpg/sg12_66_cif.got.tgz:131267.got - 2010.06.03 13:09:07.
