data_PCOD9198457
_publ_section_title
;
Structure prediction by ZEFSAII (Michael W. Deem and Ramdas Pophale) SiO2 
 PCOD9198457
Probable space group: C 2/M
;
_chemical_formula_sum "Si O2"
_cell_formula_units_Z 48
_cell_length_a 25.485887
_cell_length_b 8.908896
_cell_length_c 12.788241
_cell_angle_alpha 90.000000
_cell_angle_beta 70.452078
_cell_angle_gamma 90.000000
_cell_volume 2736.227505
_symmetry_space_group_name_H-M "C 2/M"
_symmetry_group_IT_number 12
_symmetry_cell_setting 'monoclinic'
loop_
_space_group_symop_operation_xyz
x,y,z
-x,y,-z
-x,-y,-z
x,-y,z
1/2+x,1/2+y,z
1/2-x,1/2+y,-z
1/2-x,1/2-y,-z
1/2+x,1/2-y,z
loop_
_atom_site_type_symbol
_atom_site_label
_atom_site_fract_x
_atom_site_fract_y
_atom_site_fract_z
Si Si1 0.862612 0.820571 0.230756
Si Si2 0.442332 0.319814 0.374767
Si Si3 0.562542 0.180431 0.996418
Si Si4 0.129420 0.180521 0.374726
Si Si5 0.249956 0.319800 0.615817
Si Si6 0.060587 0.320529 0.240570
O O1 0.901873 0.784027 0.304440
O O2 0.803404 0.742904 0.288074
O O3 0.855946 0.000000 0.232387
O O4 0.893738 0.761600 0.107428
O O5 0.450299 0.500000 0.371230
O O6 0.411640 0.276220 0.502450
O O7 0.501441 0.242496 0.319337
O O8 0.568248 0.222438 0.114068
O O9 0.569186 0.000000 0.982193
O O10 0.500000 0.217544 0.000000
O O11 0.192136 0.219845 0.366032
O O12 0.108101 0.255942 0.283636
O O13 0.126375 0.000000 0.366432
O O14 0.247292 0.500000 0.609296
O O15 0.250000 0.250000 0.500000
O O16 0.059633 0.500000 0.246671
#
# Coordination Sequence:
#
# PCOD9198457 Si02
#       6
#     8   8   8   8   8   8
#     4  11  22  37  60  91 118 148 197 242 286 344
#     4  10  20  36  57  84 120 154 187 233 291 351
#     4  10  21  39  59  83 118 154 192 242 295 342
#     4  10  22  40  58  82 119 158 191 232 291 348
#     4  11  22  39  62  87 118 155 194 239 290 343
#     4  11  23  37  57  87 118 152 196 240 289 346
#
# _framework density 17.542401000000002
#
# number of rings (size 3 to 8) (size 9 to 14) (size 15 to 20)
#    0.000    1.500    3.333    2.000    0.000    6.333 
#    0.000    0.833    0.000    0.000    0.000    0.000 
#    0.000    0.000    0.000    0.000    0.000    0.000 
#
# Total GULP energy -134126.083337 kJ/mol
# GULP energy per Si atom -5588.586806 kJ/mol
# Density = 1.750247 g / cm^3
# Si number density = 17.542401 Si / 1000 Ang^3
#
#
#
# Elastic Constant Matrix: (Units=GPa)
#
#
# Indices 1 2 3 4 5 6 
#
# 1 144.5921 62.3272 103.5468 0.0000 11.4687 0.0000
# 2 62.3272 40.5889 50.9120 0.0000 2.8836 0.0000
# 3 103.5468 50.9120 140.6279 0.0000 4.7897 0.0000
# 4 0.0000 0.0000 0.0000 33.3732 0.0000 -0.4291
# 5 11.4687 2.8836 4.7897 0.0000 34.3039 0.0000
# 6 0.0000 0.0000 0.0000 -0.4291 0.0000 31.9998
#
#
#
# Elastic Compliance Matrix: (Units=1/GPa)
#
#
# Indices 1 2 3 4 5 6 
#
# 1 0.025508 -0.028339 -0.008353 0.000000 -0.004980 0.000000
# 2 -0.028339 0.076694 -0.007036 0.000000 0.004010 0.000000
# 3 -0.008353 -0.007036 0.015769 0.000000 0.001182 0.000000
# 4 0.000000 0.000000 0.000000 0.029969 0.000000 0.000402
# 5 -0.004980 0.004010 0.001182 0.000000 0.030314 0.000000
# 6 0.000000 0.000000 0.000000 0.000402 0.000000 0.031256
#
#
# Mechanical properties :
#
#
# Convention : Reuss Voigt Hill
#
# Bulk Modulus (GPa) = 32.77057 84.37563 58.57310
# Shear Modulus (GPa) = 16.27935 27.20358 21.74146
#
# Velocity S-wave (km/s) = 3.04961 3.94221 3.52428
# Velocity P-wave (km/s) = 5.57867 8.30204 7.07267
#
# Compressibility (1/GPa) = 0.03051519
#
# Stress axis : x y z
#
# Youngs Moduli (GPa) = 39.20266 13.03883 63.41707
#
# Poissons Ratio (x) = 0.36950 0.52974
# Poissons Ratio (y) = 1.11095 0.44621
# Poissons Ratio (z) = 0.32747 0.09174
#
# Static dielectric constant tensor:
#      x y z
#    x 1.575870 0.000000 0.009220 
#    y 0.000000 1.586160 0.000000 
#    z 0.009220 0.000000 1.573810 
# 
# From -- ./inp_files/172415.got.cif
#   From: 2010.05.17/outbox.cif.g08.bks.cpg/sg12_87_cif.got.tgz:172415.got - 2010.06.03 13:09:07.
