data_PCOD9198126
_publ_section_title
;
Structure prediction by ZEFSAII (Michael W. Deem and Ramdas Pophale) SiO2 
 PCOD9198126
Probable space group: C 2/M
;
_chemical_formula_sum "Si O2"
_cell_formula_units_Z 56
_cell_length_a 18.908402
_cell_length_b 9.551824
_cell_length_c 18.541964
_cell_angle_alpha 90.000000
_cell_angle_beta 111.807902
_cell_angle_gamma 90.000000
_cell_volume 3109.196638
_symmetry_space_group_name_H-M "C 2/M"
_symmetry_group_IT_number 12
_symmetry_cell_setting 'monoclinic'
loop_
_space_group_symop_operation_xyz
x,y,z
-x,y,-z
-x,-y,-z
x,-y,z
1/2+x,1/2+y,z
1/2-x,1/2+y,-z
1/2-x,1/2-y,-z
1/2+x,1/2-y,z
loop_
_atom_site_type_symbol
_atom_site_label
_atom_site_fract_x
_atom_site_fract_y
_atom_site_fract_z
Si Si1 0.219270 0.166564 0.137734
Si Si2 0.448131 0.661939 0.543715
Si Si3 0.074108 0.833381 0.980319
Si Si4 0.111006 0.667748 0.849980
Si Si5 0.273621 0.340904 0.441281
Si Si6 0.530498 0.166362 0.302255
Si Si7 0.679329 0.832547 0.266725
O O1 0.302280 0.206514 0.137884
O O2 0.198917 0.250362 0.202057
O O3 0.221726 0.000000 0.154024
O O4 0.151199 0.190306 0.055205
O O5 0.500000 0.722041 0.500000
O O6 0.470895 0.500000 0.566911
O O7 0.364116 0.659019 0.478552
O O8 0.452810 0.748101 0.619075
O O9 0.082028 0.747826 0.909695
O O10 0.067990 0.000000 0.962899
O O11 0.000000 0.794121 0.000000
O O12 0.108967 0.500000 0.862015
O O13 0.052027 0.697731 0.762820
O O14 0.245309 0.500000 0.440695
O O15 0.250000 0.250000 0.500000
O O16 0.237932 0.292158 0.352699
O O17 0.595490 0.197502 0.267198
O O18 0.534959 0.000000 0.318882
O O19 0.684930 0.000000 0.256541
#
# Coordination Sequence:
#
# PCOD9198126 Si02
#       7
#     8   8   8   8   8   8   8
#     4  10  22  38  56  83 115 143 179 225 270 323
#     4  10  22  37  55  80 110 144 185 230 276 326
#     4  10  21  38  60  85 112 144 182 222 267 323
#     4  10  22  38  57  83 114 145 180 224 271 323
#     4  10  20  36  56  80 109 143 185 231 274 321
#     4  10  21  38  56  79 110 144 184 227 272 325
#     4  10  21  36  56  81 109 142 184 227 269 323
#
# _framework density 18.011082999999999
#
# number of rings (size 3 to 8) (size 9 to 14) (size 15 to 20)
#    0.000    2.000    1.429    1.286    2.000    3.429 
#    0.000    0.000    0.000    0.000    0.000    0.000 
#    0.000    0.000    0.000    0.000    0.000    0.000 
#
# Total GULP energy -156272.073194 kJ/mol
# GULP energy per Si atom -5581.145471 kJ/mol
# Density = 1.797009 g / cm^3
# Si number density = 18.011083 Si / 1000 Ang^3
#
#
#
# Elastic Constant Matrix: (Units=GPa)
#
#
# Indices 1 2 3 4 5 6 
#
# 1 110.6349 22.4236 32.9717 0.0000 5.8206 0.0000
# 2 22.4236 20.4526 23.4116 0.0000 -1.0476 0.0000
# 3 32.9717 23.4116 62.6990 0.0000 8.7065 0.0000
# 4 0.0000 0.0000 0.0000 30.4974 0.0000 -6.1581
# 5 5.8206 -1.0476 8.7065 0.0000 30.3565 0.0000
# 6 0.0000 0.0000 0.0000 -6.1581 0.0000 21.9232
#
#
#
# Elastic Compliance Matrix: (Units=1/GPa)
#
#
# Indices 1 2 3 4 5 6 
#
# 1 0.011951 -0.011108 -0.001839 0.000000 -0.002147 0.000000
# 2 -0.011108 0.100602 -0.033849 0.000000 0.015310 0.000000
# 3 -0.001839 -0.033849 0.030899 0.000000 -0.009678 0.000000
# 4 0.000000 0.000000 0.000000 0.034761 0.000000 0.009764
# 5 -0.002147 0.015310 -0.009678 0.000000 0.036658 0.000000
# 6 0.000000 0.000000 0.000000 0.009764 0.000000 0.048356
#
#
# Mechanical properties :
#
#
# Convention : Reuss Voigt Hill
#
# Bulk Modulus (GPa) = 20.05581 39.04447 29.55014
# Shear Modulus (GPa) = 13.38903 24.22074 18.80489
#
# Velocity S-wave (km/s) = 2.72945 3.67109 3.23472
# Velocity P-wave (km/s) = 4.59267 6.30034 5.51303
#
# Compressibility (1/GPa) = 0.04986085
#
# Stress axis : x y z
#
# Youngs Moduli (GPa) = 83.67421 9.94013 32.36325
#
# Poissons Ratio (x) = 0.11041 0.05951
# Poissons Ratio (y) = 0.92944 1.09547
# Poissons Ratio (z) = 0.15387 0.33646
#
# Static dielectric constant tensor:
#      x y z
#    x 1.561410 0.000000 -0.007360 
#    y 0.000000 1.609510 0.000000 
#    z -0.007360 0.000000 1.561700 
# 
# From -- ./inp_files/275105.got.cif
#   From: 2010.05.17/outbox.cif.g08.bks.cpg/sg12_138_cif.got.tgz:275105.got - 2010.06.03 13:09:07.
