data_PCOD9198414
_publ_section_title
;
Structure prediction by ZEFSAII (Michael W. Deem and Ramdas Pophale) SiO2 
 PCOD9198414
Probable space group: C 2/M
;
_chemical_formula_sum "Si O2"
_cell_formula_units_Z 56
_cell_length_a 28.056722
_cell_length_b 8.434838
_cell_length_c 14.042359
_cell_angle_alpha 90.000000
_cell_angle_beta 119.929030
_cell_angle_gamma 90.000000
_cell_volume 2880.013451
_symmetry_space_group_name_H-M "C 2/M"
_symmetry_group_IT_number 12
_symmetry_cell_setting 'monoclinic'
loop_
_space_group_symop_operation_xyz
x,y,z
-x,y,-z
-x,-y,-z
x,-y,z
1/2+x,1/2+y,z
1/2-x,1/2+y,-z
1/2-x,1/2-y,-z
1/2+x,1/2-y,z
loop_
_atom_site_type_symbol
_atom_site_label
_atom_site_fract_x
_atom_site_fract_y
_atom_site_fract_z
Si Si1 0.773537 0.693439 0.736331
Si Si2 0.439670 0.191810 0.404802
Si Si3 0.346296 0.690047 0.454989
Si Si4 0.129722 0.309861 0.309205
Si Si5 0.917324 0.691825 0.165709
Si Si6 0.512178 0.689971 0.119862
Si Si7 0.296914 0.808305 0.975537
O O1 0.773662 0.500000 0.736594
O O2 0.713797 0.745347 0.640168
O O3 0.821808 0.745300 0.713327
O O4 0.784998 0.745236 0.855785
O O5 0.500000 0.243100 0.500000
O O6 0.392837 0.253096 0.428498
O O7 0.428504 0.243347 0.285288
O O8 0.438563 0.000000 0.405596
O O9 0.346005 0.500000 0.456518
O O10 0.358872 0.751632 0.572923
O O11 0.129473 0.500000 0.308928
O O12 0.070954 0.251210 0.213846
O O13 0.918372 0.500000 0.165306
O O14 0.857147 0.744084 0.070512
O O15 0.964496 0.752085 0.142716
O O16 0.513018 0.500000 0.120910
O O17 0.500000 0.745379 0.000000
O O18 0.296602 0.000000 0.975527
O O19 0.250000 0.750000 0.000000
#
# Coordination Sequence:
#
# PCOD9198414 Si02
#       7
#     8   8   8   8   8   8   8
#     4   9  20  37  57  82 113 150 189 232 282 340
#     4  10  21  37  56  81 113 149 192 238 284 339
#     4  11  22  37  58  85 116 148 187 236 290 342
#     4  11  22  39  62  84 112 152 193 233 281 337
#     4  10  21  37  59  85 114 153 198 240 282 337
#     4  11  24  40  59  87 120 150 186 235 287 338
#     4  10  20  36  57  83 114 149 193 237 282 338
#
# _framework density 19.444353
#
# number of rings (size 3 to 8) (size 9 to 14) (size 15 to 20)
#    0.000    1.714    0.000    4.286    0.000    4.857 
#    0.000    4.286    0.000    0.000    0.000    0.000 
#    0.000    0.000    0.000    0.000    0.000    0.000 
#
# Total GULP energy -156551.596134 kJ/mol
# GULP energy per Si atom -5591.128433 kJ/mol
# Density = 1.940010 g / cm^3
# Si number density = 19.444353 Si / 1000 Ang^3
#
#
#
# Elastic Constant Matrix: (Units=GPa)
#
#
# Indices 1 2 3 4 5 6 
#
# 1 244.8762 31.8205 152.3004 0.0000 0.9420 0.0000
# 2 31.8205 15.9345 34.8328 0.0000 1.3019 0.0000
# 3 152.3004 34.8328 248.3828 0.0000 0.5720 0.0000
# 4 0.0000 0.0000 0.0000 2.8658 0.0000 -11.9277
# 5 0.9420 1.3019 0.5720 0.0000 47.2009 0.0000
# 6 0.0000 0.0000 0.0000 -11.9277 0.0000 24.0235
#
#
#
# Elastic Compliance Matrix: (Units=1/GPa)
#
#
# Indices 1 2 3 4 5 6 
#
# 1 0.007063 -0.006697 -0.003392 0.000000 0.000085 0.000000
# 2 -0.006697 0.097111 -0.009507 0.000000 -0.002430 0.000000
# 3 -0.003392 -0.009507 0.007439 0.000000 0.000240 0.000000
# 4 0.000000 0.000000 0.000000 -0.327182 0.000000 -0.162447
# 5 0.000085 -0.002430 0.000240 0.000000 0.021248 0.000000
# 6 0.000000 0.000000 0.000000 -0.162447 0.000000 -0.039030
#
#
# Mechanical properties :
#
#
# Convention : Reuss Voigt Hill
#
# Bulk Modulus (GPa) = 13.80812 105.23343 59.52077
# Shear Modulus (GPa) = -29.40855 34.16734 2.37939
#
# Velocity S-wave (km/s) = -3.89324 4.19643 1.10741
# Velocity P-wave (km/s) = 3.61842 8.81577 5.68440
#
# Compressibility (1/GPa) = 0.07242116
#
# Stress axis : x y z
#
# Youngs Moduli (GPa) = 141.57784 10.29752 134.43513
#
# Poissons Ratio (x) = 0.06896 0.45600
# Poissons Ratio (y) = 0.94816 1.27803
# Poissons Ratio (z) = 0.48023 0.09789
#
# Static dielectric constant tensor:
#      x y z
#    x 1.631960 0.000000 0.009020 
#    y 0.000000 1.670360 0.000000 
#    z 0.009020 0.000000 1.658020 
# 
# From -- ./inp_files/181058.got.cif
#   From: 2010.05.17/outbox.cif.g08.bks.cpg/sg12_91_cif.got.tgz:181058.got - 2010.06.03 13:09:07.
