data_PCOD9198993
_publ_section_title
;
Structure prediction by ZEFSAII (Michael W. Deem and Ramdas Pophale) SiO2 
 PCOD9198993
Probable space group: C 2/M
;
_chemical_formula_sum "Si O2"
_cell_formula_units_Z 64
_cell_length_a 9.471374
_cell_length_b 31.328820
_cell_length_c 11.678352
_cell_angle_alpha 90.000000
_cell_angle_beta 89.962446
_cell_angle_gamma 90.000000
_cell_volume 3465.281273
_symmetry_space_group_name_H-M "C 2/M"
_symmetry_group_IT_number 12
_symmetry_cell_setting 'monoclinic'
loop_
_space_group_symop_operation_xyz
x,y,z
-x,y,-z
-x,-y,-z
x,-y,z
1/2+x,1/2+y,z
1/2-x,1/2+y,-z
1/2-x,1/2-y,-z
1/2+x,1/2-y,z
loop_
_atom_site_type_symbol
_atom_site_label
_atom_site_fract_x
_atom_site_fract_y
_atom_site_fract_z
Si Si1 0.184359 0.549629 0.419533
Si Si2 0.323599 0.154641 0.902589
Si Si3 0.742575 0.548880 0.310380
Si Si4 0.483970 0.762153 0.130557
Si Si5 0.708026 0.835555 0.839762
Si Si6 0.988510 0.398206 0.260890
Si Si7 0.536117 0.404095 0.633191
Si Si8 0.029451 0.828726 0.793565
O O1 0.147076 0.500000 0.393863
O O2 0.207567 0.552378 0.556208
O O3 0.332131 0.563626 0.361900
O O4 0.071806 0.583208 0.369759
O O5 0.402550 0.198982 0.865484
O O6 0.392711 0.116887 0.828598
O O7 0.158354 0.161482 0.878822
O O8 0.343922 0.146939 0.037359
O O9 0.711202 0.500000 0.286909
O O10 0.872047 0.565649 0.233941
O O11 0.599566 0.575880 0.304002
O O12 0.335055 0.786025 0.150152
O O13 0.487165 0.722354 0.215226
O O14 0.500000 0.745345 0.000000
O O15 0.618157 0.857372 0.737799
O O16 0.873117 0.842396 0.830765
O O17 0.500000 0.399942 0.500000
O O18 0.567162 0.357569 0.684209
#
# Coordination Sequence:
#
# PCOD9198993 Si02
#       8
#     8   8   8   8   8   8   8   8
#     4  10  20  36  59  84 107 135 180 232 275 317
#     4  10  21  35  54  83 113 142 182 226 265 314
#     4  10  20  36  59  84 107 135 180 232 275 317
#     4   9  19  34  55  84 110 135 179 233 270 305
#     4  10  21  35  54  83 113 142 182 226 265 314
#     4  11  19  33  52  83 115 142 171 219 274 324
#     4  10  21  37  56  84 113 137 175 223 274 327
#     4  12  19  34  58  81 106 148 179 224 273 318
#
# _framework density 18.468921000000002
#
# number of rings (size 3 to 8) (size 9 to 14) (size 15 to 20)
#    0.000    1.750    2.500    4.125    0.000    4.500 
#    0.000    0.000    0.000   15.000    0.000    1.750 
#    0.000    0.000    0.000    0.000    0.000    0.000 
#
# Total GULP energy -178166.107048 kJ/mol
# GULP energy per Si atom -5567.690845 kJ/mol
# Density = 1.842688 g / cm^3
# Si number density = 18.468921 Si / 1000 Ang^3
#
#
#
# Elastic Constant Matrix: (Units=GPa)
#
#
# Indices 1 2 3 4 5 6 
#
# 1 109.2512 26.6751 17.1537 0.0000 -3.0775 0.0000
# 2 26.6751 100.1102 38.2352 0.0000 -4.6805 0.0000
# 3 17.1537 38.2352 20.7788 0.0000 -0.1381 0.0000
# 4 0.0000 0.0000 0.0000 27.1228 0.0000 -0.7101
# 5 -3.0775 -4.6805 -0.1381 0.0000 23.0423 0.0000
# 6 0.0000 0.0000 0.0000 -0.7101 0.0000 28.4855
#
#
#
# Elastic Compliance Matrix: (Units=1/GPa)
#
#
# Indices 1 2 3 4 5 6 
#
# 1 0.010675 0.002016 -0.012511 0.000000 0.001760 0.000000
# 2 0.002016 0.034979 -0.065983 0.000000 0.006979 0.000000
# 3 -0.012511 -0.065983 0.179777 0.000000 -0.013996 0.000000
# 4 0.000000 0.000000 0.000000 0.036893 0.000000 0.000920
# 5 0.001760 0.006979 -0.013996 0.000000 0.044967 0.000000
# 6 0.000000 0.000000 0.000000 0.000920 0.000000 0.035129
#
#
# Mechanical properties :
#
#
# Convention : Reuss Voigt Hill
#
# Bulk Modulus (GPa) = 13.79778 43.80758 28.80268
# Shear Modulus (GPa) = 9.62399 25.60188 17.61294
#
# Velocity S-wave (km/s) = 2.28522 3.72723 3.09148
# Velocity P-wave (km/s) = 3.80132 6.50339 5.32654
#
# Compressibility (1/GPa) = 0.07247542
#
# Stress axis : x y z
#
# Youngs Moduli (GPa) = 93.67805 28.58841 5.56244
#
# Poissons Ratio (x) = -0.05764 0.06959
# Poissons Ratio (y) = -0.18887 0.36703
# Poissons Ratio (z) = 1.17197 1.88636
#
# Static dielectric constant tensor:
#      x y z
#    x 1.706810 0.000000 0.000810 
#    y 0.000000 1.653250 0.000000 
#    z 0.000810 0.000000 1.626900 
# 
# From -- ./inp_files/125757.got.cif
#   From: 2010.05.17/outbox.cif.g08.bks.cpg/sg12_63_cif.got.tgz:125757.got - 2010.06.03 13:09:07.
