data_PCOD9198420
_publ_section_title
;
Structure prediction by ZEFSAII (Michael W. Deem and Ramdas Pophale) SiO2 
 PCOD9198420
Probable space group: C 2/M
;
_chemical_formula_sum "Si O2"
_cell_formula_units_Z 64
_cell_length_a 30.370808
_cell_length_b 8.978839
_cell_length_c 16.504681
_cell_angle_alpha 90.000000
_cell_angle_beta 48.430729
_cell_angle_gamma 90.000000
_cell_volume 3367.244895
_symmetry_space_group_name_H-M "C 2/M"
_symmetry_group_IT_number 12
_symmetry_cell_setting 'monoclinic'
loop_
_space_group_symop_operation_xyz
x,y,z
-x,y,-z
-x,-y,-z
x,-y,z
1/2+x,1/2+y,z
1/2-x,1/2+y,-z
1/2-x,1/2-y,-z
1/2+x,1/2-y,z
loop_
_atom_site_type_symbol
_atom_site_label
_atom_site_fract_x
_atom_site_fract_y
_atom_site_fract_z
Si Si1 0.005687 0.822952 0.729878
Si Si2 0.951153 0.322251 0.489355
Si Si3 0.794006 0.820558 0.109698
Si Si4 0.657568 0.179664 0.271376
Si Si5 0.394617 0.822426 0.300991
Si Si6 0.783683 0.678294 0.534981
Si Si7 0.372538 0.678469 0.862791
Si Si8 0.313039 0.178348 0.248179
O O1 0.029280 0.758495 0.615987
O O2 0.044651 0.756822 0.754553
O O3 0.936812 0.785218 0.819543
O O4 0.011678 0.000000 0.721823
O O5 0.948734 0.500000 0.476416
O O6 0.887940 0.273954 0.602700
O O7 0.000000 0.297859 0.500000
O O8 0.725528 0.775636 0.197133
O O9 0.827530 0.742702 0.142816
O O10 0.797589 0.000000 0.114340
O O11 0.822787 0.780420 0.988675
O O12 0.635402 0.241494 0.212870
O O13 0.655729 0.000000 0.271873
O O14 0.351368 0.791554 0.430674
O O15 0.359583 0.778239 0.261992
O O16 0.402560 0.000000 0.287749
O O17 0.776183 0.500000 0.546837
O O18 0.750000 0.750000 0.500000
O O19 0.750332 0.751782 0.650329
O O20 0.369786 0.500000 0.853486
O O21 0.309092 0.000000 0.253225
#
# Coordination Sequence:
#
# PCOD9198420 Si02
#       8
#     8   8   8   8   8   8   8   8
#     4  11  23  36  56  85 115 151 192 233 284 339
#     4  10  20  36  57  83 116 150 183 229 283 340
#     4  10  22  39  59  83 113 151 192 237 285 337
#     4  10  21  37  60  86 111 147 191 229 283 346
#     4   9  20  37  56  79 112 151 189 230 278 336
#     4   9  17  31  52  77 108 145 181 223 276 331
#     4  10  22  40  58  81 115 150 189 238 288 335
#     4  10  21  37  56  83 114 147 191 238 284 335
#
# _framework density 19.006637000000001
#
# number of rings (size 3 to 8) (size 9 to 14) (size 15 to 20)
#    0.000    2.125    1.250    2.250    1.750    5.250 
#    0.000    0.625    0.000    3.750    0.000    0.000 
#    0.000    0.000    0.000    0.000    0.000    0.000 
#
# Total GULP energy -178606.792058 kJ/mol
# GULP energy per Si atom -5581.462252 kJ/mol
# Density = 1.896338 g / cm^3
# Si number density = 19.006637 Si / 1000 Ang^3
#
#
#
# Elastic Constant Matrix: (Units=GPa)
#
#
# Indices 1 2 3 4 5 6 
#
# 1 81.8003 20.4133 11.3342 0.0000 -18.1634 0.0000
# 2 20.4133 11.2952 6.0926 0.0000 -8.0840 -0.0001
# 3 11.3342 6.0926 64.5207 0.0000 -17.1125 0.0000
# 4 0.0000 0.0000 0.0000 23.8955 0.0000 3.9689
# 5 -18.1634 -8.0840 -17.1125 0.0000 24.8402 0.0000
# 6 0.0000 -0.0001 0.0000 3.9689 0.0000 25.0275
#
#
#
# Elastic Compliance Matrix: (Units=1/GPa)
#
#
# Indices 1 2 3 4 5 6 
#
# 1 0.022642 -0.037951 0.000883 0.000000 0.004813 0.000000
# 2 -0.037951 0.179097 -0.002626 0.000000 0.028726 0.000000
# 3 0.000883 -0.002626 0.019010 0.000000 0.012887 0.000000
# 4 0.000000 0.000000 0.000000 0.042981 0.000000 -0.006816
# 5 0.004813 0.028726 0.012887 0.000000 0.062003 0.000000
# 6 0.000000 0.000000 0.000000 -0.006816 0.000000 0.041037
#
#
# Mechanical properties :
#
#
# Convention : Reuss Voigt Hill
#
# Bulk Modulus (GPa) = 7.07419 25.92184 16.49801
# Shear Modulus (GPa) = 10.13626 22.73771 16.43699
#
# Velocity S-wave (km/s) = 2.31184 3.46251 2.94394
# Velocity P-wave (km/s) = 3.29487 5.44548 4.50052
#
# Compressibility (1/GPa) = 0.14135900
#
# Stress axis : x y z
#
# Youngs Moduli (GPa) = 44.16542 5.58358 52.60475
#
# Poissons Ratio (x) = 0.21190 -0.04644
# Poissons Ratio (y) = 1.67614 0.13815
# Poissons Ratio (z) = -0.03899 0.01466
#
# Static dielectric constant tensor:
#      x y z
#    x 1.664750 0.000000 -0.018100 
#    y 0.000000 1.631390 0.000000 
#    z -0.018100 0.000000 1.658800 
# 
# From -- ./inp_files/249700.got.cif
#   From: 2010.05.17/outbox.cif.g08.bks.cpg/sg12_125_cif.got.tgz:249700.got - 2010.06.03 13:09:07.
