data_PCOD9198315
_publ_section_title
;
Structure prediction by ZEFSAII (Michael W. Deem and Ramdas Pophale) SiO2 
 PCOD9198315
Probable space group: C 2/M
;
_chemical_formula_sum "Si O2"
_cell_formula_units_Z 32
_cell_length_a 24.998116
_cell_length_b 13.325184
_cell_length_c 4.764742
_cell_angle_alpha 90.000000
_cell_angle_beta 128.450509
_cell_angle_gamma 90.000000
_cell_volume 1242.974975
_symmetry_space_group_name_H-M "C 2/M"
_symmetry_group_IT_number 12
_symmetry_cell_setting 'monoclinic'
loop_
_space_group_symop_operation_xyz
x,y,z
-x,y,-z
-x,-y,-z
x,-y,z
1/2+x,1/2+y,z
1/2-x,1/2+y,-z
1/2-x,1/2-y,-z
1/2+x,1/2-y,z
loop_
_atom_site_type_symbol
_atom_site_label
_atom_site_fract_x
_atom_site_fract_y
_atom_site_fract_z
Si Si1 0.201004 0.108053 0.419890
Si Si2 0.330356 0.180341 0.509555
Si Si3 0.428093 0.394581 0.418529
Si Si4 0.074572 0.327604 0.643641
O O1 0.264564 0.126225 0.422081
O O2 0.194571 0.203023 0.607277
O O3 0.209708 0.000000 0.588599
O O4 0.133637 0.105890 0.005262
O O5 0.369334 0.125543 0.382834
O O6 0.385005 0.184333 0.937704
O O7 0.500000 0.402018 0.500000
O O8 0.422048 0.500000 0.569073
O O9 0.433587 0.280308 0.543610
O O10 0.000000 0.366002 0.500000
#
# Coordination Sequence:
#
# PCOD9198315 Si02
#       4
#     8   8   8   8
#     4   9  19  35  56  83 116 149 183 229 278 330
#     4  10  21  36  57  85 112 146 189 226 276 337
#     4   8  15  29  50  78 110 143 178 217 270 334
#     4  10  20  36  57  80 111 148 186 233 280 325
#
# _framework density 25.744688
#
# number of rings (size 3 to 8) (size 9 to 14) (size 15 to 20)
#    0.000    2.750    0.000    0.750    0.000   10.000 
#    0.000    6.250    0.000   19.500    0.000    0.000 
#    0.000    0.000    0.000    0.000    0.000    0.000 
#
# Total GULP energy -89237.957154 kJ/mol
# GULP energy per Si atom -5577.372322 kJ/mol
# Density = 2.568609 g / cm^3
# Si number density = 25.744688 Si / 1000 Ang^3
#
#
#
# Elastic Constant Matrix: (Units=GPa)
#
#
# Indices 1 2 3 4 5 6 
#
# 1 222.2610 20.6297 29.7106 0.0000 24.9010 0.0000
# 2 20.6297 77.9098 13.0850 0.0000 11.1254 0.0000
# 3 29.7106 13.0850 93.8923 0.0000 17.1135 0.0000
# 4 0.0000 0.0000 0.0000 12.6828 0.0000 13.5982
# 5 24.9010 11.1254 17.1135 0.0000 52.4983 0.0000
# 6 0.0000 0.0000 0.0000 13.5982 0.0000 10.3639
#
#
#
# Elastic Compliance Matrix: (Units=1/GPa)
#
#
# Indices 1 2 3 4 5 6 
#
# 1 0.004929 -0.000862 -0.001113 0.000000 -0.001792 0.000000
# 2 -0.000862 0.013567 -0.001242 0.000000 -0.002061 0.000000
# 3 -0.001113 -0.001242 0.011728 0.000000 -0.003032 0.000000
# 4 0.000000 0.000000 0.000000 -0.193835 0.000000 0.254326
# 5 -0.001792 -0.002061 -0.003032 0.000000 0.021324 0.000000
# 6 0.000000 0.000000 0.000000 0.254326 0.000000 -0.237205
#
#
# Mechanical properties :
#
#
# Convention : Reuss Voigt Hill
#
# Bulk Modulus (GPa) = 42.03546 57.87932 49.95739
# Shear Modulus (GPa) = -13.69383 37.15150 11.72884
#
# Velocity S-wave (km/s) = -2.30882 3.80290 2.13675
# Velocity P-wave (km/s) = 3.04233 6.46634 5.05319
#
# Compressibility (1/GPa) = 0.02378944
#
# Stress axis : x y z
#
# Youngs Moduli (GPa) = 202.88895 73.71036 85.26314
#
# Poissons Ratio (x) = 0.06356 0.09488
# Poissons Ratio (y) = 0.17494 0.10591
# Poissons Ratio (z) = 0.22577 0.09156
#
# Static dielectric constant tensor:
#      x y z
#    x 2.066490 0.000000 0.009560 
#    y 0.000000 2.182100 0.000000 
#    z 0.009560 0.000000 1.933220 
# 
# From -- ./inp_files/14319.got.cif
#   From: 2010.05.17/outbox.cif.g08.bks.cpg/sg12_8_cif.got.tgz:14319.got - 2010.06.03 13:09:07.
