data_PCOD9198226
_publ_section_title
;
Structure prediction by ZEFSAII (Michael W. Deem and Ramdas Pophale) SiO2 
 PCOD9198226
Probable space group: C 2/M
;
_chemical_formula_sum "Si O2"
_cell_formula_units_Z 46
_cell_length_a 21.973139
_cell_length_b 12.459525
_cell_length_c 27.595868
_cell_angle_alpha 90.000000
_cell_angle_beta 19.767406
_cell_angle_gamma 90.000000
_cell_volume 2555.139529
_symmetry_space_group_name_H-M "C 2/M"
_symmetry_group_IT_number 12
_symmetry_cell_setting 'monoclinic'
loop_
_space_group_symop_operation_xyz
x,y,z
-x,y,-z
-x,-y,-z
x,-y,z
1/2+x,1/2+y,z
1/2-x,1/2+y,-z
1/2-x,1/2-y,-z
1/2+x,1/2-y,z
loop_
_atom_site_type_symbol
_atom_site_label
_atom_site_fract_x
_atom_site_fract_y
_atom_site_fract_z
Si Si1 0.852521 0.229089 0.499086
Si Si2 0.000000 0.500000 0.500000
Si Si3 0.960030 0.625581 0.328627
Si Si4 0.280645 0.312028 0.302361
Si Si5 0.307774 0.624602 0.704693
Si Si6 0.000000 0.276473 0.000000
Si Si7 0.633774 0.626609 0.986266
O O1 0.938712 0.304910 0.393377
O O2 0.698928 0.159598 0.588206
O O3 0.762670 0.299550 0.608717
O O4 0.006899 0.158444 0.408342
O O5 0.154068 0.405917 0.376844
O O6 0.946028 0.500000 0.351178
O O7 0.157030 0.644475 0.158208
O O8 0.227928 0.202619 0.314054
O O9 0.487324 0.339780 0.135963
O O10 0.308180 0.500000 0.691088
O O11 0.148583 0.652067 0.861806
O O12 0.089249 0.198740 0.972934
O O13 0.611640 0.500000 0.992175
#
# Coordination Sequence:
#
# PCOD9198226 Si02
#       7
#     8   2   8   8   8   4   8
#     4  11  22  40  58  88 118 157 197 249 291 357
#     4  12  20  40  58 102 120 152 188 254 308 350
#     4  10  23  39  61  83 116 159 204 244 295 354
#     4  11  24  37  64  91 124 154 194 251 305 354
#     4  11  22  38  60  89 120 158 196 240 298 357
#     4  10  20  36  56  88 120 157 191 248 298 358
#     4  10  20  37  59  89 118 154 197 247 301 356
#
# _framework density 18.002932000000001
#
# number of rings (size 3 to 8) (size 9 to 14) (size 15 to 20)
#    0.000    1.391    4.348    1.043    1.217    2.783 
#    3.130    0.000    0.000    0.000    0.000    0.000 
#    0.000    0.000    0.000    0.000    0.000    0.000 
#
# Total GULP energy -128168.686335 kJ/mol
# GULP energy per Si atom -5572.551580 kJ/mol
# Density = 1.796196 g / cm^3
# Si number density = 18.002932 Si / 1000 Ang^3
#
#
#
# Elastic Constant Matrix: (Units=GPa)
#
#
# Indices 1 2 3 4 5 6 
#
# 1 36.7815 18.2662 31.8643 -0.0096 1.4200 -0.0004
# 2 18.2662 124.5720 50.2761 -0.0323 -10.4979 0.0115
# 3 31.8643 50.2761 146.1281 -0.0551 -5.2805 0.0709
# 4 -0.0096 -0.0323 -0.0551 22.9454 -0.0010 -1.5964
# 5 1.4200 -10.4979 -5.2805 -0.0010 22.4143 -0.0083
# 6 -0.0004 0.0115 0.0709 -1.5964 -0.0083 -13.3745
#
#
#
# Elastic Compliance Matrix: (Units=1/GPa)
#
#
# Indices 1 2 3 4 5 6 
#
# 1 0.034636 -0.002770 -0.006784 -0.000008 -0.005090 -0.000035
# 2 -0.002770 0.009848 -0.002634 0.000006 0.004167 -0.000009
# 3 -0.006784 -0.002634 0.009279 0.000019 0.001382 0.000044
# 4 -0.000008 0.000006 0.000019 0.043223 0.000008 -0.005159
# 5 -0.005090 0.004167 0.001382 0.000008 0.047214 -0.000019
# 6 -0.000035 -0.000009 0.000044 -0.005159 -0.000019 -0.074153
#
#
# Mechanical properties :
#
#
# Convention : Reuss Voigt Hill
#
# Bulk Modulus (GPa) = 34.02695 56.47718 45.25207
# Shear Modulus (GPa) = 47.97687 20.20204 34.08946
#
# Velocity S-wave (km/s) = 5.16791 3.35349 4.35622
# Velocity P-wave (km/s) = 7.38590 6.81423 7.10582
#
# Compressibility (1/GPa) = 0.02938847
#
# Stress axis : x y z
#
# Youngs Moduli (GPa) = 28.87141 101.54651 107.77551
#
# Poissons Ratio (x) = 0.28127 0.73111
# Poissons Ratio (y) = 0.07997 0.28383
# Poissons Ratio (z) = 0.19585 0.26743
#
# Static dielectric constant tensor:
#      x y z
#    x 1.593340 0.000010 0.004340 
#    y 0.000010 1.589130 0.000020 
#    z 0.004340 0.000020 1.628530 
# 
# From -- ./inp_files/366153.got.cif
#   From: 2010.05.17/outbox.cif.g08.bks.cpg/sg12_184_cif.got.tgz:366153.got - 2010.06.03 13:09:07.
