data_PCOD9198906
_publ_section_title
;
Structure prediction by ZEFSAII (Michael W. Deem and Ramdas Pophale) SiO2 
 PCOD9198906
Probable space group: C 2/M
;
_chemical_formula_sum "Si O2"
_cell_formula_units_Z 48
_cell_length_a 22.562842
_cell_length_b 11.749307
_cell_length_c 18.567197
_cell_angle_alpha 90.000000
_cell_angle_beta 23.932500
_cell_angle_gamma 90.000000
_cell_volume 1996.708696
_symmetry_space_group_name_H-M "C 2/M"
_symmetry_group_IT_number 12
_symmetry_cell_setting 'monoclinic'
loop_
_space_group_symop_operation_xyz
x,y,z
-x,y,-z
-x,-y,-z
x,-y,z
1/2+x,1/2+y,z
1/2-x,1/2+y,-z
1/2-x,1/2-y,-z
1/2+x,1/2-y,z
loop_
_atom_site_type_symbol
_atom_site_label
_atom_site_fract_x
_atom_site_fract_y
_atom_site_fract_z
Si Si1 0.415065 0.127112 0.359896
Si Si2 0.726488 0.873967 0.092850
Si Si3 0.530319 0.367008 0.686287
Si Si4 0.340343 0.729995 0.106673
Si Si5 0.884225 0.133226 0.572602
Si Si6 0.641771 0.376545 0.769580
O O1 0.568347 0.129597 0.232916
O O2 0.414899 0.257114 0.328591
O O3 0.277432 0.125206 0.565904
O O4 0.414161 0.000000 0.323060
O O5 0.762671 0.788589 0.116924
O O6 0.743632 0.000000 0.106385
O O7 0.855014 0.865110 0.890656
O O8 0.573396 0.500000 0.655883
O O9 0.584950 0.339470 0.544940
O O10 0.274343 0.839537 0.219229
O O11 0.301953 0.637449 0.211202
O O12 0.513585 0.716051 0.904094
O O13 0.000000 0.187628 0.500000
O O14 0.906316 0.000000 0.549129
O O15 0.569437 0.500000 0.840175
#
# Coordination Sequence:
#
# PCOD9198906 Si02
#       6
#     8   8   8   8   8   8
#     4  10  20  36  58  89 117 150 196 247 299 349
#     4  10  21  35  60  90 116 150 196 247 299 357
#     4  10  20  38  58  84 121 157 192 241 302 360
#     4  11  20  36  59  83 114 152 201 238 299 346
#     4  10  21  37  60  88 118 157 202 247 295 353
#     4  10  21  36  57  83 121 155 190 245 302 353
#
# _framework density 24.039560999999999
#
# number of rings (size 3 to 8) (size 9 to 14) (size 15 to 20)
#    0.000    1.833    1.667    3.500    0.000    0.000 
#    0.000    6.667    0.000    0.000    0.000    0.000 
#    0.000    0.000    0.000    0.000    0.000    0.000 
#
# Total GULP energy -133757.156540 kJ/mol
# GULP energy per Si atom -5573.214856 kJ/mol
# Density = 2.398485 g / cm^3
# Si number density = 24.039561 Si / 1000 Ang^3
#
#
#
# Elastic Constant Matrix: (Units=GPa)
#
#
# Indices 1 2 3 4 5 6 
#
# 1 88.1995 8.9329 18.6589 0.0001 4.8079 0.0000
# 2 8.9329 109.3404 -9.5295 0.0000 9.2249 0.0000
# 3 18.6589 -9.5295 72.6692 0.0001 2.3642 -0.0001
# 4 0.0001 0.0000 0.0001 45.4375 -0.0001 0.1492
# 5 4.8079 9.2249 2.3642 -0.0001 38.2254 0.0001
# 6 0.0000 0.0000 -0.0001 0.1492 0.0001 -7.2248
#
#
#
# Elastic Compliance Matrix: (Units=1/GPa)
#
#
# Indices 1 2 3 4 5 6 
#
# 1 0.012205 -0.001193 -0.003256 0.000000 -0.001046 0.000000
# 2 -0.001193 0.009577 0.001636 0.000000 -0.002262 0.000000
# 3 -0.003256 0.001636 0.014841 0.000000 -0.000903 0.000000
# 4 0.000000 0.000000 0.000000 0.022007 0.000000 0.000455
# 5 -0.001046 -0.002262 -0.000903 0.000000 0.026894 0.000000
# 6 0.000000 0.000000 0.000000 0.000455 0.000000 -0.138402
#
#
# Mechanical properties :
#
#
# Convention : Reuss Voigt Hill
#
# Bulk Modulus (GPa) = 32.26226 34.03708 33.14967
# Shear Modulus (GPa) = -135.42366 32.09740 -51.66313
#
# Velocity S-wave (km/s) = -7.51372 3.65799 -4.64085
# Velocity P-wave (km/s) = 7.86289 5.65957 3.85968
#
# Compressibility (1/GPa) = 0.03099597
#
# Stress axis : x y z
#
# Youngs Moduli (GPa) = 81.93653 104.42117 67.38135
#
# Poissons Ratio (x) = 0.12454 0.21940
# Poissons Ratio (y) = 0.09772 -0.11021
# Poissons Ratio (z) = 0.26679 -0.17080
#
# Static dielectric constant tensor:
#      x y z
#    x 1.951100 0.000000 -0.016180 
#    y 0.000000 2.045570 0.000000 
#    z -0.016180 0.000000 1.875330 
# 
# From -- ./inp_files/327968.got.cif
#   From: 2010.05.17/outbox.cif.g08.bks.cpg/sg12_164_cif.got.tgz:327968.got - 2010.06.03 13:09:07.
