data_PCOD9198456
_publ_section_title
;
Structure prediction by ZEFSAII (Michael W. Deem and Ramdas Pophale) SiO2 
 PCOD9198456
Probable space group: C 2/M
;
_chemical_formula_sum "Si O2"
_cell_formula_units_Z 56
_cell_length_a 13.974970
_cell_length_b 13.346074
_cell_length_c 22.008926
_cell_angle_alpha 90.000000
_cell_angle_beta 30.839826
_cell_angle_gamma 90.000000
_cell_volume 2104.338415
_symmetry_space_group_name_H-M "C 2/M"
_symmetry_group_IT_number 12
_symmetry_cell_setting 'monoclinic'
loop_
_space_group_symop_operation_xyz
x,y,z
-x,y,-z
-x,-y,-z
x,-y,z
1/2+x,1/2+y,z
1/2-x,1/2+y,-z
1/2-x,1/2-y,-z
1/2+x,1/2-y,z
loop_
_atom_site_type_symbol
_atom_site_label
_atom_site_fract_x
_atom_site_fract_y
_atom_site_fract_z
Si Si1 0.952483 0.816735 0.620232
Si Si2 0.780706 0.621217 0.000955
Si Si3 0.802783 0.385996 0.727314
Si Si4 0.866674 0.619812 0.126496
Si Si5 0.798777 0.326800 0.363590
Si Si6 0.562823 0.613593 0.735943
Si Si7 0.773103 0.615241 0.874675
O O1 0.954354 0.696193 0.626160
O O2 0.841559 0.853113 0.739825
O O3 0.821076 0.839607 0.633117
O O4 0.156076 0.858003 0.494406
O O5 0.773330 0.500000 0.000939
O O6 0.717726 0.661740 0.969705
O O7 0.997018 0.645627 0.891452
O O8 0.650077 0.639850 0.130206
O O9 0.871063 0.500000 0.698243
O O10 0.657557 0.388655 0.751510
O O11 0.713360 0.350294 0.840184
O O12 0.861621 0.500000 0.121492
O O13 0.000000 0.658306 0.000000
O O14 0.843145 0.208190 0.346860
O O15 0.000091 0.378354 0.251891
O O16 0.580040 0.500000 0.702152
O O17 0.711940 0.500000 0.910685
#
# Coordination Sequence:
#
# PCOD9198456 Si02
#       7
#     8   8   8   8   8   8   8
#     4  10  21  39  58  86 121 157 203 248 296 355
#     4   9  18  35  59  85 116 152 197 246 298 357
#     4   9  20  38  56  82 119 157 198 245 295 348
#     4  10  21  39  62  89 122 158 197 246 302 358
#     4  10  21  36  59  88 119 157 202 247 296 359
#     4   9  19  37  59  87 120 157 201 247 297 354
#     4  10  20  36  57  84 119 158 198 246 301 356
#
# _framework density 26.611689999999999
#
# number of rings (size 3 to 8) (size 9 to 14) (size 15 to 20)
#    0.000    2.429    1.429    0.000    0.000    4.000 
#    5.143    7.143    0.000    3.429    0.000    0.000 
#    0.000    0.000    0.000    0.000    0.000    0.000 
#
# Total GULP energy -156542.102362 kJ/mol
# GULP energy per Si atom -5590.789370 kJ/mol
# Density = 2.655112 g / cm^3
# Si number density = 26.611690 Si / 1000 Ang^3
#
#
#
# Elastic Constant Matrix: (Units=GPa)
#
#
# Indices 1 2 3 4 5 6 
#
# 1 79.0246 -5.0101 28.7710 -0.0004 1.7347 0.0001
# 2 -5.0101 65.1334 16.7971 -0.0007 2.9130 0.0005
# 3 28.7710 16.7971 164.4377 -0.0042 6.5874 0.0007
# 4 -0.0004 -0.0007 -0.0042 13.1781 0.0008 2.1910
# 5 1.7347 2.9130 6.5874 0.0008 33.9232 0.0000
# 6 0.0001 0.0005 0.0007 2.1910 0.0000 23.2853
#
#
#
# Elastic Compliance Matrix: (Units=1/GPa)
#
#
# Indices 1 2 3 4 5 6 
#
# 1 0.013704 0.001730 -0.002560 0.000000 -0.000352 0.000000
# 2 0.001730 0.016024 -0.001896 0.000000 -0.001096 0.000000
# 3 -0.002560 -0.001896 0.006764 0.000002 -0.001020 0.000000
# 4 0.000000 0.000000 0.000002 0.077089 -0.000002 -0.007254
# 5 -0.000352 -0.001096 -0.001020 -0.000002 0.029789 0.000000
# 6 0.000000 0.000000 0.000000 -0.007254 0.000000 0.043628
#
#
# Mechanical properties :
#
#
# Convention : Reuss Voigt Hill
#
# Bulk Modulus (GPa) = 32.21643 43.30131 37.75887
# Shear Modulus (GPa) = 24.65533 31.94651 28.30092
#
# Velocity S-wave (km/s) = 3.04712 3.46854 3.26464
# Velocity P-wave (km/s) = 4.95100 5.68752 5.33199
#
# Compressibility (1/GPa) = 0.03104007
#
# Stress axis : x y z
#
# Youngs Moduli (GPa) = 72.97210 62.40610 147.84611
#
# Poissons Ratio (x) = -0.10797 0.37854
# Poissons Ratio (y) = -0.12625 0.28026
# Poissons Ratio (z) = 0.18683 0.11830
#
# Static dielectric constant tensor:
#      x y z
#    x 2.228040 0.000000 -0.001880 
#    y 0.000000 2.072750 0.000000 
#    z -0.001880 0.000000 2.008080 
# 
# From -- ./inp_files/340291.got.cif
#   From: 2010.05.17/outbox.cif.g08.bks.cpg/sg12_171_cif.got.tgz:340291.got - 2010.06.03 13:09:07.
