data_PCOD9198111
_publ_section_title
;
Structure prediction by ZEFSAII (Michael W. Deem and Ramdas Pophale) SiO2 
 PCOD9198111
Probable space group: C 2/M
;
_chemical_formula_sum "Si O2"
_cell_formula_units_Z 48
_cell_length_a 19.694122
_cell_length_b 7.484224
_cell_length_c 29.404666
_cell_angle_alpha 90.000000
_cell_angle_beta 155.120182
_cell_angle_gamma 90.000000
_cell_volume 1823.429505
_symmetry_space_group_name_H-M "C 2/M"
_symmetry_group_IT_number 12
_symmetry_cell_setting 'monoclinic'
loop_
_space_group_symop_operation_xyz
x,y,z
-x,y,-z
-x,-y,-z
x,-y,z
1/2+x,1/2+y,z
1/2-x,1/2+y,-z
1/2-x,1/2-y,-z
1/2+x,1/2-y,z
loop_
_atom_site_type_symbol
_atom_site_label
_atom_site_fract_x
_atom_site_fract_y
_atom_site_fract_z
Si Si1 0.139367 0.714402 0.888675
Si Si2 0.402058 0.290716 0.982814
Si Si3 0.703698 0.789194 0.537424
Si Si4 0.728428 0.784688 0.323405
Si Si5 0.220610 0.716455 0.220015
Si Si6 0.987548 0.202548 0.322012
O O1 0.129270 0.500000 0.878422
O O2 0.956569 0.780504 0.782388
O O3 0.250000 0.750000 0.000000
O O4 0.236573 0.782185 0.903255
O O5 0.377729 0.500000 0.958786
O O6 0.535916 0.272365 0.103694
O O7 0.500000 0.207639 0.000000
O O8 0.673801 0.764835 0.572301
O O9 0.884439 0.717361 0.635279
O O10 0.584610 0.700398 0.429192
O O11 0.702290 0.000000 0.525896
O O12 0.785152 0.722640 0.308213
O O13 0.726725 0.000000 0.320620
O O14 0.228066 0.500000 0.222947
O O15 0.320618 0.787011 0.237340
O O16 0.956626 0.000000 0.288893
#
# Coordination Sequence:
#
# PCOD9198111 Si02
#       6
#     8   8   8   8   8   8
#     4  10  20  36  56  79 110 147 184 221 265 319
#     4  10  22  37  54  81 114 146 181 224 274 321
#     4  10  21  37  58  84 109 139 180 223 272 326
#     4  10  21  36  56  81 110 145 182 221 269 321
#     4  10  21  38  58  81 108 143 186 225 266 320
#     4   9  20  39  59  80 109 142 179 224 271 322
#
# _framework density 26.324020999999998
#
# number of rings (size 3 to 8) (size 9 to 14) (size 15 to 20)
#    0.000    2.167    1.667    0.500    2.333    3.667 
#    0.000    3.333    0.000    0.000    0.000    0.000 
#    0.000    0.000    0.000    0.000    0.000    0.000 
#
# Total GULP energy -134242.651519 kJ/mol
# GULP energy per Si atom -5593.443813 kJ/mol
# Density = 2.626411 g / cm^3
# Si number density = 26.324021 Si / 1000 Ang^3
#
#
#
# Elastic Constant Matrix: (Units=GPa)
#
#
# Indices 1 2 3 4 5 6 
#
# 1 128.6353 11.1758 0.5477 0.0000 -5.0141 -0.0002
# 2 11.1758 101.7505 4.3916 0.0006 0.8909 -0.0016
# 3 0.5477 4.3916 67.6360 -0.0006 -0.1962 0.0000
# 4 0.0000 0.0006 -0.0006 20.0578 0.0001 -13.7331
# 5 -5.0141 0.8909 -0.1962 0.0001 54.8695 0.0001
# 6 -0.0002 -0.0016 0.0000 -13.7331 0.0001 11.2042
#
#
#
# Elastic Compliance Matrix: (Units=1/GPa)
#
#
# Indices 1 2 3 4 5 6 
#
# 1 0.007878 -0.000872 -0.000005 0.000000 0.000734 0.000000
# 2 -0.000872 0.009953 -0.000640 0.000004 -0.000244 0.000006
# 3 -0.000005 -0.000640 0.014827 0.000002 0.000063 0.000003
# 4 0.000000 0.000004 0.000002 0.310068 -0.000001 0.380054
# 5 0.000734 -0.000244 0.000063 -0.000001 0.018296 -0.000002
# 6 0.000000 0.000006 0.000003 0.380054 -0.000002 0.555088
#
#
# Mechanical properties :
#
#
# Convention : Reuss Voigt Hill
#
# Bulk Modulus (GPa) = 33.75475 36.69466 35.22470
# Shear Modulus (GPa) = 5.38202 36.02008 20.70105
#
# Velocity S-wave (km/s) = 1.43142 3.70311 2.80731
# Velocity P-wave (km/s) = 3.94748 5.67926 4.89063
#
# Compressibility (1/GPa) = 0.02962546
#
# Stress axis : x y z
#
# Youngs Moduli (GPa) = 126.93140 100.46780 67.44544
#
# Poissons Ratio (x) = 0.08756 0.00034
# Poissons Ratio (y) = 0.11062 0.04316
# Poissons Ratio (z) = 0.00064 0.06429
#
# Static dielectric constant tensor:
#      x y z
#    x 2.087570 0.000000 0.008800 
#    y 0.000000 1.987830 0.000000 
#    z 0.008800 0.000000 2.104030 
# 
# From -- ./inp_files/230442.got.cif
#   From: 2010.05.17/outbox.cif.g08.bks.cpg/sg12_116_cif.got.tgz:230442.got - 2010.06.03 13:09:07.
