data_PCOD9198277
_publ_section_title
;
Structure prediction by ZEFSAII (Michael W. Deem and Ramdas Pophale) SiO2 
 PCOD9198277
Probable space group: C 2/M
;
_chemical_formula_sum "Si O2"
_cell_formula_units_Z 48
_cell_length_a 13.017499
_cell_length_b 12.742926
_cell_length_c 15.280931
_cell_angle_alpha 90.000000
_cell_angle_beta 129.340660
_cell_angle_gamma 90.000000
_cell_volume 1960.403106
_symmetry_space_group_name_H-M "C 2/M"
_symmetry_group_IT_number 12
_symmetry_cell_setting 'monoclinic'
loop_
_space_group_symop_operation_xyz
x,y,z
-x,y,-z
-x,-y,-z
x,-y,z
1/2+x,1/2+y,z
1/2-x,1/2+y,-z
1/2-x,1/2-y,-z
1/2+x,1/2-y,z
loop_
_atom_site_type_symbol
_atom_site_label
_atom_site_fract_x
_atom_site_fract_y
_atom_site_fract_z
Si Si1 0.301019 0.832108 0.657514
Si Si2 0.820824 0.117382 0.583726
Si Si3 0.985372 0.256664 0.116009
Si Si4 0.229215 0.878389 0.169924
Si Si5 0.568437 0.727531 0.625800
Si Si6 0.260606 0.617031 0.037183
O O1 0.285304 0.880229 0.553592
O O2 0.284315 0.705879 0.633425
O O3 0.435819 0.840886 0.782706
O O4 0.177661 0.857273 0.652447
O O5 0.953746 0.164992 0.613354
O O6 0.835279 0.000000 0.624228
O O7 0.871781 0.322733 0.004147
O O8 0.094831 0.184284 0.126579
O O9 0.895792 0.179712 0.127857
O O10 0.354872 0.815042 0.276625
O O11 0.239997 0.883498 0.069920
O O12 0.223207 0.000000 0.196149
O O13 0.500000 0.770777 0.500000
O O14 0.264675 0.500000 0.073061
#
# Coordination Sequence:
#
# PCOD9198277 Si02
#       6
#     8   8   8   8   8   8
#     4   9  20  35  53  81 110 139 179 221 265 317
#     4  10  20  36  57  79 108 145 181 218 265 320
#     4  10  20  36  57  79 110 141 178 225 269 321
#     4  10  20  36  58  81 108 145 183 219 264 318
#     4   9  19  35  53  80 112 140 179 222 263 314
#     4  10  21  36  57  82 106 139 182 226 270 316
#
# _framework density 24.484762
#
# number of rings (size 3 to 8) (size 9 to 14) (size 15 to 20)
#    0.000    2.333    0.000    2.000    0.000    8.667 
#    0.000   12.500    0.000    9.000    0.000    0.000 
#    0.000    0.000    0.000    0.000    0.000    0.000 
#
# Total GULP energy -134117.072509 kJ/mol
# GULP energy per Si atom -5588.211355 kJ/mol
# Density = 2.442903 g / cm^3
# Si number density = 24.484762 Si / 1000 Ang^3
#
#
#
# Elastic Constant Matrix: (Units=GPa)
#
#
# Indices 1 2 3 4 5 6 
#
# 1 70.3267 26.2943 23.9728 0.0000 12.5516 0.0000
# 2 26.2943 110.9383 4.4560 0.0000 12.6183 0.0000
# 3 23.9728 4.4560 110.7105 0.0000 14.4015 0.0000
# 4 0.0000 0.0000 0.0000 13.0899 0.0000 4.9996
# 5 12.5516 12.6183 14.4015 0.0000 42.9684 0.0000
# 6 0.0000 0.0000 0.0000 4.9996 0.0000 16.2526
#
#
#
# Elastic Compliance Matrix: (Units=1/GPa)
#
#
# Indices 1 2 3 4 5 6 
#
# 1 0.017176 -0.003614 -0.003199 0.000000 -0.002884 0.000000
# 2 -0.003614 0.010086 0.000653 0.000000 -0.002125 0.000000
# 3 -0.003199 0.000653 0.010040 0.000000 -0.002623 0.000000
# 4 0.000000 0.000000 0.000000 0.086566 0.000000 -0.026630
# 5 -0.002884 -0.002125 -0.002623 0.000000 0.025618 0.000000
# 6 0.000000 0.000000 0.000000 -0.026630 0.000000 0.069720
#
#
# Mechanical properties :
#
#
# Convention : Reuss Voigt Hill
#
# Bulk Modulus (GPa) = 40.02858 44.60243 42.31551
# Shear Modulus (GPa) = 20.84604 30.27901 25.56252
#
# Velocity S-wave (km/s) = 2.92102 3.52041 3.23463
# Velocity P-wave (km/s) = 5.26881 5.89749 5.59199
#
# Compressibility (1/GPa) = 0.02498215
#
# Stress axis : x y z
#
# Youngs Moduli (GPa) = 58.22163 99.14558 99.60137
#
# Poissons Ratio (x) = 0.35836 0.31858
# Poissons Ratio (y) = 0.21044 -0.06505
# Poissons Ratio (z) = 0.18623 -0.06475
#
# Static dielectric constant tensor:
#      x y z
#    x 1.966940 0.000000 -0.005480 
#    y 0.000000 1.930470 0.000000 
#    z -0.005480 0.000000 2.014240 
# 
# From -- ./inp_files/310260.got.cif
#   From: 2010.05.17/outbox.cif.g08.bks.cpg/sg12_156_cif.got.tgz:310260.got - 2010.06.03 13:09:07.
