data_PCOD9198338
_publ_section_title
;
Structure prediction by ZEFSAII (Michael W. Deem and Ramdas Pophale) SiO2 
 PCOD9198338
Probable space group: C 2/M
;
_chemical_formula_sum "Si O2"
_cell_formula_units_Z 56
_cell_length_a 18.348742
_cell_length_b 8.565530
_cell_length_c 19.078143
_cell_angle_alpha 90.000000
_cell_angle_beta 103.939004
_cell_angle_gamma 90.000000
_cell_volume 2910.152623
_symmetry_space_group_name_H-M "C 2/M"
_symmetry_group_IT_number 12
_symmetry_cell_setting 'monoclinic'
loop_
_space_group_symop_operation_xyz
x,y,z
-x,y,-z
-x,-y,-z
x,-y,z
1/2+x,1/2+y,z
1/2-x,1/2+y,-z
1/2-x,1/2-y,-z
1/2+x,1/2-y,z
loop_
_atom_site_type_symbol
_atom_site_label
_atom_site_fract_x
_atom_site_fract_y
_atom_site_fract_z
Si Si1 0.478186 0.188790 0.573983
Si Si2 0.808194 0.311233 0.570757
Si Si3 0.593235 0.687298 0.716046
Si Si4 0.880657 0.310923 0.861525
Si Si5 0.261753 0.809810 0.715733
Si Si6 0.667574 0.685915 0.998370
Si Si7 0.950566 0.312670 0.141828
O O1 0.500000 0.234299 0.500000
O O2 0.393079 0.236929 0.571996
O O3 0.535958 0.258442 0.642980
O O4 0.481928 0.000000 0.579427
O O5 0.806250 0.500000 0.569424
O O6 0.750000 0.250000 0.500000
O O7 0.785156 0.258348 0.643391
O O8 0.593290 0.500000 0.720289
O O9 0.677708 0.739639 0.716158
O O10 0.568832 0.755325 0.784998
O O11 0.878350 0.500000 0.864977
O O12 0.821760 0.260506 0.788144
O O13 0.857814 0.244338 0.931231
O O14 0.965016 0.264995 0.859933
O O15 0.262449 0.000000 0.715316
O O16 0.669462 0.500000 0.997464
O O17 0.750000 0.750000 0.000000
O O18 0.608826 0.745946 0.927055
O O19 0.947226 0.500000 0.139262
#
# Coordination Sequence:
#
# PCOD9198338 Si02
#       7
#     8   8   8   8   8   8   8
#     4  10  21  37  57  82 114 152 193 240 297 358
#     4  10  20  36  57  81 111 148 189 235 288 346
#     4  11  22  36  58  86 116 152 196 245 293 347
#     4  10  21  40  64  87 116 156 197 239 294 357
#     4   9  19  36  57  81 111 149 190 233 286 346
#     4  12  25  41  62  89 122 157 197 245 295 350
#     4  11  23  40  63  89 119 157 198 241 296 358
#
# _framework density 19.242977
#
# number of rings (size 3 to 8) (size 9 to 14) (size 15 to 20)
#    0.000    1.571    0.000    5.143    0.000    7.143 
#    0.000    2.143    0.000    0.000    0.000    0.000 
#    0.000    0.000    0.000    0.000    0.000    0.000 
#
# Total GULP energy -156584.869582 kJ/mol
# GULP energy per Si atom -5592.316771 kJ/mol
# Density = 1.919918 g / cm^3
# Si number density = 19.242977 Si / 1000 Ang^3
#
#
#
# Elastic Constant Matrix: (Units=GPa)
#
#
# Indices 1 2 3 4 5 6 
#
# 1 240.4604 54.8120 143.2083 0.0000 -0.7808 0.0000
# 2 54.8120 37.1615 48.4782 0.0000 -0.6219 0.0000
# 3 143.2083 48.4782 228.9478 0.0000 -0.9353 0.0000
# 4 0.0000 0.0000 0.0000 34.4049 0.0000 5.8324
# 5 -0.7808 -0.6219 -0.9353 0.0000 46.6779 0.0000
# 6 0.0000 0.0000 0.0000 5.8324 0.0000 22.0525
#
#
#
# Elastic Compliance Matrix: (Units=1/GPa)
#
#
# Indices 1 2 3 4 5 6 
#
# 1 0.007777 -0.007081 -0.003365 0.000000 -0.000032 0.000000
# 2 -0.007081 0.043632 -0.004808 0.000000 0.000367 0.000000
# 3 -0.003365 -0.004808 0.007491 0.000000 0.000030 0.000000
# 4 0.000000 0.000000 0.000000 0.030430 0.000000 -0.008048
# 5 -0.000032 0.000367 0.000030 0.000000 0.021428 0.000000
# 6 0.000000 0.000000 0.000000 -0.008048 0.000000 0.047475
#
#
# Mechanical properties :
#
#
# Convention : Reuss Voigt Hill
#
# Bulk Modulus (GPa) = 35.22199 111.06299 73.14249
# Shear Modulus (GPa) = 25.22624 37.96514 31.59569
#
# Velocity S-wave (km/s) = 3.62461 4.44659 4.05647
# Velocity P-wave (km/s) = 5.98837 9.17629 7.74806
#
# Compressibility (1/GPa) = 0.02839135
#
# Stress axis : x y z
#
# Youngs Moduli (GPa) = 128.58581 22.91874 133.49368
#
# Poissons Ratio (x) = 0.16229 0.44924
# Poissons Ratio (y) = 0.91054 0.64185
# Poissons Ratio (z) = 0.43272 0.11020
#
# Static dielectric constant tensor:
#      x y z
#    x 1.649550 0.000000 -0.003650 
#    y 0.000000 1.660940 0.000000 
#    z -0.003650 0.000000 1.621150 
# 
# From -- ./inp_files/275609.got.cif
#   From: 2010.05.17/outbox.cif.g08.bks.cpg/sg12_138_cif.got.tgz:275609.got - 2010.06.03 13:09:07.
