data_PCOD9198238
_publ_section_title
;
Structure prediction by ZEFSAII (Michael W. Deem and Ramdas Pophale) SiO2 
 PCOD9198238
Probable space group: C 2/M
;
_chemical_formula_sum "Si O2"
_cell_formula_units_Z 56
_cell_length_a 19.413707
_cell_length_b 9.004598
_cell_length_c 22.038757
_cell_angle_alpha 90.000000
_cell_angle_beta 115.797081
_cell_angle_gamma 90.000000
_cell_volume 3468.701248
_symmetry_space_group_name_H-M "C 2/M"
_symmetry_group_IT_number 12
_symmetry_cell_setting 'monoclinic'
loop_
_space_group_symop_operation_xyz
x,y,z
-x,y,-z
-x,-y,-z
x,-y,z
1/2+x,1/2+y,z
1/2-x,1/2+y,-z
1/2-x,1/2-y,-z
1/2+x,1/2-y,z
loop_
_atom_site_type_symbol
_atom_site_label
_atom_site_fract_x
_atom_site_fract_y
_atom_site_fract_z
Si Si1 0.678990 0.675466 0.201465
Si Si2 0.024106 0.677003 0.692863
Si Si3 0.827229 0.176523 0.308695
Si Si4 0.538093 0.319657 0.075972
Si Si5 0.523447 0.324545 0.202594
Si Si6 0.714615 0.824114 0.580788
Si Si7 0.359361 0.823542 0.576557
O O1 0.697436 0.500000 0.204960
O O2 0.753693 0.768855 0.242276
O O3 0.626937 0.719297 0.123236
O O4 0.615877 0.693161 0.231282
O O5 0.034604 0.500000 0.694524
O O6 0.096334 0.756657 0.691007
O O7 0.010995 0.730738 0.756669
O O8 0.945712 0.714765 0.627253
O O9 0.814753 0.240766 0.371283
O O10 0.830667 0.000000 0.311358
O O11 0.536920 0.500000 0.073629
O O12 0.497144 0.280582 0.124154
O O13 0.500000 0.262940 0.000000
O O14 0.508501 0.500000 0.206076
O O15 0.660558 0.797106 0.501590
O O16 0.797777 0.765726 0.592399
O O17 0.717415 0.000000 0.593777
O O18 0.348370 0.000000 0.583713
#
# Coordination Sequence:
#
# PCOD9198238 Si02
#       7
#     8   8   8   8   8   8   8
#     4   8  16  31  53  78 103 132 166 202 246 298
#     4  11  22  35  51  71 101 136 172 211 255 301
#     4  12  24  35  49  71 103 137 174 214 255 299
#     4   7  12  26  52  83 108 130 160 200 245 297
#     4   8  16  30  51  78 104 130 163 201 244 296
#     4  10  20  36  57  77 101 130 167 211 257 306
#     4   9  20  37  56  78 100 130 168 211 257 304
#
# _framework density 16.144372000000001
#
# number of rings (size 3 to 8) (size 9 to 14) (size 15 to 20)
#    0.857    1.857    0.000    3.000    0.000    5.143 
#    0.000    2.857    0.000    2.571    0.000    0.000 
#    0.000    0.000    0.000    0.000    0.000    0.000 
#
# Total GULP energy -155874.940159 kJ/mol
# GULP energy per Si atom -5566.962149 kJ/mol
# Density = 1.610763 g / cm^3
# Si number density = 16.144372 Si / 1000 Ang^3
#
#
#
# Elastic Constant Matrix: (Units=GPa)
#
#
# Indices 1 2 3 4 5 6 
#
# 1 112.9865 67.7377 83.3411 0.0000 5.9690 0.0000
# 2 67.7377 76.1145 63.8359 0.0000 1.1223 0.0000
# 3 83.3411 63.8359 134.8651 0.0000 -1.3038 0.0000
# 4 0.0000 0.0000 0.0000 15.6246 0.0000 -1.5021
# 5 5.9690 1.1223 -1.3038 0.0000 -2.3396 0.0000
# 6 0.0000 0.0000 0.0000 -1.5021 0.0000 22.4142
#
#
#
# Elastic Compliance Matrix: (Units=1/GPa)
#
#
# Indices 1 2 3 4 5 6 
#
# 1 0.017392 -0.012274 -0.004541 0.000000 0.041016 0.000000
# 2 -0.012274 0.029855 -0.006675 0.000000 -0.013273 0.000000
# 3 -0.004541 -0.006675 0.013167 0.000000 -0.022126 0.000000
# 4 0.000000 0.000000 0.000000 0.064417 0.000000 0.004317
# 5 0.041016 -0.013273 -0.022126 0.000000 -0.316819 0.000000
# 6 0.000000 0.000000 0.000000 0.004317 0.000000 0.044904
#
#
# Mechanical properties :
#
#
# Convention : Reuss Voigt Hill
#
# Bulk Modulus (GPa) = 74.44129 83.75504 79.09817
# Shear Modulus (GPa) = -52.28695 14.40993 -18.93851
#
# Velocity S-wave (km/s) = -5.69714 2.99083 -3.42873
# Velocity P-wave (km/s) = 1.71268 7.99488 5.78150
#
# Compressibility (1/GPa) = 0.01343341
#
# Stress axis : x y z
#
# Youngs Moduli (GPa) = 57.49724 33.49517 75.94866
#
# Poissons Ratio (x) = 0.41112 0.34492
# Poissons Ratio (y) = 0.70572 0.50695
# Poissons Ratio (z) = 0.26112 0.22358
#
# Static dielectric constant tensor:
#      x y z
#    x 1.511270 0.000000 0.002690 
#    y 0.000000 1.530500 0.000000 
#    z 0.002690 0.000000 1.569990 
# 
# From -- ./inp_files/342022.got.cif
#   From: 2010.05.17/outbox.cif.g08.bks.cpg/sg12_172_cif.got.tgz:342022.got - 2010.06.03 13:09:07.
