data_PCOD9198018
_publ_section_title
;
Structure prediction by ZEFSAII (Michael W. Deem and Ramdas Pophale) SiO2 
 PCOD9198018
Probable space group: C 2/M
;
_chemical_formula_sum "Si O2"
_cell_formula_units_Z 48
_cell_length_a 23.684746
_cell_length_b 21.873855
_cell_length_c 7.561782
_cell_angle_alpha 90.000000
_cell_angle_beta 31.818360
_cell_angle_gamma 90.000000
_cell_volume 2065.459914
_symmetry_space_group_name_H-M "C 2/M"
_symmetry_group_IT_number 12
_symmetry_cell_setting 'monoclinic'
loop_
_space_group_symop_operation_xyz
x,y,z
-x,y,-z
-x,-y,-z
x,-y,z
1/2+x,1/2+y,z
1/2-x,1/2+y,-z
1/2-x,1/2-y,-z
1/2+x,1/2-y,z
loop_
_atom_site_type_symbol
_atom_site_label
_atom_site_fract_x
_atom_site_fract_y
_atom_site_fract_z
Si Si1 0.795267 0.322787 0.845349
Si Si2 0.434787 0.372286 0.523346
Si Si3 0.508845 0.251048 0.777212
Si Si4 0.705143 0.809291 0.727526
Si Si5 0.898524 0.434285 0.651442
Si Si6 0.691483 0.430542 0.458463
O O1 0.869262 0.270071 0.573151
O O2 0.706101 0.190948 0.939742
O O3 0.867723 0.381247 0.603677
O O4 0.677319 0.343786 0.108388
O O5 0.500000 0.408258 0.500000
O O6 0.506572 0.312849 0.290261
O O7 0.401152 0.408117 0.433073
O O8 0.500000 0.270791 0.000000
O O9 0.421828 0.198442 0.972951
O O10 0.750000 0.750000 0.500000
O O11 0.771330 0.872832 0.516014
O O12 0.916993 0.500000 0.519090
O O13 0.000000 0.418738 0.500000
O O14 0.796444 0.437419 0.053617
O O15 0.669996 0.500000 0.585901
#
# Coordination Sequence:
#
# PCOD9198018 Si02
#       6
#     8   8   8   8   8   8
#     4  10  20  36  55  84 122 159 200 254 311 362
#     4  10  21  36  57  85 121 159 203 258 308 359
#     4  12  23  36  57  89 124 159 203 255 311 368
#     4  10  20  37  63  93 123 157 204 258 309 371
#     4   8  13  25  50  81 110 146 194 241 291 356
#     4   9  19  36  59  89 123 161 203 248 304 369
#
# _framework density 23.239374999999999
#
# number of rings (size 3 to 8) (size 9 to 14) (size 15 to 20)
#    0.000    2.500    0.000    6.000    0.000    3.000 
#    0.000    0.000    0.000    6.500    0.000   17.500 
#    0.000    0.000    0.000    0.000    0.000    1.333 
#
# Total GULP energy -133603.385136 kJ/mol
# GULP energy per Si atom -5566.807714 kJ/mol
# Density = 2.318648 g / cm^3
# Si number density = 23.239375 Si / 1000 Ang^3
#
#
#
# Elastic Constant Matrix: (Units=GPa)
#
#
# Indices 1 2 3 4 5 6 
#
# 1 104.3473 35.7028 34.6342 0.0000 -28.1866 0.0000
# 2 35.7028 148.8454 24.7439 0.0000 -18.4003 0.0000
# 3 34.6342 24.7439 48.8658 0.0000 -3.1161 0.0000
# 4 0.0000 0.0000 0.0000 12.4461 0.0000 3.1394
# 5 -28.1866 -18.4003 -3.1161 0.0000 37.3029 0.0000
# 6 0.0000 0.0000 0.0000 3.1394 0.0000 15.5032
#
#
#
# Elastic Compliance Matrix: (Units=1/GPa)
#
#
# Indices 1 2 3 4 5 6 
#
# 1 0.016315 -0.000810 -0.010448 0.000000 0.011055 0.000000
# 2 -0.000810 0.007811 -0.003192 0.000000 0.002974 0.000000
# 3 -0.010448 -0.003192 0.029036 0.000000 -0.007044 0.000000
# 4 0.000000 0.000000 0.000000 0.084672 0.000000 -0.017146
# 5 0.011055 0.002974 -0.007044 0.000000 0.036040 0.000000
# 6 0.000000 0.000000 0.000000 -0.017146 0.000000 0.067975
#
#
# Mechanical properties :
#
#
# Convention : Reuss Voigt Hill
#
# Bulk Modulus (GPa) = 41.21507 54.69115 47.95311
# Shear Modulus (GPa) = 17.93175 26.84894 22.39035
#
# Velocity S-wave (km/s) = 2.78080 3.40269 3.10734
# Velocity P-wave (km/s) = 5.29943 6.24681 5.79252
#
# Compressibility (1/GPa) = 0.02426297
#
# Stress axis : x y z
#
# Youngs Moduli (GPa) = 61.29468 128.02685 34.43950
#
# Poissons Ratio (x) = 0.10367 0.35983
# Poissons Ratio (y) = 0.04963 0.10992
# Poissons Ratio (z) = 0.64042 0.40860
#
# Static dielectric constant tensor:
#      x y z
#    x 1.868870 0.000000 -0.001930 
#    y 0.000000 2.038700 0.000000 
#    z -0.001930 0.000000 1.948680 
# 
# From -- ./inp_files/106494.got.cif
#   From: 2010.05.17/outbox.cif.g08.bks.cpg/sg12_54_cif.got.tgz:106494.got - 2010.06.03 13:09:07.
