data_PCOD9198510
_publ_section_title
;
Structure prediction by ZEFSAII (Michael W. Deem and Ramdas Pophale) SiO2 
 PCOD9198510
Probable space group: C 2/M
;
_chemical_formula_sum "Si O2"
_cell_formula_units_Z 64
_cell_length_a 23.663096
_cell_length_b 23.127894
_cell_length_c 19.982226
_cell_angle_alpha 90.000000
_cell_angle_beta 163.203872
_cell_angle_gamma 90.000000
_cell_volume 3160.093423
_symmetry_space_group_name_H-M "C 2/M"
_symmetry_group_IT_number 12
_symmetry_cell_setting 'monoclinic'
loop_
_space_group_symop_operation_xyz
x,y,z
-x,y,-z
-x,-y,-z
x,-y,z
1/2+x,1/2+y,z
1/2-x,1/2+y,-z
1/2-x,1/2-y,-z
1/2+x,1/2-y,z
loop_
_atom_site_type_symbol
_atom_site_label
_atom_site_fract_x
_atom_site_fract_y
_atom_site_fract_z
Si Si1 0.995090 0.863811 0.415234
Si Si2 0.382394 0.800625 0.044455
Si Si3 0.340115 0.779144 0.761598
Si Si4 0.514337 0.567278 0.310793
Si Si5 0.873341 0.366195 0.160261
Si Si6 0.722590 0.066038 0.513593
Si Si7 0.450551 0.353125 0.873558
Si Si8 0.853638 0.309978 0.272730
O O1 0.139731 0.810937 0.555642
O O2 0.053676 0.915475 0.432013
O O3 0.000000 0.872502 0.500000
O O4 0.766582 0.851711 0.142580
O O5 0.246509 0.745541 0.875217
O O6 0.569518 0.797521 0.207935
O O7 0.420882 0.811330 0.166175
O O8 0.342074 0.708954 0.762490
O O9 0.500000 0.794708 0.000000
O O10 0.453654 0.500000 0.236227
O O11 0.702504 0.575113 0.476832
O O12 0.350393 0.612155 0.097382
O O13 0.932415 0.350108 0.302548
O O14 0.999056 0.417774 0.271528
O O15 0.836918 0.108604 0.692276
O O16 0.762594 0.000000 0.576653
O O17 0.500000 0.382298 0.000000
O O18 0.664513 0.340232 0.088416
O O19 0.000000 0.296667 0.500000
#
# Coordination Sequence:
#
# PCOD9198510 Si02
#       8
#     8   8   8   8   8   8   8   8
#     4  11  21  36  62  92 121 164 205 251 310 367
#     4  10  22  36  58  90 127 160 200 245 305 377
#     4  10  20  36  57  88 130 162 197 247 309 373
#     4  10  23  43  62  85 123 162 209 264 310 362
#     4  11  22  40  63  92 117 158 211 256 306 368
#     4  11  23  42  65  85 119 167 211 261 313 358
#     4  10  22  39  59  91 123 166 202 252 310 365
#     4  11  22  38  61  90 128 164 199 250 313 370
#
# _framework density 20.252565000000001
#
# number of rings (size 3 to 8) (size 9 to 14) (size 15 to 20)
#    0.000    1.500    2.500    2.625    5.250    0.500 
#    0.000    1.875    0.000    2.250    0.000    0.000 
#    0.000    0.000    0.000    0.000    0.000    0.000 
#
# Total GULP energy -178562.330136 kJ/mol
# GULP energy per Si atom -5580.072817 kJ/mol
# Density = 2.020647 g / cm^3
# Si number density = 20.252565 Si / 1000 Ang^3
#
#
#
# Elastic Constant Matrix: (Units=GPa)
#
#
# Indices 1 2 3 4 5 6 
#
# 1 125.9913 49.8728 14.4035 -0.0057 -3.3851 0.0076
# 2 49.8728 56.4185 11.3727 0.0049 1.5754 -0.0067
# 3 14.4035 11.3727 43.4881 0.0015 5.9279 0.0008
# 4 -0.0057 0.0049 0.0015 121.2675 0.0050 -116.8637
# 5 -3.3851 1.5754 5.9279 0.0050 24.8535 -0.0050
# 6 0.0076 -0.0067 0.0008 -116.8637 -0.0050 172.4500
#
#
#
# Elastic Compliance Matrix: (Units=1/GPa)
#
#
# Indices 1 2 3 4 5 6 
#
# 1 0.012462 -0.010752 -0.001695 0.000000 0.002783 -0.000001
# 2 -0.010752 0.027988 -0.003428 0.000000 -0.002421 0.000001
# 3 -0.001695 -0.003428 0.025276 -0.000001 -0.006042 -0.000001
# 4 0.000000 0.000000 -0.000001 0.023768 -0.000001 0.016107
# 5 0.002783 -0.002421 -0.006042 -0.000001 0.042209 0.000000
# 6 -0.000001 0.000001 -0.000001 0.016107 0.000000 0.016714
#
#
# Mechanical properties :
#
#
# Convention : Reuss Voigt Hill
#
# Bulk Modulus (GPa) = 29.43271 41.91063 35.67167
# Shear Modulus (GPa) = 26.11067 73.73080 49.92074
#
# Velocity S-wave (km/s) = 3.59451 6.04026 4.97017
# Velocity P-wave (km/s) = 5.63842 8.32978 7.11256
#
# Compressibility (1/GPa) = 0.03397580
#
# Stress axis : x y z
#
# Youngs Moduli (GPa) = 80.24608 35.72990 39.56275
#
# Poissons Ratio (x) = 0.38416 0.06706
# Poissons Ratio (y) = 0.86280 0.13563
# Poissons Ratio (z) = 0.13601 0.12249
#
# Static dielectric constant tensor:
#      x y z
#    x 1.766440 0.000000 -0.002540 
#    y 0.000000 1.741860 0.000000 
#    z -0.002540 0.000000 1.734710 
# 
# From -- ./inp_files/286484.got.cif
#   From: 2010.05.17/outbox.cif.g08.bks.cpg/sg12_144_cif.got.tgz:286484.got - 2010.06.03 13:09:07.
