data_PCOD9198190
_publ_section_title
;
Structure prediction by ZEFSAII (Michael W. Deem and Ramdas Pophale) SiO2 
 PCOD9198190
Probable space group: C 2/M
;
_chemical_formula_sum "Si O2"
_cell_formula_units_Z 56
_cell_length_a 11.298889
_cell_length_b 15.197674
_cell_length_c 17.759857
_cell_angle_alpha 90.000000
_cell_angle_beta 50.388965
_cell_angle_gamma 90.000000
_cell_volume 2349.433888
_symmetry_space_group_name_H-M "C 2/M"
_symmetry_group_IT_number 12
_symmetry_cell_setting 'monoclinic'
loop_
_space_group_symop_operation_xyz
x,y,z
-x,y,-z
-x,-y,-z
x,-y,z
1/2+x,1/2+y,z
1/2-x,1/2+y,-z
1/2-x,1/2-y,-z
1/2+x,1/2-y,z
loop_
_atom_site_type_symbol
_atom_site_label
_atom_site_fract_x
_atom_site_fract_y
_atom_site_fract_z
Si Si1 0.677106 0.392915 0.943656
Si Si2 0.008648 0.160136 0.412232
Si Si3 0.283009 0.399013 0.905156
Si Si4 0.402733 0.649679 0.298867
Si Si5 0.029476 0.348328 0.247393
Si Si6 0.051725 0.364545 0.400519
Si Si7 0.313984 0.898134 0.209457
O O1 0.696142 0.500000 0.930292
O O2 0.788971 0.346789 0.839232
O O3 0.500000 0.374637 0.000000
O O4 0.717841 0.360603 0.011371
O O5 0.983767 0.264765 0.429396
O O6 0.179354 0.148584 0.310363
O O7 0.000000 0.122171 0.500000
O O8 0.903514 0.123097 0.387346
O O9 0.233892 0.500000 0.935625
O O10 0.458370 0.396139 0.802436
O O11 0.181936 0.362119 0.877174
O O12 0.454132 0.751944 0.278800
O O13 0.236842 0.637205 0.330242
O O14 0.000322 0.395687 0.338851
O O15 0.963039 0.393363 0.199952
O O16 0.000000 0.405834 0.500000
O O17 0.267756 0.000000 0.221474
#
# Coordination Sequence:
#
# PCOD9198190 Si02
#       7
#     8   8   8   8   8   8   8
#     4  10  21  39  62  86 116 156 194 229 283 351
#     4   9  19  32  55  82 110 149 194 232 284 341
#     4   9  20  39  61  84 113 153 193 233 290 348
#     4  10  20  36  59  85 117 148 189 244 286 334
#     4  11  22  35  59  87 116 148 195 239 286 336
#     4  10  21  35  57  84 116 154 190 236 289 343
#     4  10  20  36  56  83 119 150 188 238 285 336
#
# _framework density 23.835531
#
# number of rings (size 3 to 8) (size 9 to 14) (size 15 to 20)
#    0.000    2.143    1.429    1.286    2.000    3.143 
#    0.000    2.857    0.000    2.143    0.000    0.000 
#    0.000    0.000    0.000    0.000    0.000    0.000 
#
# Total GULP energy -156346.248814 kJ/mol
# GULP energy per Si atom -5583.794600 kJ/mol
# Density = 2.378128 g / cm^3
# Si number density = 23.835531 Si / 1000 Ang^3
#
#
#
# Elastic Constant Matrix: (Units=GPa)
#
#
# Indices 1 2 3 4 5 6 
#
# 1 121.7897 2.5632 46.8723 0.0000 24.0444 0.0000
# 2 2.5632 54.5317 1.6495 0.0000 4.3164 0.0000
# 3 46.8723 1.6495 104.2278 0.0000 36.5907 0.0000
# 4 0.0000 0.0000 0.0000 14.0020 0.0000 -6.5180
# 5 24.0444 4.3164 36.5907 0.0000 40.2185 0.0000
# 6 0.0000 0.0000 0.0000 -6.5180 0.0000 9.3877
#
#
#
# Elastic Compliance Matrix: (Units=1/GPa)
#
#
# Indices 1 2 3 4 5 6 
#
# 1 0.010142 -0.000148 -0.003579 0.000000 -0.002792 0.000000
# 2 -0.000148 0.018522 0.000647 0.000000 -0.002488 0.000000
# 3 -0.003579 0.000647 0.015379 0.000000 -0.011921 0.000000
# 4 0.000000 0.000000 0.000000 0.105525 0.000000 0.073268
# 5 -0.002792 -0.002488 -0.011921 0.000000 0.037646 0.000000
# 6 0.000000 0.000000 0.000000 0.073268 0.000000 0.157394
#
#
# Mechanical properties :
#
#
# Convention : Reuss Voigt Hill
#
# Bulk Modulus (GPa) = 26.39615 42.52436 34.46025
# Shear Modulus (GPa) = 13.75910 28.01926 20.88918
#
# Velocity S-wave (km/s) = 2.40521 3.43231 2.96360
# Velocity P-wave (km/s) = 4.33725 5.79544 5.11854
#
# Compressibility (1/GPa) = 0.03788432
#
# Stress axis : x y z
#
# Youngs Moduli (GPa) = 98.59519 53.98905 65.02501
#
# Poissons Ratio (x) = 0.00796 0.23271
# Poissons Ratio (y) = 0.01454 -0.04205
# Poissons Ratio (z) = 0.35284 -0.03491
#
# Static dielectric constant tensor:
#      x y z
#    x 1.958370 0.000000 0.031890 
#    y 0.000000 1.933090 0.000000 
#    z 0.031890 0.000000 1.913920 
# 
# From -- ./inp_files/264185.got.cif
#   From: 2010.05.17/outbox.cif.g08.bks.cpg/sg12_133_cif.got.tgz:264185.got - 2010.06.03 13:09:07.
