data_PCOD9198957
_publ_section_title
;
Structure prediction by ZEFSAII (Michael W. Deem and Ramdas Pophale) SiO2 
 PCOD9198957
Probable space group: C 2/M
;
_chemical_formula_sum "Si O2"
_cell_formula_units_Z 56
_cell_length_a 27.570413
_cell_length_b 11.048506
_cell_length_c 15.165637
_cell_angle_alpha 90.000000
_cell_angle_beta 38.162988
_cell_angle_gamma 90.000000
_cell_volume 2854.474144
_symmetry_space_group_name_H-M "C 2/M"
_symmetry_group_IT_number 12
_symmetry_cell_setting 'monoclinic'
loop_
_space_group_symop_operation_xyz
x,y,z
-x,y,-z
-x,-y,-z
x,-y,z
1/2+x,1/2+y,z
1/2-x,1/2+y,-z
1/2-x,1/2-y,-z
1/2+x,1/2-y,z
loop_
_atom_site_type_symbol
_atom_site_label
_atom_site_fract_x
_atom_site_fract_y
_atom_site_fract_z
Si Si1 0.588138 0.146005 0.351042
Si Si2 0.213212 0.869145 0.433120
Si Si3 0.361434 0.784811 0.324573
Si Si4 0.258381 0.236526 0.779104
Si Si5 0.378988 0.634483 0.134204
Si Si6 0.851474 0.639787 0.926899
Si Si7 0.036408 0.366559 0.069055
O O1 0.500000 0.188744 0.500000
O O2 0.655862 0.188177 0.320841
O O3 0.617381 0.183623 0.211752
O O4 0.586060 0.000000 0.354207
O O5 0.291938 0.861106 0.379577
O O6 0.160768 0.761332 0.546888
O O7 0.235211 0.845138 0.300577
O O8 0.175832 0.000000 0.496119
O O9 0.364282 0.665812 0.257399
O O10 0.443551 0.852077 0.206247
O O11 0.200747 0.144991 0.809298
O O12 0.214631 0.280702 0.930227
O O13 0.412358 0.500000 0.075178
O O14 0.430153 0.749468 0.029215
O O15 0.824079 0.500000 0.956737
O O16 0.923844 0.638854 0.891983
O O17 0.057473 0.500000 0.001435
#
# Coordination Sequence:
#
# PCOD9198957 Si02
#       7
#     8   8   8   8   8   8   8
#     4  10  21  36  58  86 113 142 184 243 298 349
#     4  10  21  36  54  80 113 155 198 236 290 348
#     4  10  21  34  54  81 113 154 195 242 286 341
#     4  10  20  36  59  82 112 152 193 237 286 353
#     4  10  21  36  55  83 117 152 194 239 288 347
#     4   9  19  36  58  85 112 146 189 235 291 346
#     4  10  21  36  58  85 115 151 195 242 289 344
#
# _framework density 19.618324000000001
#
# number of rings (size 3 to 8) (size 9 to 14) (size 15 to 20)
#    0.000    2.143    0.000    2.571    2.000    6.286 
#    0.000    1.429    0.000    2.571    0.000    0.000 
#    0.000    0.000    0.000    0.000    0.000    0.000 
#
# Total GULP energy -156192.614541 kJ/mol
# GULP energy per Si atom -5578.307662 kJ/mol
# Density = 1.957367 g / cm^3
# Si number density = 19.618324 Si / 1000 Ang^3
#
#
#
# Elastic Constant Matrix: (Units=GPa)
#
#
# Indices 1 2 3 4 5 6 
#
# 1 71.6813 12.4108 36.1729 0.0000 -12.4621 0.0000
# 2 12.4108 93.9497 29.2222 0.0000 0.0421 0.0000
# 3 36.1729 29.2222 90.4289 0.0000 -3.4595 0.0000
# 4 0.0000 0.0000 0.0000 21.3101 0.0000 -2.7732
# 5 -12.4621 0.0421 -3.4595 0.0000 34.3990 0.0000
# 6 0.0000 0.0000 0.0000 -2.7732 0.0000 -0.6050
#
#
#
# Elastic Compliance Matrix: (Units=1/GPa)
#
#
# Indices 1 2 3 4 5 6 
#
# 1 0.018651 -0.000242 -0.007152 0.000000 0.006038 0.000000
# 2 -0.000242 0.011842 -0.003748 0.000000 -0.000479 0.000000
# 3 -0.007152 -0.003748 0.015089 0.000000 -0.001069 0.000000
# 4 0.000000 0.000000 0.000000 0.029393 0.000000 -0.134731
# 5 0.006038 -0.000479 -0.001069 0.000000 0.031151 0.000000
# 6 0.000000 0.000000 0.000000 -0.134731 0.000000 -1.035307
#
#
# Mechanical properties :
#
#
# Convention : Reuss Voigt Hill
#
# Bulk Modulus (GPa) = 42.92037 45.74130 44.33084
# Shear Modulus (GPa) = -5.56093 22.90443 8.67175
#
# Velocity S-wave (km/s) = -1.68544 3.42058 2.10471
# Velocity P-wave (km/s) = 4.25882 6.24233 5.34342
#
# Compressibility (1/GPa) = 0.02329896
#
# Stress axis : x y z
#
# Youngs Moduli (GPa) = 53.61584 84.44481 66.27131
#
# Poissons Ratio (x) = 0.02045 0.47394
# Poissons Ratio (y) = 0.01298 0.24840
# Poissons Ratio (z) = 0.38343 0.31652
#
# Static dielectric constant tensor:
#      x y z
#    x 1.682220 0.000000 0.009010 
#    y 0.000000 1.678550 0.000000 
#    z 0.009010 0.000000 1.723630 
# 
# From -- ./inp_files/245623.got.cif
#   From: 2010.05.17/outbox.cif.g08.bks.cpg/sg12_123_cif.got.tgz:245623.got - 2010.06.03 13:09:07.
