data_PCOD9198978
_publ_section_title
;
Structure prediction by ZEFSAII (Michael W. Deem and Ramdas Pophale) SiO2 
 PCOD9198978
Probable space group: C 2/M
;
_chemical_formula_sum "Si O2"
_cell_formula_units_Z 40
_cell_length_a 29.841354
_cell_length_b 9.217603
_cell_length_c 7.129547
_cell_angle_alpha 90.000000
_cell_angle_beta 92.791775
_cell_angle_gamma 90.000000
_cell_volume 1958.766677
_symmetry_space_group_name_H-M "C 2/M"
_symmetry_group_IT_number 12
_symmetry_cell_setting 'monoclinic'
loop_
_space_group_symop_operation_xyz
x,y,z
-x,y,-z
-x,-y,-z
x,-y,z
1/2+x,1/2+y,z
1/2-x,1/2+y,-z
1/2-x,1/2-y,-z
1/2+x,1/2-y,z
loop_
_atom_site_type_symbol
_atom_site_label
_atom_site_fract_x
_atom_site_fract_y
_atom_site_fract_z
Si Si1 0.220173 0.334208 0.763632
Si Si2 0.551008 0.328928 0.052190
Si Si3 0.890304 0.169984 0.593884
Si Si4 0.195168 0.664983 0.312107
Si Si5 0.120846 0.673706 0.800259
O O1 0.231281 0.500000 0.819022
O O2 0.208824 0.337600 0.536613
O O3 0.262317 0.228423 0.789506
O O4 0.173197 0.287523 0.846781
O O5 0.556070 0.500000 0.004842
O O6 0.565457 0.313610 0.271362
O O7 0.500000 0.286829 0.000000
O O8 0.586094 0.236757 0.940435
O O9 0.848071 0.232592 0.701614
O O10 0.891933 0.258926 0.403099
O O11 0.882954 0.000000 0.553499
O O12 0.184445 0.500000 0.254368
O O13 0.119227 0.500000 0.791280
#
# Coordination Sequence:
#
# PCOD9198978 Si02
#       5
#     8   8   8   8   8
#     4   8  15  28  47  75 110 146 182 219 266 324
#     4  10  23  42  61  82 109 144 188 235 282 334
#     4  10  20  36  59  83 112 150 187 227 276 332
#     4   9  16  27  48  79 112 145 183 226 269 318
#     4  10  21  37  59  86 115 147 184 230 279 329
#
# _framework density 20.421012999999999
#
# number of rings (size 3 to 8) (size 9 to 14) (size 15 to 20)
#    0.000    2.600    0.000    3.000    0.000    8.400 
#    0.000    5.000    0.000    0.000    0.000    0.000 
#    0.000    0.000    0.000    0.000    0.000    0.000 
#
# Total GULP energy -111761.824148 kJ/mol
# GULP energy per Si atom -5588.091207 kJ/mol
# Density = 2.037453 g / cm^3
# Si number density = 20.421013 Si / 1000 Ang^3
#
#
#
# Elastic Constant Matrix: (Units=GPa)
#
#
# Indices 1 2 3 4 5 6 
#
# 1 83.2925 37.7374 30.7633 0.0000 11.0811 0.0000
# 2 37.7374 62.2592 28.3892 0.0000 6.5979 0.0000
# 3 30.7633 28.3892 65.5196 0.0000 -0.6200 0.0000
# 4 0.0000 0.0000 0.0000 20.4207 0.0000 -13.2759
# 5 11.0811 6.5979 -0.6200 0.0000 28.8715 0.0000
# 6 0.0000 0.0000 0.0000 -13.2759 0.0000 25.0346
#
#
#
# Elastic Compliance Matrix: (Units=1/GPa)
#
#
# Indices 1 2 3 4 5 6 
#
# 1 0.018308 -0.008222 -0.005083 0.000000 -0.005257 0.000000
# 2 -0.008222 0.024386 -0.006730 0.000000 -0.002562 0.000000
# 3 -0.005083 -0.006730 0.020603 0.000000 0.003931 0.000000
# 4 0.000000 0.000000 0.000000 0.074736 0.000000 0.039633
# 5 -0.005257 -0.002562 0.003931 0.000000 0.037324 0.000000
# 6 0.000000 0.000000 0.000000 0.039633 0.000000 0.060962
#
#
# Mechanical properties :
#
#
# Convention : Reuss Voigt Hill
#
# Bulk Modulus (GPa) = 43.05570 44.98346 44.01958
# Shear Modulus (GPa) = 17.59757 22.47745 20.03751
#
# Velocity S-wave (km/s) = 2.93872 3.32128 3.13584
# Velocity P-wave (km/s) = 5.71354 6.06496 5.89187
#
# Compressibility (1/GPa) = 0.02322573
#
# Stress axis : x y z
#
# Youngs Moduli (GPa) = 54.62120 41.00750 48.53760
#
# Poissons Ratio (x) = 0.33717 0.24673
# Poissons Ratio (y) = 0.44910 0.32666
# Poissons Ratio (z) = 0.27765 0.27598
#
# Static dielectric constant tensor:
#      x y z
#    x 1.697880 0.000000 0.015770 
#    y 0.000000 1.680480 0.000000 
#    z 0.015770 0.000000 1.799710 
# 
# From -- ./inp_files/92936.got.cif
#   From: 2010.05.17/outbox.cif.g08.bks.cpg/sg12_47_cif.got.tgz:92936.got - 2010.06.03 13:09:07.
