data_PCOD9198288
_publ_section_title
;
Structure prediction by ZEFSAII (Michael W. Deem and Ramdas Pophale) SiO2 
 PCOD9198288
Probable space group: C 2/M
;
_chemical_formula_sum "Si O2"
_cell_formula_units_Z 64
_cell_length_a 14.799468
_cell_length_b 7.814460
_cell_length_c 24.199887
_cell_angle_alpha 90.000000
_cell_angle_beta 99.791904
_cell_angle_gamma 90.000000
_cell_volume 2757.941494
_symmetry_space_group_name_H-M "C 2/M"
_symmetry_group_IT_number 12
_symmetry_cell_setting 'monoclinic'
loop_
_space_group_symop_operation_xyz
x,y,z
-x,y,-z
-x,-y,-z
x,-y,z
1/2+x,1/2+y,z
1/2-x,1/2+y,-z
1/2-x,1/2-y,-z
1/2+x,1/2-y,z
loop_
_atom_site_type_symbol
_atom_site_label
_atom_site_fract_x
_atom_site_fract_y
_atom_site_fract_z
Si Si1 0.771140 0.702703 0.089459
Si Si2 0.799818 0.793600 0.448715
Si Si3 0.138764 0.699800 0.361359
Si Si4 0.354880 0.303194 0.279473
Si Si5 0.602061 0.208389 0.992442
Si Si6 0.808754 0.802354 0.806591
Si Si7 0.029701 0.700261 0.245092
Si Si8 0.965270 0.792931 0.401768
O O1 0.787765 0.500000 0.099046
O O2 0.680439 0.729053 0.042723
O O3 0.743541 0.775659 0.146097
O O4 0.858744 0.766417 0.063439
O O5 0.750000 0.750000 0.500000
O O6 0.733501 0.727029 0.393019
O O7 0.903362 0.738257 0.447016
O O8 0.801407 0.000000 0.445258
O O9 0.153769 0.500000 0.350483
O O10 0.089761 0.774730 0.302446
O O11 0.064900 0.715932 0.402945
O O12 0.329760 0.500000 0.285491
O O13 0.263423 0.210493 0.251038
O O14 0.431305 0.286915 0.239293
O O15 0.406567 0.245842 0.340582
O O16 0.602988 0.000000 0.993162
O O17 0.500000 0.263332 0.000000
O O18 0.905128 0.718555 0.800633
O O19 0.828951 0.000000 0.819954
O O20 0.011821 0.500000 0.252963
O O21 0.976048 0.000000 0.403579
#
# Coordination Sequence:
#
# PCOD9198288 Si02
#       8
#     8   8   8   8   8   8   8   8
#     4   9  20  36  52  77 110 139 174 219 263 310
#     4  10  21  36  52  74 103 134 169 211 260 312
#     4   9  19  36  56  76 101 133 171 215 262 312
#     4  10  20  36  57  81 108 141 180 220 266 321
#     4   9  18  35  58  79 101 136 180 221 263 312
#     4  11  22  35  52  79 116 150 179 218 265 315
#     4  10  20  36  57  80 106 140 181 223 267 317
#     4   9  19  36  56  76 102 135 172 214 259 311
#
# _framework density 23.205714
#
# number of rings (size 3 to 8) (size 9 to 14) (size 15 to 20)
#    0.000    2.375    0.000    1.875    0.000    6.750 
#    0.000    5.000    0.000    0.000    0.000    0.000 
#    0.000    0.000    0.000    0.000    0.000    0.000 
#
# Total GULP energy -178659.979810 kJ/mol
# GULP energy per Si atom -5583.124369 kJ/mol
# Density = 2.315290 g / cm^3
# Si number density = 23.205714 Si / 1000 Ang^3
#
#
#
# Elastic Constant Matrix: (Units=GPa)
#
#
# Indices 1 2 3 4 5 6 
#
# 1 142.0124 -2.3969 23.8576 0.0000 -46.0562 0.0000
# 2 -2.3969 31.6624 -2.0631 0.0000 -6.6926 0.0000
# 3 23.8576 -2.0631 45.1335 0.0000 -27.5157 0.0000
# 4 0.0000 0.0000 0.0000 16.2819 0.0000 -1.8450
# 5 -46.0562 -6.6926 -27.5157 0.0000 35.1514 0.0000
# 6 0.0000 0.0000 0.0000 -1.8450 0.0000 22.5468
#
#
#
# Elastic Compliance Matrix: (Units=1/GPa)
#
#
# Indices 1 2 3 4 5 6 
#
# 1 0.014830 0.007876 0.010102 0.000000 0.028837 0.000000
# 2 0.007876 0.039735 0.016367 0.000000 0.030697 0.000000
# 3 0.010102 0.016367 0.052668 0.000000 0.057579 0.000000
# 4 0.000000 0.000000 0.000000 0.061993 0.000000 0.005073
# 5 0.028837 0.030697 0.057579 0.000000 0.117148 0.000000
# 6 0.000000 0.000000 0.000000 0.005073 0.000000 0.044767
#
#
# Mechanical properties :
#
#
# Convention : Reuss Voigt Hill
#
# Bulk Modulus (GPa) = 5.68430 28.62263 17.15347
# Shear Modulus (GPa) = 15.57193 28.09006 21.83099
#
# Velocity S-wave (km/s) = 2.59325 3.48297 3.07051
# Velocity P-wave (km/s) = 3.37956 5.34190 4.46975
#
# Compressibility (1/GPa) = 0.17592303
#
# Stress axis : x y z
#
# Youngs Moduli (GPa) = 67.43174 25.16702 18.98688
#
# Poissons Ratio (x) = -0.19822 -0.19180
# Poissons Ratio (y) = -0.53112 -0.31076
# Poissons Ratio (z) = -0.68118 -0.41192
#
# Static dielectric constant tensor:
#      x y z
#    x 1.862190 0.000000 -0.046690 
#    y 0.000000 1.851120 0.000000 
#    z -0.046690 0.000000 1.939890 
# 
# From -- ./inp_files/338683.got.cif
#   From: 2010.05.17/outbox.cif.g08.bks.cpg/sg12_170_cif.got.tgz:338683.got - 2010.06.03 13:09:07.
