data_PCOD9198981
_publ_section_title
;
Structure prediction by ZEFSAII (Michael W. Deem and Ramdas Pophale) SiO2 
 PCOD9198981
Probable space group: C 2/M
;
_chemical_formula_sum "Si O2"
_cell_formula_units_Z 56
_cell_length_a 25.985460
_cell_length_b 7.524208
_cell_length_c 14.947216
_cell_angle_alpha 90.000000
_cell_angle_beta 56.998620
_cell_angle_gamma 90.000000
_cell_volume 2450.959424
_symmetry_space_group_name_H-M "C 2/M"
_symmetry_group_IT_number 12
_symmetry_cell_setting 'monoclinic'
loop_
_space_group_symop_operation_xyz
x,y,z
-x,y,-z
-x,-y,-z
x,-y,z
1/2+x,1/2+y,z
1/2-x,1/2+y,-z
1/2-x,1/2-y,-z
1/2+x,1/2-y,z
loop_
_atom_site_type_symbol
_atom_site_label
_atom_site_fract_x
_atom_site_fract_y
_atom_site_fract_z
Si Si1 0.572592 0.211824 0.698081
Si Si2 0.765618 0.202652 0.749230
Si Si3 0.529429 0.215366 0.067071
Si Si4 0.502091 0.713360 0.396436
Si Si5 0.793540 0.713614 0.375185
Si Si6 0.832627 0.205272 0.014239
Si Si7 0.865117 0.218399 0.788218
O O1 0.516528 0.279550 0.811915
O O2 0.555705 0.243678 0.610997
O O3 0.638208 0.282265 0.668054
O O4 0.573924 0.000000 0.710045
O O5 0.737197 0.284603 0.686668
O O6 0.824998 0.280273 0.742081
O O7 0.782865 0.000000 0.709592
O O8 0.713057 0.200605 0.874685
O O9 0.597856 0.284545 0.015664
O O10 0.533387 0.000000 0.066565
O O11 0.500000 0.263972 0.000000
O O12 0.500000 0.779906 0.500000
O O13 0.505850 0.500000 0.397136
O O14 0.564659 0.776069 0.289409
O O15 0.799243 0.500000 0.358869
O O16 0.750000 0.750000 0.500000
O O17 0.835853 0.276422 0.909877
O O18 0.813159 0.000000 0.029616
O O19 0.864158 0.000000 0.791063
#
# Coordination Sequence:
#
# PCOD9198981 Si02
#       7
#     8   8   8   8   8   8   8
#     4  10  21  38  58  85 118 149 187 237 286 337
#     4  10  21  39  61  82 114 159 198 233 279 342
#     4  10  20  36  59  83 112 154 196 229 276 345
#     4  10  21  37  61  88 114 149 192 236 287 347
#     4  10  23  41  62  86 114 151 195 239 284 337
#     4  11  21  35  56  87 122 148 184 241 293 336
#     4   9  19  36  57  86 118 148 190 237 282 339
#
# _framework density 22.848196999999999
#
# number of rings (size 3 to 8) (size 9 to 14) (size 15 to 20)
#    0.000    2.000    1.429    1.714    2.000    4.000 
#    0.000    2.857    0.000    0.000    0.000    0.000 
#    0.000    0.000    0.000    0.000    0.000    0.000 
#
# Total GULP energy -156543.780865 kJ/mol
# GULP energy per Si atom -5590.849317 kJ/mol
# Density = 2.279619 g / cm^3
# Si number density = 22.848197 Si / 1000 Ang^3
#
#
#
# Elastic Constant Matrix: (Units=GPa)
#
#
# Indices 1 2 3 4 5 6 
#
# 1 162.2717 -3.8011 24.5722 0.0000 25.3574 0.0000
# 2 -3.8011 61.4472 -5.0723 0.0001 2.9279 0.0003
# 3 24.5722 -5.0723 63.4787 0.0000 23.2851 0.0001
# 4 0.0000 0.0001 0.0000 -0.8158 0.0000 -36.8479
# 5 25.3574 2.9279 23.2851 0.0000 42.9235 0.0000
# 6 0.0000 0.0003 0.0001 -36.8479 0.0000 -81.8967
#
#
#
# Elastic Compliance Matrix: (Units=1/GPa)
#
#
# Indices 1 2 3 4 5 6 
#
# 1 0.006910 0.000471 -0.001408 0.000000 -0.003350 0.000000
# 2 0.000471 0.016595 0.002074 0.000000 -0.002535 0.000000
# 3 -0.001408 0.002074 0.020238 0.000000 -0.010288 0.000000
# 4 0.000000 0.000000 0.000000 0.063439 0.000000 -0.028543
# 5 -0.003350 -0.002535 -0.010288 0.000000 0.031031 0.000000
# 6 0.000000 0.000000 0.000000 -0.028543 0.000000 0.000632
#
#
# Mechanical properties :
#
#
# Convention : Reuss Voigt Hill
#
# Bulk Modulus (GPa) = 21.73152 35.39947 28.56549
# Shear Modulus (GPa) = 32.91403 10.14213 21.52808
#
# Velocity S-wave (km/s) = 3.79958 2.10916 3.07289
# Velocity P-wave (km/s) = 5.36479 4.63232 5.01195
#
# Compressibility (1/GPa) = 0.04601611
#
# Stress axis : x y z
#
# Youngs Moduli (GPa) = 144.71039 60.25829 49.41190
#
# Poissons Ratio (x) = -0.02837 0.06959
# Poissons Ratio (y) = -0.06814 -0.10246
# Poissons Ratio (z) = 0.20380 -0.12496
#
# Static dielectric constant tensor:
#      x y z
#    x 1.835540 0.000000 0.017080 
#    y 0.000000 1.747690 0.000000 
#    z 0.017080 0.000000 1.807840 
# 
# From -- ./inp_files/238300.got.cif
#   From: 2010.05.17/outbox.cif.g08.bks.cpg/sg12_120_cif.got.tgz:238300.got - 2010.06.03 13:09:07.
