data_PCOD9198429
_publ_section_title
;
Structure prediction by ZEFSAII (Michael W. Deem and Ramdas Pophale) SiO2 
 PCOD9198429
Probable space group: C 2/M
;
_chemical_formula_sum "Si O2"
_cell_formula_units_Z 48
_cell_length_a 12.615878
_cell_length_b 38.127210
_cell_length_c 5.383157
_cell_angle_alpha 90.000000
_cell_angle_beta 108.039938
_cell_angle_gamma 90.000000
_cell_volume 2462.053018
_symmetry_space_group_name_H-M "C 2/M"
_symmetry_group_IT_number 12
_symmetry_cell_setting 'monoclinic'
loop_
_space_group_symop_operation_xyz
x,y,z
-x,y,-z
-x,-y,-z
x,-y,z
1/2+x,1/2+y,z
1/2-x,1/2+y,-z
1/2-x,1/2-y,-z
1/2+x,1/2-y,z
loop_
_atom_site_type_symbol
_atom_site_label
_atom_site_fract_x
_atom_site_fract_y
_atom_site_fract_z
Si Si1 0.182669 0.275409 0.634143
Si Si2 0.897574 0.214186 0.113875
Si Si3 0.120720 0.858852 0.631277
Si Si4 0.171284 0.612671 0.976910
Si Si5 0.926339 0.460985 0.197024
Si Si6 0.840679 0.350497 0.531224
O O1 0.250000 0.250000 0.500000
O O2 0.102483 0.250463 0.734148
O O3 0.134583 0.309040 0.455755
O O4 0.278103 0.288623 0.891790
O O5 0.900341 0.180331 0.287868
O O6 0.000000 0.213536 0.000000
O O7 0.198116 0.879108 0.884002
O O8 0.205469 0.854903 0.461586
O O9 0.000000 0.875120 0.500000
O O10 0.119783 0.627629 0.198736
O O11 0.152380 0.572120 0.904816
O O12 0.125983 0.633812 0.707899
O O13 0.874910 0.500000 0.185462
O O14 0.000000 0.455380 0.500000
O O15 0.000000 0.461716 0.000000
#
# Coordination Sequence:
#
# PCOD9198429 Si02
#       6
#     8   8   8   8   8   8
#     4  11  20  37  55  75 111 158 202 262 319 364
#     4  11  23  35  57  81 110 153 216 270 310 362
#     4  10  21  34  59  87 114 155 210 250 303 361
#     4  10  21  37  60  91 122 154 194 248 306 349
#     4  10  21  40  69  98 124 159 201 240 288 363
#     4  10  20  36  57  83 119 161 197 250 313 360
#
# _framework density 19.495926000000001
#
# number of rings (size 3 to 8) (size 9 to 14) (size 15 to 20)
#    1.000    0.667    3.333    2.000    2.333    0.000 
#    0.000    0.833    7.333    0.500    0.000    1.167 
#    0.000    0.000    0.000    0.000    0.000    0.000 
#
# Total GULP energy -133898.256338 kJ/mol
# GULP energy per Si atom -5579.094014 kJ/mol
# Density = 1.945155 g / cm^3
# Si number density = 19.495926 Si / 1000 Ang^3
#
#
#
# Elastic Constant Matrix: (Units=GPa)
#
#
# Indices 1 2 3 4 5 6 
#
# 1 53.9502 17.3941 22.4114 0.0000 5.5288 0.0000
# 2 17.3941 153.4410 49.4254 0.0000 14.7472 0.0000
# 3 22.4114 49.4254 124.3698 0.0000 1.5261 0.0000
# 4 0.0000 0.0000 0.0000 28.5553 0.0000 -12.7734
# 5 5.5288 14.7472 1.5261 0.0000 33.9839 0.0000
# 6 0.0000 0.0000 0.0000 -12.7734 0.0000 -39.5130
#
#
#
# Elastic Compliance Matrix: (Units=1/GPa)
#
#
# Indices 1 2 3 4 5 6 
#
# 1 0.020497 -0.001010 -0.003259 0.000000 -0.002750 0.000000
# 2 -0.001010 0.007868 -0.002906 0.000000 -0.003119 0.000000
# 3 -0.003259 -0.002906 0.009766 0.000000 0.001353 0.000000
# 4 0.000000 0.000000 0.000000 0.030595 0.000000 -0.009891
# 5 -0.002750 -0.003119 0.001353 0.000000 0.031166 0.000000
# 6 0.000000 0.000000 0.000000 -0.009891 0.000000 -0.022111
#
#
# Mechanical properties :
#
#
# Convention : Reuss Voigt Hill
#
# Bulk Modulus (GPa) = 42.04987 56.69141 49.37064
# Shear Modulus (GPa) = 49.97146 20.77394 35.37270
#
# Velocity S-wave (km/s) = 5.06827 3.26782 4.26416
# Velocity P-wave (km/s) = 7.47430 6.58634 7.04433
#
# Compressibility (1/GPa) = 0.02378128
#
# Stress axis : x y z
#
# Youngs Moduli (GPa) = 48.78868 127.10343 102.39443
#
# Poissons Ratio (x) = 0.12832 0.33365
# Poissons Ratio (y) = 0.04926 0.29760
# Poissons Ratio (z) = 0.15898 0.36942
#
# Static dielectric constant tensor:
#      x y z
#    x 1.710720 0.000000 0.002310 
#    y 0.000000 1.687620 0.000000 
#    z 0.002310 0.000000 1.710940 
# 
# From -- ./inp_files/12924.got.cif
#   From: 2010.05.17/outbox.cif.g08.bks.cpg/sg12_7_cif.got.tgz:12924.got - 2010.06.03 13:09:07.
