data_PCOD9198625
_publ_section_title
;
Structure prediction by ZEFSAII (Michael W. Deem and Ramdas Pophale) SiO2 
 PCOD9198625
Probable space group: C 2/M
;
_chemical_formula_sum "Si O2"
_cell_formula_units_Z 48
_cell_length_a 31.667712
_cell_length_b 8.836941
_cell_length_c 20.185588
_cell_angle_alpha 90.000000
_cell_angle_beta 28.219250
_cell_angle_gamma 90.000000
_cell_volume 2671.040869
_symmetry_space_group_name_H-M "C 2/M"
_symmetry_group_IT_number 12
_symmetry_cell_setting 'monoclinic'
loop_
_space_group_symop_operation_xyz
x,y,z
-x,y,-z
-x,-y,-z
x,-y,z
1/2+x,1/2+y,z
1/2-x,1/2+y,-z
1/2-x,1/2-y,-z
1/2+x,1/2-y,z
loop_
_atom_site_type_symbol
_atom_site_label
_atom_site_fract_x
_atom_site_fract_y
_atom_site_fract_z
Si Si1 0.271877 0.818830 0.826763
Si Si2 0.554591 0.321012 0.356066
Si Si3 0.066730 0.820292 0.110468
Si Si4 0.944537 0.321083 0.387932
Si Si5 0.270529 0.679799 0.681754
Si Si6 0.917716 0.180816 0.066554
O O1 0.346293 0.742096 0.769220
O O2 0.283609 0.756235 0.735914
O O3 0.283245 0.000000 0.810317
O O4 0.169493 0.785541 0.988027
O O5 0.500000 0.298931 0.500000
O O6 0.556481 0.500000 0.339183
O O7 0.504046 0.235524 0.367478
O O8 0.997322 0.727566 0.249456
O O9 0.052724 0.000000 0.140371
O O10 0.059729 0.789906 0.041685
O O11 0.932210 0.500000 0.408356
O O12 0.849476 0.239114 0.526281
O O13 0.275659 0.500000 0.682116
O O14 0.173162 0.731348 0.792014
O O15 0.900727 0.000000 0.095779
O O16 0.000000 0.220280 0.000000
#
# Coordination Sequence:
#
# PCOD9198625 Si02
#       6
#     8   8   8   8   8   8
#     4  10  20  36  58  82 110 150 194 235 278 331
#     4  11  22  35  55  82 112 149 193 239 281 327
#     4   9  20  38  58  83 116 147 181 230 285 334
#     4  12  24  37  56  81 113 153 193 234 280 331
#     4  11  21  35  57  84 115 149 187 231 280 333
#     4   9  19  39  66  91 114 144 183 227 277 338
#
# _framework density 17.970523
#
# number of rings (size 3 to 8) (size 9 to 14) (size 15 to 20)
#    0.000    1.667    1.667    5.000    0.000    5.000 
#    0.000    0.833    0.000    0.000    0.000    0.000 
#    0.000    0.000    0.000    0.000    0.000    0.000 
#
# Total GULP energy -134116.135737 kJ/mol
# GULP energy per Si atom -5588.172322 kJ/mol
# Density = 1.792962 g / cm^3
# Si number density = 17.970523 Si / 1000 Ang^3
#
#
#
# Elastic Constant Matrix: (Units=GPa)
#
#
# Indices 1 2 3 4 5 6 
#
# 1 67.9919 17.3425 28.5070 0.0001 -21.1475 -0.0004
# 2 17.3425 59.3233 43.4396 0.0028 -3.8579 -0.0028
# 3 28.5070 43.4396 102.1306 0.0017 -10.5834 -0.0038
# 4 0.0001 0.0028 0.0017 26.8800 -0.0013 7.2168
# 5 -21.1475 -3.8579 -10.5834 -0.0013 18.0153 0.0013
# 6 -0.0004 -0.0028 -0.0038 7.2168 0.0013 10.4179
#
#
#
# Elastic Compliance Matrix: (Units=1/GPa)
#
#
# Indices 1 2 3 4 5 6 
#
# 1 0.025243 -0.003654 -0.002664 0.000004 0.027284 -0.000007
# 2 -0.003654 0.025025 -0.010130 -0.000004 -0.004881 0.000006
# 3 -0.002664 -0.010130 0.015221 0.000000 0.003645 0.000003
# 4 0.000004 -0.000004 0.000000 0.045703 0.000009 -0.031660
# 5 0.027284 -0.004881 0.003645 0.000009 0.088632 -0.000016
# 6 -0.000007 0.000006 0.000003 -0.031660 -0.000016 0.117921
#
#
# Mechanical properties :
#
#
# Convention : Reuss Voigt Hill
#
# Bulk Modulus (GPa) = 30.68173 45.33599 38.00886
# Shear Modulus (GPa) = 13.83101 20.40640 17.11870
#
# Velocity S-wave (km/s) = 2.77727 3.37345 3.08977
# Velocity P-wave (km/s) = 5.23399 6.36052 5.82456
#
# Compressibility (1/GPa) = 0.03259269
#
# Stress axis : x y z
#
# Youngs Moduli (GPa) = 39.61507 39.95954 65.69690
#
# Poissons Ratio (x) = 0.14602 0.17504
# Poissons Ratio (y) = 0.14476 0.66551
# Poissons Ratio (z) = 0.10555 0.40479
#
# Static dielectric constant tensor:
#      x y z
#    x 1.594900 0.000000 -0.004810 
#    y 0.000000 1.595910 0.000000 
#    z -0.004810 0.000000 1.611320 
# 
# From -- ./inp_files/295343.got.cif
#   From: 2010.05.17/outbox.cif.g08.bks.cpg/sg12_148_cif.got.tgz:295343.got - 2010.06.03 13:09:07.
