data_PCOD9198849
_publ_section_title
;
Structure prediction by ZEFSAII (Michael W. Deem and Ramdas Pophale) SiO2 
 PCOD9198849
Probable space group: C 2/M
;
_chemical_formula_sum "Si O2"
_cell_formula_units_Z 48
_cell_length_a 8.385940
_cell_length_b 23.996280
_cell_length_c 12.023598
_cell_angle_alpha 90.000000
_cell_angle_beta 68.874049
_cell_angle_gamma 90.000000
_cell_volume 2256.909685
_symmetry_space_group_name_H-M "C 2/M"
_symmetry_group_IT_number 12
_symmetry_cell_setting 'monoclinic'
loop_
_space_group_symop_operation_xyz
x,y,z
-x,y,-z
-x,-y,-z
x,-y,z
1/2+x,1/2+y,z
1/2-x,1/2+y,-z
1/2-x,1/2-y,-z
1/2+x,1/2-y,z
loop_
_atom_site_type_symbol
_atom_site_label
_atom_site_fract_x
_atom_site_fract_y
_atom_site_fract_z
Si Si1 0.694022 0.321557 0.568828
Si Si2 0.816581 0.773175 0.665335
Si Si3 0.551413 0.060776 0.198562
Si Si4 0.850933 0.937503 0.947737
Si Si5 0.807799 0.562129 0.596481
Si Si6 0.849517 0.650887 0.129379
O O1 0.810024 0.291547 0.633000
O O2 0.506644 0.296081 0.633418
O O3 0.748912 0.303193 0.431459
O O4 0.697993 0.387417 0.578734
O O5 0.708932 0.792112 0.798477
O O6 0.667933 0.067952 0.277390
O O7 0.424668 0.110767 0.206592
O O8 0.464808 0.000000 0.231514
O O9 0.675499 0.058363 0.061585
O O10 0.810139 0.885100 0.879283
O O11 0.881419 0.000000 0.890420
O O12 0.000000 0.927393 0.000000
O O13 0.744235 0.500000 0.587131
O O14 0.000000 0.567037 0.500000
O O15 0.000000 0.659103 0.000000
#
# Coordination Sequence:
#
# PCOD9198849 Si02
#       6
#     8   8   8   8   8   8
#     4  10  23  41  65  90 122 161 210 250 297 374
#     4  10  23  41  63  92 117 166 207 250 303 364
#     4   9  18  32  54  82 116 161 201 240 298 366
#     4   9  18  32  53  81 116 162 205 246 301 363
#     4  10  21  36  61  93 124 157 198 254 311 359
#     4  10  20  36  58  86 125 155 206 258 309 359
#
# _framework density 21.26802
#
# number of rings (size 3 to 8) (size 9 to 14) (size 15 to 20)
#    0.000    2.333    0.000    1.500    9.333    2.000 
#    0.000    4.167    0.000    0.000    0.000    0.000 
#    0.000    0.000    0.000    0.000    0.000    0.000 
#
# Total GULP energy -133913.708238 kJ/mol
# GULP energy per Si atom -5579.737843 kJ/mol
# Density = 2.121961 g / cm^3
# Si number density = 21.268020 Si / 1000 Ang^3
#
#
#
# Elastic Constant Matrix: (Units=GPa)
#
#
# Indices 1 2 3 4 5 6 
#
# 1 63.5887 30.7760 -4.6437 0.0000 -3.7586 0.0000
# 2 30.7760 100.0951 19.7902 0.0000 -0.5439 0.0000
# 3 -4.6437 19.7902 61.2147 0.0000 -6.0607 0.0000
# 4 0.0000 0.0000 0.0000 38.7925 0.0000 24.5260
# 5 -3.7586 -0.5439 -6.0607 0.0000 14.2642 0.0000
# 6 0.0000 0.0000 0.0000 24.5260 0.0000 61.2922
#
#
#
# Elastic Compliance Matrix: (Units=1/GPa)
#
#
# Indices 1 2 3 4 5 6 
#
# 1 0.019804 -0.006925 0.004418 0.000000 0.006831 0.000000
# 2 -0.006925 0.013111 -0.005110 0.000000 -0.003496 0.000000
# 3 0.004418 -0.005110 0.019228 0.000000 0.009139 0.000000
# 4 0.000000 0.000000 0.000000 0.034508 0.000000 -0.013809
# 5 0.006831 -0.003496 0.009139 0.000000 0.075656 0.000000
# 6 0.000000 0.000000 0.000000 -0.013809 0.000000 0.021841
#
#
# Mechanical properties :
#
#
# Convention : Reuss Voigt Hill
#
# Bulk Modulus (GPa) = 27.09488 35.19372 31.14430
# Shear Modulus (GPa) = 23.61978 34.80151 29.21065
#
# Velocity S-wave (km/s) = 3.33615 4.04955 3.71003
# Velocity P-wave (km/s) = 5.25426 6.20071 5.74700
#
# Compressibility (1/GPa) = 0.03690734
#
# Stress axis : x y z
#
# Youngs Moduli (GPa) = 50.49404 76.27047 52.00748
#
# Poissons Ratio (x) = 0.52821 -0.22975
# Poissons Ratio (y) = 0.34970 0.26577
# Poissons Ratio (z) = -0.22307 0.38976
#
# Static dielectric constant tensor:
#      x y z
#    x 1.787140 0.000000 0.001300 
#    y 0.000000 1.806490 0.000000 
#    z 0.001300 0.000000 1.798730 
# 
# From -- ./inp_files/121882.got.cif
#   From: 2010.05.17/outbox.cif.g08.bks.cpg/sg12_61_cif.got.tgz:121882.got - 2010.06.03 13:09:07.
