data_PCOD9198948
_publ_section_title
;
Structure prediction by ZEFSAII (Michael W. Deem and Ramdas Pophale) SiO2 
 PCOD9198948
Probable space group: C 2/M
;
_chemical_formula_sum "Si O2"
_cell_formula_units_Z 40
_cell_length_a 7.702805
_cell_length_b 15.216248
_cell_length_c 27.961223
_cell_angle_alpha 90.000000
_cell_angle_beta 41.186950
_cell_angle_gamma 90.000000
_cell_volume 2158.143610
_symmetry_space_group_name_H-M "C 2/M"
_symmetry_group_IT_number 12
_symmetry_cell_setting 'monoclinic'
loop_
_space_group_symop_operation_xyz
x,y,z
-x,y,-z
-x,-y,-z
x,-y,z
1/2+x,1/2+y,z
1/2-x,1/2+y,-z
1/2-x,1/2-y,-z
1/2+x,1/2-y,z
loop_
_atom_site_type_symbol
_atom_site_label
_atom_site_fract_x
_atom_site_fract_y
_atom_site_fract_z
Si Si1 0.229406 0.148199 0.582206
Si Si2 0.474720 0.139008 0.059400
Si Si3 0.820857 0.147716 0.582262
Si Si4 0.000000 0.810524 0.000000
Si Si5 0.507474 0.000000 0.694091
Si Si6 0.110803 0.000000 0.184559
Si Si7 0.064704 0.000000 0.306456
O O1 0.500000 0.121455 0.500000
O O2 0.248484 0.250290 0.591821
O O3 0.013688 0.141162 0.586440
O O4 0.123932 0.083927 0.644666
O O5 0.750709 0.137233 0.031126
O O6 0.500000 0.102784 0.000000
O O7 0.416606 0.242345 0.059885
O O8 0.255949 0.085279 0.132670
O O9 0.585022 0.083712 0.645135
O O10 0.000000 0.120756 0.500000
O O11 0.195918 0.000000 0.766740
O O12 0.692088 0.000000 0.704561
O O13 0.147267 0.000000 0.234298
#
# Coordination Sequence:
#
# PCOD9198948 Si02
#       7
#     8   8   8   4   4   4   4
#     4  10  20  36  59  82 107 148 203 260 295 350
#     4   9  19  40  63  95 113 153 190 234 279 348
#     4  10  20  36  60  84 107 153 208 251 300 345
#     4   8  18  40  68  90 120 140 202 232 280 334
#     4  10  25  42  52  84 127 158 192 249 298 358
#     4  12  25  37  61  86 126 157 188 232 305 345
#     4  10  25  42  51  84 124 157 198 237 307 349
#
# _framework density 18.534448000000001
#
# number of rings (size 3 to 8) (size 9 to 14) (size 15 to 20)
#    0.600    1.600    0.000    3.300    5.600    2.000 
#    3.600    0.000    0.000    0.000    0.000    0.000 
#    0.000    0.000    0.000    0.000    0.000    0.000 
#
# Total GULP energy -111398.839773 kJ/mol
# GULP energy per Si atom -5569.941989 kJ/mol
# Density = 1.849226 g / cm^3
# Si number density = 18.534448 Si / 1000 Ang^3
#
#
#
# Elastic Constant Matrix: (Units=GPa)
#
#
# Indices 1 2 3 4 5 6 
#
# 1 107.3077 30.1206 63.9726 0.0220 -11.6869 0.0061
# 2 30.1206 72.8310 73.5673 0.0194 -10.2614 -0.0002
# 3 63.9726 73.5673 150.0436 0.0287 -5.2453 -0.0060
# 4 0.0220 0.0194 0.0287 -18.7763 -0.0162 1.9437
# 5 -11.6869 -10.2614 -5.2453 -0.0162 38.7516 0.0039
# 6 0.0061 -0.0002 -0.0060 1.9437 0.0039 1.2765
#
#
#
# Elastic Compliance Matrix: (Units=1/GPa)
#
#
# Indices 1 2 3 4 5 6 
#
# 1 0.012913 0.001147 -0.005950 -0.000005 0.003393 -0.000092
# 2 0.001147 0.028489 -0.014249 -0.000004 0.005961 -0.000080
# 3 -0.005950 -0.014249 0.016069 0.000015 -0.003392 0.000090
# 4 -0.000005 -0.000004 0.000015 -0.046007 -0.000027 0.070054
# 5 0.003393 0.005961 -0.003392 -0.000027 0.027948 -0.000075
# 6 -0.000092 -0.000080 0.000090 0.070054 -0.000075 0.676716
#
#
# Mechanical properties :
#
#
# Convention : Reuss Voigt Hill
#
# Bulk Modulus (GPa) = 51.62957 73.94481 62.78719
# Shear Modulus (GPa) = 6.57299 15.08514 10.82906
#
# Velocity S-wave (km/s) = 1.88522 2.85598 2.41978
# Velocity P-wave (km/s) = 5.71448 7.13148 6.46194
#
# Compressibility (1/GPa) = 0.01936874
#
# Stress axis : x y z
#
# Youngs Moduli (GPa) = 77.43846 35.10129 62.23050
#
# Poissons Ratio (x) = -0.04027 0.37025
# Poissons Ratio (y) = -0.08885 0.88673
# Poissons Ratio (z) = 0.46074 0.50016
#
# Static dielectric constant tensor:
#      x y z
#    x 1.647350 0.000000 0.005530 
#    y 0.000000 1.542910 -0.000010 
#    z 0.005530 -0.000010 1.682720 
# 
# From -- ./inp_files/372475.got.cif
#   From: 2010.05.17/outbox.cif.g08.bks.cpg/sg12_187_cif.got.tgz:372475.got - 2010.06.03 13:09:07.
