data_PCOD9198546
_publ_section_title
;
Structure prediction by ZEFSAII (Michael W. Deem and Ramdas Pophale) SiO2 
 PCOD9198546
Probable space group: C 2/M
;
_chemical_formula_sum "Si O2"
_cell_formula_units_Z 48
_cell_length_a 14.123863
_cell_length_b 16.938900
_cell_length_c 18.154577
_cell_angle_alpha 90.000000
_cell_angle_beta 151.907872
_cell_angle_gamma 90.000000
_cell_volume 2045.243066
_symmetry_space_group_name_H-M "C 2/M"
_symmetry_group_IT_number 12
_symmetry_cell_setting 'monoclinic'
loop_
_space_group_symop_operation_xyz
x,y,z
-x,y,-z
-x,-y,-z
x,-y,z
1/2+x,1/2+y,z
1/2-x,1/2+y,-z
1/2-x,1/2-y,-z
1/2+x,1/2-y,z
loop_
_atom_site_type_symbol
_atom_site_label
_atom_site_fract_x
_atom_site_fract_y
_atom_site_fract_z
Si Si1 0.125221 0.911378 0.653902
Si Si2 0.773101 0.303739 0.879814
Si Si3 0.431214 0.912705 0.108656
Si Si4 0.618938 0.411058 0.148172
Si Si5 0.301057 0.905024 0.414576
Si Si6 0.975299 0.357738 0.303376
O O1 0.142683 0.862907 0.739952
O O2 0.354816 0.916620 0.784992
O O3 0.000000 0.875085 0.500000
O O4 0.044514 0.000000 0.611046
O O5 0.643077 0.224159 0.787470
O O6 0.807375 0.344473 0.982557
O O7 0.000000 0.296679 0.000000
O O8 0.484482 0.894520 0.229428
O O9 0.335858 0.000000 0.036449
O O10 0.540768 0.500000 0.103847
O O11 0.633461 0.376208 0.239884
O O12 0.835314 0.413201 0.258072
O O13 0.500000 0.371515 0.000000
O O14 0.500000 0.893218 0.500000
O O15 0.326949 0.858550 0.508934
O O16 0.275304 0.000000 0.408240
#
# Coordination Sequence:
#
# PCOD9198546 Si02
#       6
#     8   8   8   8   8   8
#     4   9  19  38  61  80 100 136 188 233 269 322
#     4  10  21  36  55  80 111 147 182 221 271 329
#     4  10  20  36  58  80 106 142 183 229 277 321
#     4   9  17  30  48  72 106 150 191 219 252 314
#     4   8  15  28  46  69 102 145 185 214 252 316
#     4  11  19  31  51  81 112 140 176 224 278 323
#
# _framework density 23.469093000000001
#
# number of rings (size 3 to 8) (size 9 to 14) (size 15 to 20)
#    0.000    2.500    0.000    4.000    0.000    4.000 
#    0.000    2.500    0.000    4.000    0.000    0.000 
#    0.000    0.000    0.000    0.000    0.000    0.333 
#
# Total GULP energy -133746.846196 kJ/mol
# GULP energy per Si atom -5572.785258 kJ/mol
# Density = 2.341568 g / cm^3
# Si number density = 23.469093 Si / 1000 Ang^3
#
#
#
# Elastic Constant Matrix: (Units=GPa)
#
#
# Indices 1 2 3 4 5 6 
#
# 1 61.3051 26.6439 32.6275 0.0103 -24.6213 -0.0006
# 2 26.6439 88.6279 52.3550 0.0088 -26.6742 0.0058
# 3 32.6275 52.3550 140.5224 0.0433 -61.9861 0.0085
# 4 0.0103 0.0088 0.0433 -29.9147 0.0086 -7.8975
# 5 -24.6213 -26.6742 -61.9861 0.0086 53.7305 0.0030
# 6 -0.0006 0.0058 0.0085 -7.8975 0.0030 9.6717
#
#
#
# Elastic Compliance Matrix: (Units=1/GPa)
#
#
# Indices 1 2 3 4 5 6 
#
# 1 0.021158 -0.004038 -0.000032 0.000007 0.007654 0.000007
# 2 -0.004038 0.015340 -0.004550 -0.000002 0.000516 -0.000007
# 3 -0.000032 -0.004550 0.015915 0.000025 0.016087 0.000004
# 4 0.000007 -0.000002 0.000025 -0.027500 0.000037 -0.022456
# 5 0.007654 0.000516 0.016087 0.000037 0.040933 0.000004
# 6 0.000007 -0.000007 0.000004 -0.022456 0.000004 0.085058
#
#
# Mechanical properties :
#
#
# Convention : Reuss Voigt Hill
#
# Bulk Modulus (GPa) = 28.43137 57.07868 42.75502
# Shear Modulus (GPa) = 27.79789 18.61943 23.20866
#
# Velocity S-wave (km/s) = 3.44531 2.81972 3.14809
# Velocity P-wave (km/s) = 5.28844 5.91394 5.60991
#
# Compressibility (1/GPa) = 0.03517242
#
# Stress axis : x y z
#
# Youngs Moduli (GPa) = 47.26399 65.18770 62.83327
#
# Poissons Ratio (x) = 0.26324 0.00200
# Poissons Ratio (y) = 0.19086 0.28591
# Poissons Ratio (z) = 0.00151 0.29662
#
# Static dielectric constant tensor:
#      x y z
#    x 1.879140 0.000000 0.061450 
#    y 0.000000 1.875990 -0.000010 
#    z 0.061450 -0.000010 2.213620 
# 
# From -- ./inp_files/271798.got.cif
#   From: 2010.05.17/outbox.cif.g08.bks.cpg/sg12_136_cif.got.tgz:271798.got - 2010.06.03 13:09:07.
