data_PCOD9198627
_publ_section_title
;
Structure prediction by ZEFSAII (Michael W. Deem and Ramdas Pophale) SiO2 
 PCOD9198627
Probable space group: C 2/M
;
_chemical_formula_sum "Si O2"
_cell_formula_units_Z 40
_cell_length_a 29.506716
_cell_length_b 14.381741
_cell_length_c 9.685402
_cell_angle_alpha 90.000000
_cell_angle_beta 28.251882
_cell_angle_gamma 90.000000
_cell_volume 1945.499348
_symmetry_space_group_name_H-M "C 2/M"
_symmetry_group_IT_number 12
_symmetry_cell_setting 'monoclinic'
loop_
_space_group_symop_operation_xyz
x,y,z
-x,y,-z
-x,-y,-z
x,-y,z
1/2+x,1/2+y,z
1/2-x,1/2+y,-z
1/2-x,1/2-y,-z
1/2+x,1/2-y,z
loop_
_atom_site_type_symbol
_atom_site_label
_atom_site_fract_x
_atom_site_fract_y
_atom_site_fract_z
Si Si1 0.267899 0.357138 0.917389
Si Si2 0.261416 0.110074 0.419813
Si Si3 0.601759 0.301835 0.660950
Si Si4 0.320552 0.101346 0.569799
Si Si5 0.907154 0.393097 0.818317
O O1 0.363655 0.359223 0.567879
O O2 0.250000 0.250000 0.000000
O O3 0.254534 0.401150 0.102729
O O4 0.180099 0.390370 0.056503
O O5 0.179702 0.169728 0.567198
O O6 0.267287 0.114337 0.567542
O O7 0.249383 0.000000 0.415087
O O8 0.361367 0.143924 0.082306
O O9 0.612479 0.192015 0.595899
O O10 0.500000 0.322410 0.000000
O O11 0.370371 0.000000 0.433574
O O12 0.933952 0.500000 0.777169
O O13 0.000000 0.347255 0.500000
#
# Coordination Sequence:
#
# PCOD9198627 Si02
#       5
#     8   8   8   8   8
#     4   9  19  35  52  76 109 144 180 218 267 324
#     4   9  19  35  55  80 111 148 187 228 274 326
#     4  10  21  37  57  82 113 150 188 223 269 335
#     4  10  20  36  58  82 111 144 181 234 289 325
#     4   9  17  31  52  76 103 138 179 221 267 321
#
# _framework density 20.560272999999999
#
# number of rings (size 3 to 8) (size 9 to 14) (size 15 to 20)
#    0.000    2.600    0.000    1.200    0.000    4.800 
#    0.000    3.000    0.000    2.400    0.000    0.000 
#    0.000    0.000    0.000    0.000    0.000    0.000 
#
# Total GULP energy -111412.215932 kJ/mol
# GULP energy per Si atom -5570.610797 kJ/mol
# Density = 2.051348 g / cm^3
# Si number density = 20.560273 Si / 1000 Ang^3
#
#
#
# Elastic Constant Matrix: (Units=GPa)
#
#
# Indices 1 2 3 4 5 6 
#
# 1 54.8994 3.8944 63.1819 0.0000 38.6587 0.0000
# 2 3.8944 59.9101 13.3763 0.0000 0.6034 0.0000
# 3 63.1819 13.3763 206.0353 0.0000 19.8804 0.0000
# 4 0.0000 0.0000 0.0000 17.5350 0.0000 5.7414
# 5 38.6587 0.6034 19.8804 0.0000 39.3875 0.0000
# 6 0.0000 0.0000 0.0000 5.7414 0.0000 24.0068
#
#
#
# Elastic Compliance Matrix: (Units=1/GPa)
#
#
# Indices 1 2 3 4 5 6 
#
# 1 0.138431 -0.000914 -0.030782 0.000000 -0.120319 0.000000
# 2 -0.000914 0.016947 -0.000927 0.000000 0.001105 0.000000
# 3 -0.030782 -0.000927 0.012022 0.000000 0.024158 0.000000
# 4 0.000000 0.000000 0.000000 0.061874 0.000000 -0.014798
# 5 -0.120319 0.001105 0.024158 0.000000 0.131271 0.000000
# 6 0.000000 0.000000 0.000000 -0.014798 0.000000 0.045194
#
#
# Mechanical properties :
#
#
# Convention : Reuss Voigt Hill
#
# Bulk Modulus (GPa) = 9.78901 53.52777 31.65839
# Shear Modulus (GPa) = 9.90031 32.21200 21.05615
#
# Velocity S-wave (km/s) = 2.19675 3.96246 3.20366
# Velocity P-wave (km/s) = 3.34750 6.85754 5.39591
#
# Compressibility (1/GPa) = 0.10215537
#
# Stress axis : x y z
#
# Youngs Moduli (GPa) = 7.22382 59.00802 83.18059
#
# Poissons Ratio (x) = 0.05393 2.56044
# Poissons Ratio (y) = 0.00660 0.07707
# Poissons Ratio (z) = 0.22236 0.05468
#
# Static dielectric constant tensor:
#      x y z
#    x 1.719370 0.000000 0.061250 
#    y 0.000000 1.788310 0.000000 
#    z 0.061250 0.000000 1.858100 
# 
# From -- ./inp_files/59195.got.cif
#   From: 2010.05.17/outbox.cif.g08.bks.cpg/sg12_30_cif.got.tgz:59195.got - 2010.06.03 13:09:07.
