data_PCOD9198222
_publ_section_title
;
Structure prediction by ZEFSAII (Michael W. Deem and Ramdas Pophale) SiO2 
 PCOD9198222
Probable space group: C 2/M
;
_chemical_formula_sum "Si O2"
_cell_formula_units_Z 28
_cell_length_a 10.589662
_cell_length_b 20.612653
_cell_length_c 7.167966
_cell_angle_alpha 90.000000
_cell_angle_beta 136.072053
_cell_angle_gamma 90.000000
_cell_volume 1085.467766
_symmetry_space_group_name_H-M "C 2/M"
_symmetry_group_IT_number 12
_symmetry_cell_setting 'monoclinic'
loop_
_space_group_symop_operation_xyz
x,y,z
-x,y,-z
-x,-y,-z
x,-y,z
1/2+x,1/2+y,z
1/2-x,1/2+y,-z
1/2-x,1/2-y,-z
1/2+x,1/2-y,z
loop_
_atom_site_type_symbol
_atom_site_label
_atom_site_fract_x
_atom_site_fract_y
_atom_site_fract_z
Si Si1 0.220107 0.888097 0.699782
Si Si2 0.704428 0.396840 0.242422
Si Si3 0.658390 0.000000 0.895818
Si Si4 0.213157 0.745841 0.681177
O O1 0.251043 0.897201 0.511105
O O2 0.280162 0.815569 0.824423
O O3 0.000000 0.892956 0.500000
O O4 0.316246 0.943384 0.917103
O O5 0.824381 0.443373 0.247152
O O6 0.704635 0.322544 0.170392
O O7 0.500000 0.422020 0.000000
O O8 0.250000 0.750000 0.500000
O O9 0.000000 0.742631 0.500000
#
# Coordination Sequence:
#
# PCOD9198222 Si02
#       4
#     8   8   4   8
#     4  10  20  36  56  87 128 156 201 263 312 352
#     4  11  22  36  62  97 118 164 215 257 311 373
#     4  12  22  34  59  93 130 160 208 260 309 381
#     4   9  21  43  64  90 128 169 207 263 320 368
#
# _framework density 25.79533
#
# number of rings (size 3 to 8) (size 9 to 14) (size 15 to 20)
#    0.000    1.714    2.857    1.714    0.000    1.143 
#    0.000    0.714    0.000    6.857    0.000    0.000 
#    0.000    0.000    0.000    0.000    0.000    0.000 
#
# Total GULP energy -77962.625800 kJ/mol
# GULP energy per Si atom -5568.758986 kJ/mol
# Density = 2.573662 g / cm^3
# Si number density = 25.795330 Si / 1000 Ang^3
#
#
#
# Elastic Constant Matrix: (Units=GPa)
#
#
# Indices 1 2 3 4 5 6 
#
# 1 151.7714 61.5772 69.7831 0.0000 -39.1991 0.0000
# 2 61.5772 279.2704 50.3282 0.0000 -25.9671 0.0000
# 3 69.7831 50.3282 75.8401 0.0000 0.1832 0.0000
# 4 0.0000 0.0000 0.0000 -6.4691 0.0000 -39.6739
# 5 -39.1991 -25.9671 0.1832 0.0000 59.2970 0.0000
# 6 0.0000 0.0000 0.0000 -39.6739 0.0000 30.5420
#
#
#
# Elastic Compliance Matrix: (Units=1/GPa)
#
#
# Indices 1 2 3 4 5 6 
#
# 1 0.016285 0.000143 -0.015105 0.000000 0.010874 0.000000
# 2 0.000143 0.004268 -0.002968 0.000000 0.001972 0.000000
# 3 -0.015105 -0.002968 0.029081 0.000000 -0.011375 0.000000
# 4 0.000000 0.000000 0.000000 -0.017240 0.000000 -0.022394
# 5 0.010874 0.001972 -0.011375 0.000000 0.024952 0.000000
# 6 0.000000 0.000000 0.000000 -0.022394 0.000000 0.003652
#
#
# Mechanical properties :
#
#
# Convention : Reuss Voigt Hill
#
# Bulk Modulus (GPa) = 72.60672 96.69544 84.65108
# Shear Modulus (GPa) = 49.28588 38.35354 43.81971
#
# Velocity S-wave (km/s) = 4.37584 3.86014 4.12606
# Velocity P-wave (km/s) = 7.33069 7.57856 7.45566
#
# Compressibility (1/GPa) = 0.01377283
#
# Stress axis : x y z
#
# Youngs Moduli (GPa) = 61.40706 234.32539 34.38630
#
# Poissons Ratio (x) = -0.03341 0.51941
# Poissons Ratio (y) = -0.00875 0.10206
# Poissons Ratio (z) = 0.92756 0.69546
#
# Static dielectric constant tensor:
#      x y z
#    x 2.004660 0.000000 0.083170 
#    y 0.000000 1.985920 0.000000 
#    z 0.083170 0.000000 1.945630 
# 
# From -- ./inp_files/38075.got.cif
#   From: 2010.05.17/outbox.cif.g08.bks.cpg/sg12_20_cif.got.tgz:38075.got - 2010.06.03 13:09:07.
