data_PCOD9198317
_publ_section_title
;
Structure prediction by ZEFSAII (Michael W. Deem and Ramdas Pophale) SiO2 
 PCOD9198317
Probable space group: C 2/M
;
_chemical_formula_sum "Si O2"
_cell_formula_units_Z 48
_cell_length_a 26.784378
_cell_length_b 13.337768
_cell_length_c 20.983800
_cell_angle_alpha 90.000000
_cell_angle_beta 20.789409
_cell_angle_gamma 90.000000
_cell_volume 2660.704578
_symmetry_space_group_name_H-M "C 2/M"
_symmetry_group_IT_number 12
_symmetry_cell_setting 'monoclinic'
loop_
_space_group_symop_operation_xyz
x,y,z
-x,y,-z
-x,-y,-z
x,-y,z
1/2+x,1/2+y,z
1/2-x,1/2+y,-z
1/2-x,1/2-y,-z
1/2+x,1/2-y,z
loop_
_atom_site_type_symbol
_atom_site_label
_atom_site_fract_x
_atom_site_fract_y
_atom_site_fract_z
Si Si1 0.460268 0.242627 0.268128
Si Si2 0.033201 0.883636 0.616937
Si Si3 0.151953 0.213901 0.348704
Si Si4 0.728225 0.114635 0.917740
Si Si5 0.335646 0.384083 0.187916
Si Si6 0.705302 0.384722 0.616157
O O1 0.447195 0.314024 0.345257
O O2 0.420034 0.311899 0.256177
O O3 0.342526 0.156690 0.416606
O O4 0.610503 0.191194 0.081917
O O5 0.121516 0.842995 0.451327
O O6 0.870058 0.878098 0.790113
O O7 0.067434 0.000000 0.588897
O O8 0.226284 0.142982 0.208282
O O9 0.249092 0.309391 0.246998
O O10 0.000000 0.242309 0.500000
O O11 0.677353 0.000000 0.981427
O O12 0.329781 0.500000 0.172911
O O13 0.272652 0.378848 0.334425
O O14 0.500000 0.357320 0.000000
O O15 0.674873 0.500000 0.636496
#
# Coordination Sequence:
#
# PCOD9198317 Si02
#       6
#     8   8   8   8   8   8
#     4  11  20  35  57  81 111 144 184 234 272 335
#     4  10  20  36  58  84 112 147 186 228 280 333
#     4  10  20  37  59  83 114 149 189 232 280 334
#     4  10  21  36  57  83 113 147 184 229 282 335
#     4  10  20  36  57  80 111 149 189 231 282 335
#     4  10  21  35  54  78 108 147 183 225 280 332
#
# _framework density 18.040334000000001
#
# number of rings (size 3 to 8) (size 9 to 14) (size 15 to 20)
#    0.000    1.833    1.667    3.000    0.000    2.333 
#    0.000    0.833    0.000    3.000    0.000    0.000 
#    0.000    0.000    0.000    0.000    0.000    0.000 
#
# Total GULP energy -133970.930608 kJ/mol
# GULP energy per Si atom -5582.122109 kJ/mol
# Density = 1.799927 g / cm^3
# Si number density = 18.040334 Si / 1000 Ang^3
#
#
#
# Elastic Constant Matrix: (Units=GPa)
#
#
# Indices 1 2 3 4 5 6 
#
# 1 42.5560 16.3048 -10.1426 0.0000 3.8256 0.0001
# 2 16.3048 89.2196 19.4102 -0.0001 -10.6936 0.0001
# 3 -10.1426 19.4102 45.2814 0.0000 -1.8861 0.0001
# 4 0.0000 -0.0001 0.0000 23.1981 0.0000 -4.5570
# 5 3.8256 -10.6936 -1.8861 0.0000 15.2610 0.0000
# 6 0.0001 0.0001 0.0001 -4.5570 0.0000 33.9424
#
#
#
# Elastic Compliance Matrix: (Units=1/GPa)
#
#
# Indices 1 2 3 4 5 6 
#
# 1 0.030771 -0.009450 0.010400 0.000000 -0.013050 0.000000
# 2 -0.009450 0.016332 -0.008586 0.000000 0.012752 0.000000
# 3 0.010400 -0.008586 0.027878 0.000000 -0.005178 0.000000
# 4 0.000000 0.000000 0.000000 0.044275 0.000000 0.005944
# 5 -0.013050 0.012752 -0.005178 0.000000 0.077093 0.000000
# 6 0.000000 0.000000 0.000000 0.005944 0.000000 0.030260
#
#
# Mechanical properties :
#
#
# Convention : Reuss Voigt Hill
#
# Bulk Modulus (GPa) = 16.74827 25.35574 21.05200
# Shear Modulus (GPa) = 19.09969 24.57927 21.83948
#
# Velocity S-wave (km/s) = 3.25733 3.69516 3.48313
# Velocity P-wave (km/s) = 4.84261 5.68253 5.27930
#
# Compressibility (1/GPa) = 0.05970767
#
# Stress axis : x y z
#
# Youngs Moduli (GPa) = 32.49834 61.23089 35.87003
#
# Poissons Ratio (x) = 0.57863 -0.37303
# Poissons Ratio (y) = 0.30711 0.30799
# Poissons Ratio (z) = -0.33797 0.52574
#
# Static dielectric constant tensor:
#      x y z
#    x 1.603120 0.000000 0.005820 
#    y 0.000000 1.596730 0.000000 
#    z 0.005820 0.000000 1.605830 
# 
# From -- ./inp_files/153706.got.cif
#   From: 2010.05.17/outbox.cif.g08.bks.cpg/sg12_77_cif.got.tgz:153706.got - 2010.06.03 13:09:07.
