data_PCOD9198572
_publ_section_title
;
Structure prediction by ZEFSAII (Michael W. Deem and Ramdas Pophale) SiO2 
 PCOD9198572
Probable space group: C 2/M
;
_chemical_formula_sum "Si O2"
_cell_formula_units_Z 56
_cell_length_a 18.489505
_cell_length_b 7.943490
_cell_length_c 29.667071
_cell_angle_alpha 90.000000
_cell_angle_beta 141.332926
_cell_angle_gamma 90.000000
_cell_volume 2722.376607
_symmetry_space_group_name_H-M "C 2/M"
_symmetry_group_IT_number 12
_symmetry_cell_setting 'monoclinic'
loop_
_space_group_symop_operation_xyz
x,y,z
-x,y,-z
-x,-y,-z
x,-y,z
1/2+x,1/2+y,z
1/2-x,1/2+y,-z
1/2-x,1/2-y,-z
1/2+x,1/2-y,z
loop_
_atom_site_type_symbol
_atom_site_label
_atom_site_fract_x
_atom_site_fract_y
_atom_site_fract_z
Si Si1 0.367822 0.706370 0.427039
Si Si2 0.506846 0.205825 0.139850
Si Si3 0.228412 0.206089 0.716975
Si Si4 0.946922 0.197436 0.291371
Si Si5 0.290472 0.803313 0.569025
Si Si6 0.412312 0.795932 0.996654
Si Si7 0.352181 0.200070 0.148975
O O1 0.500000 0.757399 0.500000
O O2 0.366435 0.500000 0.425800
O O3 0.320063 0.759198 0.355129
O O4 0.285714 0.770666 0.427259
O O5 0.639398 0.259853 0.211022
O O6 0.426716 0.261167 0.142407
O O7 0.505926 0.000000 0.139231
O O8 0.456681 0.260477 0.067269
O O9 0.143633 0.264049 0.715611
O O10 0.229566 0.000000 0.718302
O O11 0.896312 0.222346 0.217005
O O12 0.074062 0.273310 0.357710
O O13 0.960592 0.000000 0.307038
O O14 0.250000 0.750000 0.500000
O O15 0.268703 0.000000 0.560675
O O16 0.282518 0.736828 0.924260
O O17 0.411613 0.000000 0.996117
O O18 0.500000 0.740596 0.000000
O O19 0.369628 0.000000 0.160985
#
# Coordination Sequence:
#
# PCOD9198572 Si02
#       7
#     8   8   8   8   8   8   8
#     4   9  17  31  54  82 108 140 185 228 266 315
#     4   9  18  33  54  80 108 142 185 229 274 325
#     4   9  17  32  55  80 105 139 187 233 268 314
#     4  11  22  37  59  84 111 145 185 228 272 323
#     4  11  22  37  59  85 114 146 181 226 276 326
#     4  10  20  36  58  81 107 143 188 232 272 323
#     4  11  22  36  56  82 113 145 178 224 280 333
#
# _framework density 20.570263000000001
#
# number of rings (size 3 to 8) (size 9 to 14) (size 15 to 20)
#    0.000    2.000    0.000    4.286    0.000    7.143 
#    0.000    0.714    0.000   19.714    0.000    0.000 
#    0.000    0.000    0.000    0.000    0.000    0.000 
#
# Total GULP energy -156488.778739 kJ/mol
# GULP energy per Si atom -5588.884955 kJ/mol
# Density = 2.052344 g / cm^3
# Si number density = 20.570263 Si / 1000 Ang^3
#
#
#
# Elastic Constant Matrix: (Units=GPa)
#
#
# Indices 1 2 3 4 5 6 
#
# 1 194.7702 -8.9323 72.8070 0.0000 -7.3937 0.0001
# 2 -8.9323 11.6620 -20.7910 0.0000 -4.7553 0.0001
# 3 72.8070 -20.7910 142.6531 0.0000 -8.1056 0.0000
# 4 0.0000 0.0000 0.0000 24.5721 0.0000 4.3240
# 5 -7.3937 -4.7553 -8.1056 0.0000 41.2645 0.0000
# 6 0.0001 0.0001 0.0000 4.3240 0.0000 18.8149
#
#
#
# Elastic Compliance Matrix: (Units=1/GPa)
#
#
# Indices 1 2 3 4 5 6 
#
# 1 0.006363 -0.000987 -0.003371 0.000000 0.000364 0.000000
# 2 -0.000987 0.128885 0.020349 0.000000 0.018673 -0.000001
# 3 -0.003371 0.020349 0.011928 0.000000 0.004084 0.000000
# 4 0.000000 0.000000 0.000000 0.042412 0.000000 -0.009747
# 5 0.000364 0.018673 0.004084 0.000000 0.027253 0.000000
# 6 0.000000 -0.000001 0.000000 -0.009747 0.000000 0.055389
#
#
# Mechanical properties :
#
#
# Convention : Reuss Voigt Hill
#
# Bulk Modulus (GPa) = 5.58163 48.36142 26.97152
# Shear Modulus (GPa) = 16.66848 37.33041 26.99945
#
# Velocity S-wave (km/s) = 2.84970 4.26464 3.62684
# Velocity P-wave (km/s) = 3.68063 6.91454 5.53886
#
# Compressibility (1/GPa) = 0.17915923
#
# Stress axis : x y z
#
# Youngs Moduli (GPa) = 157.16417 7.75884 83.83522
#
# Poissons Ratio (x) = 0.00766 0.28257
# Poissons Ratio (y) = 0.15515 -1.70598
# Poissons Ratio (z) = 0.52974 -0.15789
#
# Static dielectric constant tensor:
#      x y z
#    x 1.719400 0.000000 -0.001760 
#    y 0.000000 1.655340 0.000000 
#    z -0.001760 0.000000 1.660680 
# 
# From -- ./inp_files/275084.got.cif
#   From: 2010.05.17/outbox.cif.g08.bks.cpg/sg12_138_cif.got.tgz:275084.got - 2010.06.03 13:09:07.
