data_PCOD9198086
_publ_section_title
;
Structure prediction by ZEFSAII (Michael W. Deem and Ramdas Pophale) SiO2 
 PCOD9198086
Probable space group: C 2/M
;
_chemical_formula_sum "Si O2"
_cell_formula_units_Z 64
_cell_length_a 25.269969
_cell_length_b 9.522949
_cell_length_c 21.623546
_cell_angle_alpha 90.000000
_cell_angle_beta 143.861245
_cell_angle_gamma 90.000000
_cell_volume 3068.779553
_symmetry_space_group_name_H-M "C 2/M"
_symmetry_group_IT_number 12
_symmetry_cell_setting 'monoclinic'
loop_
_space_group_symop_operation_xyz
x,y,z
-x,y,-z
-x,-y,-z
x,-y,z
1/2+x,1/2+y,z
1/2-x,1/2+y,-z
1/2-x,1/2-y,-z
1/2+x,1/2-y,z
loop_
_atom_site_type_symbol
_atom_site_label
_atom_site_fract_x
_atom_site_fract_y
_atom_site_fract_z
Si Si1 0.355071 0.163223 0.023647
Si Si2 0.011065 0.337023 0.749555
Si Si3 0.696409 0.663373 0.246075
Si Si4 0.034989 0.662728 0.623974
Si Si5 0.160049 0.839949 0.423834
Si Si6 0.027535 0.658467 0.097749
Si Si7 0.364738 0.659448 0.451492
Si Si8 0.734938 0.164204 0.823457
O O1 0.398541 0.207711 0.129775
O O2 0.440002 0.174275 0.057179
O O3 0.328223 0.000000 0.001938
O O4 0.276089 0.253017 0.919491
O O5 0.993475 0.500000 0.751041
O O6 0.925816 0.240961 0.685106
O O7 0.024554 0.334654 0.688783
O O8 0.706339 0.500000 0.271531
O O9 0.604242 0.728945 0.182944
O O10 0.779411 0.752629 0.349194
O O11 0.700909 0.675212 0.175628
O O12 0.025880 0.500000 0.595634
O O13 0.136403 0.713022 0.708741
O O14 0.955843 0.757251 0.522665
O O15 0.250000 0.750000 0.500000
O O16 0.142043 0.847126 0.480339
O O17 0.169648 0.000000 0.409640
O O18 0.063691 0.500000 0.141645
O O19 0.000000 0.669442 0.000000
O O20 0.364522 0.500000 0.427350
O O21 0.725171 0.000000 0.830411
#
# Coordination Sequence:
#
# PCOD9198086 Si02
#       8
#     8   8   8   8   8   8   8   8
#     4  10  21  36  56  83 113 146 185 228 276 331
#     4   9  19  36  57  81 110 145 185 227 274 326
#     4  11  23  37  56  83 113 147 188 229 276 334
#     4   9  19  39  61  80 110 148 185 230 281 328
#     4  10  21  36  55  80 110 144 183 226 273 327
#     4  10  20  36  56  78 111 150 183 226 281 328
#     4  10  22  39  58  82 112 145 184 230 278 329
#     4  10  22  38  57  82 112 147 187 232 278 329
#
# _framework density 20.855197
#
# number of rings (size 3 to 8) (size 9 to 14) (size 15 to 20)
#    0.000    2.125    1.250    1.125    1.750    4.750 
#    0.000    2.500    0.000    0.000    0.000    0.000 
#    0.000    0.000    0.000    0.000    0.000    0.000 
#
# Total GULP energy -178819.035231 kJ/mol
# GULP energy per Si atom -5588.094851 kJ/mol
# Density = 2.080773 g / cm^3
# Si number density = 20.855197 Si / 1000 Ang^3
#
#
#
# Elastic Constant Matrix: (Units=GPa)
#
#
# Indices 1 2 3 4 5 6 
#
# 1 38.6103 6.0167 -4.7823 0.0000 6.8143 0.0000
# 2 6.0167 111.5640 56.0172 0.0000 15.3643 0.0000
# 3 -4.7823 56.0172 93.1490 0.0000 3.3745 0.0000
# 4 0.0000 0.0000 0.0000 41.5777 0.0000 9.5716
# 5 6.8143 15.3643 3.3745 0.0000 32.0724 0.0000
# 6 0.0000 0.0000 0.0000 9.5716 0.0000 12.2336
#
#
#
# Elastic Compliance Matrix: (Units=1/GPa)
#
#
# Indices 1 2 3 4 5 6 
#
# 1 0.027516 -0.002274 0.002964 0.000000 -0.005069 0.000000
# 2 -0.002274 0.014017 -0.008352 0.000000 -0.005353 0.000000
# 3 0.002964 -0.008352 0.015849 0.000000 0.001704 0.000000
# 4 0.000000 0.000000 0.000000 0.029335 0.000000 -0.022952
# 5 -0.005069 -0.005353 0.001704 0.000000 0.034641 0.000000
# 6 0.000000 0.000000 0.000000 -0.022952 0.000000 0.099699
#
#
# Mechanical properties :
#
#
# Convention : Reuss Voigt Hill
#
# Bulk Modulus (GPa) = 23.77745 39.75851 31.76798
# Shear Modulus (GPa) = 19.96793 29.58154 24.77473
#
# Velocity S-wave (km/s) = 3.09764 3.77028 3.45039
# Velocity P-wave (km/s) = 4.92136 6.16919 5.58026
#
# Compressibility (1/GPa) = 0.04205665
#
# Stress axis : x y z
#
# Youngs Moduli (GPa) = 36.34268 71.34163 63.09638
#
# Poissons Ratio (x) = 0.16224 -0.18701
# Poissons Ratio (y) = 0.08265 0.52700
# Poissons Ratio (z) = -0.10772 0.59587
#
# Static dielectric constant tensor:
#      x y z
#    x 1.772760 0.000000 -0.028580 
#    y 0.000000 1.722390 0.000000 
#    z -0.028580 0.000000 1.733930 
# 
# From -- ./inp_files/353499.got.cif
#   From: 2010.05.17/outbox.cif.g08.bks.cpg/sg12_177_cif.got.tgz:353499.got - 2010.06.03 13:09:07.
