data_PCOD9198425
_publ_section_title
;
Structure prediction by ZEFSAII (Michael W. Deem and Ramdas Pophale) SiO2 
 PCOD9198425
Probable space group: C 2/M
;
_chemical_formula_sum "Si O2"
_cell_formula_units_Z 56
_cell_length_a 27.601596
_cell_length_b 13.738296
_cell_length_c 11.951113
_cell_angle_alpha 90.000000
_cell_angle_beta 39.511854
_cell_angle_gamma 90.000000
_cell_volume 2883.333768
_symmetry_space_group_name_H-M "C 2/M"
_symmetry_group_IT_number 12
_symmetry_cell_setting 'monoclinic'
loop_
_space_group_symop_operation_xyz
x,y,z
-x,y,-z
-x,-y,-z
x,-y,z
1/2+x,1/2+y,z
1/2-x,1/2+y,-z
1/2-x,1/2-y,-z
1/2+x,1/2-y,z
loop_
_atom_site_type_symbol
_atom_site_label
_atom_site_fract_x
_atom_site_fract_y
_atom_site_fract_z
Si Si1 0.336392 0.717119 0.473954
Si Si2 0.866469 0.168334 0.999066
Si Si3 0.827296 0.888575 0.718155
Si Si4 0.083533 0.745682 0.312772
Si Si5 0.481621 0.607062 0.164587
Si Si6 0.730124 0.382040 0.623959
Si Si7 0.779773 0.391559 0.884410
O O1 0.314415 0.677569 0.634167
O O2 0.425116 0.692390 0.301158
O O3 0.294556 0.650153 0.455866
O O4 0.310487 0.828624 0.504617
O O5 0.828121 0.176735 0.190186
O O6 0.793784 0.124419 0.062774
O O7 0.898973 0.246811 0.851358
O O8 0.942342 0.109621 0.896678
O O9 0.899023 0.850707 0.662527
O O10 0.838102 0.000000 0.666220
O O11 0.755554 0.881574 0.928836
O O12 0.150076 0.680557 0.248044
O O13 0.000000 0.714539 0.500000
O O14 0.445095 0.500000 0.243165
O O15 0.500000 0.616953 0.000000
O O16 0.727338 0.500000 0.644871
O O17 0.807780 0.500000 0.815498
#
# Coordination Sequence:
#
# PCOD9198425 Si02
#       7
#     8   8   8   8   8   8   8
#     4  11  22  36  58  88 118 154 193 243 294 352
#     4  11  21  37  61  86 117 154 195 246 299 346
#     4  10  20  36  57  83 117 151 192 241 294 347
#     4  11  23  38  58  87 121 156 191 240 294 354
#     4  11  21  35  57  88 121 149 188 243 299 346
#     4  11  22  37  59  87 116 154 199 241 291 348
#     4  10  21  38  61  86 116 157 200 240 288 350
#
# _framework density 19.421963000000002
#
# number of rings (size 3 to 8) (size 9 to 14) (size 15 to 20)
#    0.000    1.286    1.429    6.857    0.000    1.714 
#    0.000    0.000    0.000    3.000    0.000    0.000 
#    0.000    0.000    0.000    0.000    0.000    0.000 
#
# Total GULP energy -156031.572631 kJ/mol
# GULP energy per Si atom -5572.556165 kJ/mol
# Density = 1.937776 g / cm^3
# Si number density = 19.421963 Si / 1000 Ang^3
#
#
#
# Elastic Constant Matrix: (Units=GPa)
#
#
# Indices 1 2 3 4 5 6 
#
# 1 94.5953 34.3472 32.7874 0.0000 -1.6050 0.0000
# 2 34.3472 67.6466 33.8768 0.0000 -15.4878 0.0000
# 3 32.7874 33.8768 68.9900 0.0000 -9.1188 0.0000
# 4 0.0000 0.0000 0.0000 16.7211 0.0000 -1.9079
# 5 -1.6050 -15.4878 -9.1188 0.0000 38.5128 0.0000
# 6 0.0000 0.0000 0.0000 -1.9079 0.0000 12.8003
#
#
#
# Elastic Compliance Matrix: (Units=1/GPa)
#
#
# Indices 1 2 3 4 5 6 
#
# 1 0.014042 -0.005601 -0.004277 0.000000 -0.002680 0.000000
# 2 -0.005601 0.023171 -0.007758 0.000000 0.007248 0.000000
# 3 -0.004277 -0.007758 0.020544 0.000000 0.001566 0.000000
# 4 0.000000 0.000000 0.000000 0.060839 0.000000 0.009068
# 5 -0.002680 0.007248 0.001566 0.000000 0.029139 0.000000
# 6 0.000000 0.000000 0.000000 0.009068 0.000000 0.079475
#
#
# Mechanical properties :
#
#
# Convention : Reuss Voigt Hill
#
# Bulk Modulus (GPa) = 44.47542 48.13942 46.30742
# Shear Modulus (GPa) = 18.51995 22.28822 20.40408
#
# Velocity S-wave (km/s) = 3.09132 3.39127 3.24476
# Velocity P-wave (km/s) = 5.97419 6.33831 6.15894
#
# Compressibility (1/GPa) = 0.02248433
#
# Stress axis : x y z
#
# Youngs Moduli (GPa) = 71.21351 43.15671 48.67580
#
# Poissons Ratio (x) = 0.24174 0.20820
# Poissons Ratio (y) = 0.39890 0.37762
# Poissons Ratio (z) = 0.30460 0.33481
#
# Static dielectric constant tensor:
#      x y z
#    x 1.702990 0.000000 0.016060 
#    y 0.000000 1.685410 0.000000 
#    z 0.016060 0.000000 1.738030 
# 
# From -- ./inp_files/183463.got.cif
#   From: 2010.05.17/outbox.cif.g08.bks.cpg/sg12_92_cif.got.tgz:183463.got - 2010.06.03 13:09:07.
