data_PCOD9198455
_publ_section_title
;
Structure prediction by ZEFSAII (Michael W. Deem and Ramdas Pophale) SiO2 
 PCOD9198455
Probable space group: C 2/M
;
_chemical_formula_sum "Si O2"
_cell_formula_units_Z 56
_cell_length_a 22.103013
_cell_length_b 8.617780
_cell_length_c 33.692750
_cell_angle_alpha 90.000000
_cell_angle_beta 153.960466
_cell_angle_gamma 90.000000
_cell_volume 2817.339374
_symmetry_space_group_name_H-M "C 2/M"
_symmetry_group_IT_number 12
_symmetry_cell_setting 'monoclinic'
loop_
_space_group_symop_operation_xyz
x,y,z
-x,y,-z
-x,-y,-z
x,-y,z
1/2+x,1/2+y,z
1/2-x,1/2+y,-z
1/2-x,1/2-y,-z
1/2+x,1/2-y,z
loop_
_atom_site_type_symbol
_atom_site_label
_atom_site_fract_x
_atom_site_fract_y
_atom_site_fract_z
Si Si1 0.487566 0.814470 0.538439
Si Si2 0.675483 0.684569 0.714059
Si Si3 0.520791 0.187456 0.103367
Si Si4 0.439778 0.183053 0.277463
Si Si5 0.116169 0.314138 0.898364
Si Si6 0.753131 0.315328 0.546950
Si Si7 0.261453 0.685338 0.104796
O O1 0.500000 0.760322 0.500000
O O2 0.620950 0.761239 0.641918
O O3 0.357157 0.752640 0.487078
O O4 0.479328 0.000000 0.533392
O O5 0.681145 0.500000 0.711978
O O6 0.826650 0.740826 0.817084
O O7 0.571767 0.727140 0.688041
O O8 0.501038 0.221193 0.138597
O O9 0.515980 0.000000 0.096732
O O10 0.388521 0.241616 0.999850
O O11 0.589101 0.214188 0.346326
O O12 0.315376 0.236936 0.176305
O O13 0.431597 0.000000 0.280512
O O14 0.123792 0.500000 0.897535
O O15 0.126029 0.230509 0.862305
O O16 0.250000 0.250000 0.000000
O O17 0.730808 0.500000 0.531676
O O18 0.750000 0.250000 0.500000
O O19 0.255441 0.500000 0.105960
#
# Coordination Sequence:
#
# PCOD9198455 Si02
#       7
#     8   8   8   8   8   8   8
#     4  11  25  44  65  94 131 163 202 260 317 375
#     4  11  22  39  63  87 116 159 206 250 306 372
#     4   8  18  35  56  83 117 158 199 245 298 358
#     4  11  24  40  59  88 122 155 199 254 307 365
#     4   9  16  31  53  78 111 150 195 245 297 353
#     4  11  23  41  68  93 122 162 206 255 312 377
#     4  10  20  36  57  84 118 157 204 250 297 359
#
# _framework density 19.876909999999999
#
# number of rings (size 3 to 8) (size 9 to 14) (size 15 to 20)
#    0.000    1.857    1.429    3.429    0.000    4.571 
#    0.000   15.714    0.000    0.000    0.000    0.000 
#    0.000    0.000    0.000    0.000    0.000    0.000 
#
# Total GULP energy -156160.742229 kJ/mol
# GULP energy per Si atom -5577.169365 kJ/mol
# Density = 1.983167 g / cm^3
# Si number density = 19.876910 Si / 1000 Ang^3
#
#
#
# Elastic Constant Matrix: (Units=GPa)
#
#
# Indices 1 2 3 4 5 6 
#
# 1 99.8941 25.4551 49.7014 -0.0003 -2.2460 -0.0002
# 2 25.4551 44.5380 23.8332 0.0004 5.6740 -0.0008
# 3 49.7014 23.8332 109.3667 -0.0026 -1.5330 0.0002
# 4 -0.0003 0.0004 -0.0026 26.6473 -0.0002 -5.7352
# 5 -2.2460 5.6740 -1.5330 -0.0002 38.0701 0.0002
# 6 -0.0002 -0.0008 0.0002 -5.7352 0.0002 24.7647
#
#
#
# Elastic Compliance Matrix: (Units=1/GPa)
#
#
# Indices 1 2 3 4 5 6 
#
# 1 0.013989 -0.005417 -0.005157 0.000000 0.001425 0.000000
# 2 -0.005417 0.028142 -0.003736 -0.000001 -0.004664 0.000001
# 3 -0.005157 -0.003736 0.012312 0.000001 0.000748 0.000000
# 4 0.000000 -0.000001 0.000001 0.039496 0.000000 0.009147
# 5 0.001425 -0.004664 0.000748 0.000000 0.027077 0.000000
# 6 0.000000 0.000001 0.000000 0.009147 0.000000 0.042498
#
#
# Mechanical properties :
#
#
# Convention : Reuss Voigt Hill
#
# Bulk Modulus (GPa) = 38.72594 50.19759 44.46177
# Shear Modulus (GPa) = 24.90765 28.21704 26.56234
#
# Velocity S-wave (km/s) = 3.54375 3.77183 3.65957
# Velocity P-wave (km/s) = 6.02241 6.65417 6.34615
#
# Compressibility (1/GPa) = 0.02582248
#
# Stress axis : x y z
#
# Youngs Moduli (GPa) = 71.48637 35.53347 81.22361
#
# Poissons Ratio (x) = 0.19249 0.41884
# Poissons Ratio (y) = 0.38725 0.30348
# Poissons Ratio (z) = 0.36863 0.13277
#
# Static dielectric constant tensor:
#      x y z
#    x 1.745330 0.000000 0.012380 
#    y 0.000000 1.669170 0.000000 
#    z 0.012380 0.000000 1.710180 
# 
# From -- ./inp_files/380765.got.cif
#   From: 2010.05.17/outbox.cif.g08.bks.cpg/sg12_191_cif.got.tgz:380765.got - 2010.06.03 13:09:07.
