data_PCOD9198571
_publ_section_title
;
Structure prediction by ZEFSAII (Michael W. Deem and Ramdas Pophale) SiO2 
 PCOD9198571
Probable space group: C 2/M
;
_chemical_formula_sum "Si O2"
_cell_formula_units_Z 64
_cell_length_a 31.092217
_cell_length_b 9.484534
_cell_length_c 11.809075
_cell_angle_alpha 90.000000
_cell_angle_beta 94.254949
_cell_angle_gamma 90.000000
_cell_volume 3472.841039
_symmetry_space_group_name_H-M "C 2/M"
_symmetry_group_IT_number 12
_symmetry_cell_setting 'monoclinic'
loop_
_space_group_symop_operation_xyz
x,y,z
-x,y,-z
-x,-y,-z
x,-y,z
1/2+x,1/2+y,z
1/2-x,1/2+y,-z
1/2-x,1/2-y,-z
1/2+x,1/2-y,z
loop_
_atom_site_type_symbol
_atom_site_label
_atom_site_fract_x
_atom_site_fract_y
_atom_site_fract_z
Si Si1 0.980677 0.663785 0.676948
Si Si2 0.737263 0.668033 0.670751
Si Si3 0.213457 0.169753 0.923115
Si Si4 0.544606 0.164619 0.066900
Si Si5 0.384276 0.668097 0.049977
Si Si6 0.431427 0.335927 0.295175
Si Si7 0.092604 0.165493 0.459315
Si Si8 0.187890 0.168862 0.428683
O O1 0.984675 0.500000 0.646874
O O2 0.961958 0.673320 0.800422
O O3 0.947610 0.744307 0.589759
O O4 0.026929 0.738272 0.687130
O O5 0.745308 0.500000 0.669650
O O6 0.718257 0.702497 0.790135
O O7 0.781124 0.751256 0.652042
O O8 0.705491 0.699893 0.559147
O O9 0.165852 0.208792 0.958003
O O10 0.218064 0.000000 0.935750
O O11 0.250000 0.250000 0.000000
O O12 0.549772 0.000000 0.035565
O O13 0.500000 0.215779 0.000000
O O14 0.585374 0.251289 0.031699
O O15 0.386808 0.500000 0.030773
O O16 0.404043 0.696113 0.178374
O O17 0.445460 0.500000 0.290542
O O18 0.403975 0.322428 0.404332
O O19 0.137795 0.209284 0.412658
O O20 0.085081 0.000000 0.432178
O O21 0.190976 0.000000 0.413287
#
# Coordination Sequence:
#
# PCOD9198571 Si02
#       8
#     8   8   8   8   8   8   8   8
#     4  11  23  37  54  78 110 146 181 223 272 324
#     4   9  18  35  58  80 108 143 180 223 274 325
#     4  10  22  39  57  82 115 148 183 228 279 330
#     4  10  21  39  58  78 110 147 184 227 277 328
#     4  10  21  37  61  87 108 140 190 236 273 323
#     4  10  20  36  58  81 107 141 182 226 273 324
#     4  10  21  36  54  79 112 145 178 220 274 328
#     4   9  18  34  57  82 107 140 181 225 270 322
#
# _framework density 18.428716000000001
#
# number of rings (size 3 to 8) (size 9 to 14) (size 15 to 20)
#    0.000    2.125    1.250    1.500    0.000    8.750 
#    0.000    5.000    0.000    4.500    0.000    0.000 
#    0.000    0.000    0.000    0.000    0.000    0.000 
#
# Total GULP energy -178661.917536 kJ/mol
# GULP energy per Si atom -5583.184923 kJ/mol
# Density = 1.838677 g / cm^3
# Si number density = 18.428716 Si / 1000 Ang^3
#
#
#
# Elastic Constant Matrix: (Units=GPa)
#
#
# Indices 1 2 3 4 5 6 
#
# 1 130.7848 46.1591 12.1505 0.0000 -13.1110 0.0000
# 2 46.1591 32.4549 11.3019 0.0000 -4.9515 0.0000
# 3 12.1505 11.3019 32.1672 0.0000 -11.1120 0.0000
# 4 0.0000 0.0000 0.0000 25.9455 0.0000 -2.4325
# 5 -13.1110 -4.9515 -11.1120 0.0000 24.2301 0.0000
# 6 0.0000 0.0000 0.0000 -2.4325 0.0000 31.4802
#
#
#
# Elastic Compliance Matrix: (Units=1/GPa)
#
#
# Indices 1 2 3 4 5 6 
#
# 1 0.016150 -0.023536 0.004190 0.000000 0.005851 0.000000
# 2 -0.023536 0.069474 -0.017841 0.000000 -0.006720 0.000000
# 3 0.004190 -0.017841 0.041941 0.000000 0.017856 0.000000
# 4 0.000000 0.000000 0.000000 0.038824 0.000000 0.003000
# 5 0.005851 -0.006720 0.017856 0.000000 0.051252 0.000000
# 6 0.000000 0.000000 0.000000 0.003000 0.000000 0.031998
#
#
# Mechanical properties :
#
#
# Convention : Reuss Voigt Hill
#
# Bulk Modulus (GPa) = 18.79977 37.18108 27.99042
# Shear Modulus (GPa) = 14.63082 24.71751 19.67417
#
# Velocity S-wave (km/s) = 2.82071 3.66628 3.27093
# Velocity P-wave (km/s) = 4.56421 6.17589 5.43017
#
# Compressibility (1/GPa) = 0.05319215
#
# Stress axis : x y z
#
# Youngs Moduli (GPa) = 61.91821 14.39382 23.84281
#
# Poissons Ratio (x) = 0.33878 -0.09991
# Poissons Ratio (y) = 1.45733 0.42537
# Poissons Ratio (z) = -0.25945 0.25680
#
# Static dielectric constant tensor:
#      x y z
#    x 1.607970 0.000000 -0.000420 
#    y 0.000000 1.615370 0.000000 
#    z -0.000420 0.000000 1.637560 
# 
# From -- ./inp_files/187599.got.cif
#   From: 2010.05.17/outbox.cif.g08.bks.cpg/sg12_94_cif.got.tgz:187599.got - 2010.06.03 13:09:07.
