data_PCOD9198279
_publ_section_title
;
Structure prediction by ZEFSAII (Michael W. Deem and Ramdas Pophale) SiO2 
 PCOD9198279
Probable space group: C 2/M
;
_chemical_formula_sum "Si O2"
_cell_formula_units_Z 64
_cell_length_a 20.822584
_cell_length_b 7.850876
_cell_length_c 16.801137
_cell_angle_alpha 90.000000
_cell_angle_beta 102.894307
_cell_angle_gamma 90.000000
_cell_volume 2677.315339
_symmetry_space_group_name_H-M "C 2/M"
_symmetry_group_IT_number 12
_symmetry_cell_setting 'monoclinic'
loop_
_space_group_symop_operation_xyz
x,y,z
-x,y,-z
-x,-y,-z
x,-y,z
1/2+x,1/2+y,z
1/2-x,1/2+y,-z
1/2-x,1/2-y,-z
1/2+x,1/2-y,z
loop_
_atom_site_type_symbol
_atom_site_label
_atom_site_fract_x
_atom_site_fract_y
_atom_site_fract_z
Si Si1 0.930119 0.300231 0.454005
Si Si2 0.166423 0.802038 0.182526
Si Si3 0.711959 0.799607 0.583942
Si Si4 0.856197 0.792625 0.641101
Si Si5 0.501628 0.699787 0.674691
Si Si6 0.695947 0.305182 0.761210
Si Si7 0.578317 0.801125 0.014951
Si Si8 0.420574 0.198215 0.159862
O O1 0.929186 0.500000 0.474996
O O2 0.941929 0.287721 0.362281
O O3 0.000000 0.221636 0.500000
O O4 0.859655 0.223789 0.460362
O O5 0.144682 0.747578 0.265157
O O6 0.232212 0.700734 0.179414
O O7 0.184731 0.000000 0.194190
O O8 0.112438 0.782802 0.099819
O O9 0.785753 0.730305 0.585517
O O10 0.706727 0.781767 0.678501
O O11 0.712229 0.000000 0.565086
O O12 0.928422 0.732503 0.633299
O O13 0.855718 0.000000 0.635161
O O14 0.502959 0.500000 0.657787
O O15 0.520256 0.722624 0.772081
O O16 0.674719 0.500000 0.741085
O O17 0.643965 0.218858 0.804405
O O18 0.593338 0.728998 0.931378
O O19 0.598195 0.000000 0.022690
O O20 0.500000 0.791477 0.000000
O O21 0.437469 0.000000 0.154154
#
# Coordination Sequence:
#
# PCOD9198279 Si02
#       8
#     8   8   8   8   8   8   8   8
#     4  10  21  37  59  85 114 150 188 227 276 335
#     4  10  20  36  57  79 109 148 190 231 280 337
#     4   9  17  35  59  80 111 150 189 225 270 335
#     4   8  17  33  55  82 109 147 188 228 278 329
#     4  11  21  35  57  85 114 141 185 238 280 328
#     4  11  21  34  55  82 109 140 184 234 281 326
#     4  10  22  38  54  76 108 145 186 236 288 332
#     4  11  22  36  55  78 109 146 183 225 281 340
#
# _framework density 23.904544999999999
#
# number of rings (size 3 to 8) (size 9 to 14) (size 15 to 20)
#    0.000    2.000    1.250    3.750    0.000    2.000 
#    0.000    6.250    0.000    0.000    0.000    0.000 
#    0.000    0.000    0.000    0.000    0.000    0.000 
#
# Total GULP energy -178795.514189 kJ/mol
# GULP energy per Si atom -5587.359818 kJ/mol
# Density = 2.385014 g / cm^3
# Si number density = 23.904545 Si / 1000 Ang^3
#
#
#
# Elastic Constant Matrix: (Units=GPa)
#
#
# Indices 1 2 3 4 5 6 
#
# 1 162.0436 -0.9329 36.2393 0.0000 20.5459 0.0000
# 2 -0.9329 61.2796 13.5462 0.0000 -2.5518 0.0000
# 3 36.2393 13.5462 100.4720 0.0000 20.3925 0.0000
# 4 0.0000 0.0000 0.0000 28.6474 0.0000 2.8350
# 5 20.5459 -2.5518 20.3925 0.0000 44.0318 0.0000
# 6 0.0000 0.0000 0.0000 2.8350 0.0000 14.5828
#
#
#
# Elastic Compliance Matrix: (Units=1/GPa)
#
#
# Indices 1 2 3 4 5 6 
#
# 1 0.006929 0.000480 -0.002112 0.000000 -0.002227 0.000000
# 2 0.000480 0.017055 -0.002900 0.000000 0.002108 0.000000
# 3 -0.002112 -0.002900 0.012075 0.000000 -0.004775 0.000000
# 4 0.000000 0.000000 0.000000 0.035592 0.000000 -0.006919
# 5 -0.002227 0.002108 -0.004775 0.000000 0.026084 0.000000
# 6 0.000000 0.000000 0.000000 -0.006919 0.000000 0.069919
#
#
# Mechanical properties :
#
#
# Convention : Reuss Voigt Hill
#
# Bulk Modulus (GPa) = 37.04585 46.83338 41.93961
# Shear Modulus (GPa) = 26.92288 35.78190 31.35239
#
# Velocity S-wave (km/s) = 3.35963 3.87313 3.62548
# Velocity P-wave (km/s) = 5.52997 6.29570 5.92522
#
# Compressibility (1/GPa) = 0.02699358
#
# Stress axis : x y z
#
# Youngs Moduli (GPa) = 144.32958 58.63448 82.81663
#
# Poissons Ratio (x) = -0.02812 0.17488
# Poissons Ratio (y) = -0.06921 0.24018
# Poissons Ratio (z) = 0.30478 0.17005
#
# Static dielectric constant tensor:
#      x y z
#    x 1.929000 0.000000 0.008580 
#    y 0.000000 1.889290 0.000000 
#    z 0.008580 0.000000 1.997670 
# 
# From -- ./inp_files/320081.got.cif
#   From: 2010.05.17/outbox.cif.g08.bks.cpg/sg12_161_cif.got.tgz:320081.got - 2010.06.03 13:09:07.
