data_PCOD9198479
_publ_section_title
;
Structure prediction by ZEFSAII (Michael W. Deem and Ramdas Pophale) SiO2 
 PCOD9198479
Probable space group: C 2/M
;
_chemical_formula_sum "Si O2"
_cell_formula_units_Z 56
_cell_length_a 14.819216
_cell_length_b 21.953598
_cell_length_c 10.154720
_cell_angle_alpha 90.000000
_cell_angle_beta 123.327885
_cell_angle_gamma 90.000000
_cell_volume 2760.362801
_symmetry_space_group_name_H-M "C 2/M"
_symmetry_group_IT_number 12
_symmetry_cell_setting 'monoclinic'
loop_
_space_group_symop_operation_xyz
x,y,z
-x,y,-z
-x,-y,-z
x,-y,z
1/2+x,1/2+y,z
1/2-x,1/2+y,-z
1/2-x,1/2-y,-z
1/2+x,1/2-y,z
loop_
_atom_site_type_symbol
_atom_site_label
_atom_site_fract_x
_atom_site_fract_y
_atom_site_fract_z
Si Si1 0.579215 0.381590 0.374989
Si Si2 0.355779 0.744751 0.671661
Si Si3 0.620374 0.426904 0.129054
Si Si4 0.838292 0.887771 0.270773
Si Si5 0.789064 0.268169 0.888622
Si Si6 0.305707 0.929535 0.077453
Si Si7 0.514110 0.849469 0.871826
O O1 0.576398 0.309184 0.340787
O O2 0.634361 0.412291 0.293548
O O3 0.454506 0.399910 0.297153
O O4 0.643245 0.398440 0.559561
O O5 0.250000 0.750000 0.500000
O O6 0.316612 0.725762 0.787144
O O7 0.414918 0.810633 0.733523
O O8 0.617028 0.500000 0.107882
O O9 0.715170 0.405615 0.107388
O O10 0.500000 0.402411 0.000000
O O11 0.797513 0.818063 0.229435
O O12 0.749278 0.922272 0.111478
O O13 0.750000 0.250000 0.000000
O O14 0.903458 0.298117 0.012908
O O15 0.416001 0.891184 0.168922
O O16 0.326937 0.000000 0.120849
O O17 0.500000 0.885009 0.000000
#
# Coordination Sequence:
#
# PCOD9198479 Si02
#       7
#     8   8   8   8   8   8   8
#     4  11  22  35  58  86 127 168 201 261 329 381
#     4  11  22  39  59  87 127 166 207 255 317 380
#     4  10  21  38  60  91 124 160 216 268 317 383
#     4  10  21  36  53  88 125 155 208 259 315 390
#     4  10  20  36  57  85 121 160 205 255 303 373
#     4  10  21  40  66  90 120 166 218 271 321 373
#     4   9  21  38  60  89 126 157 210 264 306 379
#
# _framework density 20.287189000000001
#
# number of rings (size 3 to 8) (size 9 to 14) (size 15 to 20)
#    0.000    1.857    2.857    0.857    4.000    2.571 
#    0.000    1.429    0.000    0.000    0.000    2.000 
#    0.000    0.000    0.000    0.000    0.000    0.000 
#
# Total GULP energy -156020.901418 kJ/mol
# GULP energy per Si atom -5572.175051 kJ/mol
# Density = 2.024101 g / cm^3
# Si number density = 20.287189 Si / 1000 Ang^3
#
#
#
# Elastic Constant Matrix: (Units=GPa)
#
#
# Indices 1 2 3 4 5 6 
#
# 1 121.5198 26.8108 45.4235 0.0000 -15.8280 0.0000
# 2 26.8108 30.9774 9.7883 0.0000 -0.7965 0.0000
# 3 45.4235 9.7883 94.7084 0.0000 -9.6508 0.0000
# 4 0.0000 0.0000 0.0000 17.6728 0.0000 -3.6934
# 5 -15.8280 -0.7965 -9.6508 0.0000 35.1450 0.0000
# 6 0.0000 0.0000 0.0000 -3.6934 0.0000 26.0902
#
#
#
# Elastic Compliance Matrix: (Units=1/GPa)
#
#
# Indices 1 2 3 4 5 6 
#
# 1 0.012556 -0.009295 -0.004636 0.000000 0.004171 0.000000
# 2 -0.009295 0.040254 -0.000037 0.000000 -0.003284 0.000000
# 3 -0.004636 -0.000037 0.012935 0.000000 0.001463 0.000000
# 4 0.000000 0.000000 0.000000 0.058309 0.000000 0.008255
# 5 0.004171 -0.003284 0.001463 0.000000 0.030659 0.000000
# 6 0.000000 0.000000 0.000000 0.008255 0.000000 0.039497
#
#
# Mechanical properties :
#
#
# Convention : Reuss Voigt Hill
#
# Bulk Modulus (GPa) = 26.44911 45.69451 36.07181
# Shear Modulus (GPa) = 21.29918 26.79379 24.04648
#
# Velocity S-wave (km/s) = 3.24371 3.63812 3.44656
# Velocity P-wave (km/s) = 5.20524 6.34197 5.80151
#
# Compressibility (1/GPa) = 0.03780845
#
# Stress axis : x y z
#
# Youngs Moduli (GPa) = 79.64170 24.84243 77.30762
#
# Poissons Ratio (x) = 0.23091 0.35843
# Poissons Ratio (y) = 0.74028 0.00285
# Poissons Ratio (z) = 0.36925 0.00092
#
# Static dielectric constant tensor:
#      x y z
#    x 1.905030 0.000000 -0.067770 
#    y 0.000000 1.782760 0.000000 
#    z -0.067770 0.000000 1.787500 
# 
# From -- ./inp_files/65971.got.cif
#   From: 2010.05.17/outbox.cif.g08.bks.cpg/sg12_33_cif.got.tgz:65971.got - 2010.06.03 13:09:07.
