data_PCOD9198046
_publ_section_title
;
Structure prediction by ZEFSAII (Michael W. Deem and Ramdas Pophale) SiO2 
 PCOD9198046
Probable space group: C 2/M
;
_chemical_formula_sum "Si O2"
_cell_formula_units_Z 64
_cell_length_a 14.975049
_cell_length_b 8.062340
_cell_length_c 26.996842
_cell_angle_alpha 90.000000
_cell_angle_beta 66.896395
_cell_angle_gamma 90.000000
_cell_volume 2998.017924
_symmetry_space_group_name_H-M "C 2/M"
_symmetry_group_IT_number 12
_symmetry_cell_setting 'monoclinic'
loop_
_space_group_symop_operation_xyz
x,y,z
-x,y,-z
-x,-y,-z
x,-y,z
1/2+x,1/2+y,z
1/2-x,1/2+y,-z
1/2-x,1/2-y,-z
1/2+x,1/2-y,z
loop_
_atom_site_type_symbol
_atom_site_label
_atom_site_fract_x
_atom_site_fract_y
_atom_site_fract_z
Si Si1 0.176916 0.801633 0.899669
Si Si2 0.351217 0.699894 0.502604
Si Si3 0.413871 0.799978 0.701727
Si Si4 0.861403 0.696994 0.987491
Si Si5 0.453285 0.799427 0.243114
Si Si6 0.288030 0.698262 0.213959
Si Si7 0.097857 0.298574 0.125617
Si Si8 0.058030 0.199529 0.415900
O O1 0.161056 0.736087 0.847388
O O2 0.290529 0.759053 0.885186
O O3 0.168497 0.000000 0.901748
O O4 0.117381 0.743791 0.960532
O O5 0.352680 0.500000 0.502592
O O6 0.250000 0.750000 0.500000
O O7 0.447783 0.756506 0.451907
O O8 0.371244 0.756558 0.554936
O O9 0.507895 0.744317 0.712118
O O10 0.320401 0.739777 0.752905
O O11 0.411927 0.749116 0.645451
O O12 0.411914 0.000000 0.703599
O O13 0.865734 0.500000 0.984319
O O14 0.920533 0.762010 0.926737
O O15 0.750000 0.750000 0.000000
O O16 0.349415 0.738145 0.248898
O O17 0.526474 0.739082 0.183892
O O18 0.453190 0.000000 0.242394
O O19 0.282137 0.500000 0.209013
O O20 0.091669 0.500000 0.127296
O O21 0.056877 0.000000 0.418368
#
# Coordination Sequence:
#
# PCOD9198046 Si02
#       8
#     8   8   8   8   8   8   8   8
#     4   9  16  31  52  70  97 135 172 215 269 326
#     4   9  19  37  60  86 118 155 186 222 269 316
#     4  10  21  38  59  80 109 149 189 225 268 322
#     4   9  16  26  46  74  99 128 169 215 268 328
#     4  10  20  36  56  77 102 139 184 225 267 325
#     4  10  21  37  55  77 106 142 180 224 278 328
#     4   8  14  29  51  70  94 132 171 211 262 322
#     4   9  20  38  58  83 117 151 185 225 272 315
#
# _framework density 21.347438
#
# number of rings (size 3 to 8) (size 9 to 14) (size 15 to 20)
#    0.000    2.750    1.250    1.875    0.000    3.500 
#    0.000   10.000    0.000    3.750    0.000    0.000 
#    0.000    0.000    0.000    0.000    0.000    0.000 
#
# Total GULP energy -178456.079040 kJ/mol
# GULP energy per Si atom -5576.752470 kJ/mol
# Density = 2.129885 g / cm^3
# Si number density = 21.347438 Si / 1000 Ang^3
#
#
#
# Elastic Constant Matrix: (Units=GPa)
#
#
# Indices 1 2 3 4 5 6 
#
# 1 91.8363 4.8919 37.8578 0.0000 25.1175 0.0000
# 2 4.8919 14.2159 13.0572 0.0000 2.8623 0.0000
# 3 37.8578 13.0572 122.4315 0.0000 32.8426 0.0000
# 4 0.0000 0.0000 0.0000 26.7030 0.0000 4.9842
# 5 25.1175 2.8623 32.8426 0.0000 25.3098 0.0000
# 6 0.0000 0.0000 0.0000 4.9842 0.0000 19.9219
#
#
#
# Elastic Compliance Matrix: (Units=1/GPa)
#
#
# Indices 1 2 3 4 5 6 
#
# 1 0.015060 -0.001689 -0.000796 0.000000 -0.013722 0.000000
# 2 -0.001689 0.078323 -0.009057 0.000000 0.004571 0.000000
# 3 -0.000796 -0.009057 0.013642 0.000000 -0.015888 0.000000
# 4 0.000000 0.000000 0.000000 0.039283 0.000000 -0.009828
# 5 -0.013722 0.004571 -0.015888 0.000000 0.073228 0.000000
# 6 0.000000 0.000000 0.000000 -0.009828 0.000000 0.052655
#
#
# Mechanical properties :
#
#
# Convention : Reuss Voigt Hill
#
# Bulk Modulus (GPa) = 11.91296 37.78861 24.85079
# Shear Modulus (GPa) = 15.46769 25.89872 20.68321
#
# Velocity S-wave (km/s) = 2.69470 3.48688 3.11607
# Velocity P-wave (km/s) = 3.90826 5.82677 4.96114
#
# Compressibility (1/GPa) = 0.08394216
#
# Stress axis : x y z
#
# Youngs Moduli (GPa) = 66.40146 12.76762 73.30405
#
# Poissons Ratio (x) = 0.02156 0.05833
# Poissons Ratio (y) = 0.11212 0.66392
# Poissons Ratio (z) = 0.05284 0.11564
#
# Static dielectric constant tensor:
#      x y z
#    x 1.790540 0.000000 0.012080 
#    y 0.000000 1.761370 0.000000 
#    z 0.012080 0.000000 1.802310 
# 
# From -- ./inp_files/359791.got.cif
#   From: 2010.05.17/outbox.cif.g08.bks.cpg/sg12_180_cif.got.tgz:359791.got - 2010.06.03 13:09:07.
