data_PCOD9198377
_publ_section_title
;
Structure prediction by ZEFSAII (Michael W. Deem and Ramdas Pophale) SiO2 
 PCOD9198377
Probable space group: C 2/M
;
_chemical_formula_sum "Si O2"
_cell_formula_units_Z 48
_cell_length_a 16.276274
_cell_length_b 17.293196
_cell_length_c 18.562940
_cell_angle_alpha 90.000000
_cell_angle_beta 29.241001
_cell_angle_gamma 90.000000
_cell_volume 2552.275417
_symmetry_space_group_name_H-M "C 2/M"
_symmetry_group_IT_number 12
_symmetry_cell_setting 'monoclinic'
loop_
_space_group_symop_operation_xyz
x,y,z
-x,y,-z
-x,-y,-z
x,-y,z
1/2+x,1/2+y,z
1/2-x,1/2+y,-z
1/2-x,1/2-y,-z
1/2+x,1/2-y,z
loop_
_atom_site_type_symbol
_atom_site_label
_atom_site_fract_x
_atom_site_fract_y
_atom_site_fract_z
Si Si1 0.327524 0.665804 0.428268
Si Si2 0.160318 0.408030 0.421677
Si Si3 0.666161 0.592748 0.418385
Si Si4 0.314793 0.335022 0.928953
Si Si5 0.988170 0.151116 0.091729
Si Si6 0.008372 0.339356 0.909825
O O1 0.250000 0.750000 0.500000
O O2 0.199420 0.624566 0.470927
O O3 0.343169 0.623858 0.492961
O O4 0.511749 0.669055 0.249318
O O5 0.146064 0.500000 0.438106
O O6 0.320452 0.383945 0.252570
O O7 0.000000 0.377532 0.500000
O O8 0.500000 0.614852 0.500000
O O9 0.677235 0.500000 0.410851
O O10 0.829158 0.627762 0.254493
O O11 0.362584 0.374180 0.968440
O O12 0.250000 0.250000 0.000000
O O13 0.161349 0.367722 0.999978
O O14 0.982124 0.245175 0.099979
O O15 0.000000 0.128436 0.000000
O O16 0.000000 0.361473 0.000000
#
# Coordination Sequence:
#
# PCOD9198377 Si02
#       6
#     8   8   8   8   8   8
#     4  11  22  38  63  87 114 152 195 245 292 342
#     4  10  22  38  55  80 116 152 185 227 283 342
#     4  11  24  40  58  85 120 156 195 239 294 359
#     4   9  18  34  54  82 113 141 184 237 289 339
#     4   9  19  34  55  80 108 143 186 233 276 331
#     4  10  20  36  57  82 112 148 192 241 288 341
#
# _framework density 18.806747999999999
#
# number of rings (size 3 to 8) (size 9 to 14) (size 15 to 20)
#    0.000    2.000    0.000    4.500    0.000    8.667 
#    0.000    4.167    0.000    0.000    0.000    0.000 
#    0.000    0.000    0.000    0.000    0.000    0.000 
#
# Total GULP energy -133897.607422 kJ/mol
# GULP energy per Si atom -5579.066976 kJ/mol
# Density = 1.876394 g / cm^3
# Si number density = 18.806748 Si / 1000 Ang^3
#
#
#
# Elastic Constant Matrix: (Units=GPa)
#
#
# Indices 1 2 3 4 5 6 
#
# 1 231.2583 44.1751 86.7688 -0.0053 -5.9311 0.0035
# 2 44.1751 32.7558 19.6804 -0.0219 0.6578 0.0089
# 3 86.7688 19.6804 94.2364 0.0087 -5.3188 -0.0061
# 4 -0.0053 -0.0219 0.0087 301.8334 0.0145 -142.8877
# 5 -5.9311 0.6578 -5.3188 0.0145 44.2713 -0.0084
# 6 0.0035 0.0089 -0.0061 -142.8877 -0.0084 98.0216
#
#
#
# Elastic Compliance Matrix: (Units=1/GPa)
#
#
# Indices 1 2 3 4 5 6 
#
# 1 0.007843 -0.007162 -0.005699 -0.000001 0.000472 -0.000001
# 2 -0.007162 0.041537 -0.002184 0.000004 -0.001839 0.000002
# 3 -0.005699 -0.002184 0.016385 0.000000 0.001237 0.000001
# 4 -0.000001 0.000004 0.000000 0.010690 -0.000001 0.015583
# 5 0.000472 -0.001839 0.001237 -0.000001 0.022827 0.000001
# 6 -0.000001 0.000002 0.000001 0.015583 0.000001 0.032918
#
#
# Mechanical properties :
#
#
# Convention : Reuss Voigt Hill
#
# Bulk Modulus (GPa) = 28.03090 73.27767 50.65429
# Shear Modulus (GPa) = 28.70583 102.66700 65.68642
#
# Velocity S-wave (km/s) = 3.91110 7.39655 5.91632
# Velocity P-wave (km/s) = 5.94413 10.58270 8.58272
#
# Compressibility (1/GPa) = 0.03567491
#
# Stress axis : x y z
#
# Youngs Moduli (GPa) = 127.50896 24.07488 61.03285
#
# Poissons Ratio (x) = 0.17243 0.34781
# Poissons Ratio (y) = 0.91325 0.13328
# Poissons Ratio (z) = 0.72663 0.05257
#
# Static dielectric constant tensor:
#      x y z
#    x 1.693560 0.000000 -0.007240 
#    y 0.000000 1.663500 0.000010 
#    z -0.007240 0.000010 1.590760 
# 
# From -- ./inp_files/89730.got.cif
#   From: 2010.05.17/outbox.cif.g08.bks.cpg/sg12_45_cif.got.tgz:89730.got - 2010.06.03 13:09:07.
