data_PCOD9198748
_publ_section_title
;
Structure prediction by ZEFSAII (Michael W. Deem and Ramdas Pophale) SiO2 
 PCOD9198748
Probable space group: C 2/M
;
_chemical_formula_sum "Si O2"
_cell_formula_units_Z 48
_cell_length_a 19.472856
_cell_length_b 8.808955
_cell_length_c 30.394829
_cell_angle_alpha 90.000000
_cell_angle_beta 30.436191
_cell_angle_gamma 90.000000
_cell_volume 2641.195068
_symmetry_space_group_name_H-M "C 2/M"
_symmetry_group_IT_number 12
_symmetry_cell_setting 'monoclinic'
loop_
_space_group_symop_operation_xyz
x,y,z
-x,y,-z
-x,-y,-z
x,-y,z
1/2+x,1/2+y,z
1/2-x,1/2+y,-z
1/2-x,1/2-y,-z
1/2+x,1/2-y,z
loop_
_atom_site_type_symbol
_atom_site_label
_atom_site_fract_x
_atom_site_fract_y
_atom_site_fract_z
Si Si1 0.362015 0.681682 0.471256
Si Si2 0.909721 0.820260 0.784865
Si Si3 0.829508 0.319677 0.246332
Si Si4 0.645055 0.180302 0.092254
Si Si5 0.360455 0.819338 0.718896
Si Si6 0.771631 0.819625 0.371094
O O1 0.358660 0.500000 0.470760
O O2 0.250000 0.750000 0.500000
O O3 0.506940 0.743197 0.375991
O O4 0.324415 0.739031 0.540676
O O5 0.845613 0.757797 0.865157
O O6 0.856598 0.734994 0.771352
O O7 0.072527 0.795832 0.699015
O O8 0.887268 0.000000 0.793067
O O9 0.804698 0.500000 0.258431
O O10 0.766468 0.239277 0.238961
O O11 0.763505 0.250397 0.327001
O O12 0.990655 0.294093 0.161316
O O13 0.665254 0.000000 0.085216
O O14 0.750000 0.250000 0.000000
O O15 0.371958 0.000000 0.710260
O O16 0.746382 0.000000 0.383939
#
# Coordination Sequence:
#
# PCOD9198748 Si02
#       6
#     8   8   8   8   8   8
#     4  12  23  36  56  83 116 155 201 246 287 337
#     4  10  20  36  60  86 117 153 192 237 289 346
#     4  10  22  40  60  85 119 154 191 238 294 348
#     4  10  21  39  65  92 118 149 189 235 286 349
#     4  12  24  38  58  85 119 156 196 242 292 343
#     4  10  20  36  58  84 114 153 199 243 288 341
#
# _framework density 18.173590000000001
#
# number of rings (size 3 to 8) (size 9 to 14) (size 15 to 20)
#    0.000    1.333    1.667    5.000    0.000    4.000 
#    0.000    4.167    0.000    5.000    0.000    0.000 
#    0.000    0.000    0.000    0.000    0.000    0.000 
#
# Total GULP energy -134208.442190 kJ/mol
# GULP energy per Si atom -5592.018425 kJ/mol
# Density = 1.813223 g / cm^3
# Si number density = 18.173590 Si / 1000 Ang^3
#
#
#
# Elastic Constant Matrix: (Units=GPa)
#
#
# Indices 1 2 3 4 5 6 
#
# 1 115.0816 77.3490 44.1252 0.0000 22.2552 0.0004
# 2 77.3490 143.5088 59.9451 0.0000 14.4293 0.0003
# 3 44.1252 59.9451 91.8839 -0.0001 33.2720 0.0001
# 4 0.0000 0.0000 -0.0001 31.6265 0.0000 5.3914
# 5 22.2552 14.4293 33.2720 0.0000 23.9566 0.0000
# 6 0.0004 0.0003 0.0001 5.3914 0.0000 36.2554
#
#
#
# Elastic Compliance Matrix: (Units=1/GPa)
#
#
# Indices 1 2 3 4 5 6 
#
# 1 0.015844 -0.008306 0.002672 0.000000 -0.013427 0.000000
# 2 -0.008306 0.014359 -0.010142 0.000000 0.013153 0.000000
# 3 0.002672 -0.010142 0.029982 0.000000 -0.038014 0.000000
# 4 0.000000 0.000000 0.000000 0.032442 0.000000 -0.004824
# 5 -0.013427 0.013153 -0.038014 0.000000 0.099089 0.000000
# 6 0.000000 0.000000 0.000000 -0.004824 0.000000 0.028300
#
#
# Mechanical properties :
#
#
# Convention : Reuss Voigt Hill
#
# Bulk Modulus (GPa) = 34.92391 79.25699 57.09045
# Shear Modulus (GPa) = 19.14899 29.63801 24.39350
#
# Velocity S-wave (km/s) = 3.24955 4.04273 3.66765
# Velocity P-wave (km/s) = 5.77391 8.09304 7.02977
#
# Compressibility (1/GPa) = 0.02863368
#
# Stress axis : x y z
#
# Youngs Moduli (GPa) = 63.11480 69.64401 33.35369
#
# Poissons Ratio (x) = 0.57845 -0.08912
# Poissons Ratio (y) = 0.52422 0.33826
# Poissons Ratio (z) = -0.16865 0.70631
#
# Static dielectric constant tensor:
#      x y z
#    x 1.614650 0.000000 -0.008790 
#    y 0.000000 1.599570 0.000000 
#    z -0.008790 0.000000 1.597430 
# 
# From -- ./inp_files/229949.got.cif
#   From: 2010.05.17/outbox.cif.g08.bks.cpg/sg12_115_cif.got.tgz:229949.got - 2010.06.03 13:09:07.
