data_PCOD9198472
_publ_section_title
;
Structure prediction by ZEFSAII (Michael W. Deem and Ramdas Pophale) SiO2 
 PCOD9198472
Probable space group: C 2/M
;
_chemical_formula_sum "Si O2"
_cell_formula_units_Z 56
_cell_length_a 30.510567
_cell_length_b 7.574167
_cell_length_c 12.240478
_cell_angle_alpha 90.000000
_cell_angle_beta 62.511829
_cell_angle_gamma 90.000000
_cell_volume 2509.337750
_symmetry_space_group_name_H-M "C 2/M"
_symmetry_group_IT_number 12
_symmetry_cell_setting 'monoclinic'
loop_
_space_group_symop_operation_xyz
x,y,z
-x,y,-z
-x,-y,-z
x,-y,z
1/2+x,1/2+y,z
1/2-x,1/2+y,-z
1/2-x,1/2-y,-z
1/2+x,1/2-y,z
loop_
_atom_site_type_symbol
_atom_site_label
_atom_site_fract_x
_atom_site_fract_y
_atom_site_fract_z
Si Si1 0.906756 0.288147 0.260013
Si Si2 0.104991 0.699108 0.134674
Si Si3 0.946058 0.704336 0.593669
Si Si4 0.246199 0.787423 0.374595
Si Si5 0.342988 0.216318 0.131898
Si Si6 0.486773 0.294647 0.895462
Si Si7 0.139014 0.204654 0.466884
O O1 0.907305 0.500000 0.262176
O O2 0.887073 0.231319 0.163995
O O3 0.869699 0.220350 0.393911
O O4 0.960991 0.219185 0.225346
O O5 0.121809 0.500000 0.143183
O O6 0.084289 0.785292 0.269210
O O7 0.056150 0.693885 0.115591
O O8 0.145426 0.777713 0.004649
O O9 0.956085 0.500000 0.614234
O O10 0.907312 0.707355 0.539266
O O11 0.000000 0.779987 0.500000
O O12 0.250000 0.750000 0.500000
O O13 0.292771 0.726180 0.249285
O O14 0.193978 0.721675 0.386496
O O15 0.245510 0.000000 0.367202
O O16 0.343031 0.000000 0.128293
O O17 0.472648 0.500000 0.920497
O O18 0.500000 0.223169 0.000000
O O19 0.137955 0.000000 0.435525
#
# Coordination Sequence:
#
# PCOD9198472 Si02
#       7
#     8   8   8   8   8   8   8
#     4  11  20  33  56  81 111 150 192 233 279 342
#     4  10  20  37  59  81 109 151 200 242 282 335
#     4  10  22  40  61  84 111 149 199 246 284 340
#     4  10  20  36  57  85 117 151 191 235 288 346
#     4   9  18  33  55  82 111 146 186 233 282 334
#     4  11  22  33  49  80 120 151 180 228 290 351
#     4  11  23  37  58  86 118 151 188 239 298 350
#
# _framework density 22.316645000000001
#
# number of rings (size 3 to 8) (size 9 to 14) (size 15 to 20)
#    0.000    1.714    2.857    2.143    0.000    3.143 
#    0.000    1.429    0.000    0.000    0.000    0.000 
#    0.000    0.000    0.000    0.000    0.000    0.000 
#
# Total GULP energy -156304.014533 kJ/mol
# GULP energy per Si atom -5582.286233 kJ/mol
# Density = 2.226585 g / cm^3
# Si number density = 22.316645 Si / 1000 Ang^3
#
#
#
# Elastic Constant Matrix: (Units=GPa)
#
#
# Indices 1 2 3 4 5 6 
#
# 1 82.5907 2.4573 39.2837 0.0000 -20.8390 0.0000
# 2 2.4573 63.8501 -0.7040 0.0000 -1.3893 0.0000
# 3 39.2837 -0.7040 170.0674 0.0000 -18.8888 0.0000
# 4 0.0000 0.0000 0.0000 5.3143 0.0000 12.7912
# 5 -20.8390 -1.3893 -18.8888 0.0000 43.3735 0.0000
# 6 0.0000 0.0000 0.0000 12.7912 0.0000 -16.8816
#
#
#
# Elastic Compliance Matrix: (Units=1/GPa)
#
#
# Indices 1 2 3 4 5 6 
#
# 1 0.014953 -0.000477 -0.002795 0.000000 0.005952 0.000000
# 2 -0.000477 0.015690 0.000216 0.000000 0.000368 0.000000
# 3 -0.002795 0.000216 0.006702 0.000000 0.001583 0.000000
# 4 0.000000 0.000000 0.000000 0.066639 0.000000 0.050493
# 5 0.005952 0.000368 0.001583 0.000000 0.026616 0.000000
# 6 0.000000 0.000000 0.000000 0.050493 0.000000 -0.020978
#
#
# Mechanical properties :
#
#
# Convention : Reuss Voigt Hill
#
# Bulk Modulus (GPa) = 32.01606 44.28689 38.15148
# Shear Modulus (GPa) = 39.63634 24.72599 32.18117
#
# Velocity S-wave (km/s) = 4.21894 3.33222 3.80152
# Velocity P-wave (km/s) = 6.17333 5.89006 6.03336
#
# Compressibility (1/GPa) = 0.03123432
#
# Stress axis : x y z
#
# Youngs Moduli (GPa) = 66.87514 63.73315 149.20202
#
# Poissons Ratio (x) = 0.03039 0.41701
# Poissons Ratio (y) = 0.03189 -0.03221
# Poissons Ratio (z) = 0.18691 -0.01376
#
# Static dielectric constant tensor:
#      x y z
#    x 1.787750 0.000000 -0.036400 
#    y 0.000000 1.882250 0.000000 
#    z -0.036400 0.000000 1.896890 
# 
# From -- ./inp_files/180633.got.cif
#   From: 2010.05.17/outbox.cif.g08.bks.cpg/sg12_91_cif.got.tgz:180633.got - 2010.06.03 13:09:07.
