data_PCOD9198754
_publ_section_title
;
Structure prediction by ZEFSAII (Michael W. Deem and Ramdas Pophale) SiO2 
 PCOD9198754
Probable space group: C 2/M
;
_chemical_formula_sum "Si O2"
_cell_formula_units_Z 44
_cell_length_a 22.986927
_cell_length_b 7.781557
_cell_length_c 11.964579
_cell_angle_alpha 90.000000
_cell_angle_beta 71.822401
_cell_angle_gamma 90.000000
_cell_volume 2033.346812
_symmetry_space_group_name_H-M "C 2/M"
_symmetry_group_IT_number 12
_symmetry_cell_setting 'monoclinic'
loop_
_space_group_symop_operation_xyz
x,y,z
-x,y,-z
-x,-y,-z
x,-y,z
1/2+x,1/2+y,z
1/2-x,1/2+y,-z
1/2-x,1/2-y,-z
1/2+x,1/2-y,z
loop_
_atom_site_type_symbol
_atom_site_label
_atom_site_fract_x
_atom_site_fract_y
_atom_site_fract_z
Si Si1 0.081977 0.694074 0.265280
Si Si2 0.936983 0.791759 0.977147
Si Si3 0.799234 0.796204 0.690965
Si Si4 0.115754 0.789804 0.563736
Si Si5 0.500000 0.253031 0.500000
Si Si6 0.157668 0.794519 0.782607
O O1 0.063820 0.500000 0.309095
O O2 0.067441 0.725092 0.145736
O O3 0.153602 0.716409 0.248707
O O4 0.044287 0.815815 0.372070
O O5 0.935622 0.000000 0.971352
O O6 0.881089 0.730930 0.088594
O O7 0.000000 0.742733 0.000000
O O8 0.826963 0.753191 0.552119
O O9 0.729378 0.743241 0.745698
O O10 0.802955 0.000000 0.701485
O O11 0.130256 0.734371 0.680651
O O12 0.056695 0.698363 0.546266
O O13 0.104924 0.000000 0.567703
O O14 0.150333 0.000000 0.785420
#
# Coordination Sequence:
#
# PCOD9198754 Si02
#       6
#     8   8   8   8   4   8
#     4  11  23  39  59  84 115 148 186 234 284 334
#     4  10  22  40  61  85 114 150 190 229 274 335
#     4  10  21  37  58  85 114 148 191 234 279 334
#     4   9  18  33  57  87 116 149 189 231 277 333
#     4  10  20  36  58  86 115 148 185 230 285 336
#     4  10  20  36  58  84 115 150 187 231 282 331
#
# _framework density 21.639201
#
# number of rings (size 3 to 8) (size 9 to 14) (size 15 to 20)
#    0.000    2.000    0.000    3.273    0.000    5.455 
#    0.000    6.364    0.000    0.000    0.000    0.000 
#    0.000    0.000    0.000    0.000    0.000    0.000 
#
# Total GULP energy -122668.312474 kJ/mol
# GULP energy per Si atom -5575.832385 kJ/mol
# Density = 2.158995 g / cm^3
# Si number density = 21.639201 Si / 1000 Ang^3
#
#
#
# Elastic Constant Matrix: (Units=GPa)
#
#
# Indices 1 2 3 4 5 6 
#
# 1 162.1859 12.9294 103.9266 0.0000 -1.3766 0.0000
# 2 12.9294 55.7166 24.4210 0.0000 4.3868 0.0000
# 3 103.9266 24.4210 150.9785 0.0000 21.3278 0.0000
# 4 0.0000 0.0000 0.0000 2.7036 0.0000 -6.4086
# 5 -1.3766 4.3868 21.3278 0.0000 44.1770 0.0000
# 6 0.0000 0.0000 0.0000 -6.4086 0.0000 -16.8753
#
#
#
# Elastic Compliance Matrix: (Units=1/GPa)
#
#
# Indices 1 2 3 4 5 6 
#
# 1 0.011884 0.000807 -0.008963 0.000000 0.004618 0.000000
# 2 0.000807 0.019380 -0.003673 0.000000 -0.000126 0.000000
# 3 -0.008963 -0.003673 0.014354 0.000000 -0.006845 0.000000
# 4 0.000000 0.000000 0.000000 0.194650 0.000000 -0.073921
# 5 0.004618 -0.000126 -0.006845 0.000000 0.026097 0.000000
# 6 0.000000 0.000000 0.000000 -0.073921 0.000000 -0.031186
#
#
# Mechanical properties :
#
#
# Convention : Reuss Voigt Hill
#
# Bulk Modulus (GPa) = 45.53440 72.38166 58.95803
# Shear Modulus (GPa) = 18.78577 21.17467 19.98022
#
# Velocity S-wave (km/s) = 2.94961 3.13154 3.04194
# Velocity P-wave (km/s) = 5.71739 6.82623 6.29626
#
# Compressibility (1/GPa) = 0.02196142
#
# Stress axis : x y z
#
# Youngs Moduli (GPa) = 84.14486 51.59871 69.66468
#
# Poissons Ratio (x) = -0.04166 0.62444
# Poissons Ratio (y) = -0.06794 0.25586
# Poissons Ratio (z) = 0.75423 0.18951
#
# Static dielectric constant tensor:
#      x y z
#    x 1.745130 0.000000 -0.017370 
#    y 0.000000 1.918940 0.000000 
#    z -0.017370 0.000000 1.755800 
# 
# From -- ./inp_files/162990.got.cif
#   From: 2010.05.17/outbox.cif.g08.bks.cpg/sg12_82_cif.got.tgz:162990.got - 2010.06.03 13:09:07.
