data_PCOD9198027
_publ_section_title
;
Structure prediction by ZEFSAII (Michael W. Deem and Ramdas Pophale) SiO2 
 PCOD9198027
Probable space group: C 2/M
;
_chemical_formula_sum "Si O2"
_cell_formula_units_Z 34
_cell_length_a 7.877673
_cell_length_b 27.849678
_cell_length_c 9.045001
_cell_angle_alpha 90.000000
_cell_angle_beta 50.437920
_cell_angle_gamma 90.000000
_cell_volume 1529.834588
_symmetry_space_group_name_H-M "C 2/M"
_symmetry_group_IT_number 12
_symmetry_cell_setting 'monoclinic'
loop_
_space_group_symop_operation_xyz
x,y,z
-x,y,-z
-x,-y,-z
x,-y,z
1/2+x,1/2+y,z
1/2-x,1/2+y,-z
1/2-x,1/2-y,-z
1/2+x,1/2-y,z
loop_
_atom_site_type_symbol
_atom_site_label
_atom_site_fract_x
_atom_site_fract_y
_atom_site_fract_z
Si Si1 0.765943 0.221708 0.210474
Si Si2 0.000000 0.500000 0.000000
Si Si3 0.453054 0.550557 0.701441
Si Si4 0.389141 0.821989 0.212311
Si Si5 0.735052 0.132710 0.435247
O O1 0.582776 0.202108 0.201747
O O2 0.728157 0.277382 0.268269
O O3 0.769060 0.185353 0.346035
O O4 0.000000 0.219713 0.000000
O O5 0.196546 0.541183 0.873500
O O6 0.500000 0.552198 0.500000
O O7 0.562318 0.500000 0.694574
O O8 0.568467 0.596443 0.709436
O O9 0.285160 0.860931 0.377358
O O10 0.500000 0.839322 0.000000
O O11 0.500000 0.115332 0.500000
#
# Coordination Sequence:
#
# PCOD9198027 Si02
#       5
#     8   2   8   8   8
#     4  10  20  36  55  87 128 170 221 261 318 371
#     4   8  18  44  66  92 126 162 204 268 334 386
#     4   9  20  41  65  93 125 162 209 264 324 397
#     4  10  20  36  58  86 129 175 217 263 315 374
#     4  10  22  39  59  95 131 165 215 271 317 385
#
# _framework density 22.224627000000002
#
# number of rings (size 3 to 8) (size 9 to 14) (size 15 to 20)
#    0.706    1.647    0.000    3.529    0.000    4.235 
#   10.588    0.000    2.588    2.118    0.000    0.000 
#    0.000    0.000    0.000    0.000    0.000    0.000 
#
# Total GULP energy -94692.554413 kJ/mol
# GULP energy per Si atom -5570.150260 kJ/mol
# Density = 2.217404 g / cm^3
# Si number density = 22.224627 Si / 1000 Ang^3
#
#
#
# Elastic Constant Matrix: (Units=GPa)
#
#
# Indices 1 2 3 4 5 6 
#
# 1 79.1208 36.9443 49.2927 0.0000 -22.0071 0.0000
# 2 36.9443 93.5610 46.8529 0.0000 -5.6196 0.0000
# 3 49.2927 46.8529 112.6471 0.0000 -7.8235 0.0000
# 4 0.0000 0.0000 0.0000 5.1105 0.0000 92.1246
# 5 -22.0071 -5.6196 -7.8235 0.0000 41.6665 0.0000
# 6 0.0000 0.0000 0.0000 92.1246 0.0000 -634.8795
#
#
#
# Elastic Compliance Matrix: (Units=1/GPa)
#
#
# Indices 1 2 3 4 5 6 
#
# 1 0.021760 -0.004524 -0.006975 0.000000 0.009573 0.000000
# 2 -0.004524 0.014466 -0.004121 0.000000 -0.001212 0.000000
# 3 -0.006975 -0.004121 0.013525 0.000000 -0.001700 0.000000
# 4 0.000000 0.000000 0.000000 0.054118 0.000000 0.007853
# 5 0.009573 -0.001212 -0.001700 0.000000 0.028573 0.000000
# 6 0.000000 0.000000 0.000000 0.007853 0.000000 -0.000436
#
#
# Mechanical properties :
#
#
# Convention : Reuss Voigt Hill
#
# Bulk Modulus (GPa) = 54.02528 61.27872 57.65200
# Shear Modulus (GPa) = 29.51302 -107.47122 -38.97910
#
# Velocity S-wave (km/s) = 3.64805 -6.96145 -4.19247
# Velocity P-wave (km/s) = 6.48890 6.08140 1.60038
#
# Compressibility (1/GPa) = 0.01850985
#
# Stress axis : x y z
#
# Youngs Moduli (GPa) = 45.95669 69.12945 73.93480
#
# Poissons Ratio (x) = 0.31276 0.51570
# Poissons Ratio (y) = 0.20792 0.30469
# Poissons Ratio (z) = 0.32055 0.28489
#
# Static dielectric constant tensor:
#      x y z
#    x 1.836500 0.000000 0.015240 
#    y 0.000000 1.907590 0.000000 
#    z 0.015240 0.000000 1.841170 
# 
# From -- ./inp_files/41328.got.cif
#   From: 2010.05.17/outbox.cif.g08.bks.cpg/sg12_21_cif.got.tgz:41328.got - 2010.06.03 13:09:07.
