data_PCOD9198796
_publ_section_title
;
Structure prediction by ZEFSAII (Michael W. Deem and Ramdas Pophale) SiO2 
 PCOD9198796
Probable space group: C 2/M
;
_chemical_formula_sum "Si O2"
_cell_formula_units_Z 56
_cell_length_a 28.543881
_cell_length_b 8.579248
_cell_length_c 10.662206
_cell_angle_alpha 90.000000
_cell_angle_beta 104.518870
_cell_angle_gamma 90.000000
_cell_volume 2527.632256
_symmetry_space_group_name_H-M "C 2/M"
_symmetry_group_IT_number 12
_symmetry_cell_setting 'monoclinic'
loop_
_space_group_symop_operation_xyz
x,y,z
-x,y,-z
-x,-y,-z
x,-y,z
1/2+x,1/2+y,z
1/2-x,1/2+y,-z
1/2-x,1/2-y,-z
1/2+x,1/2-y,z
loop_
_atom_site_type_symbol
_atom_site_label
_atom_site_fract_x
_atom_site_fract_y
_atom_site_fract_z
Si Si1 0.859894 0.682317 0.748170
Si Si2 0.905244 0.186752 0.527262
Si Si3 0.108505 0.314078 0.748301
Si Si4 0.546855 0.677033 0.092355
Si Si5 0.505112 0.675358 0.676959
Si Si6 0.756721 0.183423 0.645340
Si Si7 0.211232 0.688172 0.874539
O O1 0.849780 0.500000 0.754621
O O2 0.879773 0.721019 0.622121
O O3 0.902676 0.734477 0.870514
O O4 0.811214 0.780159 0.726395
O O5 0.883263 0.234763 0.380796
O O6 0.962248 0.233447 0.556509
O O7 0.901724 0.000000 0.545597
O O8 0.109309 0.500000 0.735401
O O9 0.053853 0.264805 0.745646
O O10 0.155019 0.268922 0.863015
O O11 0.552816 0.500000 0.044892
O O12 0.528330 0.662828 0.221962
O O13 0.500000 0.755757 0.000000
O O14 0.520287 0.500000 0.650592
O O15 0.750000 0.250000 0.500000
O O16 0.724544 0.241011 0.741228
O O17 0.748397 0.000000 0.628113
O O18 0.214394 0.500000 0.878433
O O19 0.250000 0.750000 0.000000
#
# Coordination Sequence:
#
# PCOD9198796 Si02
#       7
#     8   8   8   8   8   8   8
#     4  11  22  36  57  87 120 152 191 244 304 360
#     4  10  20  36  58  85 117 153 194 237 286 353
#     4  11  22  36  56  84 116 149 190 242 297 352
#     4   9  19  37  58  80 111 151 194 238 285 347
#     4   9  19  34  53  81 114 149 190 230 278 349
#     4  11  23  42  67  94 123 160 208 259 311 368
#     4  10  25  45  63  87 121 160 206 256 304 361
#
# _framework density 22.155121000000001
#
# number of rings (size 3 to 8) (size 9 to 14) (size 15 to 20)
#    0.000    1.857    0.000    4.714    0.000    9.429 
#    0.000    4.286    0.000    0.000    0.000    0.000 
#    0.000    0.000    0.000    0.000    0.000    0.000 
#
# Total GULP energy -156248.393497 kJ/mol
# GULP energy per Si atom -5580.299768 kJ/mol
# Density = 2.210470 g / cm^3
# Si number density = 22.155121 Si / 1000 Ang^3
#
#
#
# Elastic Constant Matrix: (Units=GPa)
#
#
# Indices 1 2 3 4 5 6 
#
# 1 102.2378 6.6995 35.5955 0.0000 27.6378 0.0000
# 2 6.6995 34.2869 14.4188 0.0000 4.5075 0.0000
# 3 35.5955 14.4188 71.7547 0.0000 34.0335 0.0000
# 4 0.0000 0.0000 0.0000 30.3544 0.0000 7.2192
# 5 27.6378 4.5075 34.0335 0.0000 42.0294 0.0000
# 6 0.0000 0.0000 0.0000 7.2192 0.0000 23.8610
#
#
#
# Elastic Compliance Matrix: (Units=1/GPa)
#
#
# Indices 1 2 3 4 5 6 
#
# 1 0.012484 -0.000206 -0.003683 0.000000 -0.005205 0.000000
# 2 -0.000206 0.032076 -0.007754 0.000000 0.002974 0.000000
# 3 -0.003683 -0.007754 0.025617 0.000000 -0.017490 0.000000
# 4 0.000000 0.000000 0.000000 0.035498 0.000000 -0.010740
# 5 -0.005205 0.002974 -0.017490 0.000000 0.041059 0.000000
# 6 0.000000 0.000000 0.000000 -0.010740 0.000000 0.045159
#
#
# Mechanical properties :
#
#
# Convention : Reuss Voigt Hill
#
# Bulk Modulus (GPa) = 21.32614 35.74520 28.53567
# Shear Modulus (GPa) = 21.66291 29.35336 25.50814
#
# Velocity S-wave (km/s) = 3.13035 3.64387 3.39683
# Velocity P-wave (km/s) = 4.76573 5.82003 5.31907
#
# Compressibility (1/GPa) = 0.04689080
#
# Stress axis : x y z
#
# Youngs Moduli (GPa) = 80.10329 31.17627 39.03651
#
# Poissons Ratio (x) = 0.00643 0.14376
# Poissons Ratio (y) = 0.01653 0.30268
# Poissons Ratio (z) = 0.29500 0.24174
#
# Static dielectric constant tensor:
#      x y z
#    x 1.881150 0.000000 -0.016020 
#    y 0.000000 1.767740 0.000000 
#    z -0.016020 0.000000 1.937340 
# 
# From -- ./inp_files/181081.got.cif
#   From: 2010.05.17/outbox.cif.g08.bks.cpg/sg12_91_cif.got.tgz:181081.got - 2010.06.03 13:09:07.
