data_PCOD9198780
_publ_section_title
;
Structure prediction by ZEFSAII (Michael W. Deem and Ramdas Pophale) SiO2 
 PCOD9198780
Probable space group: C 2/M
;
_chemical_formula_sum "Si O2"
_cell_formula_units_Z 56
_cell_length_a 30.180812
_cell_length_b 8.194179
_cell_length_c 15.354190
_cell_angle_alpha 90.000000
_cell_angle_beta 135.723346
_cell_angle_gamma 90.000000
_cell_volume 2650.913775
_symmetry_space_group_name_H-M "C 2/M"
_symmetry_group_IT_number 12
_symmetry_cell_setting 'monoclinic'
loop_
_space_group_symop_operation_xyz
x,y,z
-x,y,-z
-x,-y,-z
x,-y,z
1/2+x,1/2+y,z
1/2-x,1/2+y,-z
1/2-x,1/2-y,-z
1/2+x,1/2-y,z
loop_
_atom_site_type_symbol
_atom_site_label
_atom_site_fract_x
_atom_site_fract_y
_atom_site_fract_z
Si Si1 0.651004 0.192564 0.894830
Si Si2 0.781655 0.196702 0.175376
Si Si3 0.957333 0.301860 0.856381
Si Si4 0.019976 0.186993 0.766559
Si Si5 0.830790 0.186875 0.416355
Si Si6 0.453088 0.812863 0.509640
Si Si7 0.677026 0.810326 0.403930
O O1 0.664669 0.229569 0.812459
O O2 0.594620 0.294362 0.857079
O O3 0.638350 0.000000 0.887111
O O4 0.715351 0.234919 0.036200
O O5 0.780478 0.250253 0.274631
O O6 0.789254 0.000000 0.186277
O O7 0.955544 0.500000 0.854061
O O8 0.883233 0.244685 0.738117
O O9 0.995044 0.240932 0.824889
O O10 0.000000 0.251391 0.000000
O O11 0.991032 0.304297 0.652967
O O12 0.000100 0.000000 0.722421
O O13 0.893366 0.200556 0.445232
O O14 0.840025 0.283272 0.518301
O O15 0.817197 0.000000 0.421343
O O16 0.500000 0.756308 0.500000
O O17 0.433794 0.000000 0.463901
O O18 0.750000 0.750000 0.500000
O O19 0.679948 0.000000 0.387233
#
# Coordination Sequence:
#
# PCOD9198780 Si02
#       7
#     8   8   8   8   8   8   8
#     4  10  20  36  58  84 121 166 209 254 303 368
#     4   9  20  37  57  85 122 164 207 252 306 371
#     4  10  23  45  70  93 122 164 213 267 326 389
#     4  12  24  38  60  89 123 160 202 257 313 372
#     4  11  22  38  61  89 123 159 201 253 312 375
#     4  11  23  38  59  89 124 163 206 250 305 372
#     4  11  24  43  68  94 126 164 210 267 326 391
#
# _framework density 21.124790999999998
#
# number of rings (size 3 to 8) (size 9 to 14) (size 15 to 20)
#    0.000    1.429    1.429    3.857    0.000    7.143 
#    0.000    5.714    0.000    0.000    0.000    0.000 
#    0.000    0.000    0.000    0.000    0.000    0.000 
#
# Total GULP energy -156260.524171 kJ/mol
# GULP energy per Si atom -5580.733006 kJ/mol
# Density = 2.107671 g / cm^3
# Si number density = 21.124791 Si / 1000 Ang^3
#
#
#
# Elastic Constant Matrix: (Units=GPa)
#
#
# Indices 1 2 3 4 5 6 
#
# 1 72.9776 9.5519 45.0703 0.0000 1.1920 0.0000
# 2 9.5519 20.6594 13.4464 0.0000 5.5799 0.0000
# 3 45.0703 13.4464 134.4747 0.0000 -0.7707 0.0000
# 4 0.0000 0.0000 0.0000 24.3520 0.0000 3.7925
# 5 1.1920 5.5799 -0.7707 0.0000 26.3576 0.0000
# 6 0.0000 0.0000 0.0000 3.7925 0.0000 35.3249
#
#
#
# Elastic Compliance Matrix: (Units=1/GPa)
#
#
# Indices 1 2 3 4 5 6 
#
# 1 0.017682 -0.004624 -0.005464 0.000000 0.000020 0.000000
# 2 -0.004624 0.056456 -0.004163 0.000000 -0.011864 0.000000
# 3 -0.005464 -0.004163 0.009692 0.000000 0.001412 0.000000
# 4 0.000000 0.000000 0.000000 0.041763 0.000000 -0.004484
# 5 0.000020 -0.011864 0.001412 0.000000 0.040492 0.000000
# 6 0.000000 0.000000 0.000000 -0.004484 0.000000 0.028790
#
#
# Mechanical properties :
#
#
# Convention : Reuss Voigt Hill
#
# Bulk Modulus (GPa) = 18.07420 40.47209 29.27314
# Shear Modulus (GPa) = 20.67649 27.87645 24.27647
#
# Velocity S-wave (km/s) = 3.13194 3.63658 3.39365
# Velocity P-wave (km/s) = 4.65330 6.06903 5.40770
#
# Compressibility (1/GPa) = 0.05532749
#
# Stress axis : x y z
#
# Youngs Moduli (GPa) = 56.55413 17.71279 103.17828
#
# Poissons Ratio (x) = 0.08191 0.56375
# Poissons Ratio (y) = 0.26153 0.42956
# Poissons Ratio (z) = 0.30900 0.07374
#
# Static dielectric constant tensor:
#      x y z
#    x 1.797690 0.000000 0.080880 
#    y 0.000000 1.738540 0.000000 
#    z 0.080880 0.000000 1.882120 
# 
# From -- ./inp_files/249276.got.cif
#   From: 2010.05.17/outbox.cif.g08.bks.cpg/sg12_125_cif.got.tgz:249276.got - 2010.06.03 13:09:07.
