data_PCOD9198538
_publ_section_title
;
Structure prediction by ZEFSAII (Michael W. Deem and Ramdas Pophale) SiO2 
 PCOD9198538
Probable space group: C 2/M
;
_chemical_formula_sum "Si O2"
_cell_formula_units_Z 56
_cell_length_a 16.377808
_cell_length_b 24.838118
_cell_length_c 7.616669
_cell_angle_alpha 90.000000
_cell_angle_beta 58.953034
_cell_angle_gamma 90.000000
_cell_volume 2654.550775
_symmetry_space_group_name_H-M "C 2/M"
_symmetry_group_IT_number 12
_symmetry_cell_setting 'monoclinic'
loop_
_space_group_symop_operation_xyz
x,y,z
-x,y,-z
-x,-y,-z
x,-y,z
1/2+x,1/2+y,z
1/2-x,1/2+y,-z
1/2-x,1/2-y,-z
1/2+x,1/2-y,z
loop_
_atom_site_type_symbol
_atom_site_label
_atom_site_fract_x
_atom_site_fract_y
_atom_site_fract_z
Si Si1 0.778992 0.559718 0.651572
Si Si2 0.391045 0.838308 0.567436
Si Si3 0.231426 0.235677 0.725842
Si Si4 0.400719 0.437827 0.712867
Si Si5 0.308815 0.942015 0.208931
Si Si6 0.891763 0.667431 0.143832
Si Si7 0.890561 0.871211 0.069829
O O1 0.781494 0.500000 0.728036
O O2 0.840683 0.605726 0.679271
O O3 0.815452 0.555697 0.412413
O O4 0.672301 0.583425 0.762260
O O5 0.500000 0.836190 0.500000
O O6 0.329797 0.786717 0.696224
O O7 0.380605 0.836972 0.367130
O O8 0.250000 0.250000 0.500000
O O9 0.182261 0.289450 0.849860
O O10 0.159493 0.185519 0.831287
O O11 0.500000 0.429346 0.500000
O O12 0.405669 0.500000 0.777007
O O13 0.303182 0.435133 0.709772
O O14 0.388607 0.392350 0.873010
O O15 0.369944 0.890674 0.085576
O O16 0.340264 0.000000 0.101978
O O17 0.000000 0.684964 0.000000
O O18 0.000000 0.869572 0.000000
#
# Coordination Sequence:
#
# PCOD9198538 Si02
#       7
#     8   8   8   8   8   8   8
#     4   9  18  33  55  82 113 153 196 238 288 346
#     4   9  19  36  56  80 111 145 184 236 291 344
#     4   9  20  39  58  78 110 147 185 238 300 350
#     4  10  21  36  55  84 124 162 195 240 294 348
#     4   9  19  37  56  77 112 154 193 236 290 350
#     4  10  20  36  58  79 106 144 186 231 288 352
#     4  11  21  34  57  86 114 152 200 245 295 355
#
# _framework density 21.095846999999999
#
# number of rings (size 3 to 8) (size 9 to 14) (size 15 to 20)
#    0.000    2.429    0.000    2.571    0.000    5.143 
#    0.000    6.429    0.000    0.000    0.000    0.000 
#    0.000    0.000    0.000    0.000    0.000    0.000 
#
# Total GULP energy -156143.272146 kJ/mol
# GULP energy per Si atom -5576.545434 kJ/mol
# Density = 2.104783 g / cm^3
# Si number density = 21.095847 Si / 1000 Ang^3
#
#
#
# Elastic Constant Matrix: (Units=GPa)
#
#
# Indices 1 2 3 4 5 6 
#
# 1 101.4282 53.9605 1.7276 0.0000 -24.0598 0.0000
# 2 53.9605 155.5556 32.3970 0.0000 -15.2018 0.0000
# 3 1.7276 32.3970 48.5339 0.0000 -1.4420 0.0000
# 4 0.0000 0.0000 0.0000 28.5949 0.0000 -8.6049
# 5 -24.0598 -15.2018 -1.4420 0.0000 37.8561 0.0000
# 6 0.0000 0.0000 0.0000 -8.6049 0.0000 13.1776
#
#
#
# Elastic Compliance Matrix: (Units=1/GPa)
#
#
# Indices 1 2 3 4 5 6 
#
# 1 0.014040 -0.004779 0.002902 0.000000 0.007115 0.000000
# 2 -0.004779 0.009405 -0.006093 0.000000 0.000507 0.000000
# 3 0.002902 -0.006093 0.024578 0.000000 0.000334 0.000000
# 4 0.000000 0.000000 0.000000 0.043524 0.000000 0.028421
# 5 0.007115 0.000507 0.000334 0.000000 0.031154 0.000000
# 6 0.000000 0.000000 0.000000 0.028421 0.000000 0.094445
#
#
# Mechanical properties :
#
#
# Convention : Reuss Voigt Hill
#
# Bulk Modulus (GPa) = 31.16979 53.52088 42.34534
# Shear Modulus (GPa) = 20.51033 30.42125 25.46579
#
# Velocity S-wave (km/s) = 3.12147 3.80155 3.47817
# Velocity P-wave (km/s) = 5.27246 6.68539 6.02052
#
# Compressibility (1/GPa) = 0.03208235
#
# Stress axis : x y z
#
# Youngs Moduli (GPa) = 71.22449 106.32668 40.68718
#
# Poissons Ratio (x) = 0.50818 -0.11807
# Poissons Ratio (y) = 0.34041 0.24790
# Poissons Ratio (z) = -0.20669 0.64782
#
# Static dielectric constant tensor:
#      x y z
#    x 1.738630 0.000000 0.030000 
#    y 0.000000 1.791920 0.000000 
#    z 0.030000 0.000000 1.815750 
# 
# From -- ./inp_files/65756.got.cif
#   From: 2010.05.17/outbox.cif.g08.bks.cpg/sg12_33_cif.got.tgz:65756.got - 2010.06.03 13:09:07.
