data_PCOD9198749
_publ_section_title
;
Structure prediction by ZEFSAII (Michael W. Deem and Ramdas Pophale) SiO2 
 PCOD9198749
Probable space group: C 2/M
;
_chemical_formula_sum "Si O2"
_cell_formula_units_Z 56
_cell_length_a 19.572086
_cell_length_b 12.851905
_cell_length_c 11.121428
_cell_angle_alpha 90.000000
_cell_angle_beta 97.741150
_cell_angle_gamma 90.000000
_cell_volume 2771.974191
_symmetry_space_group_name_H-M "C 2/M"
_symmetry_group_IT_number 12
_symmetry_cell_setting 'monoclinic'
loop_
_space_group_symop_operation_xyz
x,y,z
-x,y,-z
-x,-y,-z
x,-y,z
1/2+x,1/2+y,z
1/2-x,1/2+y,-z
1/2-x,1/2-y,-z
1/2+x,1/2-y,z
loop_
_atom_site_type_symbol
_atom_site_label
_atom_site_fract_x
_atom_site_fract_y
_atom_site_fract_z
Si Si1 0.965486 0.111236 0.621329
Si Si2 0.369465 0.118772 0.348257
Si Si3 0.550072 0.262533 0.808408
Si Si4 0.645785 0.789882 0.394400
Si Si5 0.718406 0.620813 0.260107
Si Si6 0.329588 0.736388 0.978110
Si Si7 0.922259 0.619157 0.849183
O O1 0.914038 0.205774 0.605280
O O2 0.000000 0.108346 0.500000
O O3 0.017371 0.135649 0.741376
O O4 0.931494 0.000000 0.633457
O O5 0.424498 0.192289 0.297901
O O6 0.347306 0.154042 0.476604
O O7 0.299892 0.124581 0.252872
O O8 0.394309 0.000000 0.357779
O O9 0.489299 0.195212 0.858539
O O10 0.615857 0.291054 0.905091
O O11 0.704421 0.714162 0.352638
O O12 0.618271 0.868694 0.286921
O O13 0.706343 0.500000 0.293340
O O14 0.674224 0.653895 0.133051
O O15 0.366204 0.839203 0.931527
O O16 0.250000 0.750000 0.000000
O O17 0.942347 0.500000 0.874527
#
# Coordination Sequence:
#
# PCOD9198749 Si02
#       7
#     8   8   8   8   8   8   8
#     4  10  20  36  58  84 114 154 199 242 298 359
#     4  11  21  35  60  90 123 162 201 245 308 374
#     4  11  22  39  62  91 127 162 200 259 305 366
#     4  10  20  38  60  87 123 158 198 258 302 364
#     4  10  22  39  60  85 117 163 207 251 307 365
#     4  11  23  41  62  86 124 162 207 256 304 362
#     4  10  23  40  63  94 125 161 204 254 313 368
#
# _framework density 20.202207999999999
#
# number of rings (size 3 to 8) (size 9 to 14) (size 15 to 20)
#    0.000    1.571    2.857    2.143    0.000    2.857 
#    0.000    2.143    0.000    6.000    0.000    0.000 
#    0.000    0.000    0.000    0.000    0.000    0.000 
#
# Total GULP energy -156086.154402 kJ/mol
# GULP energy per Si atom -5574.505514 kJ/mol
# Density = 2.015623 g / cm^3
# Si number density = 20.202208 Si / 1000 Ang^3
#
#
#
# Elastic Constant Matrix: (Units=GPa)
#
#
# Indices 1 2 3 4 5 6 
#
# 1 89.4143 -3.2135 4.8467 0.0000 -5.4183 0.0000
# 2 -3.2135 67.3121 -3.7270 0.0000 -2.1776 0.0000
# 3 4.8467 -3.7270 61.3566 0.0000 9.3109 0.0000
# 4 0.0000 0.0000 0.0000 -25.0647 0.0000 120.9768
# 5 -5.4183 -2.1776 9.3109 0.0000 34.9123 0.0000
# 6 0.0000 0.0000 0.0000 120.9768 0.0000 -349.2933
#
#
#
# Elastic Compliance Matrix: (Units=1/GPa)
#
#
# Indices 1 2 3 4 5 6 
#
# 1 0.011396 0.000547 -0.001189 0.000000 0.002120 0.000000
# 2 0.000547 0.014950 0.000740 0.000000 0.000820 0.000000
# 3 -0.001189 0.000740 0.017152 0.000000 -0.004713 0.000000
# 4 0.000000 0.000000 0.000000 0.059399 0.000000 0.020573
# 5 0.002120 0.000820 -0.004713 0.000000 0.030280 0.000000
# 6 0.000000 0.000000 0.000000 0.020573 0.000000 0.004262
#
#
# Mechanical properties :
#
#
# Convention : Reuss Voigt Hill
#
# Bulk Modulus (GPa) = 22.88555 23.76614 23.32585
# Shear Modulus (GPa) = 32.93634 -53.21067 -10.13717
#
# Velocity S-wave (km/s) = 4.04212 -5.13772 -2.24249
# Velocity P-wave (km/s) = 5.75654 4.83790 2.20596
#
# Compressibility (1/GPa) = 0.04369569
#
# Stress axis : x y z
#
# Youngs Moduli (GPa) = 87.74670 66.89052 58.30157
#
# Poissons Ratio (x) = -0.03658 0.06930
# Poissons Ratio (y) = -0.04798 -0.04317
# Poissons Ratio (z) = 0.10430 -0.04953
#
# Static dielectric constant tensor:
#      x y z
#    x 1.775870 0.000000 -0.057650 
#    y 0.000000 1.685760 0.000000 
#    z -0.057650 0.000000 1.852970 
# 
# From -- ./inp_files/164979.got.cif
#   From: 2010.05.17/outbox.cif.g08.bks.cpg/sg12_83_cif.got.tgz:164979.got - 2010.06.03 13:09:07.
