data_PCOD9198468
_publ_section_title
;
Structure prediction by ZEFSAII (Michael W. Deem and Ramdas Pophale) SiO2 
 PCOD9198468
Probable space group: C 2/M
;
_chemical_formula_sum "Si O2"
_cell_formula_units_Z 40
_cell_length_a 22.957260
_cell_length_b 19.203897
_cell_length_c 10.074159
_cell_angle_alpha 90.000000
_cell_angle_beta 156.166567
_cell_angle_gamma 90.000000
_cell_volume 1794.670122
_symmetry_space_group_name_H-M "C 2/M"
_symmetry_group_IT_number 12
_symmetry_cell_setting 'monoclinic'
loop_
_space_group_symop_operation_xyz
x,y,z
-x,y,-z
-x,-y,-z
x,-y,z
1/2+x,1/2+y,z
1/2-x,1/2+y,-z
1/2-x,1/2-y,-z
1/2+x,1/2-y,z
loop_
_atom_site_type_symbol
_atom_site_label
_atom_site_fract_x
_atom_site_fract_y
_atom_site_fract_z
Si Si1 0.407905 0.299042 0.603579
Si Si2 0.482511 0.000000 0.748688
Si Si3 0.115143 0.356796 0.502540
Si Si4 0.190922 0.849695 0.340255
Si Si5 0.170277 0.824177 0.828341
Si Si6 0.754961 0.500000 0.500062
O O1 0.440857 0.222862 0.608784
O O2 0.307859 0.301777 0.526274
O O3 0.329238 0.343885 0.325979
O O4 0.558900 0.327336 0.971898
O O5 0.483740 0.924326 0.681724
O O6 0.328600 0.000000 0.506800
O O7 0.611692 0.000000 0.121476
O O8 0.170376 0.354489 0.464789
O O9 0.244470 0.364927 0.879236
O O10 0.169789 0.928997 0.342971
O O11 0.000000 0.821187 0.500000
O O12 0.250000 0.750000 0.000000
#
# Coordination Sequence:
#
# PCOD9198468 Si02
#       6
#     8   4   8   8   8   4
#     4  10  21  33  58  90 116 147 191 249 295 343
#     4   9  20  38  57  82 111 161 197 238 293 355
#     4  10  20  37  59  82 118 152 199 237 292 353
#     4  10  20  36  57  85 114 150 197 238 293 348
#     4  10  20  39  60  88 122 156 190 242 302 349
#     4   9  20  37  56  79 121 156 187 243 302 351
#
# _framework density 22.288218000000001
#
# number of rings (size 3 to 8) (size 9 to 14) (size 15 to 20)
#    0.000    2.200    2.000    0.600    0.000    9.600 
#    3.600    2.500    0.000    1.200    0.000    0.000 
#    0.000    0.000    0.000    0.000    0.000    0.000 
#
# Total GULP energy -111397.328775 kJ/mol
# GULP energy per Si atom -5569.866439 kJ/mol
# Density = 2.223749 g / cm^3
# Si number density = 22.288218 Si / 1000 Ang^3
#
#
#
# Elastic Constant Matrix: (Units=GPa)
#
#
# Indices 1 2 3 4 5 6 
#
# 1 56.0725 -1.7685 18.0669 0.0000 -27.0605 0.0000
# 2 -1.7685 127.1666 45.3590 0.0000 -11.7530 0.0000
# 3 18.0669 45.3590 108.2893 0.0000 -25.9056 0.0000
# 4 0.0000 0.0000 0.0000 32.8362 0.0000 4.4496
# 5 -27.0605 -11.7530 -25.9056 0.0000 34.4489 0.0000
# 6 0.0000 0.0000 0.0000 4.4496 0.0000 4.5765
#
#
#
# Elastic Compliance Matrix: (Units=1/GPa)
#
#
# Indices 1 2 3 4 5 6 
#
# 1 0.029568 0.002751 -0.000371 0.000000 0.023885 0.000000
# 2 0.002751 0.009503 -0.003837 0.000000 0.002518 0.000000
# 3 -0.000371 -0.003837 0.012829 0.000000 0.008046 0.000000
# 4 0.000000 0.000000 0.000000 0.035075 0.000000 -0.034103
# 5 0.023885 0.002518 0.008046 0.000000 0.054701 0.000000
# 6 0.000000 0.000000 0.000000 -0.034103 0.000000 0.251663
#
#
# Mechanical properties :
#
#
# Convention : Reuss Voigt Hill
#
# Bulk Modulus (GPa) = 20.41461 46.09367 33.25414
# Shear Modulus (GPa) = 12.11879 29.69708 20.90793
#
# Velocity S-wave (km/s) = 2.33433 3.65418 3.06612
# Velocity P-wave (km/s) = 4.05521 6.20723 5.24282
#
# Compressibility (1/GPa) = 0.04898454
#
# Stress axis : x y z
#
# Youngs Moduli (GPa) = 33.82088 105.22528 77.95002
#
# Poissons Ratio (x) = -0.28950 0.02895
# Poissons Ratio (y) = -0.09305 0.29912
# Poissons Ratio (z) = 0.01256 0.40379
#
# Static dielectric constant tensor:
#      x y z
#    x 1.955120 0.000000 0.026040 
#    y 0.000000 1.944600 0.000000 
#    z 0.026040 0.000000 1.823140 
# 
# From -- ./inp_files/189974.got.cif
#   From: 2010.05.17/outbox.cif.g08.bks.cpg/sg12_95_cif.got.tgz:189974.got - 2010.06.03 13:09:07.
