data_PCOD9198587
_publ_section_title
;
Structure prediction by ZEFSAII (Michael W. Deem and Ramdas Pophale) SiO2 
 PCOD9198587
Probable space group: C 2/M
;
_chemical_formula_sum "Si O2"
_cell_formula_units_Z 56
_cell_length_a 18.384892
_cell_length_b 8.924734
_cell_length_c 29.624078
_cell_angle_alpha 90.000000
_cell_angle_beta 141.230864
_cell_angle_gamma 90.000000
_cell_volume 3043.708864
_symmetry_space_group_name_H-M "C 2/M"
_symmetry_group_IT_number 12
_symmetry_cell_setting 'monoclinic'
loop_
_space_group_symop_operation_xyz
x,y,z
-x,y,-z
-x,-y,-z
x,-y,z
1/2+x,1/2+y,z
1/2-x,1/2+y,-z
1/2-x,1/2-y,-z
1/2+x,1/2-y,z
loop_
_atom_site_type_symbol
_atom_site_label
_atom_site_fract_x
_atom_site_fract_y
_atom_site_fract_z
Si Si1 0.389458 0.180481 0.846054
Si Si2 0.730679 0.177739 0.847492
Si Si3 0.904716 0.672268 0.994435
Si Si4 0.304977 0.321450 0.712490
Si Si5 0.519428 0.320631 0.284259
Si Si6 0.876075 0.180358 0.568249
Si Si7 0.446166 0.319714 0.425210
O O1 0.298835 0.247103 0.838457
O O2 0.519463 0.221469 0.925899
O O3 0.358577 0.242822 0.782337
O O4 0.381489 0.000000 0.843544
O O5 0.600019 0.237334 0.783979
O O6 0.734755 0.000000 0.844817
O O7 0.799428 0.228421 0.925798
O O8 0.866387 0.500000 0.981635
O O9 0.000000 0.673006 0.000000
O O10 0.301116 0.500000 0.717709
O O11 0.385368 0.290702 0.708044
O O12 0.176352 0.259363 0.641671
O O13 0.497409 0.500000 0.274707
O O14 0.569481 0.275696 0.357287
O O15 0.750000 0.250000 0.500000
O O16 0.963432 0.222835 0.570283
O O17 0.865218 0.000000 0.562700
O O18 0.500000 0.282979 0.500000
O O19 0.429366 0.500000 0.415044
#
# Coordination Sequence:
#
# PCOD9198587 Si02
#       7
#     8   8   8   8   8   8   8
#     4  10  20  36  58  81 110 148 185 226 282 341
#     4  11  21  33  56  87 113 142 185 233 276 325
#     4   8  16  32  54  79 108 145 183 222 277 338
#     4  11  23  37  56  82 110 145 191 239 281 324
#     4  10  22  39  55  76 112 153 188 226 278 334
#     4  10  21  37  58  82 109 144 181 222 275 329
#     4  10  21  37  58  84 113 147 186 227 277 338
#
# _framework density 18.398606999999998
#
# number of rings (size 3 to 8) (size 9 to 14) (size 15 to 20)
#    0.000    2.000    0.000    4.714    0.000    6.857 
#    0.000    0.714    0.000    0.000    0.000    0.000 
#    0.000    0.000    0.000    0.000    0.000    0.000 
#
# Total GULP energy -156392.899416 kJ/mol
# GULP energy per Si atom -5585.460693 kJ/mol
# Density = 1.835673 g / cm^3
# Si number density = 18.398607 Si / 1000 Ang^3
#
#
#
# Elastic Constant Matrix: (Units=GPa)
#
#
# Indices 1 2 3 4 5 6 
#
# 1 117.4954 65.6372 101.7504 0.0000 1.7349 0.0000
# 2 65.6372 67.2589 82.8909 0.0000 4.9438 0.0000
# 3 101.7504 82.8909 205.1801 0.0000 1.3715 0.0000
# 4 0.0000 0.0000 0.0000 31.2350 0.0000 3.9482
# 5 1.7349 4.9438 1.3715 0.0000 30.2704 0.0000
# 6 0.0000 0.0000 0.0000 3.9482 0.0000 20.7075
#
#
#
# Elastic Compliance Matrix: (Units=1/GPa)
#
#
# Indices 1 2 3 4 5 6 
#
# 1 0.020381 -0.014995 -0.004059 0.000000 0.001465 0.000000
# 2 -0.014995 0.041212 -0.009177 0.000000 -0.005456 0.000000
# 3 -0.004059 -0.009177 0.010586 0.000000 0.001252 0.000000
# 4 0.000000 0.000000 0.000000 0.032806 0.000000 -0.006255
# 5 0.001465 -0.005456 0.001252 0.000000 0.033786 0.000000
# 6 0.000000 0.000000 0.000000 -0.006255 0.000000 0.049484
#
#
# Mechanical properties :
#
#
# Convention : Reuss Voigt Hill
#
# Bulk Modulus (GPa) = 63.62464 98.94348 81.28406
# Shear Modulus (GPa) = 20.00358 25.75297 22.87828
#
# Velocity S-wave (km/s) = 3.30090 3.74535 3.53012
# Velocity P-wave (km/s) = 7.01315 8.52044 7.80327
#
# Compressibility (1/GPa) = 0.01571718
#
# Stress axis : x y z
#
# Youngs Moduli (GPa) = 49.06459 24.26502 94.46738
#
# Poissons Ratio (x) = 0.36385 0.38347
# Poissons Ratio (y) = 0.73572 0.86689
# Poissons Ratio (z) = 0.19916 0.22267
#
# Static dielectric constant tensor:
#      x y z
#    x 1.609250 0.000000 -0.016900 
#    y 0.000000 1.620280 0.000000 
#    z -0.016900 0.000000 1.623770 
# 
# From -- ./inp_files/275482.got.cif
#   From: 2010.05.17/outbox.cif.g08.bks.cpg/sg12_138_cif.got.tgz:275482.got - 2010.06.03 13:09:07.
