data_PCOD9198954
_publ_section_title
;
Structure prediction by ZEFSAII (Michael W. Deem and Ramdas Pophale) SiO2 
 PCOD9198954
Probable space group: C 2/M
;
_chemical_formula_sum "Si O2"
_cell_formula_units_Z 64
_cell_length_a 19.262923
_cell_length_b 20.409520
_cell_length_c 16.871132
_cell_angle_alpha 90.000000
_cell_angle_beta 28.963225
_cell_angle_gamma 90.000000
_cell_volume 3211.938147
_symmetry_space_group_name_H-M "C 2/M"
_symmetry_group_IT_number 12
_symmetry_cell_setting 'monoclinic'
loop_
_space_group_symop_operation_xyz
x,y,z
-x,y,-z
-x,-y,-z
x,-y,z
1/2+x,1/2+y,z
1/2-x,1/2+y,-z
1/2-x,1/2-y,-z
1/2+x,1/2-y,z
loop_
_atom_site_type_symbol
_atom_site_label
_atom_site_fract_x
_atom_site_fract_y
_atom_site_fract_z
Si Si1 0.839208 0.687131 0.831728
Si Si2 0.898376 0.723187 0.180793
Si Si3 0.668542 0.189507 0.336850
Si Si4 0.640077 0.574239 0.816221
Si Si5 0.987496 0.573456 0.272710
Si Si6 0.854593 0.925513 0.376197
Si Si7 0.470550 0.297027 0.794420
Si Si8 0.932563 0.426435 0.155313
O O1 0.782494 0.701059 0.801571
O O2 0.927336 0.621193 0.755903
O O3 0.951269 0.742388 0.746724
O O4 0.694833 0.682526 0.026883
O O5 0.752395 0.761472 0.309305
O O6 0.968734 0.758845 0.187733
O O7 0.863066 0.645984 0.227877
O O8 0.000000 0.728095 0.000000
O O9 0.500000 0.195913 0.500000
O O10 0.721541 0.117513 0.306987
O O11 0.659471 0.500000 0.825441
O O12 0.611994 0.573392 0.750959
O O13 0.500000 0.602761 0.000000
O O14 0.010432 0.500000 0.277458
O O15 0.816031 0.584895 0.443715
O O16 0.032060 0.577978 0.135030
O O17 0.938600 0.860881 0.320371
O O18 0.888493 0.000000 0.372336
O O19 0.862537 0.500000 0.234428
O O20 0.000000 0.428392 0.000000
#
# Coordination Sequence:
#
# PCOD9198954 Si02
#       8
#     8   8   8   8   8   8   8   8
#     4  11  24  37  55  89 119 149 194 248 294 344
#     4  11  20  39  64  84 115 157 196 241 291 350
#     4  12  24  36  55  86 119 150 194 244 293 347
#     4  10  20  36  59  82 110 158 210 240 280 350
#     4  10  21  38  58  87 123 154 193 244 300 350
#     4  10  21  37  59  85 117 160 202 239 287 352
#     4  11  22  38  60  84 117 157 198 236 292 353
#     4   9  19  36  64  92 111 146 199 244 291 352
#
# _framework density 19.925663
#
# number of rings (size 3 to 8) (size 9 to 14) (size 15 to 20)
#    0.000    1.500    3.750    1.875    0.000    2.750 
#    0.000    0.000    0.000    1.125    0.000    0.000 
#    0.000    0.000    0.000    0.000    0.000    0.000 
#
# Total GULP energy -178297.064039 kJ/mol
# GULP energy per Si atom -5571.783251 kJ/mol
# Density = 1.988031 g / cm^3
# Si number density = 19.925663 Si / 1000 Ang^3
#
#
#
# Elastic Constant Matrix: (Units=GPa)
#
#
# Indices 1 2 3 4 5 6 
#
# 1 47.2282 39.2345 -7.5527 0.0017 -9.8463 -0.0074
# 2 39.2345 164.8504 36.7445 -0.0006 -36.0587 -0.0001
# 3 -7.5527 36.7445 45.2978 0.0007 -12.2153 -0.0142
# 4 0.0017 -0.0006 0.0007 14.3897 -0.0016 -42.6348
# 5 -9.8463 -36.0587 -12.2153 -0.0016 31.8595 0.0000
# 6 -0.0074 -0.0001 -0.0142 -42.6348 0.0000 113.4008
#
#
#
# Elastic Compliance Matrix: (Units=1/GPa)
#
#
# Indices 1 2 3 4 5 6 
#
# 1 0.032978 -0.010235 0.014974 -0.000065 0.004349 -0.000020
# 2 -0.010235 0.012177 -0.009726 0.000023 0.006890 0.000007
# 3 0.014974 -0.009726 0.034287 -0.000109 0.006765 -0.000036
# 4 -0.000065 0.000023 -0.000109 -0.609922 -0.000066 -0.229310
# 5 0.004349 0.006890 0.006765 -0.000066 0.043123 -0.000024
# 6 -0.000020 0.000007 -0.000036 -0.229310 -0.000024 -0.077394
#
#
# Mechanical properties :
#
#
# Convention : Reuss Voigt Hill
#
# Bulk Modulus (GPa) = 14.39546 43.80324 29.09935
# Shear Modulus (GPa) = -9.40520 44.52667 17.56073
#
# Velocity S-wave (km/s) = -2.17495 4.73233 2.97191
# Velocity P-wave (km/s) = 0.96596 7.20354 5.13926
#
# Compressibility (1/GPa) = 0.06946633
#
# Stress axis : x y z
#
# Youngs Moduli (GPa) = 30.32346 82.12193 29.16566
#
# Poissons Ratio (x) = 0.84052 -0.43672
# Poissons Ratio (y) = 0.31036 0.28368
# Poissons Ratio (z) = -0.45405 0.79875
#
# Static dielectric constant tensor:
#      x y z
#    x 1.699630 0.000000 0.082350 
#    y 0.000000 1.752370 0.000010 
#    z 0.082350 0.000010 1.774420 
# 
# From -- ./inp_files/279094.got.cif
#   From: 2010.05.17/outbox.cif.g08.bks.cpg/sg12_140_cif.got.tgz:279094.got - 2010.06.03 13:09:07.
