data_PCOD9198194
_publ_section_title
;
Structure prediction by ZEFSAII (Michael W. Deem and Ramdas Pophale) SiO2 
 PCOD9198194
Probable space group: C 2/M
;
_chemical_formula_sum "Si O2"
_cell_formula_units_Z 44
_cell_length_a 26.187186
_cell_length_b 12.277008
_cell_length_c 13.108744
_cell_angle_alpha 90.000000
_cell_angle_beta 29.073549
_cell_angle_gamma 90.000000
_cell_volume 2047.943188
_symmetry_space_group_name_H-M "C 2/M"
_symmetry_group_IT_number 12
_symmetry_cell_setting 'monoclinic'
loop_
_space_group_symop_operation_xyz
x,y,z
-x,y,-z
-x,-y,-z
x,-y,z
1/2+x,1/2+y,z
1/2-x,1/2+y,-z
1/2-x,1/2-y,-z
1/2+x,1/2-y,z
loop_
_atom_site_type_symbol
_atom_site_label
_atom_site_fract_x
_atom_site_fract_y
_atom_site_fract_z
Si Si1 0.548094 0.375455 0.118528
Si Si2 0.694516 0.332818 0.442576
Si Si3 0.625955 0.124204 0.279387
Si Si4 0.290152 0.207158 0.076858
Si Si5 0.181063 0.621873 0.574680
Si Si6 0.000000 0.241967 0.000000
O O1 0.582436 0.500000 0.067013
O O2 0.425605 0.365390 0.363539
O O3 0.551125 0.333916 0.996456
O O4 0.617773 0.293507 0.061859
O O5 0.765818 0.360656 0.221709
O O6 0.732766 0.377557 0.485290
O O7 0.706512 0.202562 0.438167
O O8 0.500000 0.140864 0.500000
O O9 0.686739 0.220239 0.232775
O O10 0.645657 0.000000 0.282074
O O11 0.673477 0.136310 0.082415
O O12 0.160210 0.500000 0.577913
O O13 0.081891 0.679778 0.800903
#
# Coordination Sequence:
#
# PCOD9198194 Si02
#       6
#     8   8   8   8   8   4
#     4  11  22  37  60  87 121 164 205 251 302 355
#     4  10  22  38  56  89 123 162 210 251 296 361
#     4  10  23  43  67  93 120 155 199 256 318 369
#     4  11  22  42  64  91 125 156 204 256 302 374
#     4  10  20  36  56  83 125 168 208 252 295 348
#     4  10  20  38  54  86 122 164 212 250 288 362
#
# _framework density 21.484971000000002
#
# number of rings (size 3 to 8) (size 9 to 14) (size 15 to 20)
#    0.000    1.636    1.818    2.727    0.000    2.909 
#    0.000    2.727    0.000    6.000    0.000    0.000 
#    0.000    0.000    0.000    0.000    0.000    0.000 
#
# Total GULP energy -122968.821971 kJ/mol
# GULP energy per Si atom -5589.491908 kJ/mol
# Density = 2.143607 g / cm^3
# Si number density = 21.484971 Si / 1000 Ang^3
#
#
#
# Elastic Constant Matrix: (Units=GPa)
#
#
# Indices 1 2 3 4 5 6 
#
# 1 43.8512 -6.1204 6.7751 0.0000 6.3203 0.0000
# 2 -6.1204 92.0151 -1.0095 0.0000 1.3765 0.0000
# 3 6.7751 -1.0095 84.5158 0.0000 -3.5712 0.0000
# 4 0.0000 0.0000 0.0000 9.9334 0.0000 -2.8545
# 5 6.3203 1.3765 -3.5712 0.0000 40.3575 0.0000
# 6 0.0000 0.0000 0.0000 -2.8545 0.0000 -9.0637
#
#
#
# Elastic Compliance Matrix: (Units=1/GPa)
#
#
# Indices 1 2 3 4 5 6 
#
# 1 0.023925 0.001628 -0.002067 0.000000 -0.003985 0.000000
# 2 0.001628 0.010985 -0.000026 0.000000 -0.000632 0.000000
# 3 -0.002067 -0.000026 0.012056 0.000000 0.001391 0.000000
# 4 0.000000 0.000000 0.000000 0.092316 0.000000 -0.029074
# 5 -0.003985 -0.000632 0.001391 0.000000 0.025547 0.000000
# 6 0.000000 0.000000 0.000000 -0.029074 0.000000 -0.101174
#
#
# Mechanical properties :
#
#
# Convention : Reuss Voigt Hill
#
# Bulk Modulus (GPa) = 21.72128 24.40806 23.06467
# Shear Modulus (GPa) = 62.55407 22.96123 42.75765
#
# Velocity S-wave (km/s) = 5.40171 3.27266 4.46591
# Velocity P-wave (km/s) = 7.00261 5.06612 6.11155
#
# Compressibility (1/GPa) = 0.04603781
#
# Stress axis : x y z
#
# Youngs Moduli (GPa) = 41.79652 91.03107 82.94432
#
# Poissons Ratio (x) = -0.14823 0.17144
# Poissons Ratio (y) = -0.06806 0.00216
# Poissons Ratio (z) = 0.08639 0.00237
#
# Static dielectric constant tensor:
#      x y z
#    x 1.779150 0.000000 -0.010750 
#    y 0.000000 1.761430 0.000000 
#    z -0.010750 0.000000 1.794270 
# 
# From -- ./inp_files/245533.got.cif
#   From: 2010.05.17/outbox.cif.g08.bks.cpg/sg12_123_cif.got.tgz:245533.got - 2010.06.03 13:09:07.
