data_PCOD9198938
_publ_section_title
;
Structure prediction by ZEFSAII (Michael W. Deem and Ramdas Pophale) SiO2 
 PCOD9198938
Probable space group: C 2/M
;
_chemical_formula_sum "Si O2"
_cell_formula_units_Z 36
_cell_length_a 5.251505
_cell_length_b 35.566797
_cell_length_c 9.993938
_cell_angle_alpha 90.000000
_cell_angle_beta 70.646446
_cell_angle_gamma 90.000000
_cell_volume 1761.177923
_symmetry_space_group_name_H-M "C 2/M"
_symmetry_group_IT_number 12
_symmetry_cell_setting 'monoclinic'
loop_
_space_group_symop_operation_xyz
x,y,z
-x,y,-z
-x,-y,-z
x,-y,z
1/2+x,1/2+y,z
1/2-x,1/2+y,-z
1/2-x,1/2-y,-z
1/2+x,1/2-y,z
loop_
_atom_site_type_symbol
_atom_site_label
_atom_site_fract_x
_atom_site_fract_y
_atom_site_fract_z
Si Si1 0.678301 0.071349 0.337119
Si Si2 0.500000 0.103644 0.000000
Si Si3 0.255502 0.457248 0.805195
Si Si4 0.218700 0.143813 0.840396
Si Si5 0.114738 0.228603 0.827286
O O1 0.500000 0.073860 0.500000
O O2 0.483890 0.054085 0.255615
O O3 0.785848 0.112261 0.271886
O O4 0.948540 0.047204 0.309190
O O5 0.265424 0.073272 0.071322
O O6 0.515961 0.131597 0.122593
O O7 0.221592 0.500000 0.855444
O O8 0.202269 0.185740 0.788694
O O9 0.000000 0.140848 0.000000
O O10 0.371628 0.256027 0.780069
O O11 0.000000 0.229245 0.000000
#
# Coordination Sequence:
#
# PCOD9198938 Si02
#       5
#     8   4   8   8   8
#     4  11  24  40  59  85 113 150 192 231 281 337
#     4  10  21  36  56  88 114 148 190 234 282 338
#     4  11  23  39  60  83 114 149 189 238 285 333
#     4  10  20  36  59  80 115 148 187 230 277 332
#     4   9  19  30  50  81 112 140 178 225 276 323
#
# _framework density 20.440864000000001
#
# number of rings (size 3 to 8) (size 9 to 14) (size 15 to 20)
#    0.000    1.778    2.222    1.667    7.778    2.667 
#    0.000    3.333    0.000    1.333    0.000    0.000 
#    0.000    0.000    0.000    0.000    0.000    0.000 
#
# Total GULP energy -100327.363459 kJ/mol
# GULP energy per Si atom -5573.742414 kJ/mol
# Density = 2.039434 g / cm^3
# Si number density = 20.440864 Si / 1000 Ang^3
#
#
#
# Elastic Constant Matrix: (Units=GPa)
#
#
# Indices 1 2 3 4 5 6 
#
# 1 86.6019 51.7872 13.1758 0.0000 -18.2920 0.0000
# 2 51.7872 172.9119 25.1951 0.0000 -14.7050 0.0000
# 3 13.1758 25.1951 69.9551 0.0000 -21.4330 0.0000
# 4 0.0000 0.0000 0.0000 9.6527 0.0000 -4.6565
# 5 -18.2920 -14.7050 -21.4330 0.0000 25.8970 0.0000
# 6 0.0000 0.0000 0.0000 -4.6565 0.0000 20.3280
#
#
#
# Elastic Compliance Matrix: (Units=1/GPa)
#
#
# Indices 1 2 3 4 5 6 
#
# 1 0.015941 -0.004140 0.001632 0.000000 0.010260 0.000000
# 2 -0.004140 0.007274 -0.001970 0.000000 -0.000424 0.000000
# 3 0.001632 -0.001970 0.019704 0.000000 0.016341 0.000000
# 4 0.000000 0.000000 0.000000 0.116468 0.000000 0.026679
# 5 0.010260 -0.000424 0.016341 0.000000 0.059145 0.000000
# 6 0.000000 0.000000 0.000000 0.026679 0.000000 0.055304
#
#
# Mechanical properties :
#
#
# Convention : Reuss Voigt Hill
#
# Bulk Modulus (GPa) = 29.44327 56.64277 43.04302
# Shear Modulus (GPa) = 17.00025 27.12961 22.06493
#
# Velocity S-wave (km/s) = 2.88701 3.64706 3.28907
# Velocity P-wave (km/s) = 5.05455 6.74577 5.96045
#
# Compressibility (1/GPa) = 0.03396362
#
# Stress axis : x y z
#
# Youngs Moduli (GPa) = 62.72967 137.47342 50.75168
#
# Poissons Ratio (x) = 0.56910 -0.08282
# Poissons Ratio (y) = 0.25968 0.09999
# Poissons Ratio (z) = -0.10237 0.27083
#
# Static dielectric constant tensor:
#      x y z
#    x 1.868530 0.000000 -0.008640 
#    y 0.000000 1.708570 0.000000 
#    z -0.008640 0.000000 1.750180 
# 
# From -- ./inp_files/115806.got.cif
#   From: 2010.05.17/outbox.cif.g08.bks.cpg/sg12_58_cif.got.tgz:115806.got - 2010.06.03 13:09:07.
