data_PCOD9198445
_publ_section_title
;
Structure prediction by ZEFSAII (Michael W. Deem and Ramdas Pophale) SiO2 
 PCOD9198445
Probable space group: C 2/M
;
_chemical_formula_sum "Si O2"
_cell_formula_units_Z 48
_cell_length_a 20.967414
_cell_length_b 12.602076
_cell_length_c 14.549401
_cell_angle_alpha 90.000000
_cell_angle_beta 137.382155
_cell_angle_gamma 90.000000
_cell_volume 2603.084258
_symmetry_space_group_name_H-M "C 2/M"
_symmetry_group_IT_number 12
_symmetry_cell_setting 'monoclinic'
loop_
_space_group_symop_operation_xyz
x,y,z
-x,y,-z
-x,-y,-z
x,-y,z
1/2+x,1/2+y,z
1/2-x,1/2+y,-z
1/2-x,1/2-y,-z
1/2+x,1/2-y,z
loop_
_atom_site_type_symbol
_atom_site_label
_atom_site_fract_x
_atom_site_fract_y
_atom_site_fract_z
Si Si1 0.963531 0.121434 0.678407
Si Si2 0.554482 0.625657 0.962348
Si Si3 0.593981 0.622213 0.653759
Si Si4 0.127522 0.500000 0.704205
Si Si5 0.686164 0.791103 0.516561
Si Si6 0.754321 0.701893 0.215169
Si Si7 0.573129 0.000000 0.429260
O O1 0.888013 0.196029 0.550509
O O2 0.986951 0.155163 0.806483
O O3 0.059684 0.124275 0.722571
O O4 0.929295 0.000000 0.642749
O O5 0.579518 0.500000 0.976856
O O6 0.500000 0.634855 0.000000
O O7 0.648557 0.694841 0.067159
O O8 0.500000 0.661302 0.500000
O O9 0.608924 0.500000 0.640997
O O10 0.685123 0.692974 0.737513
O O11 0.189059 0.606262 0.773789
O O12 0.095581 0.500000 0.562746
O O13 0.040701 0.500000 0.683946
O O14 0.750000 0.750000 0.500000
O O15 0.743776 0.812251 0.671593
O O16 0.622446 0.896882 0.436997
#
# Coordination Sequence:
#
# PCOD9198445 Si02
#       7
#     8   8   8   4   8   8   4
#     4  10  21  37  59  83 114 150 191 238 285 335
#     4  10  21  38  58  84 118 151 187 236 292 348
#     4  10  20  36  57  84 116 150 194 235 281 338
#     4   9  18  32  57  84 112 134 187 241 307 343
#     4  11  22  34  55  85 114 151 195 235 282 346
#     4  11  20  35  61  87 111 150 191 241 293 339
#     4   9  20  34  50  82 117 147 175 244 306 333
#
# _framework density 18.439662999999999
#
# number of rings (size 3 to 8) (size 9 to 14) (size 15 to 20)
#    0.000    1.833    2.500    2.000    3.500    0.667 
#    0.000    0.000    1.833    0.500    0.000    0.000 
#    0.000    0.000    0.000    0.000    0.000    0.000 
#
# Total GULP energy -133802.033503 kJ/mol
# GULP energy per Si atom -5575.084729 kJ/mol
# Density = 1.839769 g / cm^3
# Si number density = 18.439663 Si / 1000 Ang^3
#
#
#
# Elastic Constant Matrix: (Units=GPa)
#
#
# Indices 1 2 3 4 5 6 
#
# 1 84.7100 24.3040 -3.4331 0.0000 4.9303 0.0000
# 2 24.3040 71.3634 16.4565 0.0000 17.5633 0.0000
# 3 -3.4331 16.4565 35.0120 0.0000 2.1638 0.0000
# 4 0.0000 0.0000 0.0000 13.5869 0.0000 4.8814
# 5 4.9303 17.5633 2.1638 0.0000 31.0617 0.0000
# 6 0.0000 0.0000 0.0000 4.8814 0.0000 31.5029
#
#
#
# Elastic Compliance Matrix: (Units=1/GPa)
#
#
# Indices 1 2 3 4 5 6 
#
# 1 0.013565 -0.005737 0.003976 0.000000 0.000814 0.000000
# 2 -0.005737 0.020682 -0.009659 0.000000 -0.010111 0.000000
# 3 0.003976 -0.009659 0.033336 0.000000 0.002508 0.000000
# 4 0.000000 0.000000 0.000000 0.077939 0.000000 -0.012077
# 5 0.000814 -0.010111 0.002508 0.000000 0.037607 0.000000
# 6 0.000000 0.000000 0.000000 -0.012077 0.000000 0.033614
#
#
# Mechanical properties :
#
#
# Convention : Reuss Voigt Hill
#
# Bulk Modulus (GPa) = 22.34908 29.52668 25.93788
# Shear Modulus (GPa) = 19.64651 25.48083 22.56367
#
# Velocity S-wave (km/s) = 3.26766 3.72136 3.50186
# Velocity P-wave (km/s) = 5.13646 5.87469 5.51794
#
# Compressibility (1/GPa) = 0.04474457
#
# Stress axis : x y z
#
# Youngs Moduli (GPa) = 73.72057 48.35031 29.99720
#
# Poissons Ratio (x) = 0.27738 -0.11928
# Poissons Ratio (y) = 0.42293 0.28974
# Poissons Ratio (z) = -0.29313 0.46701
#
# Static dielectric constant tensor:
#      x y z
#    x 1.675460 0.000000 -0.023240 
#    y 0.000000 1.643740 0.000000 
#    z -0.023240 0.000000 1.635020 
# 
# From -- ./inp_files/232836.got.cif
#   From: 2010.05.17/outbox.cif.g08.bks.cpg/sg12_117_cif.got.tgz:232836.got - 2010.06.03 13:09:07.
