data_PCOD9198872
_publ_section_title
;
Structure prediction by ZEFSAII (Michael W. Deem and Ramdas Pophale) SiO2 
 PCOD9198872
Probable space group: C 2/M
;
_chemical_formula_sum "Si O2"
_cell_formula_units_Z 48
_cell_length_a 14.809219
_cell_length_b 24.109236
_cell_length_c 11.339371
_cell_angle_alpha 90.000000
_cell_angle_beta 31.954605
_cell_angle_gamma 90.000000
_cell_volume 2142.708707
_symmetry_space_group_name_H-M "C 2/M"
_symmetry_group_IT_number 12
_symmetry_cell_setting 'monoclinic'
loop_
_space_group_symop_operation_xyz
x,y,z
-x,y,-z
-x,-y,-z
x,-y,z
1/2+x,1/2+y,z
1/2-x,1/2+y,-z
1/2-x,1/2-y,-z
1/2+x,1/2-y,z
loop_
_atom_site_type_symbol
_atom_site_label
_atom_site_fract_x
_atom_site_fract_y
_atom_site_fract_z
Si Si1 0.869114 0.381340 0.252940
Si Si2 0.871296 0.500000 0.756841
Si Si3 0.917340 0.500000 0.226091
Si Si4 0.576195 0.833502 0.568604
Si Si5 0.329795 0.719263 0.609065
Si Si6 0.213590 0.211197 0.928920
Si Si7 0.836643 0.102509 0.111400
O O1 0.965692 0.359916 0.260572
O O2 0.721815 0.337878 0.389678
O O3 0.811790 0.443491 0.343994
O O4 0.000000 0.381719 0.000000
O O5 0.961740 0.500000 0.788003
O O6 0.758144 0.555658 0.860888
O O7 0.000000 0.500000 0.500000
O O8 0.000000 0.500000 0.000000
O O9 0.646197 0.770884 0.505140
O O10 0.394789 0.820447 0.710671
O O11 0.708296 0.873858 0.356022
O O12 0.500000 0.712153 0.500000
O O13 0.187788 0.744437 0.854395
O O14 0.099200 0.156714 0.036909
O O15 0.250000 0.250000 0.000000
O O16 0.000000 0.079522 0.000000
#
# Coordination Sequence:
#
# PCOD9198872 Si02
#       7
#     8   4   4   8   8   8   8
#     4  11  21  37  60  84 114 160 212 259 311 381
#     4  12  23  45  74  93 126 175 218 276 343 400
#     4  10  24  41  61  91 121 161 219 266 312 394
#     4  10  21  39  60  91 128 162 207 261 321 388
#     4   9  20  34  53  83 119 154 194 248 312 373
#     4  10  20  36  58  87 124 169 209 252 316 387
#     4  11  24  40  63 100 132 165 219 279 330 388
#
# _framework density 22.401551999999999
#
# number of rings (size 3 to 8) (size 9 to 14) (size 15 to 20)
#    0.000    1.667    0.000    6.250    0.000    9.333 
#    0.000    0.417    0.000    0.000    0.000    0.000 
#    0.000    0.000    0.000    0.000    0.000    0.000 
#
# Total GULP energy -133681.525385 kJ/mol
# GULP energy per Si atom -5570.063558 kJ/mol
# Density = 2.235056 g / cm^3
# Si number density = 22.401552 Si / 1000 Ang^3
#
#
#
# Elastic Constant Matrix: (Units=GPa)
#
#
# Indices 1 2 3 4 5 6 
#
# 1 94.9273 44.4386 22.1307 -0.0010 10.2833 0.0001
# 2 44.4386 187.7417 8.7284 -0.0002 2.9097 0.0000
# 3 22.1307 8.7284 44.8845 -0.0016 12.9575 0.0002
# 4 -0.0010 -0.0002 -0.0016 18.0284 0.0011 -2.8189
# 5 10.2833 2.9097 12.9575 0.0011 24.0446 -0.0001
# 6 0.0001 0.0000 0.0002 -2.8189 -0.0001 46.5694
#
#
#
# Elastic Compliance Matrix: (Units=1/GPa)
#
#
# Indices 1 2 3 4 5 6 
#
# 1 0.013397 -0.002885 -0.005319 0.000000 -0.002514 0.000000
# 2 -0.002885 0.005996 0.000130 0.000000 0.000438 0.000000
# 3 -0.005319 0.000130 0.028687 0.000003 -0.013200 0.000000
# 4 0.000000 0.000000 0.000003 0.055998 -0.000004 0.003390
# 5 -0.002514 0.000438 -0.013200 -0.000004 0.049725 0.000000
# 6 0.000000 0.000000 0.000000 0.003390 0.000000 0.021679
#
#
# Mechanical properties :
#
#
# Convention : Reuss Voigt Hill
#
# Bulk Modulus (GPa) = 31.31510 53.12765 42.22137
# Shear Modulus (GPa) = 24.71880 34.54553 29.63217
#
# Velocity S-wave (km/s) = 3.32541 3.93122 3.64094
# Velocity P-wave (km/s) = 5.36226 6.66135 6.04679
#
# Compressibility (1/GPa) = 0.03193348
#
# Stress axis : x y z
#
# Youngs Moduli (GPa) = 74.64226 166.76403 34.85853
#
# Poissons Ratio (x) = 0.48110 0.18540
# Poissons Ratio (y) = 0.21533 -0.00453
# Poissons Ratio (z) = 0.39700 -0.02165
#
# Static dielectric constant tensor:
#      x y z
#    x 1.949650 0.000000 0.034930 
#    y 0.000000 1.884780 0.000000 
#    z 0.034930 0.000000 1.933310 
# 
# From -- ./inp_files/147962.got.cif
#   From: 2010.05.17/outbox.cif.g08.bks.cpg/sg12_74_cif.got.tgz:147962.got - 2010.06.03 13:09:07.
