data_PCOD9198383
_publ_section_title
;
Structure prediction by ZEFSAII (Michael W. Deem and Ramdas Pophale) SiO2 
 PCOD9198383
Probable space group: C 2/M
;
_chemical_formula_sum "Si O2"
_cell_formula_units_Z 56
_cell_length_a 32.559350
_cell_length_b 18.902430
_cell_length_c 8.901204
_cell_angle_alpha 90.000000
_cell_angle_beta 32.067701
_cell_angle_gamma 90.000000
_cell_volume 2908.519526
_symmetry_space_group_name_H-M "C 2/M"
_symmetry_group_IT_number 12
_symmetry_cell_setting 'monoclinic'
loop_
_space_group_symop_operation_xyz
x,y,z
-x,y,-z
-x,-y,-z
x,-y,z
1/2+x,1/2+y,z
1/2-x,1/2+y,-z
1/2-x,1/2-y,-z
1/2+x,1/2-y,z
loop_
_atom_site_type_symbol
_atom_site_label
_atom_site_fract_x
_atom_site_fract_y
_atom_site_fract_z
Si Si1 0.415750 0.917791 0.572435
Si Si2 0.648846 0.580454 0.205450
Si Si3 0.769008 0.326960 0.010250
Si Si4 0.091435 0.419433 0.039343
Si Si5 0.482180 0.419438 0.883999
Si Si6 0.417345 0.324735 0.839089
Si Si7 0.693908 0.200316 0.767221
O O1 0.353136 0.860839 0.711335
O O2 0.504589 0.900265 0.256514
O O3 0.410968 0.917530 0.770004
O O4 0.399935 0.000000 0.576253
O O5 0.671909 0.500000 0.102188
O O6 0.563908 0.578899 0.543915
O O7 0.638761 0.626859 0.087625
O O8 0.706858 0.618537 0.138262
O O9 0.750000 0.250000 0.000000
O O10 0.767055 0.321360 0.196800
O O11 0.106353 0.500000 0.947462
O O12 0.159922 0.366720 0.784219
O O13 0.450208 0.500000 0.978289
O O14 0.429726 0.363479 0.959377
O O15 0.500000 0.400808 0.000000
O O16 0.500000 0.321069 0.500000
O O17 0.380964 0.247843 0.962482
O O18 0.750000 0.250000 0.500000
#
# Coordination Sequence:
#
# PCOD9198383 Si02
#       7
#     8   8   8   8   8   8   8
#     4   8  15  29  55  84 105 138 190 244 278 328
#     4  10  20  36  57  82 113 153 194 239 287 346
#     4  11  21  34  54  82 118 149 193 234 290 344
#     4   8  16  33  57  80 107 143 191 238 283 340
#     4   9  19  35  57  83 111 145 193 241 286 347
#     4  10  21  37  60  83 113 155 193 237 293 354
#     4  11  24  37  56  86 123 150 186 238 303 350
#
# _framework density 19.253782000000001
#
# number of rings (size 3 to 8) (size 9 to 14) (size 15 to 20)
#    0.000    2.429    1.429    1.714    6.000    2.286 
#    0.000    1.429    0.000    0.000    0.000    2.000 
#    0.000    0.000    0.000    0.000    0.000    0.000 
#
# Total GULP energy -156180.054234 kJ/mol
# GULP energy per Si atom -5577.859080 kJ/mol
# Density = 1.920996 g / cm^3
# Si number density = 19.253782 Si / 1000 Ang^3
#
#
#
# Elastic Constant Matrix: (Units=GPa)
#
#
# Indices 1 2 3 4 5 6 
#
# 1 75.7690 34.8062 10.8859 0.0000 -18.6688 0.0000
# 2 34.8062 100.6675 32.2112 0.0000 -26.8016 0.0000
# 3 10.8859 32.2112 40.5989 0.0000 -16.3725 0.0000
# 4 0.0000 0.0000 0.0000 34.1250 0.0000 -10.1736
# 5 -18.6688 -26.8016 -16.3725 0.0000 25.6818 0.0000
# 6 0.0000 0.0000 0.0000 -10.1736 0.0000 28.4951
#
#
#
# Elastic Compliance Matrix: (Units=1/GPa)
#
#
# Indices 1 2 3 4 5 6 
#
# 1 0.017149 -0.004170 0.002669 0.000000 0.009815 0.000000
# 2 -0.004170 0.016372 -0.008350 0.000000 0.008731 0.000000
# 3 0.002669 -0.008350 0.037433 0.000000 0.017089 0.000000
# 4 0.000000 0.000000 0.000000 0.032795 0.000000 0.011709
# 5 0.009815 0.008731 0.017089 0.000000 0.066079 0.000000
# 6 0.000000 0.000000 0.000000 0.011709 0.000000 0.039274
#
#
# Mechanical properties :
#
#
# Convention : Reuss Voigt Hill
#
# Bulk Modulus (GPa) = 19.51237 41.42689 30.46963
# Shear Modulus (GPa) = 20.33449 26.93587 23.63518
#
# Velocity S-wave (km/s) = 3.25334 3.74437 3.50746
# Velocity P-wave (km/s) = 4.92632 6.34481 5.68002
#
# Compressibility (1/GPa) = 0.05124953
#
# Stress axis : x y z
#
# Youngs Moduli (GPa) = 58.31412 61.08021 26.71475
#
# Poissons Ratio (x) = 0.25469 -0.07129
# Poissons Ratio (y) = 0.24316 0.22308
# Poissons Ratio (z) = -0.15561 0.51004
#
# Static dielectric constant tensor:
#      x y z
#    x 1.658330 0.000000 -0.003420 
#    y 0.000000 1.691350 0.000000 
#    z -0.003420 0.000000 1.681100 
# 
# From -- ./inp_files/113353.got.cif
#   From: 2010.05.17/outbox.cif.g08.bks.cpg/sg12_57_cif.got.tgz:113353.got - 2010.06.03 13:09:07.
