data_PCOD9198035
_publ_section_title
;
Structure prediction by ZEFSAII (Michael W. Deem and Ramdas Pophale) SiO2 
 PCOD9198035
Probable space group: C 2/M
;
_chemical_formula_sum "Si O2"
_cell_formula_units_Z 28
_cell_length_a 19.495040
_cell_length_b 5.705531
_cell_length_c 10.030222
_cell_angle_alpha 90.000000
_cell_angle_beta 114.405247
_cell_angle_gamma 90.000000
_cell_volume 1015.968509
_symmetry_space_group_name_H-M "C 2/M"
_symmetry_group_IT_number 12
_symmetry_cell_setting 'monoclinic'
loop_
_space_group_symop_operation_xyz
x,y,z
-x,y,-z
-x,-y,-z
x,-y,z
1/2+x,1/2+y,z
1/2-x,1/2+y,-z
1/2-x,1/2-y,-z
1/2+x,1/2-y,z
loop_
_atom_site_type_symbol
_atom_site_label
_atom_site_fract_x
_atom_site_fract_y
_atom_site_fract_z
Si Si1 0.289357 0.500000 0.408738
Si Si2 0.302030 0.000000 0.385943
Si Si3 0.589814 0.000000 0.068513
Si Si4 0.338591 0.249758 0.103770
Si Si5 0.033309 0.000000 0.379908
Si Si6 0.942262 0.500000 0.670438
O O1 0.279034 0.259083 0.318025
O O2 0.240231 0.500000 0.502870
O O3 0.375449 0.500000 0.532627
O O4 0.390021 0.000000 0.497766
O O5 0.609255 0.000000 0.238726
O O6 0.500000 0.000000 0.000000
O O7 0.621452 0.785215 0.008030
O O8 0.362088 0.500000 0.180084
O O9 0.354817 0.000000 0.189121
O O10 0.250000 0.250000 0.000000
O O11 0.014654 0.749096 0.296781
O O12 0.000000 0.000000 0.500000
#
# Coordination Sequence:
#
# PCOD9198035 Si02
#       6
#     4   4   4   8   4   4
#     4   8  14  26  49  70  92 124 161 209 267 307
#     4   8  14  27  46  72  95 119 162 216 257 309
#     4  10  22  35  58  85 117 153 193 242 277 325
#     4   8  16  32  54  75 101 145 185 222 282 334
#     4  10  20  36  56  75 109 148 175 227 286 337
#     4  10  21  34  54  82 106 142 192 223 270 337
#
# _framework density 27.559909999999999
#
# number of rings (size 3 to 8) (size 9 to 14) (size 15 to 20)
#    0.857    2.286    0.000    0.429    2.000    0.571 
#    0.000    0.000    6.286    0.000    0.000    0.000 
#    0.000    0.000    0.000    0.000    0.000    0.000 
#
# Total GULP energy -78287.659008 kJ/mol
# GULP energy per Si atom -5591.975643 kJ/mol
# Density = 2.749718 g / cm^3
# Si number density = 27.559910 Si / 1000 Ang^3
#
#
#
# Elastic Constant Matrix: (Units=GPa)
#
#
# Indices 1 2 3 4 5 6 
#
# 1 125.9312 29.3019 20.3975 0.0000 6.4395 0.0000
# 2 29.3019 352.6967 33.9495 0.0000 -25.5288 0.0000
# 3 20.3975 33.9495 109.4470 0.0000 3.0999 0.0000
# 4 0.0000 0.0000 0.0000 38.2562 0.0000 -18.0131
# 5 6.4395 -25.5288 3.0999 0.0000 34.4752 0.0000
# 6 0.0000 0.0000 0.0000 -18.0131 0.0000 54.0243
#
#
#
# Elastic Compliance Matrix: (Units=1/GPa)
#
#
# Indices 1 2 3 4 5 6 
#
# 1 0.008419 -0.000719 -0.001290 0.000000 -0.001989 0.000000
# 2 -0.000719 0.003169 -0.000922 0.000000 0.002564 0.000000
# 3 -0.001290 -0.000922 0.009700 0.000000 -0.001314 0.000000
# 4 0.000000 0.000000 0.000000 0.031008 0.000000 0.010339
# 5 -0.001989 0.002564 -0.001314 0.000000 0.031395 0.000000
# 6 0.000000 0.000000 0.000000 0.010339 0.000000 0.021957
#
#
# Mechanical properties :
#
#
# Convention : Reuss Voigt Hill
#
# Bulk Modulus (GPa) = 64.81960 83.93028 74.37494
# Shear Modulus (GPa) = 42.86266 58.97955 50.92111
#
# Velocity S-wave (km/s) = 3.94795 4.63108 4.30309
# Velocity P-wave (km/s) = 6.65975 7.68868 7.19264
#
# Compressibility (1/GPa) = 0.01542743
#
# Stress axis : x y z
#
# Youngs Moduli (GPa) = 118.78182 315.52012 103.08979
#
# Poissons Ratio (x) = 0.22695 0.13294
# Poissons Ratio (y) = 0.08544 0.09502
# Poissons Ratio (z) = 0.15317 0.29081
#
# Static dielectric constant tensor:
#      x y z
#    x 2.189770 0.000000 -0.040950 
#    y 0.000000 2.551760 0.000000 
#    z -0.040950 0.000000 2.121580 
# 
# From -- ./inp_files/161380.got.cif
#   From: 2010.05.17/outbox.cif.g08.bks.cpg/sg12_81_cif.got.tgz:161380.got - 2010.06.03 13:09:07.
