data_PCOD9198374
_publ_section_title
;
Structure prediction by ZEFSAII (Michael W. Deem and Ramdas Pophale) SiO2 
 PCOD9198374
Probable space group: C 2/M
;
_chemical_formula_sum "Si O2"
_cell_formula_units_Z 56
_cell_length_a 20.751171
_cell_length_b 7.568506
_cell_length_c 18.954780
_cell_angle_alpha 90.000000
_cell_angle_beta 132.712528
_cell_angle_gamma 90.000000
_cell_volume 2187.362402
_symmetry_space_group_name_H-M "C 2/M"
_symmetry_group_IT_number 12
_symmetry_cell_setting 'monoclinic'
loop_
_space_group_symop_operation_xyz
x,y,z
-x,y,-z
-x,-y,-z
x,-y,z
1/2+x,1/2+y,z
1/2-x,1/2+y,-z
1/2-x,1/2-y,-z
1/2+x,1/2-y,z
loop_
_atom_site_type_symbol
_atom_site_label
_atom_site_fract_x
_atom_site_fract_y
_atom_site_fract_z
Si Si1 0.018965 0.303548 0.089304
Si Si2 0.718538 0.788995 0.898178
Si Si3 0.960458 0.716365 0.312164
Si Si4 0.697387 0.292827 0.176779
Si Si5 0.077908 0.715170 0.273705
Si Si6 0.772606 0.701409 0.437394
Si Si7 0.382128 0.790971 0.394499
O O1 0.979067 0.500000 0.058809
O O2 0.123816 0.315988 0.160493
O O3 0.010601 0.226647 0.161488
O O4 0.000000 0.213402 0.000000
O O5 0.624793 0.726112 0.797613
O O6 0.791719 0.732951 0.895879
O O7 0.712794 0.000000 0.888046
O O8 0.750000 0.750000 0.000000
O O9 0.959883 0.500000 0.314670
O O10 0.952207 0.776238 0.388101
O O11 0.042667 0.768373 0.324753
O O12 0.673228 0.500000 0.161655
O O13 0.792429 0.280572 0.282280
O O14 0.079609 0.500000 0.273658
O O15 0.175356 0.784792 0.332284
O O16 0.800606 0.500000 0.461649
O O17 0.750000 0.750000 0.500000
O O18 0.847066 0.786792 0.442789
O O19 0.401867 0.000000 0.419248
#
# Coordination Sequence:
#
# PCOD9198374 Si02
#       7
#     8   8   8   8   8   8   8
#     4  10  21  32  47  76 111 146 182 221 270 322
#     4   9  18  30  48  72 101 138 184 231 270 313
#     4   8  16  32  54  76 102 141 184 224 266 316
#     4   9  17  32  50  71  98 137 184 225 263 309
#     4  10  20  36  57  82 112 145 184 229 274 324
#     4  11  22  38  62  87 111 140 177 224 277 334
#     4   8  15  32  56  78 101 135 179 220 259 310
#
# _framework density 25.601610999999998
#
# number of rings (size 3 to 8) (size 9 to 14) (size 15 to 20)
#    0.000    2.714    1.429    2.143    2.000    0.857 
#    0.000    1.429    0.000    6.857    0.000    0.000 
#    0.000    0.000    0.000    0.000    0.000    0.000 
#
# Total GULP energy -156136.919799 kJ/mol
# GULP energy per Si atom -5576.318564 kJ/mol
# Density = 2.554334 g / cm^3
# Si number density = 25.601611 Si / 1000 Ang^3
#
#
#
# Elastic Constant Matrix: (Units=GPa)
#
#
# Indices 1 2 3 4 5 6 
#
# 1 198.9170 9.5984 47.9028 0.0000 -41.1716 0.0000
# 2 9.5984 53.1341 -2.3554 0.0000 -1.6644 0.0000
# 3 47.9028 -2.3554 94.5760 0.0000 -36.5612 0.0000
# 4 0.0000 0.0000 0.0000 8.0246 0.0000 1.7126
# 5 -41.1716 -1.6644 -36.5612 0.0000 55.7800 0.0000
# 6 0.0000 0.0000 0.0000 1.7126 0.0000 10.9268
#
#
#
# Elastic Compliance Matrix: (Units=1/GPa)
#
#
# Indices 1 2 3 4 5 6 
#
# 1 0.006224 -0.001105 -0.001898 0.000000 0.003317 0.000000
# 2 -0.001105 0.019094 0.001259 0.000000 0.000580 0.000000
# 3 -0.001898 0.001259 0.014786 0.000000 0.008328 0.000000
# 4 0.000000 0.000000 0.000000 0.128929 0.000000 -0.020207
# 5 0.003317 0.000580 0.008328 0.000000 0.025852 0.000000
# 6 0.000000 0.000000 0.000000 -0.020207 0.000000 0.094686
#
#
# Mechanical properties :
#
#
# Convention : Reuss Voigt Hill
#
# Bulk Modulus (GPa) = 27.30951 50.76875 39.03913
# Shear Modulus (GPa) = 16.37936 34.37836 25.37886
#
# Velocity S-wave (km/s) = 2.53213 3.66843 3.15191
# Velocity P-wave (km/s) = 4.38625 6.14951 5.34114
#
# Compressibility (1/GPa) = 0.03661728
#
# Stress axis : x y z
#
# Youngs Moduli (GPa) = 160.66544 52.37302 67.63380
#
# Poissons Ratio (x) = 0.05785 0.12834
# Poissons Ratio (y) = 0.17746 -0.08516
# Poissons Ratio (z) = 0.30488 -0.06594
#
# Static dielectric constant tensor:
#      x y z
#    x 2.402910 0.000000 -0.050940 
#    y 0.000000 1.924340 0.000000 
#    z -0.050940 0.000000 2.153330 
# 
# From -- ./inp_files/320211.got.cif
#   From: 2010.05.17/outbox.cif.g08.bks.cpg/sg12_161_cif.got.tgz:320211.got - 2010.06.03 13:09:07.
