data_PCOD9198228
_publ_section_title
;
Structure prediction by ZEFSAII (Michael W. Deem and Ramdas Pophale) SiO2 
 PCOD9198228
Probable space group: C 2/M
;
_chemical_formula_sum "Si O2"
_cell_formula_units_Z 48
_cell_length_a 11.821502
_cell_length_b 24.677459
_cell_length_c 6.909214
_cell_angle_alpha 90.000000
_cell_angle_beta 72.398654
_cell_angle_gamma 90.000000
_cell_volume 1921.225262
_symmetry_space_group_name_H-M "C 2/M"
_symmetry_group_IT_number 12
_symmetry_cell_setting 'monoclinic'
loop_
_space_group_symop_operation_xyz
x,y,z
-x,y,-z
-x,-y,-z
x,-y,z
1/2+x,1/2+y,z
1/2-x,1/2+y,-z
1/2-x,1/2-y,-z
1/2+x,1/2-y,z
loop_
_atom_site_type_symbol
_atom_site_label
_atom_site_fract_x
_atom_site_fract_y
_atom_site_fract_z
Si Si1 0.102264 0.826440 0.677158
Si Si2 0.284864 0.559834 0.469515
Si Si3 0.330710 0.334014 0.903837
Si Si4 0.039577 0.401796 0.701289
Si Si5 0.110892 0.283047 0.800696
Si Si6 0.711955 0.059833 0.052971
O O1 0.151461 0.880774 0.549205
O O2 0.127676 0.762784 0.627327
O O3 0.960298 0.828672 0.748199
O O4 0.153392 0.827437 0.872377
O O5 0.341315 0.500000 0.480459
O O6 0.159527 0.563861 0.645352
O O7 0.252920 0.558926 0.256525
O O8 0.229882 0.296240 0.861824
O O9 0.288404 0.395570 0.906748
O O10 0.071172 0.340194 0.733373
O O11 0.000000 0.403978 0.500000
O O12 0.924942 0.422163 0.875658
O O13 0.000000 0.267654 0.000000
O O14 0.728906 0.000000 0.969925
#
# Coordination Sequence:
#
# PCOD9198228 Si02
#       6
#     8   8   8   8   8   8
#     4  10  22  36  63  89 117 162 195 241 298 359
#     4   9  19  37  59  83 115 158 205 244 286 354
#     4  10  20  36  56  90 122 153 195 244 300 350
#     4  10  21  37  59  88 122 158 199 242 301 350
#     4  12  22  37  62  91 123 156 192 253 298 349
#     4   9  17  32  57  85 115 154 201 246 291 345
#
# _framework density 24.984052999999999
#
# number of rings (size 3 to 8) (size 9 to 14) (size 15 to 20)
#    0.000    2.000    3.333    1.000    0.000    3.333 
#    0.000    6.667    0.000    1.000    0.000    0.000 
#    0.000    0.000    0.000    0.000    0.000    0.000 
#
# Total GULP energy -134204.183310 kJ/mol
# GULP energy per Si atom -5591.840971 kJ/mol
# Density = 2.492719 g / cm^3
# Si number density = 24.984053 Si / 1000 Ang^3
#
#
#
# Elastic Constant Matrix: (Units=GPa)
#
#
# Indices 1 2 3 4 5 6 
#
# 1 130.0196 44.3997 27.4553 0.0000 -13.7885 0.0000
# 2 44.3997 207.8960 21.8627 0.0000 -26.7525 0.0000
# 3 27.4553 21.8627 63.9320 0.0000 -17.4679 0.0000
# 4 0.0000 0.0000 0.0000 21.7030 0.0000 2.5073
# 5 -13.7885 -26.7525 -17.4679 0.0000 47.2671 0.0000
# 6 0.0000 0.0000 0.0000 2.5073 0.0000 24.5666
#
#
#
# Elastic Compliance Matrix: (Units=1/GPa)
#
#
# Indices 1 2 3 4 5 6 
#
# 1 0.008934 -0.001500 -0.003163 0.000000 0.000588 0.000000
# 2 -0.001500 0.005508 -0.000564 0.000000 0.002471 0.000000
# 3 -0.003163 -0.000564 0.018746 0.000000 0.005686 0.000000
# 4 0.000000 0.000000 0.000000 0.046626 0.000000 -0.004759
# 5 0.000588 0.002471 0.005686 0.000000 0.024828 0.000000
# 6 0.000000 0.000000 0.000000 -0.004759 0.000000 0.041191
#
#
# Mechanical properties :
#
#
# Convention : Reuss Voigt Hill
#
# Bulk Modulus (GPa) = 43.98657 65.47589 54.73123
# Shear Modulus (GPa) = 30.51295 39.24933 34.88114
#
# Velocity S-wave (km/s) = 3.49850 3.96785 3.74054
# Velocity P-wave (km/s) = 5.82781 6.87428 6.37256
#
# Compressibility (1/GPa) = 0.02273421
#
# Stress axis : x y z
#
# Youngs Moduli (GPa) = 111.93801 181.56378 53.34363
#
# Poissons Ratio (x) = 0.27227 0.16872
# Poissons Ratio (y) = 0.16786 0.03010
# Poissons Ratio (z) = 0.35405 0.10245
#
# Static dielectric constant tensor:
#      x y z
#    x 1.941150 0.000000 0.057840 
#    y 0.000000 1.995080 0.000000 
#    z 0.057840 0.000000 2.088680 
# 
# From -- ./inp_files/51308.got.cif
#   From: 2010.05.17/outbox.cif.g08.bks.cpg/sg12_26_cif.got.tgz:51308.got - 2010.06.03 13:09:07.
