data_PCOD9198301
_publ_section_title
;
Structure prediction by ZEFSAII (Michael W. Deem and Ramdas Pophale) SiO2 
 PCOD9198301
Probable space group: C 2/M
;
_chemical_formula_sum "Si O2"
_cell_formula_units_Z 64
_cell_length_a 15.469181
_cell_length_b 7.684741
_cell_length_c 26.387650
_cell_angle_alpha 90.000000
_cell_angle_beta 67.414623
_cell_angle_gamma 90.000000
_cell_volume 2896.303006
_symmetry_space_group_name_H-M "C 2/M"
_symmetry_group_IT_number 12
_symmetry_cell_setting 'monoclinic'
loop_
_space_group_symop_operation_xyz
x,y,z
-x,y,-z
-x,-y,-z
x,-y,z
1/2+x,1/2+y,z
1/2-x,1/2+y,-z
1/2-x,1/2-y,-z
1/2+x,1/2-y,z
loop_
_atom_site_type_symbol
_atom_site_label
_atom_site_fract_x
_atom_site_fract_y
_atom_site_fract_z
Si Si1 0.480606 0.711442 0.282888
Si Si2 0.903313 0.291373 0.994731
Si Si3 0.816321 0.211451 0.255210
Si Si4 0.697963 0.210313 0.083103
Si Si5 0.683484 0.206966 0.199568
Si Si6 0.661913 0.798579 0.486149
Si Si7 0.661478 0.212415 0.372653
Si Si8 0.957571 0.804702 0.395993
O O1 0.478569 0.500000 0.286175
O O2 0.418777 0.769643 0.249063
O O3 0.586843 0.766652 0.251105
O O4 0.434676 0.775272 0.346305
O O5 0.914042 0.500000 0.988824
O O6 0.806534 0.255053 0.046722
O O7 0.873345 0.226254 0.944943
O O8 0.000000 0.226547 0.000000
O O9 0.768612 0.277193 0.214613
O O10 0.748544 0.254041 0.317556
O O11 0.818726 0.000000 0.251437
O O12 0.675804 0.276736 0.144380
O O13 0.691446 0.000000 0.083755
O O14 0.698300 0.000000 0.191591
O O15 0.750000 0.750000 0.500000
O O16 0.666638 0.719852 0.429253
O O17 0.574690 0.770520 0.543101
O O18 0.666658 0.000000 0.474812
O O19 0.568868 0.296938 0.370968
O O20 0.650381 0.000000 0.373460
O O21 0.918896 0.000000 0.404905
#
# Coordination Sequence:
#
# PCOD9198301 Si02
#       8
#     8   8   8   8   8   8   8   8
#     4  10  21  37  56  79 108 144 184 225 271 331
#     4   9  18  34  55  79 112 152 184 218 272 326
#     4   9  18  35  57  76 103 143 180 217 274 333
#     4   9  19  34  53  81 112 143 186 231 268 316
#     4  10  20  36  57  80 109 144 184 231 274 318
#     4  11  23  37  55  79 106 138 178 225 276 336
#     4  10  20  37  58  77 102 140 182 219 272 343
#     4  11  22  36  55  79 108 138 177 228 278 329
#
# _framework density 22.097135999999999
#
# number of rings (size 3 to 8) (size 9 to 14) (size 15 to 20)
#    0.000    2.125    1.250    1.875    0.000    6.750 
#    0.000    1.250    0.000    0.000    0.000    0.000 
#    0.000    0.000    0.000    0.000    0.000    0.000 
#
# Total GULP energy -178486.053377 kJ/mol
# GULP energy per Si atom -5577.689168 kJ/mol
# Density = 2.204684 g / cm^3
# Si number density = 22.097136 Si / 1000 Ang^3
#
#
#
# Elastic Constant Matrix: (Units=GPa)
#
#
# Indices 1 2 3 4 5 6 
#
# 1 93.1983 -5.8503 29.0570 0.0000 36.4000 0.0000
# 2 -5.8503 33.4539 5.4416 0.0000 6.2064 0.0000
# 3 29.0570 5.4416 126.2415 0.0000 37.6317 0.0000
# 4 0.0000 0.0000 0.0000 9.9565 0.0000 -8.6561
# 5 36.4000 6.2064 37.6317 0.0000 31.6872 0.0000
# 6 0.0000 0.0000 0.0000 -8.6561 0.0000 18.4986
#
#
#
# Elastic Compliance Matrix: (Units=1/GPa)
#
#
# Indices 1 2 3 4 5 6 
#
# 1 0.023034 0.009527 0.004228 0.000000 -0.033347 0.000000
# 2 0.009527 0.035003 0.002484 0.000000 -0.020749 0.000000
# 3 0.004228 0.002484 0.013056 0.000000 -0.020849 0.000000
# 4 0.000000 0.000000 0.000000 0.169320 0.000000 0.079231
# 5 -0.033347 -0.020749 -0.020849 0.000000 0.098689 0.000000
# 6 0.000000 0.000000 0.000000 0.079231 0.000000 0.091133
#
#
# Mechanical properties :
#
#
# Convention : Reuss Voigt Hill
#
# Bulk Modulus (GPa) = 9.65526 34.46557 22.06041
# Shear Modulus (GPa) = 11.56655 26.97816 19.27236
#
# Velocity S-wave (km/s) = 2.29037 3.49791 2.95645
# Velocity P-wave (km/s) = 3.37243 5.65199 4.65394
#
# Compressibility (1/GPa) = 0.10357051
#
# Stress axis : x y z
#
# Youngs Moduli (GPa) = 43.41461 28.56861 76.59365
#
# Poissons Ratio (x) = -0.27217 -0.32385
# Poissons Ratio (y) = -0.41361 -0.19023
# Poissons Ratio (z) = -0.18356 -0.07095
#
# Static dielectric constant tensor:
#      x y z
#    x 1.816210 0.000000 0.035030 
#    y 0.000000 1.861020 0.000000 
#    z 0.035030 0.000000 1.896780 
# 
# From -- ./inp_files/359820.got.cif
#   From: 2010.05.17/outbox.cif.g08.bks.cpg/sg12_180_cif.got.tgz:359820.got - 2010.06.03 13:09:07.
