data_PCOD9198814
_publ_section_title
;
Structure prediction by ZEFSAII (Michael W. Deem and Ramdas Pophale) SiO2 
 PCOD9198814
Probable space group: C 2/M
;
_chemical_formula_sum "Si O2"
_cell_formula_units_Z 56
_cell_length_a 15.948824
_cell_length_b 23.465580
_cell_length_c 9.743156
_cell_angle_alpha 90.000000
_cell_angle_beta 53.803778
_cell_angle_gamma 90.000000
_cell_volume 2942.610282
_symmetry_space_group_name_H-M "C 2/M"
_symmetry_group_IT_number 12
_symmetry_cell_setting 'monoclinic'
loop_
_space_group_symop_operation_xyz
x,y,z
-x,y,-z
-x,-y,-z
x,-y,z
1/2+x,1/2+y,z
1/2-x,1/2+y,-z
1/2-x,1/2-y,-z
1/2+x,1/2-y,z
loop_
_atom_site_type_symbol
_atom_site_label
_atom_site_fract_x
_atom_site_fract_y
_atom_site_fract_z
Si Si1 0.089869 0.380636 0.230057
Si Si2 0.759813 0.066073 0.257275
Si Si3 0.602669 0.651216 0.310864
Si Si4 0.793507 0.568065 0.141855
Si Si5 0.373843 0.067222 0.370148
Si Si6 0.201541 0.267271 0.192843
Si Si7 0.397337 0.662282 0.018642
O O1 0.155379 0.418469 0.273881
O O2 0.115288 0.315741 0.247724
O O3 0.969851 0.396013 0.332246
O O4 0.142111 0.397795 0.035030
O O5 0.729400 0.080285 0.442850
O O6 0.854827 0.100798 0.104306
O O7 0.780802 0.000000 0.225423
O O8 0.500000 0.642844 0.500000
O O9 0.681579 0.598540 0.252590
O O10 0.657559 0.710591 0.303574
O O11 0.585700 0.660578 0.162609
O O12 0.787984 0.500000 0.116561
O O13 0.850359 0.574732 0.232881
O O14 0.398856 0.000000 0.368531
O O15 0.301678 0.297783 0.160286
O O16 0.250000 0.250000 0.000000
O O17 0.500000 0.678084 0.000000
#
# Coordination Sequence:
#
# PCOD9198814 Si02
#       7
#     8   8   8   8   8   8   8
#     4  11  19  36  66  84 119 163 202 246 307 360
#     4  10  20  36  58  85 124 162 198 248 302 356
#     4  11  24  43  64  87 123 160 202 249 303 358
#     4  11  22  39  60  90 128 162 201 251 300 358
#     4  10  22  35  55  94 130 154 200 253 298 365
#     4   9  19  42  59  84 118 153 196 247 298 357
#     4  10  22  40  63  86 118 154 201 256 293 357
#
# _framework density 19.030722000000001
#
# number of rings (size 3 to 8) (size 9 to 14) (size 15 to 20)
#    0.000    1.714    4.286    2.143    2.000    5.143 
#    5.143    0.714    0.000    0.000    0.000    0.000 
#    0.000    0.000    0.000    0.000    0.000    0.000 
#
# Total GULP energy -156185.690866 kJ/mol
# GULP energy per Si atom -5578.060388 kJ/mol
# Density = 1.898741 g / cm^3
# Si number density = 19.030722 Si / 1000 Ang^3
#
#
#
# Elastic Constant Matrix: (Units=GPa)
#
#
# Indices 1 2 3 4 5 6 
#
# 1 56.5108 10.6209 -8.0934 0.0000 3.5235 0.0000
# 2 10.6209 64.9679 8.3780 0.0000 -7.6194 0.0000
# 3 -8.0934 8.3780 65.5063 0.0000 -4.6240 0.0000
# 4 0.0000 0.0000 0.0000 22.8345 0.0000 -4.6330
# 5 3.5235 -7.6194 -4.6240 0.0000 22.8100 0.0000
# 6 0.0000 0.0000 0.0000 -4.6330 0.0000 -0.1476
#
#
#
# Elastic Compliance Matrix: (Units=1/GPa)
#
#
# Indices 1 2 3 4 5 6 
#
# 1 0.019026 -0.003879 0.002585 0.000000 -0.003711 0.000000
# 2 -0.003879 0.016998 -0.002242 0.000000 0.005823 0.000000
# 3 0.002585 -0.002242 0.016020 0.000000 0.002099 0.000000
# 4 0.000000 0.000000 0.000000 0.005942 0.000000 -0.186559
# 5 -0.003711 0.005823 0.002099 0.000000 0.046784 0.000000
# 6 0.000000 0.000000 0.000000 -0.186559 0.000000 -0.919498
#
#
# Mechanical properties :
#
#
# Convention : Reuss Voigt Hill
#
# Bulk Modulus (GPa) = 22.23598 23.19955 22.71776
# Shear Modulus (GPa) = -6.30785 20.83803 7.26509
#
# Velocity S-wave (km/s) = -1.82257 3.31262 1.95598
# Velocity P-wave (km/s) = 2.69826 5.18154 4.13092
#
# Compressibility (1/GPa) = 0.04497216
#
# Stress axis : x y z
#
# Youngs Moduli (GPa) = 52.55872 58.82915 62.42186
#
# Poissons Ratio (x) = 0.22819 -0.16135
# Poissons Ratio (y) = 0.20387 0.13997
# Poissons Ratio (z) = -0.13586 0.13191
#
# Static dielectric constant tensor:
#      x y z
#    x 1.653420 0.000000 0.003930 
#    y 0.000000 1.711120 0.000000 
#    z 0.003930 0.000000 1.681110 
# 
# From -- ./inp_files/65737.got.cif
#   From: 2010.05.17/outbox.cif.g08.bks.cpg/sg12_33_cif.got.tgz:65737.got - 2010.06.03 13:09:07.
