data_PCOD9198476
_publ_section_title
;
Structure prediction by ZEFSAII (Michael W. Deem and Ramdas Pophale) SiO2 
 PCOD9198476
Probable space group: C 2/M
;
_chemical_formula_sum "Si O2"
_cell_formula_units_Z 48
_cell_length_a 25.670953
_cell_length_b 8.733149
_cell_length_c 12.707971
_cell_angle_alpha 90.000000
_cell_angle_beta 109.189759
_cell_angle_gamma 90.000000
_cell_volume 2690.674808
_symmetry_space_group_name_H-M "C 2/M"
_symmetry_group_IT_number 12
_symmetry_cell_setting 'monoclinic'
loop_
_space_group_symop_operation_xyz
x,y,z
-x,y,-z
-x,-y,-z
x,-y,z
1/2+x,1/2+y,z
1/2-x,1/2+y,-z
1/2-x,1/2-y,-z
1/2+x,1/2-y,z
loop_
_atom_site_type_symbol
_atom_site_label
_atom_site_fract_x
_atom_site_fract_y
_atom_site_fract_z
Si Si1 0.363143 0.683463 0.376426
Si Si2 0.749882 0.316017 0.381966
Si Si3 0.441100 0.684492 0.625693
Si Si4 0.440358 0.183568 0.253582
Si Si5 0.369364 0.315671 0.782106
Si Si6 0.941551 0.315415 0.010472
O O1 0.358581 0.500000 0.371599
O O2 0.303590 0.755353 0.358024
O O3 0.403126 0.724959 0.501026
O O4 0.392164 0.743872 0.290905
O O5 0.750962 0.500000 0.388560
O O6 0.750000 0.250000 0.500000
O O7 0.692907 0.269595 0.287537
O O8 0.447873 0.500000 0.630251
O O9 0.500728 0.761037 0.663123
O O10 0.408992 0.729642 0.711000
O O11 0.437383 0.000000 0.256791
O O12 0.437337 0.231647 0.129205
O O13 0.370828 0.500000 0.789255
O O14 0.393344 0.246910 0.904610
O O15 0.940882 0.500000 0.006795
O O16 0.000000 0.263444 0.000000
#
# Coordination Sequence:
#
# PCOD9198476 Si02
#       6
#     8   8   8   8   8   8
#     4  11  23  40  59  85 120 157 196 238 291 347
#     4  11  22  39  61  88 119 153 194 240 287 342
#     4  10  20  36  57  85 120 153 187 236 290 347
#     4  11  23  38  57  86 120 154 195 240 291 348
#     4  10  21  37  59  88 117 147 192 239 284 340
#     4  10  21  38  58  84 117 151 192 241 288 340
#
# _framework density 17.839392
#
# number of rings (size 3 to 8) (size 9 to 14) (size 15 to 20)
#    0.000    1.500    3.333    2.000    0.000    6.333 
#    0.000    0.833    0.000    0.000    0.000    0.000 
#    0.000    0.000    0.000    0.000    0.000    0.000 
#
# Total GULP energy -134122.193142 kJ/mol
# GULP energy per Si atom -5588.424714 kJ/mol
# Density = 1.779879 g / cm^3
# Si number density = 17.839392 Si / 1000 Ang^3
#
#
#
# Elastic Constant Matrix: (Units=GPa)
#
#
# Indices 1 2 3 4 5 6 
#
# 1 157.6689 35.8260 55.0046 0.0000 4.7004 0.0000
# 2 35.8260 27.9112 22.4365 0.0000 2.9871 0.0000
# 3 55.0046 22.4365 83.0407 0.0000 10.3065 0.0000
# 4 0.0000 0.0000 0.0000 31.1768 0.0000 1.3428
# 5 4.7004 2.9871 10.3065 0.0000 33.0112 0.0000
# 6 0.0000 0.0000 0.0000 1.3428 0.0000 33.3438
#
#
#
# Elastic Compliance Matrix: (Units=1/GPa)
#
#
# Indices 1 2 3 4 5 6 
#
# 1 0.009906 -0.009512 -0.004082 0.000000 0.000724 0.000000
# 2 -0.009512 0.054904 -0.008412 0.000000 -0.000988 0.000000
# 3 -0.004082 -0.008412 0.017531 0.000000 -0.004131 0.000000
# 4 0.000000 0.000000 0.000000 0.032131 0.000000 -0.001294
# 5 0.000724 -0.000988 -0.004131 0.000000 0.031569 0.000000
# 6 0.000000 0.000000 0.000000 -0.001294 0.000000 0.030043
#
#
# Mechanical properties :
#
#
# Convention : Reuss Voigt Hill
#
# Bulk Modulus (GPa) = 26.08789 55.01723 40.55256
# Shear Modulus (GPa) = 21.47121 29.86327 25.66724
#
# Velocity S-wave (km/s) = 3.47303 4.09590 3.79726
# Velocity P-wave (km/s) = 5.54420 7.29903 6.48128
#
# Compressibility (1/GPa) = 0.03833196
#
# Stress axis : x y z
#
# Youngs Moduli (GPa) = 100.94954 18.21362 57.04103
#
# Poissons Ratio (x) = 0.17324 0.23281
# Poissons Ratio (y) = 0.96019 0.47980
# Poissons Ratio (z) = 0.41203 0.15320
#
# Static dielectric constant tensor:
#      x y z
#    x 1.587090 0.000000 -0.005670 
#    y 0.000000 1.601040 0.000000 
#    z -0.005670 0.000000 1.589700 
# 
# From -- ./inp_files/172438.got.cif
#   From: 2010.05.17/outbox.cif.g08.bks.cpg/sg12_87_cif.got.tgz:172438.got - 2010.06.03 13:09:07.
