data_PCOD9198422
_publ_section_title
;
Structure prediction by ZEFSAII (Michael W. Deem and Ramdas Pophale) SiO2 
 PCOD9198422
Probable space group: C 2/M
;
_chemical_formula_sum "Si O2"
_cell_formula_units_Z 64
_cell_length_a 19.359874
_cell_length_b 8.254051
_cell_length_c 33.285252
_cell_angle_alpha 90.000000
_cell_angle_beta 142.399528
_cell_angle_gamma 90.000000
_cell_volume 3245.333574
_symmetry_space_group_name_H-M "C 2/M"
_symmetry_group_IT_number 12
_symmetry_cell_setting 'monoclinic'
loop_
_space_group_symop_operation_xyz
x,y,z
-x,y,-z
-x,-y,-z
x,-y,z
1/2+x,1/2+y,z
1/2-x,1/2+y,-z
1/2-x,1/2-y,-z
1/2+x,1/2-y,z
loop_
_atom_site_type_symbol
_atom_site_label
_atom_site_fract_x
_atom_site_fract_y
_atom_site_fract_z
Si Si1 0.981710 0.803794 0.780165
Si Si2 0.960450 0.688647 0.418755
Si Si3 0.287973 0.688197 0.473817
Si Si4 0.340258 0.312504 0.286800
Si Si5 0.336905 0.191968 0.199048
Si Si6 0.582466 0.304049 0.163197
Si Si7 0.753931 0.192894 0.631084
Si Si8 0.423586 0.697088 0.928277
O O1 0.987520 0.759036 0.829688
O O2 0.860650 0.748497 0.706214
O O3 0.080735 0.730756 0.799327
O O4 0.985950 0.000000 0.779051
O O5 0.985533 0.500000 0.439531
O O6 0.902151 0.704552 0.348372
O O7 0.866563 0.753298 0.406984
O O8 0.078464 0.780876 0.470800
O O9 0.261791 0.500000 0.459820
O O10 0.250000 0.750000 0.500000
O O11 0.230967 0.770913 0.408841
O O12 0.358477 0.500000 0.305338
O O13 0.378570 0.277115 0.259007
O O14 0.207446 0.269409 0.225684
O O15 0.208299 0.245403 0.130101
O O16 0.333256 0.000000 0.205403
O O17 0.595279 0.500000 0.169236
O O18 0.536687 0.256336 0.098299
O O19 0.749097 0.000000 0.634650
O O20 0.425889 0.500000 0.931068
O O21 0.500000 0.758292 0.000000
#
# Coordination Sequence:
#
# PCOD9198422 Si02
#       8
#     8   8   8   8   8   8   8   8
#     4  10  20  36  57  83 116 151 190 236 286 340
#     4  11  22  41  65  86 113 149 191 234 286 347
#     4  12  27  44  61  85 117 151 192 240 290 343
#     4  11  21  34  56  85 114 146 187 235 283 337
#     4  10  21  35  54  81 116 152 191 236 286 338
#     4   9  17  34  57  83 114 150 190 230 277 336
#     4  10  22  41  63  84 112 151 192 234 287 346
#     4   8  15  31  57  84 111 150 198 238 274 329
#
# _framework density 19.720621999999999
#
# number of rings (size 3 to 8) (size 9 to 14) (size 15 to 20)
#    0.000    1.875    1.250    4.125    1.750    3.500 
#    0.000    0.625    0.000    9.375    0.000    0.000 
#    0.000    0.000    0.000    0.000    0.000    0.000 
#
# Total GULP energy -178710.255179 kJ/mol
# GULP energy per Si atom -5584.695474 kJ/mol
# Density = 1.967574 g / cm^3
# Si number density = 19.720622 Si / 1000 Ang^3
#
#
#
# Elastic Constant Matrix: (Units=GPa)
#
#
# Indices 1 2 3 4 5 6 
#
# 1 138.0334 3.9079 34.6332 0.0000 -21.0871 0.0002
# 2 3.9079 13.7657 -8.3411 0.0000 2.5562 0.0002
# 3 34.6332 -8.3411 76.9569 0.0000 -25.1447 0.0000
# 4 0.0000 0.0000 0.0000 9.0908 0.0000 2.4672
# 5 -21.0871 2.5562 -25.1447 0.0000 25.1862 -0.0001
# 6 0.0002 0.0002 0.0000 2.4672 -0.0001 28.0216
#
#
#
# Elastic Compliance Matrix: (Units=1/GPa)
#
#
# Indices 1 2 3 4 5 6 
#
# 1 0.008899 -0.005234 -0.002915 0.000000 0.005072 0.000000
# 2 -0.005234 0.080840 0.010396 0.000000 -0.002208 0.000000
# 3 -0.002915 0.010396 0.021209 0.000000 0.017678 0.000000
# 4 0.000000 0.000000 0.000000 0.112694 0.000000 -0.009922
# 5 0.005072 -0.002208 0.017678 0.000000 0.061824 0.000000
# 6 0.000000 0.000000 0.000000 -0.009922 0.000000 0.036560
#
#
# Mechanical properties :
#
#
# Convention : Reuss Voigt Hill
#
# Bulk Modulus (GPa) = 8.66241 32.12843 20.39542
# Shear Modulus (GPa) = 14.04441 25.69678 19.87059
#
# Velocity S-wave (km/s) = 2.67154 3.61368 3.17772
# Velocity P-wave (km/s) = 3.73072 5.80851 4.88145
#
# Compressibility (1/GPa) = 0.11544134
#
# Stress axis : x y z
#
# Youngs Moduli (GPa) = 112.37198 12.37015 47.14928
#
# Poissons Ratio (x) = 0.06475 0.13745
# Poissons Ratio (y) = 0.58821 -0.49017
# Poissons Ratio (z) = 0.32758 -0.12860
#
# Static dielectric constant tensor:
#      x y z
#    x 1.740340 0.000000 -0.038010 
#    y 0.000000 1.684690 0.000000 
#    z -0.038010 0.000000 1.695270 
# 
# From -- ./inp_files/378540.got.cif
#   From: 2010.05.17/outbox.cif.g08.bks.cpg/sg12_190_cif.got.tgz:378540.got - 2010.06.03 13:09:07.
