data_PCOD9198760
_publ_section_title
;
Structure prediction by ZEFSAII (Michael W. Deem and Ramdas Pophale) SiO2 
 PCOD9198760
Probable space group: C 2/M
;
_chemical_formula_sum "Si O2"
_cell_formula_units_Z 34
_cell_length_a 10.323840
_cell_length_b 23.935396
_cell_length_c 7.108056
_cell_angle_alpha 90.000000
_cell_angle_beta 47.243584
_cell_angle_gamma 90.000000
_cell_volume 1289.658140
_symmetry_space_group_name_H-M "C 2/M"
_symmetry_group_IT_number 12
_symmetry_cell_setting 'monoclinic'
loop_
_space_group_symop_operation_xyz
x,y,z
-x,y,-z
-x,-y,-z
x,-y,z
1/2+x,1/2+y,z
1/2-x,1/2+y,-z
1/2-x,1/2-y,-z
1/2+x,1/2-y,z
loop_
_atom_site_type_symbol
_atom_site_label
_atom_site_fract_x
_atom_site_fract_y
_atom_site_fract_z
Si Si1 0.801246 0.420991 0.181340
Si Si2 0.703357 0.304051 0.269310
Si Si3 0.789286 0.938628 0.171799
Si Si4 0.000000 0.000000 0.500000
Si Si5 0.709950 0.317852 0.820350
O O1 0.805130 0.357090 0.247779
O O2 0.640414 0.452249 0.439711
O O3 0.743271 0.432913 0.021218
O O4 0.000000 0.441641 0.000000
O O5 0.500000 0.317321 0.500000
O O6 0.747592 0.309353 0.004623
O O7 0.730823 0.241740 0.318129
O O8 0.718314 0.000000 0.298715
O O9 0.719649 0.878481 0.312819
O O10 0.000000 0.939898 0.000000
O O11 0.500000 0.319722 0.000000
#
# Coordination Sequence:
#
# PCOD9198760 Si02
#       5
#     8   8   8   2   8
#     4  11  22  38  63  91 119 152 197 248 296 355
#     4  10  20  36  58  84 115 155 199 248 302 355
#     4   9  18  35  61  80 113 160 196 235 300 349
#     4  12  22  36  58  96 122 154 186 246 300 366
#     4   9  19  35  55  81 115 153 199 248 298 352
#
# _framework density 26.363574
#
# number of rings (size 3 to 8) (size 9 to 14) (size 15 to 20)
#    0.000    2.118    2.353    1.059    0.000    0.941 
#    0.000    0.000    0.000    2.118    0.000    0.000 
#    0.000    0.000    0.000    0.000    0.000    0.000 
#
# Total GULP energy -94653.349943 kJ/mol
# GULP energy per Si atom -5567.844114 kJ/mol
# Density = 2.630357 g / cm^3
# Si number density = 26.363574 Si / 1000 Ang^3
#
#
#
# Elastic Constant Matrix: (Units=GPa)
#
#
# Indices 1 2 3 4 5 6 
#
# 1 127.1445 16.8557 23.4721 0.0000 10.7208 0.0000
# 2 16.8557 322.0880 43.9803 0.0000 -12.0866 0.0000
# 3 23.4721 43.9803 92.6307 0.0000 -33.9240 0.0000
# 4 0.0000 0.0000 0.0000 -70.5013 0.0000 -32.6337
# 5 10.7208 -12.0866 -33.9240 0.0000 49.5594 0.0000
# 6 0.0000 0.0000 0.0000 -32.6337 0.0000 8.1922
#
#
#
# Elastic Compliance Matrix: (Units=1/GPa)
#
#
# Indices 1 2 3 4 5 6 
#
# 1 0.009001 -0.000108 -0.003940 0.000000 -0.004670 0.000000
# 2 -0.000108 0.003326 -0.001663 0.000000 -0.000304 0.000000
# 3 -0.003940 -0.001663 0.017012 0.000000 0.012091 0.000000
# 4 0.000000 0.000000 0.000000 -0.004988 0.000000 -0.019868
# 5 -0.004670 -0.000304 0.012091 0.000000 0.029391 0.000000
# 6 0.000000 0.000000 0.000000 -0.019868 0.000000 0.042923
#
#
# Mechanical properties :
#
#
# Convention : Reuss Voigt Hill
#
# Bulk Modulus (GPa) = 55.81487 78.94215 67.37851
# Shear Modulus (GPa) = 43.83739 27.95372 35.89555
#
# Velocity S-wave (km/s) = 4.08217 3.25978 3.69393
# Velocity P-wave (km/s) = 6.59060 6.64657 6.61864
#
# Compressibility (1/GPa) = 0.01791637
#
# Stress axis : x y z
#
# Youngs Moduli (GPa) = 111.10490 300.65339 58.78354
#
# Poissons Ratio (x) = 0.03257 0.23158
# Poissons Ratio (y) = 0.01204 0.09776
# Poissons Ratio (z) = 0.43771 0.49998
#
# Static dielectric constant tensor:
#      x y z
#    x 2.109960 0.000000 0.107270 
#    y 0.000000 2.205880 0.000000 
#    z 0.107270 0.000000 2.043010 
# 
# From -- ./inp_files/7052.got.cif
#   From: 2010.05.17/outbox.cif.g08.bks.cpg/sg12_4_cif.got.tgz:7052.got - 2010.06.03 13:09:07.
