data_PCOD9198320
_publ_section_title
;
Structure prediction by ZEFSAII (Michael W. Deem and Ramdas Pophale) SiO2 
 PCOD9198320
Probable space group: C 2/M
;
_chemical_formula_sum "Si O2"
_cell_formula_units_Z 56
_cell_length_a 18.417967
_cell_length_b 8.646291
_cell_length_c 29.660826
_cell_angle_alpha 90.000000
_cell_angle_beta 140.689330
_cell_angle_gamma 90.000000
_cell_volume 2992.392225
_symmetry_space_group_name_H-M "C 2/M"
_symmetry_group_IT_number 12
_symmetry_cell_setting 'monoclinic'
loop_
_space_group_symop_operation_xyz
x,y,z
-x,y,-z
-x,-y,-z
x,-y,z
1/2+x,1/2+y,z
1/2-x,1/2+y,-z
1/2-x,1/2-y,-z
1/2+x,1/2-y,z
loop_
_atom_site_type_symbol
_atom_site_label
_atom_site_fract_x
_atom_site_fract_y
_atom_site_fract_z
Si Si1 0.171449 0.314548 0.002874
Si Si2 0.205119 0.816174 0.431164
Si Si3 0.633629 0.313725 0.569159
Si Si4 0.714023 0.687206 0.708378
Si Si5 0.645285 0.186466 0.848806
Si Si6 0.451678 0.185601 0.294642
Si Si7 0.525998 0.812135 0.152902
O O1 0.177083 0.500000 0.006093
O O2 0.231641 0.250368 0.076389
O O3 0.250000 0.250000 0.000000
O O4 0.043633 0.268108 0.925809
O O5 0.250000 0.750000 0.500000
O O6 0.290802 0.764326 0.432905
O O7 0.079103 0.751306 0.360299
O O8 0.200255 0.000000 0.431719
O O9 0.500000 0.273206 0.500000
O O10 0.643731 0.500000 0.569081
O O11 0.678836 0.272069 0.640519
O O12 0.710303 0.500000 0.709912
O O13 0.625596 0.756566 0.701362
O O14 0.843614 0.740635 0.780992
O O15 0.605339 0.234835 0.780161
O O16 0.550188 0.236169 0.840368
O O17 0.650144 0.000000 0.852727
O O18 0.457691 0.000000 0.297701
O O19 0.528333 0.000000 0.155254
#
# Coordination Sequence:
#
# PCOD9198320 Si02
#       7
#     8   8   8   8   8   8   8
#     4   9  16  28  49  77 107 140 182 231 281 336
#     4  12  25  41  63  89 117 149 187 229 274 328
#     4  10  21  38  61  88 117 150 186 226 277 332
#     4  10  20  36  57  80 112 152 190 230 280 338
#     4   9  18  34  55  78 106 143 185 230 282 335
#     4  11  23  39  58  82 115 150 187 233 282 333
#     4   8  15  30  52  76 103 141 186 227 275 334
#
# _framework density 18.714123000000001
#
# number of rings (size 3 to 8) (size 9 to 14) (size 15 to 20)
#    0.000    2.143    0.000    4.714    0.000    5.429 
#    0.000    4.286    0.000    4.286    0.000    0.000 
#    0.000    0.000    0.000    0.000    0.000    0.000 
#
# Total GULP energy -156301.110969 kJ/mol
# GULP energy per Si atom -5582.182535 kJ/mol
# Density = 1.867153 g / cm^3
# Si number density = 18.714123 Si / 1000 Ang^3
#
#
#
# Elastic Constant Matrix: (Units=GPa)
#
#
# Indices 1 2 3 4 5 6 
#
# 1 124.8508 43.7748 96.3166 0.0000 -1.2165 0.0000
# 2 43.7748 39.5614 58.3947 0.0000 -3.5855 0.0001
# 3 96.3166 58.3947 219.9364 0.0000 0.2321 0.0000
# 4 0.0000 0.0000 0.0000 27.5113 0.0000 -0.0300
# 5 -1.2165 -3.5855 0.2321 0.0000 32.3591 0.0000
# 6 0.0000 0.0001 0.0000 -0.0300 0.0000 28.3899
#
#
#
# Elastic Compliance Matrix: (Units=1/GPa)
#
#
# Indices 1 2 3 4 5 6 
#
# 1 0.014528 -0.011092 -0.003417 0.000000 -0.000658 0.000000
# 2 -0.011092 0.050759 -0.008625 0.000000 0.005269 0.000000
# 3 -0.003417 -0.008625 0.008334 0.000000 -0.001144 0.000000
# 4 0.000000 0.000000 0.000000 0.036349 0.000000 0.000038
# 5 -0.000658 0.005269 -0.001144 0.000000 0.031470 0.000000
# 6 0.000000 0.000000 0.000000 0.000038 0.000000 0.035224
#
#
# Mechanical properties :
#
#
# Convention : Reuss Voigt Hill
#
# Bulk Modulus (GPa) = 36.55746 86.81340 61.68543
# Shear Modulus (GPa) = 21.54727 30.04291 25.79509
#
# Velocity S-wave (km/s) = 3.39690 4.01104 3.71668
# Velocity P-wave (km/s) = 5.91289 8.24265 7.17299
#
# Compressibility (1/GPa) = 0.02735420
#
# Stress axis : x y z
#
# Youngs Moduli (GPa) = 68.83369 19.70107 119.98828
#
# Poissons Ratio (x) = 0.21852 0.40994
# Poissons Ratio (y) = 0.76349 1.03489
# Poissons Ratio (z) = 0.23517 0.16992
#
# Static dielectric constant tensor:
#      x y z
#    x 1.619480 0.000000 -0.002630 
#    y 0.000000 1.637930 0.000000 
#    z -0.002630 0.000000 1.667490 
# 
# From -- ./inp_files/363214.got.cif
#   From: 2010.05.17/outbox.cif.g08.bks.cpg/sg12_182_cif.got.tgz:363214.got - 2010.06.03 13:09:07.
