data_PCOD9198763
_publ_section_title
;
Structure prediction by ZEFSAII (Michael W. Deem and Ramdas Pophale) SiO2 
 PCOD9198763
Probable space group: C 2/M
;
_chemical_formula_sum "Si O2"
_cell_formula_units_Z 56
_cell_length_a 28.737688
_cell_length_b 12.820956
_cell_length_c 7.434339
_cell_angle_alpha 90.000000
_cell_angle_beta 54.964529
_cell_angle_gamma 90.000000
_cell_volume 2242.800941
_symmetry_space_group_name_H-M "C 2/M"
_symmetry_group_IT_number 12
_symmetry_cell_setting 'monoclinic'
loop_
_space_group_symop_operation_xyz
x,y,z
-x,y,-z
-x,-y,-z
x,-y,z
1/2+x,1/2+y,z
1/2-x,1/2+y,-z
1/2-x,1/2-y,-z
1/2+x,1/2-y,z
loop_
_atom_site_type_symbol
_atom_site_label
_atom_site_fract_x
_atom_site_fract_y
_atom_site_fract_z
Si Si1 0.046150 0.668416 0.548752
Si Si2 0.005926 0.882607 0.767359
Si Si3 0.664585 0.881940 0.100204
Si Si4 0.418797 0.889620 0.169252
Si Si5 0.109288 0.205187 0.998514
Si Si6 0.295538 0.164910 0.615050
Si Si7 0.699180 0.386297 0.543452
O O1 0.103596 0.626135 0.333526
O O2 0.039890 0.612708 0.753053
O O3 0.000000 0.651315 0.500000
O O4 0.046614 0.790705 0.604759
O O5 0.025374 0.000000 0.685422
O O6 0.943539 0.863022 0.813411
O O7 0.000000 0.875466 0.000000
O O8 0.707771 0.869464 0.171191
O O9 0.672179 0.000000 0.005711
O O10 0.657249 0.776917 0.993841
O O11 0.426410 0.796059 0.018339
O O12 0.355889 0.870484 0.395275
O O13 0.419256 0.000000 0.075222
O O14 0.141989 0.135542 0.781763
O O15 0.293482 0.290402 0.607472
O O16 0.248464 0.121647 0.584169
O O17 0.698973 0.500000 0.459742
#
# Coordination Sequence:
#
# PCOD9198763 Si02
#       7
#     8   8   8   8   8   8   8
#     4  11  21  38  58  84 113 145 196 236 279 349
#     4  11  23  42  60  78 114 158 191 240 294 338
#     4  11  23  40  60  85 122 155 187 241 298 342
#     4  10  20  36  58  84 116 151 189 236 288 343
#     4  11  22  39  57  87 116 151 202 235 280 352
#     4   9  20  38  61  88 119 150 195 237 290 354
#     4  10  20  38  64  88 117 155 193 242 288 337
#
# _framework density 24.968779000000001
#
# number of rings (size 3 to 8) (size 9 to 14) (size 15 to 20)
#    0.000    1.571    2.857    3.429    0.000    2.000 
#    0.000    2.857    0.000    0.000    0.000    0.000 
#    0.000    0.000    0.000    0.000    0.000    0.000 
#
# Total GULP energy -156488.623239 kJ/mol
# GULP energy per Si atom -5588.879401 kJ/mol
# Density = 2.491195 g / cm^3
# Si number density = 24.968779 Si / 1000 Ang^3
#
#
#
# Elastic Constant Matrix: (Units=GPa)
#
#
# Indices 1 2 3 4 5 6 
#
# 1 90.4827 13.8100 3.8497 0.0000 11.1277 0.0000
# 2 13.8100 184.4870 1.0492 0.0000 -1.4297 0.0000
# 3 3.8497 1.0492 39.8334 0.0000 2.2928 0.0000
# 4 0.0000 0.0000 0.0000 6.2921 0.0000 -0.5386
# 5 11.1277 -1.4297 2.2928 0.0000 38.0188 0.0000
# 6 0.0000 0.0000 0.0000 -0.5386 0.0000 1.2484
#
#
#
# Elastic Compliance Matrix: (Units=1/GPa)
#
#
# Indices 1 2 3 4 5 6 
#
# 1 0.011643 -0.000893 -0.000907 0.000000 -0.003387 0.000000
# 2 -0.000893 0.005491 -0.000086 0.000000 0.000473 0.000000
# 3 -0.000907 -0.000086 0.025267 0.000000 -0.001262 0.000000
# 4 0.000000 0.000000 0.000000 0.165023 0.000000 0.071188
# 5 -0.003387 0.000473 -0.001262 0.000000 0.027388 0.000000
# 6 0.000000 0.000000 0.000000 0.071188 0.000000 0.831716
#
#
# Mechanical properties :
#
#
# Convention : Reuss Voigt Hill
#
# Bulk Modulus (GPa) = 25.88557 39.13567 32.51062
# Shear Modulus (GPa) = 4.61606 28.85148 16.73377
#
# Velocity S-wave (km/s) = 1.36116 3.40296 2.59161
# Velocity P-wave (km/s) = 3.58609 5.58104 4.69084
#
# Compressibility (1/GPa) = 0.03863156
#
# Stress axis : x y z
#
# Youngs Moduli (GPa) = 85.88737 182.10267 39.57718
#
# Poissons Ratio (x) = 0.16255 0.03589
# Poissons Ratio (y) = 0.07667 0.00339
# Poissons Ratio (z) = 0.07788 0.01559
#
# Static dielectric constant tensor:
#      x y z
#    x 2.023600 0.000000 -0.002140 
#    y 0.000000 1.945710 0.000000 
#    z -0.002140 0.000000 2.004760 
# 
# From -- ./inp_files/110336.got.cif
#   From: 2010.05.17/outbox.cif.g08.bks.cpg/sg12_56_cif.got.tgz:110336.got - 2010.06.03 13:09:07.
