data_PCOD9198712
_publ_section_title
;
Structure prediction by ZEFSAII (Michael W. Deem and Ramdas Pophale) SiO2 
 PCOD9198712
Probable space group: C 2/M
;
_chemical_formula_sum "Si O2"
_cell_formula_units_Z 56
_cell_length_a 20.439313
_cell_length_b 8.669447
_cell_length_c 18.186872
_cell_angle_alpha 90.000000
_cell_angle_beta 49.524543
_cell_angle_gamma 90.000000
_cell_volume 2451.433033
_symmetry_space_group_name_H-M "C 2/M"
_symmetry_group_IT_number 12
_symmetry_cell_setting 'monoclinic'
loop_
_space_group_symop_operation_xyz
x,y,z
-x,y,-z
-x,-y,-z
x,-y,z
1/2+x,1/2+y,z
1/2-x,1/2+y,-z
1/2-x,1/2-y,-z
1/2+x,1/2-y,z
loop_
_atom_site_type_symbol
_atom_site_label
_atom_site_fract_x
_atom_site_fract_y
_atom_site_fract_z
Si Si1 0.212943 0.831459 0.333088
Si Si2 0.123337 0.324040 0.894633
Si Si3 0.744559 0.316331 0.922156
Si Si4 0.055042 0.324857 0.385932
Si Si5 0.459411 0.814661 0.191663
Si Si6 0.071213 0.183865 0.233401
Si Si7 0.205176 0.823019 0.603396
O O1 0.292514 0.830070 0.219462
O O2 0.127055 0.799890 0.352404
O O3 0.224961 0.696411 0.382806
O O4 0.211868 0.000000 0.370616
O O5 0.102123 0.500000 0.931945
O O6 0.160067 0.234253 0.937971
O O7 0.053539 0.266174 0.884895
O O8 0.748668 0.500000 0.920190
O O9 0.832453 0.247045 0.824587
O O10 0.750000 0.250000 0.000000
O O11 0.086828 0.500000 0.349629
O O12 0.014595 0.263163 0.339394
O O13 0.000000 0.329713 0.500000
O O14 0.537991 0.740586 0.178374
O O15 0.376670 0.764275 0.301223
O O16 0.464951 0.000000 0.187370
O O17 0.068317 0.000000 0.238999
O O18 0.250000 0.750000 0.500000
O O19 0.181832 0.000000 0.607533
#
# Coordination Sequence:
#
# PCOD9198712 Si02
#       7
#     8   8   8   8   8   8   8
#     4  10  20  36  58  83 116 158 207 259 314 371
#     4   9  19  39  65  93 125 161 204 255 313 376
#     4  12  25  43  71 101 132 167 211 262 320 387
#     4  11  24  39  58  86 123 168 217 265 319 379
#     4  10  22  41  64  90 125 167 211 261 323 382
#     4  12  25  43  66  95 133 170 215 269 325 386
#     4  11  22  36  55  81 117 161 214 266 315 374
#
# _framework density 22.843781
#
# number of rings (size 3 to 8) (size 9 to 14) (size 15 to 20)
#    0.000    1.286    1.429    6.000    2.000    4.000 
#    0.000    0.714    0.000    4.286    0.000    0.000 
#    0.000    0.000    0.000    0.000    0.000    0.000 
#
# Total GULP energy -156420.282514 kJ/mol
# GULP energy per Si atom -5586.438661 kJ/mol
# Density = 2.279179 g / cm^3
# Si number density = 22.843781 Si / 1000 Ang^3
#
#
#
# Elastic Constant Matrix: (Units=GPa)
#
#
# Indices 1 2 3 4 5 6 
#
# 1 125.8919 35.7910 24.3972 -0.0001 28.6154 0.0001
# 2 35.7910 135.4483 34.1861 0.0000 14.7738 -0.0001
# 3 24.3972 34.1861 92.9902 -0.0001 26.2876 0.0001
# 4 -0.0001 0.0000 -0.0001 25.4620 0.0000 8.6532
# 5 28.6154 14.7738 26.2876 0.0000 33.2490 0.0000
# 6 0.0001 -0.0001 0.0001 8.6532 0.0000 35.1967
#
#
#
# Elastic Compliance Matrix: (Units=1/GPa)
#
#
# Indices 1 2 3 4 5 6 
#
# 1 0.010303 -0.001904 0.000341 0.000000 -0.008290 0.000000
# 2 -0.001904 0.008557 -0.002620 0.000000 -0.000092 0.000000
# 3 0.000341 -0.002620 0.014658 0.000000 -0.010717 0.000000
# 4 0.000000 0.000000 0.000000 0.042855 0.000000 -0.010536
# 5 -0.008290 -0.000092 -0.010717 0.000000 0.045725 0.000000
# 6 0.000000 0.000000 0.000000 -0.010536 0.000000 0.031002
#
#
# Mechanical properties :
#
#
# Convention : Reuss Voigt Hill
#
# Bulk Modulus (GPa) = 39.76162 60.34212 50.05187
# Shear Modulus (GPa) = 29.43739 36.11192 32.77465
#
# Velocity S-wave (km/s) = 3.59366 3.98027 3.79189
# Velocity P-wave (km/s) = 5.88751 6.89897 6.41322
#
# Compressibility (1/GPa) = 0.02514988
#
# Stress axis : x y z
#
# Youngs Moduli (GPa) = 97.05807 116.85730 68.22410
#
# Poissons Ratio (x) = 0.22252 -0.02323
# Poissons Ratio (y) = 0.18482 0.17878
# Poissons Ratio (z) = -0.03305 0.30622
#
# Static dielectric constant tensor:
#      x y z
#    x 1.916380 0.000000 0.018060 
#    y 0.000000 1.783810 0.000000 
#    z 0.018060 0.000000 1.900520 
# 
# From -- ./inp_files/280973.got.cif
#   From: 2010.05.17/outbox.cif.g08.bks.cpg/sg12_141_cif.got.tgz:280973.got - 2010.06.03 13:09:07.
