data_PCOD9198443
_publ_section_title
;
Structure prediction by ZEFSAII (Michael W. Deem and Ramdas Pophale) SiO2 
 PCOD9198443
Probable space group: C 2/M
;
_chemical_formula_sum "Si O2"
_cell_formula_units_Z 48
_cell_length_a 11.745441
_cell_length_b 18.887541
_cell_length_c 11.911444
_cell_angle_alpha 90.000000
_cell_angle_beta 58.282040
_cell_angle_gamma 90.000000
_cell_volume 2247.802787
_symmetry_space_group_name_H-M "C 2/M"
_symmetry_group_IT_number 12
_symmetry_cell_setting 'monoclinic'
loop_
_space_group_symop_operation_xyz
x,y,z
-x,y,-z
-x,-y,-z
x,-y,z
1/2+x,1/2+y,z
1/2-x,1/2+y,-z
1/2-x,1/2-y,-z
1/2+x,1/2-y,z
loop_
_atom_site_type_symbol
_atom_site_label
_atom_site_fract_x
_atom_site_fract_y
_atom_site_fract_z
Si Si1 0.438399 0.692281 0.852646
Si Si2 0.092963 0.421296 0.811098
Si Si3 0.831702 0.352340 0.907071
Si Si4 0.756773 0.833552 0.290999
Si Si5 0.261520 0.580735 0.515824
Si Si6 0.670124 0.324919 0.325384
O O1 0.395395 0.773981 0.892012
O O2 0.586006 0.676620 0.819141
O O3 0.434427 0.677717 0.721134
O O4 0.318461 0.647382 0.968486
O O5 0.131026 0.500000 0.829722
O O6 0.938018 0.405026 0.906841
O O7 0.124415 0.419741 0.660066
O O8 0.193699 0.359699 0.798367
O O9 0.817590 0.361832 0.780516
O O10 0.744977 0.882415 0.405629
O O11 0.700810 0.755050 0.345697
O O12 0.308516 0.500000 0.480248
O O13 0.352231 0.626245 0.554927
#
# Coordination Sequence:
#
# PCOD9198443 Si02
#       6
#     8   8   8   8   8   8
#     4  10  20  36  57  84 116 147 187 236 277 332
#     4   9  19  39  58  82 114 145 192 236 278 327
#     4  10  21  35  57  85 114 150 187 230 284 332
#     4  11  20  35  59  86 115 148 187 233 281 341
#     4   9  20  38  57  81 112 147 186 235 287 331
#     4   9  19  36  58  85 110 146 194 233 278 329
#
# _framework density 21.354185999999999
#
# number of rings (size 3 to 8) (size 9 to 14) (size 15 to 20)
#    1.000    1.333    1.667    1.000    0.000    2.667 
#    0.000   10.833    0.000    2.000    0.000    0.000 
#    0.000    0.000    0.000    0.000    0.000    0.000 
#
# Total GULP energy -133869.584135 kJ/mol
# GULP energy per Si atom -5577.899339 kJ/mol
# Density = 2.130558 g / cm^3
# Si number density = 21.354186 Si / 1000 Ang^3
#
#
#
# Elastic Constant Matrix: (Units=GPa)
#
#
# Indices 1 2 3 4 5 6 
#
# 1 68.8250 4.9079 -9.3901 0.0000 1.3313 0.0000
# 2 4.9079 70.9455 19.2769 0.0000 19.4378 0.0000
# 3 -9.3901 19.2769 59.4168 0.0000 -1.3828 0.0000
# 4 0.0000 0.0000 0.0000 28.0233 0.0000 -5.4200
# 5 1.3313 19.4378 -1.3828 0.0000 25.9478 0.0000
# 6 0.0000 0.0000 0.0000 -5.4200 0.0000 1.3610
#
#
#
# Elastic Compliance Matrix: (Units=1/GPa)
#
#
# Indices 1 2 3 4 5 6 
#
# 1 0.015089 -0.002167 0.003111 0.000000 0.001015 0.000000
# 2 -0.002167 0.020541 -0.007372 0.000000 -0.015669 0.000000
# 3 0.003111 -0.007372 0.019863 0.000000 0.006421 0.000000
# 4 0.000000 0.000000 0.000000 0.155285 0.000000 0.618379
# 5 0.001015 -0.015669 0.006421 0.000000 0.050567 0.000000
# 6 0.000000 0.000000 0.000000 0.618379 0.000000 3.197259
#
#
# Mechanical properties :
#
#
# Convention : Reuss Voigt Hill
#
# Bulk Modulus (GPa) = 23.45307 25.41963 24.43635
# Shear Modulus (GPa) = 1.43444 23.35927 12.39686
#
# Velocity S-wave (km/s) = 0.82049 3.31100 2.41204
# Velocity P-wave (km/s) = 3.45027 5.15234 4.38469
#
# Compressibility (1/GPa) = 0.04263835
#
# Stress axis : x y z
#
# Youngs Moduli (GPa) = 66.27325 48.68232 50.34477
#
# Poissons Ratio (x) = 0.10552 -0.15665
# Poissons Ratio (y) = 0.14364 0.37112
# Poissons Ratio (z) = -0.20621 0.35886
#
# Static dielectric constant tensor:
#      x y z
#    x 1.756650 0.000000 -0.029060 
#    y 0.000000 1.742770 0.000000 
#    z -0.029060 0.000000 1.836320 
# 
# From -- ./inp_files/131633.got.cif
#   From: 2010.05.17/outbox.cif.g08.bks.cpg/sg12_66_cif.got.tgz:131633.got - 2010.06.03 13:09:07.
