data_PCOD9198167
_publ_section_title
;
Structure prediction by ZEFSAII (Michael W. Deem and Ramdas Pophale) SiO2 
 PCOD9198167
Probable space group: C 2/M
;
_chemical_formula_sum "Si O2"
_cell_formula_units_Z 64
_cell_length_a 14.883453
_cell_length_b 7.849734
_cell_length_c 24.427289
_cell_angle_alpha 90.000000
_cell_angle_beta 81.826019
_cell_angle_gamma 90.000000
_cell_volume 2824.875458
_symmetry_space_group_name_H-M "C 2/M"
_symmetry_group_IT_number 12
_symmetry_cell_setting 'monoclinic'
loop_
_space_group_symop_operation_xyz
x,y,z
-x,y,-z
-x,-y,-z
x,-y,z
1/2+x,1/2+y,z
1/2-x,1/2+y,-z
1/2-x,1/2-y,-z
1/2+x,1/2-y,z
loop_
_atom_site_type_symbol
_atom_site_label
_atom_site_fract_x
_atom_site_fract_y
_atom_site_fract_z
Si Si1 0.101111 0.300431 0.367059
Si Si2 0.725700 0.206843 0.591945
Si Si3 0.034144 0.290930 0.201982
Si Si4 0.876733 0.698469 0.289521
Si Si5 0.485787 0.799130 0.087400
Si Si6 0.703115 0.206696 0.249900
Si Si7 0.443443 0.791296 0.452651
Si Si8 0.851656 0.800252 0.008347
O O1 0.088489 0.500000 0.357375
O O2 0.173896 0.279314 0.409819
O O3 0.148197 0.230604 0.308732
O O4 0.004826 0.234869 0.395657
O O5 0.672036 0.266519 0.651809
O O6 0.660183 0.261094 0.548159
O O7 0.732662 0.000000 0.591905
O O8 0.029743 0.500000 0.203532
O O9 0.138663 0.247302 0.205010
O O10 0.969705 0.230652 0.257173
O O11 0.997300 0.226529 0.147280
O O12 0.892578 0.500000 0.300537
O O13 0.802476 0.716718 0.247590
O O14 0.572587 0.748873 0.043174
O O15 0.490834 0.000000 0.092841
O O16 0.393580 0.763115 0.062226
O O17 0.711792 0.000000 0.251266
O O18 0.500000 0.732295 0.500000
O O19 0.443461 0.000000 0.453659
O O20 0.851886 0.000000 0.012690
O O21 0.750000 0.750000 0.000000
#
# Coordination Sequence:
#
# PCOD9198167 Si02
#       8
#     8   8   8   8   8   8   8   8
#     4   9  17  30  49  69  92 124 161 200 240 287
#     4   9  17  30  49  69  92 124 161 200 240 287
#     4   9  18  32  52  75 103 134 162 198 243 292
#     4   9  17  31  49  71  97 128 164 198 238 289
#     4  10  20  36  56  82 110 136 170 212 257 304
#     4   9  17  31  49  71  97 128 164 198 238 289
#     4   9  17  29  46  68  91 120 160 200 241 294
#     4  11  22  39  60  80 104 139 178 215 254 298
#
# _framework density 22.655867000000001
#
# number of rings (size 3 to 8) (size 9 to 14) (size 15 to 20)
#    0.000    2.625    0.000    3.000    0.000    4.500 
#    0.000    6.250    0.000    6.750    0.000    0.000 
#    0.000    0.000    0.000    0.000    0.000    0.000 
#
# Total GULP energy -178554.350276 kJ/mol
# GULP energy per Si atom -5579.823446 kJ/mol
# Density = 2.260430 g / cm^3
# Si number density = 22.655867 Si / 1000 Ang^3
#
#
#
# Elastic Constant Matrix: (Units=GPa)
#
#
# Indices 1 2 3 4 5 6 
#
# 1 144.0409 -6.5369 12.0409 0.0000 23.0221 0.0000
# 2 -6.5369 35.2982 -4.9293 0.0000 0.0726 0.0000
# 3 12.0409 -4.9293 41.1380 0.0000 19.8804 0.0000
# 4 0.0000 0.0000 0.0000 4.7261 0.0000 7.4817
# 5 23.0221 0.0726 19.8804 0.0000 28.6859 0.0000
# 6 0.0000 0.0000 0.0000 7.4817 0.0000 23.7218
#
#
#
# Elastic Compliance Matrix: (Units=1/GPa)
#
#
# Indices 1 2 3 4 5 6 
#
# 1 0.008100 0.001721 0.001472 0.000000 -0.007526 0.000000
# 2 0.001721 0.029442 0.005605 0.000000 -0.005340 0.000000
# 3 0.001472 0.005605 0.037780 0.000000 -0.027379 0.000000
# 4 0.000000 0.000000 0.000000 0.422578 0.000000 -0.133278
# 5 -0.007526 -0.005340 -0.027379 0.000000 0.059888 0.000000
# 6 0.000000 0.000000 0.000000 -0.133278 0.000000 0.084190
#
#
# Mechanical properties :
#
#
# Convention : Reuss Voigt Hill
#
# Bulk Modulus (GPa) = 10.76205 24.62518 17.69362
# Shear Modulus (GPa) = 7.62943 26.08691 16.85817
#
# Velocity S-wave (km/s) = 1.83707 3.39697 2.73077
# Velocity P-wave (km/s) = 3.04308 5.12628 4.21539
#
# Compressibility (1/GPa) = 0.09291907
#
# Stress axis : x y z
#
# Youngs Moduli (GPa) = 123.45170 33.96455 26.46895
#
# Poissons Ratio (x) = -0.05846 -0.03896
# Poissons Ratio (y) = -0.21248 -0.14835
# Poissons Ratio (z) = -0.18173 -0.19037
#
# Static dielectric constant tensor:
#      x y z
#    x 1.848720 0.000000 0.075540 
#    y 0.000000 1.820230 0.000000 
#    z 0.075540 0.000000 1.956340 
# 
# From -- ./inp_files/359844.got.cif
#   From: 2010.05.17/outbox.cif.g08.bks.cpg/sg12_180_cif.got.tgz:359844.got - 2010.06.03 13:09:07.
