data_PCOD9198962
_publ_section_title
;
Structure prediction by ZEFSAII (Michael W. Deem and Ramdas Pophale) SiO2 
 PCOD9198962
Probable space group: C 2/M
;
_chemical_formula_sum "Si O2"
_cell_formula_units_Z 48
_cell_length_a 14.671005
_cell_length_b 9.308101
_cell_length_c 16.710828
_cell_angle_alpha 90.000000
_cell_angle_beta 78.647107
_cell_angle_gamma 90.000000
_cell_volume 2237.365813
_symmetry_space_group_name_H-M "C 2/M"
_symmetry_group_IT_number 12
_symmetry_cell_setting 'monoclinic'
loop_
_space_group_symop_operation_xyz
x,y,z
-x,y,-z
-x,-y,-z
x,-y,z
1/2+x,1/2+y,z
1/2-x,1/2+y,-z
1/2-x,1/2-y,-z
1/2+x,1/2-y,z
loop_
_atom_site_type_symbol
_atom_site_label
_atom_site_fract_x
_atom_site_fract_y
_atom_site_fract_z
Si Si1 0.800270 0.831513 0.113473
Si Si2 0.949445 0.168589 0.694822
Si Si3 0.120730 0.334557 0.049691
Si Si4 0.943413 0.333413 0.184952
Si Si5 0.787264 0.172551 0.617798
Si Si6 0.627866 0.666967 0.568285
O O1 0.691447 0.809953 0.112014
O O2 0.848214 0.742347 0.175573
O O3 0.816522 0.000000 0.123389
O O4 0.850531 0.775978 0.023648
O O5 0.000644 0.255199 0.754736
O O6 0.019717 0.177243 0.607081
O O7 0.849524 0.221362 0.681663
O O8 0.942535 0.000000 0.718583
O O9 0.137818 0.500000 0.019107
O O10 0.015661 0.324902 0.097845
O O11 0.927796 0.500000 0.206438
O O12 0.687407 0.241792 0.621180
O O13 0.842930 0.209746 0.526114
O O14 0.780459 0.000000 0.623292
O O15 0.654454 0.500000 0.573363
#
# Coordination Sequence:
#
# PCOD9198962 Si02
#       6
#     8   8   8   8   8   8
#     4  10  20  36  59  83 105 134 175 218 259 308
#     4  10  21  36  53  75 106 142 177 213 258 313
#     4   9  20  38  57  78 106 139 173 213 262 311
#     4  11  23  37  53  76 109 144 175 212 261 312
#     4   9  18  34  56  80 104 134 175 219 261 309
#     4   9  18  34  56  79 104 136 173 216 265 312
#
# _framework density 21.453800000000001
#
# number of rings (size 3 to 8) (size 9 to 14) (size 15 to 20)
#    0.000    2.333    0.000    2.000    0.000    8.667 
#    0.000    5.000    0.000    5.000    0.000    0.000 
#    0.000    0.000    0.000    0.000    0.000    0.000 
#
# Total GULP energy -134082.681080 kJ/mol
# GULP energy per Si atom -5586.778378 kJ/mol
# Density = 2.140497 g / cm^3
# Si number density = 21.453800 Si / 1000 Ang^3
#
#
#
# Elastic Constant Matrix: (Units=GPa)
#
#
# Indices 1 2 3 4 5 6 
#
# 1 105.5691 43.9097 17.8537 0.0000 36.0287 0.0000
# 2 43.9097 63.0530 20.5846 0.0000 28.1922 0.0000
# 3 17.8537 20.5846 49.2489 0.0000 22.8290 0.0000
# 4 0.0000 0.0000 0.0000 26.3609 0.0000 7.2050
# 5 36.0287 28.1922 22.8290 0.0000 46.0120 0.0000
# 6 0.0000 0.0000 0.0000 7.2050 0.0000 28.2538
#
#
#
# Elastic Compliance Matrix: (Units=1/GPa)
#
#
# Indices 1 2 3 4 5 6 
#
# 1 0.014999 -0.007339 0.001285 0.000000 -0.007886 0.000000
# 2 -0.007339 0.025997 -0.004527 0.000000 -0.007936 0.000000
# 3 0.001285 -0.004527 0.027158 0.000000 -0.011707 0.000000
# 4 0.000000 0.000000 0.000000 0.040777 0.000000 -0.010398
# 5 -0.007886 -0.007936 -0.011707 0.000000 0.038579 0.000000
# 6 0.000000 0.000000 0.000000 -0.010398 0.000000 0.038045
#
#
# Mechanical properties :
#
#
# Convention : Reuss Voigt Hill
#
# Bulk Modulus (GPa) = 21.27974 42.50747 31.89360
# Shear Modulus (GPa) = 22.48409 29.16021 25.82215
#
# Velocity S-wave (km/s) = 3.24083 3.69075 3.47308
# Velocity P-wave (km/s) = 4.89330 6.16593 5.56610
#
# Compressibility (1/GPa) = 0.04699305
#
# Stress axis : x y z
#
# Youngs Moduli (GPa) = 66.67206 38.46660 36.82159
#
# Poissons Ratio (x) = 0.28230 -0.04733
# Poissons Ratio (y) = 0.48930 0.16668
# Poissons Ratio (z) = -0.08570 0.17412
#
# Static dielectric constant tensor:
#      x y z
#    x 1.766340 0.000000 -0.007250 
#    y 0.000000 1.718200 0.000000 
#    z -0.007250 0.000000 1.817200 
# 
# From -- ./inp_files/267669.got.cif
#   From: 2010.05.17/outbox.cif.g08.bks.cpg/sg12_134_cif.got.tgz:267669.got - 2010.06.03 13:09:07.
