data_PCOD9198136
_publ_section_title
;
Structure prediction by ZEFSAII (Michael W. Deem and Ramdas Pophale) SiO2 
 PCOD9198136
Probable space group: C 2/M
;
_chemical_formula_sum "Si O2"
_cell_formula_units_Z 40
_cell_length_a 6.668292
_cell_length_b 13.825955
_cell_length_c 18.552140
_cell_angle_alpha 90.000000
_cell_angle_beta 128.306648
_cell_angle_gamma 90.000000
_cell_volume 1342.177265
_symmetry_space_group_name_H-M "C 2/M"
_symmetry_group_IT_number 12
_symmetry_cell_setting 'monoclinic'
loop_
_space_group_symop_operation_xyz
x,y,z
-x,y,-z
-x,-y,-z
x,-y,z
1/2+x,1/2+y,z
1/2-x,1/2+y,-z
1/2-x,1/2-y,-z
1/2+x,1/2-y,z
loop_
_atom_site_type_symbol
_atom_site_label
_atom_site_fract_x
_atom_site_fract_y
_atom_site_fract_z
Si Si1 0.779575 0.166179 0.590326
Si Si2 0.047730 0.629013 0.824374
Si Si3 0.027908 0.142539 0.791444
Si Si4 0.788872 0.606136 0.620713
Si Si5 0.235897 0.134297 0.982432
O O1 0.500000 0.140565 0.500000
O O2 0.816910 0.133662 0.682064
O O3 0.492285 0.381218 0.404579
O O4 0.816483 0.283875 0.595200
O O5 0.066450 0.743743 0.814661
O O6 0.780822 0.608999 0.806465
O O7 0.992578 0.597074 0.731208
O O8 0.244896 0.599811 0.930916
O O9 0.029027 0.107143 0.874539
O O10 0.795488 0.500000 0.585351
O O11 0.500000 0.109848 0.000000
O O12 0.250000 0.250000 0.000000
#
# Coordination Sequence:
#
# PCOD9198136 Si02
#       5
#     8   8   8   8   8
#     4  10  20  36  56  80 112 146 186 232 274 326
#     4   8  14  25  43  67  97 129 166 210 256 314
#     4   8  14  24  42  67  97 131 167 211 260 308
#     4  10  21  37  57  82 112 145 183 229 278 328
#     4   8  12  20  37  63  93 125 163 204 252 310
#
# _framework density 29.802326000000001
#
# number of rings (size 3 to 8) (size 9 to 14) (size 15 to 20)
#    0.000    3.200    0.000    0.600    0.000    0.800 
#    0.000    1.000    0.000   15.000    0.000    0.000 
#    0.000  744.800    0.000    0.000    0.000    0.000 
#
# Total GULP energy -111834.040218 kJ/mol
# GULP energy per Si atom -5591.702011 kJ/mol
# Density = 2.973449 g / cm^3
# Si number density = 29.802326 Si / 1000 Ang^3
#
#
#
# Elastic Constant Matrix: (Units=GPa)
#
#
# Indices 1 2 3 4 5 6 
#
# 1 105.6842 12.6843 48.6820 0.0000 -11.9455 0.0000
# 2 12.6843 220.8083 26.8436 0.0000 -11.3914 0.0000
# 3 48.6820 26.8436 302.2679 0.0000 32.4397 0.0000
# 4 0.0000 0.0000 0.0000 -16.8544 0.0000 3.4980
# 5 -11.9455 -11.3914 32.4397 0.0000 78.0077 0.0000
# 6 0.0000 0.0000 0.0000 3.4980 0.0000 -31.8208
#
#
#
# Elastic Compliance Matrix: (Units=1/GPa)
#
#
# Indices 1 2 3 4 5 6 
#
# 1 0.010665 -0.000251 -0.001954 0.000000 0.002409 0.000000
# 2 -0.000251 0.004642 -0.000461 0.000000 0.000831 0.000000
# 3 -0.001954 -0.000461 0.003876 0.000000 -0.001978 0.000000
# 4 0.000000 0.000000 0.000000 -0.060717 0.000000 -0.006675
# 5 0.002409 0.000831 -0.001978 0.000000 0.014132 0.000000
# 6 0.000000 0.000000 0.000000 -0.006675 0.000000 -0.032160
#
#
# Mechanical properties :
#
#
# Convention : Reuss Voigt Hill
#
# Bulk Modulus (GPa) = 72.19419 89.46446 80.82933
# Shear Modulus (GPa) = -100.78025 41.90321 -29.43852
#
# Velocity S-wave (km/s) = -5.82148 3.75379 -3.14633
# Velocity P-wave (km/s) = 4.57266 6.99088 3.73919
#
# Compressibility (1/GPa) = 0.01385153
#
# Stress axis : x y z
#
# Youngs Moduli (GPa) = 93.76852 215.41711 257.97922
#
# Poissons Ratio (x) = 0.05403 0.50405
# Poissons Ratio (y) = 0.02352 0.11895
# Poissons Ratio (z) = 0.18321 0.09932
#
# Static dielectric constant tensor:
#      x y z
#    x 2.384850 0.000000 0.037630 
#    y 0.000000 2.249340 0.000000 
#    z 0.037630 0.000000 2.336170 
# 
# From -- ./inp_files/196283.got.cif
#   From: 2010.05.17/outbox.cif.g08.bks.cpg/sg12_99_cif.got.tgz:196283.got - 2010.06.03 13:09:07.
