data_PCOD9198306
_publ_section_title
;
Structure prediction by ZEFSAII (Michael W. Deem and Ramdas Pophale) SiO2 
 PCOD9198306
Probable space group: C 2/M
;
_chemical_formula_sum "Si O2"
_cell_formula_units_Z 48
_cell_length_a 18.757622
_cell_length_b 32.264531
_cell_length_c 10.423186
_cell_angle_alpha 90.000000
_cell_angle_beta 155.382216
_cell_angle_gamma 90.000000
_cell_volume 2627.751577
_symmetry_space_group_name_H-M "C 2/M"
_symmetry_group_IT_number 12
_symmetry_cell_setting 'monoclinic'
loop_
_space_group_symop_operation_xyz
x,y,z
-x,y,-z
-x,-y,-z
x,-y,z
1/2+x,1/2+y,z
1/2-x,1/2+y,-z
1/2-x,1/2-y,-z
1/2+x,1/2-y,z
loop_
_atom_site_type_symbol
_atom_site_label
_atom_site_fract_x
_atom_site_fract_y
_atom_site_fract_z
Si Si1 0.835125 0.953114 0.325720
Si Si2 0.131283 0.374128 0.910466
Si Si3 0.546658 0.546271 0.926050
Si Si4 0.157834 0.209273 0.159715
Si Si5 0.531346 0.204199 0.900201
Si Si6 0.752580 0.872930 0.828952
O O1 0.895240 0.952211 0.572585
O O2 0.000000 0.946761 0.500000
O O3 0.772547 0.000000 0.195215
O O4 0.698134 0.917011 0.079214
O O5 0.131064 0.334918 0.004699
O O6 0.242732 0.368117 0.965184
O O7 0.937141 0.375291 0.541231
O O8 0.624283 0.500000 0.038137
O O9 0.500000 0.550696 0.000000
O O10 0.662088 0.584389 0.073090
O O11 0.342975 0.209115 0.530381
O O12 0.153209 0.167488 0.070423
O O13 0.132533 0.252811 0.045953
O O14 0.000000 0.207847 0.000000
O O15 0.500000 0.197911 0.000000
#
# Coordination Sequence:
#
# PCOD9198306 Si02
#       6
#     8   8   8   8   8   8
#     4  10  20  37  58  83 113 146 188 232 275 334
#     4  10  22  37  55  84 113 146 187 233 282 340
#     4  10  21  37  58  85 115 148 190 234 280 336
#     4  10  20  36  57  80 109 147 187 231 281 335
#     4  10  21  37  56  80 110 144 188 233 281 337
#     4  10  21  37  56  81 116 149 187 231 283 339
#
# _framework density 18.266567999999999
#
# number of rings (size 3 to 8) (size 9 to 14) (size 15 to 20)
#    0.000    2.000    1.667    2.500    0.000    6.667 
#    0.000    1.667    0.000    3.500    0.000    0.000 
#    0.000    0.000    0.000    0.000    0.000    0.000 
#
# Total GULP energy -133788.447674 kJ/mol
# GULP energy per Si atom -5574.518653 kJ/mol
# Density = 1.822499 g / cm^3
# Si number density = 18.266568 Si / 1000 Ang^3
#
#
#
# Elastic Constant Matrix: (Units=GPa)
#
#
# Indices 1 2 3 4 5 6 
#
# 1 89.4434 79.1822 25.4883 0.0000 -7.6658 0.0000
# 2 79.1822 204.9404 46.9038 0.0000 8.1727 0.0000
# 3 25.4883 46.9038 33.4918 -0.0001 -4.4053 0.0000
# 4 0.0000 0.0000 -0.0001 41.9056 0.0000 3.0143
# 5 -7.6658 8.1727 -4.4053 0.0000 19.4563 0.0000
# 6 0.0000 0.0000 0.0000 3.0143 0.0000 34.0810
#
#
#
# Elastic Compliance Matrix: (Units=1/GPa)
#
#
# Indices 1 2 3 4 5 6 
#
# 1 0.019222 -0.007003 -0.003543 0.000000 0.009713 0.000000
# 2 -0.007003 0.010342 -0.010398 0.000000 -0.009458 0.000000
# 3 -0.003543 -0.010398 0.048966 0.000000 0.014059 0.000000
# 4 0.000000 0.000000 0.000000 0.024016 0.000000 -0.002124
# 5 0.009713 -0.009458 0.014059 0.000000 0.062380 0.000000
# 6 0.000000 0.000000 0.000000 -0.002124 0.000000 0.029530
#
#
# Mechanical properties :
#
#
# Convention : Reuss Voigt Hill
#
# Bulk Modulus (GPa) = 27.29193 70.11381 48.70287
# Shear Modulus (GPa) = 20.11588 30.84199 25.47893
#
# Velocity S-wave (km/s) = 3.32209 4.11352 3.73881
# Velocity P-wave (km/s) = 5.44871 7.81207 6.73487
#
# Compressibility (1/GPa) = 0.03664087
#
# Stress axis : x y z
#
# Youngs Moduli (GPa) = 52.02302 96.69072 20.42229
#
# Poissons Ratio (x) = 0.67715 0.07236
# Poissons Ratio (y) = 0.36433 0.21236
# Poissons Ratio (z) = 0.18434 1.00541
#
# Static dielectric constant tensor:
#      x y z
#    x 1.628620 0.000000 -0.014890 
#    y 0.000000 1.631180 0.000000 
#    z -0.014890 0.000000 1.630390 
# 
# From -- ./inp_files/123508.got.cif
#   From: 2010.05.17/outbox.cif.g08.bks.cpg/sg12_62_cif.got.tgz:123508.got - 2010.06.03 13:09:07.
