data_PCOD9198010
_publ_section_title
;
Structure prediction by ZEFSAII (Michael W. Deem and Ramdas Pophale) SiO2 
 PCOD9198010
Probable space group: C 2/M
;
_chemical_formula_sum "Si O2"
_cell_formula_units_Z 32
_cell_length_a 13.399462
_cell_length_b 23.395214
_cell_length_c 14.286165
_cell_angle_alpha 90.000000
_cell_angle_beta 159.540870
_cell_angle_gamma 90.000000
_cell_volume 1565.401947
_symmetry_space_group_name_H-M "C 2/M"
_symmetry_group_IT_number 12
_symmetry_cell_setting 'monoclinic'
loop_
_space_group_symop_operation_xyz
x,y,z
-x,y,-z
-x,-y,-z
x,-y,z
1/2+x,1/2+y,z
1/2-x,1/2+y,-z
1/2-x,1/2-y,-z
1/2+x,1/2-y,z
loop_
_atom_site_type_symbol
_atom_site_label
_atom_site_fract_x
_atom_site_fract_y
_atom_site_fract_z
Si Si1 0.217682 0.255576 0.082207
Si Si2 0.195903 0.679120 0.594004
Si Si3 0.017983 0.875332 0.701466
Si Si4 0.564956 0.065962 0.167366
O O1 0.471972 0.218685 0.345330
O O2 0.082935 0.224184 0.164969
O O3 0.291136 0.321458 0.167368
O O4 0.250000 0.250000 0.000000
O O5 0.351547 0.642986 0.649894
O O6 0.000000 0.647823 0.500000
O O7 0.798696 0.896217 0.428252
O O8 0.252340 0.922373 0.935068
O O9 0.655121 0.000000 0.255398
O O10 0.500000 0.076582 0.000000
#
# Coordination Sequence:
#
# PCOD9198010 Si02
#       4
#     8   8   8   8
#     4  10  20  36  55  83 119 154 193 233 275 336
#     4  11  22  37  59  87 124 160 190 230 283 350
#     4  11  21  39  62  86 118 156 196 239 294 352
#     4  11  24  41  62  87 114 149 198 254 306 348
#
# _framework density 20.442034
#
# number of rings (size 3 to 8) (size 9 to 14) (size 15 to 20)
#    0.000    1.250    0.000    9.750    0.000    6.000 
#    0.000    2.500    0.000    4.500    0.000    0.000 
#    0.000    0.000    0.000    0.000    0.000    0.000 
#
# Total GULP energy -89241.203033 kJ/mol
# GULP energy per Si atom -5577.575190 kJ/mol
# Density = 2.039551 g / cm^3
# Si number density = 20.442034 Si / 1000 Ang^3
#
#
#
# Elastic Constant Matrix: (Units=GPa)
#
#
# Indices 1 2 3 4 5 6 
#
# 1 112.1170 49.2064 49.2038 0.0042 10.3279 0.0002
# 2 49.2064 88.4230 47.4311 0.0005 -4.6715 0.0036
# 3 49.2038 47.4311 185.1606 0.0119 -10.6983 0.0110
# 4 0.0042 0.0005 0.0119 39.8267 0.0044 -3.6737
# 5 10.3279 -4.6715 -10.6983 0.0044 37.5621 0.0049
# 6 0.0002 0.0036 0.0110 -3.6737 0.0049 36.0303
#
#
#
# Elastic Compliance Matrix: (Units=1/GPa)
#
#
# Indices 1 2 3 4 5 6 
#
# 1 0.013142 -0.006434 -0.002134 0.000000 -0.005022 0.000002
# 2 -0.006434 0.016278 -0.002278 0.000001 0.003145 -0.000001
# 3 -0.002134 -0.002278 0.006679 -0.000002 0.002206 -0.000002
# 4 0.000000 0.000001 -0.000002 0.025347 -0.000004 0.002584
# 5 -0.005022 0.003145 0.002206 -0.000004 0.029023 -0.000005
# 6 0.000002 -0.000001 -0.000002 0.002584 -0.000005 0.028018
#
#
# Mechanical properties :
#
#
# Convention : Reuss Voigt Hill
#
# Bulk Modulus (GPa) = 69.41628 75.26478 72.34053
# Shear Modulus (GPa) = 34.48696 38.67443 36.58069
#
# Velocity S-wave (km/s) = 4.11184 4.35432 4.23482
# Velocity P-wave (km/s) = 7.52159 7.88535 7.70562
#
# Compressibility (1/GPa) = 0.01440584
#
# Stress axis : x y z
#
# Youngs Moduli (GPa) = 76.09028 61.43275 149.72338
#
# Poissons Ratio (x) = 0.39525 0.31957
# Poissons Ratio (y) = 0.48956 0.34113
# Poissons Ratio (z) = 0.16241 0.13997
#
# Static dielectric constant tensor:
#      x y z
#    x 2.016100 -0.000050 0.075070 
#    y -0.000050 1.677140 0.000010 
#    z 0.075070 0.000010 1.722780 
# 
# From -- ./inp_files/217942.got.cif
#   From: 2010.05.17/outbox.cif.g08.bks.cpg/sg12_109_cif.got.tgz:217942.got - 2010.06.03 13:09:07.
