data_PCOD9198850
_publ_section_title
;
Structure prediction by ZEFSAII (Michael W. Deem and Ramdas Pophale) SiO2 
 PCOD9198850
Probable space group: C 2/M
;
_chemical_formula_sum "Si O2"
_cell_formula_units_Z 48
_cell_length_a 21.541030
_cell_length_b 27.987448
_cell_length_c 9.351769
_cell_angle_alpha 90.000000
_cell_angle_beta 150.712703
_cell_angle_gamma 90.000000
_cell_volume 2758.038360
_symmetry_space_group_name_H-M "C 2/M"
_symmetry_group_IT_number 12
_symmetry_cell_setting 'monoclinic'
loop_
_space_group_symop_operation_xyz
x,y,z
-x,y,-z
-x,-y,-z
x,-y,z
1/2+x,1/2+y,z
1/2-x,1/2+y,-z
1/2-x,1/2-y,-z
1/2+x,1/2-y,z
loop_
_atom_site_type_symbol
_atom_site_label
_atom_site_fract_x
_atom_site_fract_y
_atom_site_fract_z
Si Si1 0.716610 0.792489 0.246111
Si Si2 0.263184 0.636244 0.846143
Si Si3 0.642917 0.711519 0.744608
Si Si4 0.076516 0.556252 0.505724
Si Si5 0.004512 0.639770 0.181479
Si Si6 0.872729 0.807717 0.835327
O O1 0.836742 0.793942 0.383415
O O2 0.761738 0.806511 0.494504
O O3 0.651773 0.740394 0.122598
O O4 0.611578 0.830460 0.988871
O O5 0.212788 0.583437 0.781507
O O6 0.362009 0.646631 0.917152
O O7 0.133544 0.658885 0.516521
O O8 0.316101 0.663789 0.088776
O O9 0.500000 0.724575 0.500000
O O10 0.750000 0.750000 0.000000
O O11 0.086980 0.500000 0.502946
O O12 0.000000 0.564429 0.500000
O O13 0.003838 0.584981 0.233913
O O14 0.000000 0.643451 0.000000
O O15 0.000000 0.804843 0.000000
#
# Coordination Sequence:
#
# PCOD9198850 Si02
#       6
#     8   8   8   8   8   8
#     4  11  22  34  54  76 114 155 200 233 282 349
#     4  10  22  38  55  83 118 151 185 245 291 346
#     4  12  26  37  54  83 118 160 201 242 286 346
#     4   9  19  36  62  90 116 147 188 243 304 353
#     4  10  20  36  58  87 114 151 192 243 300 338
#     4  11  22  34  51  76 110 158 198 234 277 350
#
# _framework density 17.403673999999999
#
# number of rings (size 3 to 8) (size 9 to 14) (size 15 to 20)
#    1.000    0.500    3.333    2.500    4.667    0.333 
#    0.000    0.000    0.000    1.000    0.000    2.333 
#    0.000    0.000    0.000    0.000    0.000    0.000 
#
# Total GULP energy -133669.616129 kJ/mol
# GULP energy per Si atom -5569.567339 kJ/mol
# Density = 1.736406 g / cm^3
# Si number density = 17.403674 Si / 1000 Ang^3
#
#
#
# Elastic Constant Matrix: (Units=GPa)
#
#
# Indices 1 2 3 4 5 6 
#
# 1 124.7073 45.1377 20.6383 0.0000 17.0862 0.0000
# 2 45.1377 84.1389 27.0530 0.0000 13.6274 0.0000
# 3 20.6383 27.0530 55.7472 0.0000 11.6248 0.0000
# 4 0.0000 0.0000 0.0000 24.8896 0.0000 -0.1143
# 5 17.0862 13.6274 11.6248 0.0000 30.4823 0.0000
# 6 0.0000 0.0000 0.0000 -0.1143 0.0000 24.7210
#
#
#
# Elastic Compliance Matrix: (Units=1/GPa)
#
#
# Indices 1 2 3 4 5 6 
#
# 1 0.010328 -0.004731 -0.000828 0.000000 -0.003359 0.000000
# 2 -0.004731 0.016715 -0.005817 0.000000 -0.002602 0.000000
# 3 -0.000828 -0.005817 0.022193 0.000000 -0.005399 0.000000
# 4 0.000000 0.000000 0.000000 0.040178 0.000000 0.000186
# 5 -0.003359 -0.002602 -0.005399 0.000000 0.037911 0.000000
# 6 0.000000 0.000000 0.000000 0.000186 0.000000 0.040452
#
#
# Mechanical properties :
#
#
# Convention : Reuss Voigt Hill
#
# Bulk Modulus (GPa) = 37.75677 50.02792 43.89234
# Shear Modulus (GPa) = 25.08055 27.46953 26.27504
#
# Velocity S-wave (km/s) = 3.80031 3.97719 3.88975
# Velocity P-wave (km/s) = 6.40299 7.06390 6.74155
#
# Compressibility (1/GPa) = 0.02648532
#
# Stress axis : x y z
#
# Youngs Moduli (GPa) = 96.82251 59.82691 45.05842
#
# Poissons Ratio (x) = 0.28302 0.03729
# Poissons Ratio (y) = 0.45803 0.26212
# Poissons Ratio (z) = 0.08012 0.34804
#
# Static dielectric constant tensor:
#      x y z
#    x 1.635460 0.000000 -0.012310 
#    y 0.000000 1.580550 0.000000 
#    z -0.012310 0.000000 1.634170 
# 
# From -- ./inp_files/91459.got.cif
#   From: 2010.05.17/outbox.cif.g08.bks.cpg/sg12_46_cif.got.tgz:91459.got - 2010.06.03 13:09:07.
