data_PCOD9198655
_publ_section_title
;
Structure prediction by ZEFSAII (Michael W. Deem and Ramdas Pophale) SiO2 
 PCOD9198655
Probable space group: C 2/M
;
_chemical_formula_sum "Si O2"
_cell_formula_units_Z 64
_cell_length_a 15.041202
_cell_length_b 7.427484
_cell_length_c 22.153739
_cell_angle_alpha 90.000000
_cell_angle_beta 103.753161
_cell_angle_gamma 90.000000
_cell_volume 2404.017577
_symmetry_space_group_name_H-M "C 2/M"
_symmetry_group_IT_number 12
_symmetry_cell_setting 'monoclinic'
loop_
_space_group_symop_operation_xyz
x,y,z
-x,y,-z
-x,-y,-z
x,-y,z
1/2+x,1/2+y,z
1/2-x,1/2+y,-z
1/2-x,1/2-y,-z
1/2+x,1/2-y,z
loop_
_atom_site_type_symbol
_atom_site_label
_atom_site_fract_x
_atom_site_fract_y
_atom_site_fract_z
Si Si1 0.884245 0.782416 0.360744
Si Si2 0.279435 0.792929 0.593755
Si Si3 0.064201 0.206445 0.959283
Si Si4 0.281539 0.279979 0.096347
Si Si5 0.106869 0.212466 0.269893
Si Si6 0.606723 0.785972 0.135567
Si Si7 0.603935 0.280686 0.768536
Si Si8 0.059469 0.710806 0.455308
O O1 0.817810 0.712241 0.402774
O O2 0.855002 0.724682 0.289382
O O3 0.987747 0.725152 0.388880
O O4 0.881208 0.000000 0.361893
O O5 0.335446 0.793529 0.666134
O O6 0.344896 0.711595 0.553052
O O7 0.264093 0.000000 0.574373
O O8 0.993204 0.204411 0.891537
O O9 0.159832 0.285799 0.951605
O O10 0.081173 0.000000 0.979498
O O11 0.000000 0.293868 0.000000
O O12 0.282402 0.500000 0.094059
O O13 0.178239 0.225230 0.095414
O O14 0.339362 0.222341 0.164523
O O15 0.143527 0.243633 0.208122
O O16 0.001828 0.278041 0.249106
O O17 0.104596 0.000000 0.281765
O O18 0.598245 0.000000 0.130042
O O19 0.604349 0.500000 0.769973
O O20 0.073624 0.500000 0.470660
O O21 0.000000 0.793364 0.500000
#
# Coordination Sequence:
#
# PCOD9198655 Si02
#       8
#     8   8   8   8   8   8   8   8
#     4  10  20  36  58  83 108 145 190 228 273 334
#     4  10  21  37  58  83 113 147 184 227 279 335
#     4  10  21  39  61  82 109 150 195 233 273 326
#     4   9  18  35  57  81 112 150 182 218 276 335
#     4  11  20  34  59  86 113 145 183 227 276 333
#     4  11  22  36  58  85 114 148 185 228 281 334
#     4   9  16  30  55  80 106 139 177 220 268 326
#     4  10  22  39  56  79 114 150 185 233 284 324
#
# _framework density 26.622102999999999
#
# number of rings (size 3 to 8) (size 9 to 14) (size 15 to 20)
#    0.000    2.000    2.500    1.500    0.000    4.000 
#    0.000    1.250    0.000    0.000    0.000    0.000 
#    0.000    0.000    0.000    0.000    0.000    0.000 
#
# Total GULP energy -179088.953361 kJ/mol
# GULP energy per Si atom -5596.529793 kJ/mol
# Density = 2.656151 g / cm^3
# Si number density = 26.622103 Si / 1000 Ang^3
#
#
#
# Elastic Constant Matrix: (Units=GPa)
#
#
# Indices 1 2 3 4 5 6 
#
# 1 169.4350 11.0548 30.0053 0.0000 -33.5508 0.0000
# 2 11.0548 108.2907 6.4821 0.0000 0.3897 0.0000
# 3 30.0053 6.4821 103.6103 0.0000 -24.1975 0.0000
# 4 0.0000 0.0000 0.0000 16.1921 0.0000 10.5851
# 5 -33.5508 0.3897 -24.1975 0.0000 64.4933 0.0000
# 6 0.0000 0.0000 0.0000 10.5851 0.0000 6.0600
#
#
#
# Elastic Compliance Matrix: (Units=1/GPa)
#
#
# Indices 1 2 3 4 5 6 
#
# 1 0.006764 -0.000630 -0.001202 0.000000 0.003072 0.000000
# 2 -0.000630 0.009333 -0.000538 0.000000 -0.000586 0.000000
# 3 -0.001202 -0.000538 0.010838 0.000000 0.003444 0.000000
# 4 0.000000 0.000000 0.000000 -0.435341 0.000000 0.760420
# 5 0.003072 -0.000586 0.003444 0.000000 0.018399 0.000000
# 6 0.000000 0.000000 0.000000 0.760420 0.000000 -1.163227
#
#
# Mechanical properties :
#
#
# Convention : Reuss Voigt Hill
#
# Bulk Modulus (GPa) = 45.05603 52.93561 48.99582
# Shear Modulus (GPa) = -3.24445 39.60199 18.17877
#
# Velocity S-wave (km/s) = -1.10515 3.86107 2.61597
# Velocity P-wave (km/s) = 3.91568 6.30908 5.25057
#
# Compressibility (1/GPa) = 0.02219459
#
# Stress axis : x y z
#
# Youngs Moduli (GPa) = 147.83790 107.14651 92.27033
#
# Poissons Ratio (x) = 0.06746 0.11092
# Poissons Ratio (y) = 0.09308 0.04968
# Poissons Ratio (z) = 0.17772 0.05769
#
# Static dielectric constant tensor:
#      x y z
#    x 2.071770 0.000000 -0.038730 
#    y 0.000000 1.967030 0.000000 
#    z -0.038730 0.000000 2.133670 
# 
# From -- ./inp_files/338770.got.cif
#   From: 2010.05.17/outbox.cif.g08.bks.cpg/sg12_170_cif.got.tgz:338770.got - 2010.06.03 13:09:07.
