data_PCOD9198922
_publ_section_title
;
Structure prediction by ZEFSAII (Michael W. Deem and Ramdas Pophale) SiO2 
 PCOD9198922
Probable space group: C 2/M
;
_chemical_formula_sum "Si O2"
_cell_formula_units_Z 48
_cell_length_a 8.053039
_cell_length_b 20.361234
_cell_length_c 15.403735
_cell_angle_alpha 90.000000
_cell_angle_beta 105.700240
_cell_angle_gamma 90.000000
_cell_volume 2431.513432
_symmetry_space_group_name_H-M "C 2/M"
_symmetry_group_IT_number 12
_symmetry_cell_setting 'monoclinic'
loop_
_space_group_symop_operation_xyz
x,y,z
-x,y,-z
-x,-y,-z
x,-y,z
1/2+x,1/2+y,z
1/2-x,1/2+y,-z
1/2-x,1/2-y,-z
1/2+x,1/2-y,z
loop_
_atom_site_type_symbol
_atom_site_label
_atom_site_fract_x
_atom_site_fract_y
_atom_site_fract_z
Si Si1 0.351853 0.708112 0.582194
Si Si2 0.661123 0.248113 0.715114
Si Si3 0.566232 0.104819 0.746784
Si Si4 0.838733 0.000000 0.099422
Si Si5 0.322454 0.572664 0.626401
Si Si6 0.304312 0.605975 0.237619
Si Si7 0.245266 0.000000 0.111773
O O1 0.250000 0.750000 0.500000
O O2 0.548871 0.729140 0.615140
O O3 0.320344 0.719958 0.681563
O O4 0.311839 0.632522 0.558536
O O5 0.593819 0.183606 0.754879
O O6 0.693593 0.314744 0.772388
O O7 0.667830 0.081721 0.674479
O O8 0.361390 0.091923 0.724489
O O9 0.658281 0.063594 0.835731
O O10 0.785242 0.063793 0.147543
O O11 0.047215 0.000000 0.117561
O O12 0.759648 0.000000 0.992551
O O13 0.313431 0.500000 0.588441
O O14 0.511041 0.583271 0.697363
#
# Coordination Sequence:
#
# PCOD9198922 Si02
#       7
#     8   8   8   4   8   8   4
#     4  10  20  36  60  82 121 155 194 249 302 343
#     4  10  21  36  59  88 112 154 206 238 289 356
#     4  11  20  36  61  87 117 156 200 240 292 360
#     4  11  23  39  61  90 122 155 195 248 300 347
#     4  10  20  36  58  90 118 155 202 247 292 353
#     4  11  20  36  61  87 117 156 200 240 292 360
#     4  11  23  39  61  90 122 155 195 248 300 347
#
# _framework density 19.740791999999999
#
# number of rings (size 3 to 8) (size 9 to 14) (size 15 to 20)
#    0.000    1.500    5.000    1.000    0.000    1.333 
#    0.000    0.833    3.667    4.000    0.000    0.000 
#    0.000    0.000    0.000    0.000    0.000    0.000 
#
# Total GULP energy -133680.289157 kJ/mol
# GULP energy per Si atom -5570.012048 kJ/mol
# Density = 1.969586 g / cm^3
# Si number density = 19.740792 Si / 1000 Ang^3
#
#
#
# Elastic Constant Matrix: (Units=GPa)
#
#
# Indices 1 2 3 4 5 6 
#
# 1 113.4675 24.1301 22.1327 0.0000 -10.3799 0.0000
# 2 24.1301 203.2696 51.1241 0.0000 -1.2047 0.0000
# 3 22.1327 51.1241 46.2398 0.0000 -4.4296 0.0000
# 4 0.0000 0.0000 0.0000 19.4191 0.0000 2.5244
# 5 -10.3799 -1.2047 -4.4296 0.0000 15.8840 0.0000
# 6 0.0000 0.0000 0.0000 2.5244 0.0000 26.3496
#
#
#
# Elastic Compliance Matrix: (Units=1/GPa)
#
#
# Indices 1 2 3 4 5 6 
#
# 1 0.010158 -0.000114 -0.004214 0.000000 0.005454 0.000000
# 2 -0.000114 0.006857 -0.007690 0.000000 -0.001699 0.000000
# 3 -0.004214 -0.007690 0.032699 0.000000 0.005782 0.000000
# 4 0.000000 0.000000 0.000000 0.052145 0.000000 -0.004996
# 5 0.005454 -0.001699 0.005782 0.000000 0.068004 0.000000
# 6 0.000000 0.000000 0.000000 -0.004996 0.000000 0.038430
#
#
# Mechanical properties :
#
#
# Convention : Reuss Voigt Hill
#
# Bulk Modulus (GPa) = 38.94115 61.97230 50.45673
# Shear Modulus (GPa) = 20.75650 30.03654 25.39652
#
# Velocity S-wave (km/s) = 3.24613 3.90493 3.59067
# Velocity P-wave (km/s) = 5.81540 7.19670 6.54260
#
# Compressibility (1/GPa) = 0.02567978
#
# Stress axis : x y z
#
# Youngs Moduli (GPa) = 98.44247 145.83610 30.58175
#
# Poissons Ratio (x) = 0.01658 0.12887
# Poissons Ratio (y) = 0.01119 0.23516
# Poissons Ratio (z) = 0.41484 1.12143
#
# Static dielectric constant tensor:
#      x y z
#    x 1.842840 0.000000 0.008840 
#    y 0.000000 1.760380 0.000000 
#    z 0.008840 0.000000 1.642450 
# 
# From -- ./inp_files/197204.got.cif
#   From: 2010.05.17/outbox.cif.g08.bks.cpg/sg12_99_cif.got.tgz:197204.got - 2010.06.03 13:09:07.
