data_PCOD9198365
_publ_section_title
;
Structure prediction by ZEFSAII (Michael W. Deem and Ramdas Pophale) SiO2 
 PCOD9198365
Probable space group: C 2/M
;
_chemical_formula_sum "Si O2"
_cell_formula_units_Z 52
_cell_length_a 12.694060
_cell_length_b 13.283845
_cell_length_c 22.227427
_cell_angle_alpha 90.000000
_cell_angle_beta 136.410332
_cell_angle_gamma 90.000000
_cell_volume 2584.287612
_symmetry_space_group_name_H-M "C 2/M"
_symmetry_group_IT_number 12
_symmetry_cell_setting 'monoclinic'
loop_
_space_group_symop_operation_xyz
x,y,z
-x,y,-z
-x,-y,-z
x,-y,z
1/2+x,1/2+y,z
1/2-x,1/2+y,-z
1/2-x,1/2-y,-z
1/2+x,1/2-y,z
loop_
_atom_site_type_symbol
_atom_site_label
_atom_site_fract_x
_atom_site_fract_y
_atom_site_fract_z
Si Si1 0.474205 0.113711 0.277586
Si Si2 0.058973 0.706345 0.964997
Si Si3 0.218339 0.612107 0.921933
Si Si4 0.000000 0.751775 0.500000
Si Si5 0.439176 0.383720 0.358111
Si Si6 0.836103 0.191821 0.648386
Si Si7 0.198284 0.218155 0.230593
O O1 0.409241 0.120747 0.182737
O O2 0.608305 0.193672 0.341503
O O3 0.330618 0.146040 0.259390
O O4 0.521914 0.000000 0.309586
O O5 0.144808 0.630551 0.956504
O O6 0.933225 0.761683 0.871770
O O7 0.166023 0.795408 0.035000
O O8 0.000000 0.652437 0.000000
O O9 0.285977 0.500000 0.944722
O O10 0.998015 0.822058 0.440230
O O11 0.154966 0.686875 0.563262
O O12 0.412171 0.500000 0.360648
O O13 0.559760 0.372892 0.353163
O O14 0.284359 0.324707 0.276665
O O15 0.861959 0.177020 0.730482
#
# Coordination Sequence:
#
# PCOD9198365 Si02
#       7
#     8   8   8   4   8   8   8
#     4  10  20  36  57  82 110 148 194 238 281 334
#     4  11  21  37  58  78 116 151 192 238 290 329
#     4  10  22  36  55  82 110 147 196 241 285 334
#     4  10  21  40  61  88 114 150 187 228 279 342
#     4  10  22  38  61  88 118 149 186 231 280 340
#     4  10  21  39  60  84 119 150 185 232 288 336
#     4  10  21  37  56  84 113 153 189 234 284 336
#
# _framework density 20.121599
#
# number of rings (size 3 to 8) (size 9 to 14) (size 15 to 20)
#    0.000    1.846    3.077    0.692    0.000    5.538 
#    0.000    1.923    0.000    0.000    0.000    0.000 
#    0.000    0.000    0.000    0.000    0.000    0.000 
#
# Total GULP energy -145161.078686 kJ/mol
# GULP energy per Si atom -5583.118411 kJ/mol
# Density = 2.007580 g / cm^3
# Si number density = 20.121599 Si / 1000 Ang^3
#
#
#
# Elastic Constant Matrix: (Units=GPa)
#
#
# Indices 1 2 3 4 5 6 
#
# 1 60.5023 -12.6220 -11.0152 0.0000 -21.3852 0.0000
# 2 -12.6220 32.5262 -9.9383 0.0000 0.1594 0.0000
# 3 -11.0152 -9.9383 36.5834 0.0000 4.5081 0.0000
# 4 0.0000 0.0000 0.0000 12.6067 0.0000 -2.7337
# 5 -21.3852 0.1594 4.5081 0.0000 33.2390 0.0000
# 6 0.0000 0.0000 0.0000 -2.7337 0.0000 -3.3681
#
#
#
# Elastic Compliance Matrix: (Units=1/GPa)
#
#
# Indices 1 2 3 4 5 6 
#
# 1 0.026604 0.013197 0.009656 0.000000 0.015744 0.000000
# 2 0.013197 0.040140 0.014091 0.000000 0.006387 0.000000
# 3 0.009656 0.014091 0.033879 0.000000 0.001550 0.000000
# 4 0.000000 0.000000 0.000000 0.067452 0.000000 -0.054746
# 5 0.015744 0.006387 0.001550 0.000000 0.039973 0.000000
# 6 0.000000 0.000000 0.000000 -0.054746 0.000000 -0.252472
#
#
# Mechanical properties :
#
#
# Convention : Reuss Voigt Hill
#
# Bulk Modulus (GPa) = 5.73032 6.94010 6.33521
# Shear Modulus (GPa) = -83.13818 19.37470 -31.88174
#
# Velocity S-wave (km/s) = -6.43487 3.10640 -3.98484
# Velocity P-wave (km/s) = 7.23575 4.04015 4.24460
#
# Compressibility (1/GPa) = 0.17451029
#
# Stress axis : x y z
#
# Youngs Moduli (GPa) = 37.58812 24.91289 29.51674
#
# Poissons Ratio (x) = -0.32878 -0.28500
# Poissons Ratio (y) = -0.49605 -0.41592
# Poissons Ratio (z) = -0.36293 -0.35105
#
# Static dielectric constant tensor:
#      x y z
#    x 1.748210 0.000000 -0.001570 
#    y 0.000000 1.666700 0.000000 
#    z -0.001570 0.000000 1.702530 
# 
# From -- ./inp_files/305527.got.cif
#   From: 2010.05.17/outbox.cif.g08.bks.cpg/sg12_153_cif.got.tgz:305527.got - 2010.06.03 13:09:07.
