data_PCOD9198050
_publ_section_title
;
Structure prediction by ZEFSAII (Michael W. Deem and Ramdas Pophale) SiO2 
 PCOD9198050
Probable space group: C 2/M
;
_chemical_formula_sum "Si O2"
_cell_formula_units_Z 48
_cell_length_a 14.327487
_cell_length_b 9.237754
_cell_length_c 19.448619
_cell_angle_alpha 90.000000
_cell_angle_beta 89.317824
_cell_angle_gamma 90.000000
_cell_volume 2573.916189
_symmetry_space_group_name_H-M "C 2/M"
_symmetry_group_IT_number 12
_symmetry_cell_setting 'monoclinic'
loop_
_space_group_symop_operation_xyz
x,y,z
-x,y,-z
-x,-y,-z
x,-y,z
1/2+x,1/2+y,z
1/2-x,1/2+y,-z
1/2-x,1/2-y,-z
1/2+x,1/2-y,z
loop_
_atom_site_type_symbol
_atom_site_label
_atom_site_fract_x
_atom_site_fract_y
_atom_site_fract_z
Si Si1 0.607544 0.828235 0.510985
Si Si2 0.632281 0.170353 0.130307
Si Si3 0.409982 0.832967 0.141226
Si Si4 0.886473 0.164700 0.007291
Si Si5 0.755576 0.171601 0.389589
Si Si6 0.252568 0.171315 0.244931
O O1 0.500000 0.790505 0.500000
O O2 0.667844 0.804179 0.441381
O O3 0.656194 0.738056 0.570840
O O4 0.613291 0.000000 0.527284
O O5 0.520974 0.186269 0.144719
O O6 0.686150 0.257640 0.188319
O O7 0.655018 0.000000 0.131729
O O8 0.649651 0.237325 0.054730
O O9 0.369260 0.730755 0.082318
O O10 0.356622 0.809142 0.212900
O O11 0.393219 0.000000 0.120357
O O12 0.853415 0.000000 0.001108
O O13 0.000000 0.164166 0.000000
O O14 0.742194 0.250722 0.317579
O O15 0.766300 0.000000 0.379560
O O16 0.234578 0.000000 0.251107
#
# Coordination Sequence:
#
# PCOD9198050 Si02
#       6
#     8   8   8   8   8   8
#     4   9  19  38  63  86 110 144 180 213 257 314
#     4  10  20  36  56  77 104 140 184 229 272 321
#     4   9  20  37  55  75 103 143 185 224 270 324
#     4   9  17  31  53  79 105 135 177 230 279 321
#     4  10  21  37  57  84 115 142 176 221 263 310
#     4  11  23  38  55  78 111 147 181 219 268 322
#
# _framework density 18.648627000000001
#
# number of rings (size 3 to 8) (size 9 to 14) (size 15 to 20)
#    0.000    2.333    0.000    2.000    0.000    7.000 
#    0.000    6.667    0.000    0.000    0.000    0.000 
#    0.000    0.000    0.000    0.000    0.000    0.000 
#
# Total GULP energy -134057.757744 kJ/mol
# GULP energy per Si atom -5585.739906 kJ/mol
# Density = 1.860618 g / cm^3
# Si number density = 18.648627 Si / 1000 Ang^3
#
#
#
# Elastic Constant Matrix: (Units=GPa)
#
#
# Indices 1 2 3 4 5 6 
#
# 1 67.9680 35.6055 22.7679 0.0000 5.5931 0.0000
# 2 35.6055 95.3043 67.5494 0.0000 2.2472 0.0000
# 3 22.7679 67.5494 118.5560 0.0000 10.0670 0.0000
# 4 0.0000 0.0000 0.0000 41.3484 0.0000 8.8431
# 5 5.5931 2.2472 10.0670 0.0000 12.2362 0.0000
# 6 0.0000 0.0000 0.0000 8.8431 0.0000 16.0126
#
#
#
# Elastic Compliance Matrix: (Units=1/GPa)
#
#
# Indices 1 2 3 4 5 6 
#
# 1 0.019122 -0.008148 0.001704 0.000000 -0.008646 0.000000
# 2 -0.008148 0.021410 -0.011414 0.000000 0.009183 0.000000
# 3 0.001704 -0.011414 0.015588 0.000000 -0.011507 0.000000
# 4 0.000000 0.000000 0.000000 0.027424 0.000000 -0.015145
# 5 -0.008646 0.009183 -0.011507 0.000000 0.093458 0.000000
# 6 0.000000 0.000000 0.000000 -0.015145 0.000000 0.070815
#
#
# Mechanical properties :
#
#
# Convention : Reuss Voigt Hill
#
# Bulk Modulus (GPa) = 49.00756 59.29709 54.15232
# Shear Modulus (GPa) = 17.22164 24.31314 20.76739
#
# Velocity S-wave (km/s) = 3.04218 3.61466 3.34071
# Velocity P-wave (km/s) = 6.21903 7.02048 6.63187
#
# Compressibility (1/GPa) = 0.02040502
#
# Stress axis : x y z
#
# Youngs Moduli (GPa) = 52.29645 46.70707 64.15280
#
# Poissons Ratio (x) = 0.38057 -0.10935
# Poissons Ratio (y) = 0.42612 0.73222
# Poissons Ratio (z) = -0.08914 0.53310
#
# Static dielectric constant tensor:
#      x y z
#    x 1.664740 0.000000 -0.025250 
#    y 0.000000 1.626740 0.000000 
#    z -0.025250 0.000000 1.598160 
# 
# From -- ./inp_files/267626.got.cif
#   From: 2010.05.17/outbox.cif.g08.bks.cpg/sg12_134_cif.got.tgz:267626.got - 2010.06.03 13:09:07.
