data_PCOD9198179
_publ_section_title
;
Structure prediction by ZEFSAII (Michael W. Deem and Ramdas Pophale) SiO2 
 PCOD9198179
Probable space group: C 2/M
;
_chemical_formula_sum "Si O2"
_cell_formula_units_Z 64
_cell_length_a 29.242131
_cell_length_b 8.792754
_cell_length_c 19.396760
_cell_angle_alpha 90.000000
_cell_angle_beta 40.899900
_cell_angle_gamma 90.000000
_cell_volume 3265.364539
_symmetry_space_group_name_H-M "C 2/M"
_symmetry_group_IT_number 12
_symmetry_cell_setting 'monoclinic'
loop_
_space_group_symop_operation_xyz
x,y,z
-x,y,-z
-x,-y,-z
x,-y,z
1/2+x,1/2+y,z
1/2-x,1/2+y,-z
1/2-x,1/2-y,-z
1/2+x,1/2-y,z
loop_
_atom_site_type_symbol
_atom_site_label
_atom_site_fract_x
_atom_site_fract_y
_atom_site_fract_z
Si Si1 0.032743 0.183974 0.789633
Si Si2 0.682397 0.674934 0.110368
Si Si3 0.707581 0.819220 0.821087
Si Si4 0.448346 0.682163 0.390402
Si Si5 0.623653 0.675132 0.030057
Si Si6 0.922977 0.319446 0.670846
Si Si7 0.145206 0.682172 0.391670
Si Si8 0.073421 0.316751 0.881484
O O1 0.049493 0.231475 0.692208
O O2 0.078847 0.250020 0.798508
O O3 0.033722 0.000000 0.790266
O O4 0.953525 0.234241 0.897581
O O5 0.693799 0.500000 0.119006
O O6 0.648274 0.773810 0.208893
O O7 0.750000 0.750000 0.000000
O O8 0.629628 0.673413 0.105624
O O9 0.683346 0.771308 0.925180
O O10 0.778368 0.739137 0.716884
O O11 0.640837 0.774446 0.850064
O O12 0.716956 0.000000 0.806570
O O13 0.448821 0.500000 0.390822
O O14 0.515040 0.740315 0.357892
O O15 0.381600 0.745452 0.507131
O O16 0.630940 0.500000 0.998339
O O17 0.934366 0.500000 0.660146
O O18 0.909553 0.274352 0.606925
O O19 0.144865 0.500000 0.396537
O O20 0.071106 0.500000 0.880653
O O21 0.000000 0.265247 0.000000
#
# Coordination Sequence:
#
# PCOD9198179 Si02
#       8
#     8   8   8   8   8   8   8   8
#     4  10  21  38  61  90 119 152 195 241 295 355
#     4  11  22  36  53  81 121 160 202 247 298 357
#     4  11  23  39  61  90 122 158 200 247 301 360
#     4  11  23  42  65  91 121 157 204 254 297 351
#     4  10  20  36  56  82 120 157 192 241 296 354
#     4  11  23  39  60  87 120 159 204 250 298 355
#     4  11  25  43  61  87 121 160 205 251 299 355
#     4  10  21  38  60  91 125 154 193 245 298 357
#
# _framework density 19.599648999999999
#
# number of rings (size 3 to 8) (size 9 to 14) (size 15 to 20)
#    0.000    1.375    2.500    3.000    0.000    9.750 
#    0.000    0.625    0.000    0.000    0.000    0.000 
#    0.000    0.000    0.000    0.000    0.000    0.000 
#
# Total GULP energy -178816.324158 kJ/mol
# GULP energy per Si atom -5588.010130 kJ/mol
# Density = 1.955504 g / cm^3
# Si number density = 19.599649 Si / 1000 Ang^3
#
#
#
# Elastic Constant Matrix: (Units=GPa)
#
#
# Indices 1 2 3 4 5 6 
#
# 1 84.4401 24.3604 35.9826 0.0001 14.9680 -0.0010
# 2 24.3604 34.0743 23.4459 0.0064 5.6086 -0.0015
# 3 35.9826 23.4459 119.7779 -0.0015 17.0448 0.0020
# 4 0.0001 0.0064 -0.0015 30.3428 0.0003 0.8687
# 5 14.9680 5.6086 17.0448 0.0003 27.7165 0.0008
# 6 -0.0010 -0.0015 0.0020 0.8687 0.0008 30.5462
#
#
#
# Elastic Compliance Matrix: (Units=1/GPa)
#
#
# Indices 1 2 3 4 5 6 
#
# 1 0.016509 -0.009265 -0.002350 0.000002 -0.005596 0.000000
# 2 -0.009265 0.039351 -0.004930 -0.000009 0.000072 0.000002
# 3 -0.002350 -0.004930 0.010627 0.000002 -0.004269 -0.000001
# 4 0.000002 -0.000009 0.000002 0.032984 -0.000001 -0.000938
# 5 -0.005596 0.000072 -0.004269 -0.000001 0.041712 -0.000001
# 6 0.000000 0.000002 -0.000001 -0.000938 -0.000001 0.032764
#
#
# Mechanical properties :
#
#
# Convention : Reuss Voigt Hill
#
# Bulk Modulus (GPa) = 29.94108 45.09670 37.51889
# Shear Modulus (GPa) = 22.91813 28.02133 25.46973
#
# Velocity S-wave (km/s) = 3.42323 3.78522 3.60877
# Velocity P-wave (km/s) = 5.56185 6.49328 6.04553
#
# Compressibility (1/GPa) = 0.03339893
#
# Stress axis : x y z
#
# Youngs Moduli (GPa) = 60.57439 25.41210 94.09900
#
# Poissons Ratio (x) = 0.23543 0.22109
# Poissons Ratio (y) = 0.56120 0.46390
# Poissons Ratio (z) = 0.14233 0.12528
#
# Static dielectric constant tensor:
#      x y z
#    x 1.725140 -0.000010 0.007650 
#    y -0.000010 1.658690 0.000000 
#    z 0.007650 0.000000 1.690710 
# 
# From -- ./inp_files/295644.got.cif
#   From: 2010.05.17/outbox.cif.g08.bks.cpg/sg12_148_cif.got.tgz:295644.got - 2010.06.03 13:09:07.
