data_PCOD9198232
_publ_section_title
;
Structure prediction by ZEFSAII (Michael W. Deem and Ramdas Pophale) SiO2 
 PCOD9198232
Probable space group: C 2/M
;
_chemical_formula_sum "Si O2"
_cell_formula_units_Z 34
_cell_length_a 10.285627
_cell_length_b 14.658858
_cell_length_c 13.089822
_cell_angle_alpha 90.000000
_cell_angle_beta 60.749835
_cell_angle_gamma 90.000000
_cell_volume 1721.977202
_symmetry_space_group_name_H-M "C 2/M"
_symmetry_group_IT_number 12
_symmetry_cell_setting 'monoclinic'
loop_
_space_group_symop_operation_xyz
x,y,z
-x,y,-z
-x,-y,-z
x,-y,z
1/2+x,1/2+y,z
1/2-x,1/2+y,-z
1/2-x,1/2-y,-z
1/2+x,1/2-y,z
loop_
_atom_site_type_symbol
_atom_site_label
_atom_site_fract_x
_atom_site_fract_y
_atom_site_fract_z
Si Si1 0.252799 0.000000 0.118981
Si Si2 0.067893 0.856381 0.303162
Si Si3 0.000000 0.000000 0.500000
Si Si4 0.957162 0.649420 0.674693
Si Si5 0.767906 0.397026 0.555710
Si Si6 0.956721 0.500000 0.848377
O O1 0.153232 0.911517 0.182723
O O2 0.392314 0.000000 0.143434
O O3 0.320724 0.000000 0.980143
O O4 0.889667 0.855271 0.356370
O O5 0.109468 0.750795 0.293681
O O6 0.082442 0.918599 0.398596
O O7 0.864634 0.599702 0.621077
O O8 0.127004 0.651194 0.567026
O O9 0.952539 0.588944 0.777611
O O10 0.729954 0.500000 0.531460
#
# Coordination Sequence:
#
# PCOD9198232 Si02
#       6
#     4   8   2   8   8   4
#     4  10  26  44  60  89 119 167 219 258 301 363
#     4  11  24  38  64  91 126 159 210 247 305 376
#     4  10  20  36  56  94 122 154 186 246 308 356
#     4  11  23  38  65  92 126 164 196 253 318 360
#     4  11  20  40  58  97 124 153 199 251 305 388
#     4  11  24  44  65  83 124 166 212 264 307 349
#
# _framework density 19.744744000000001
#
# number of rings (size 3 to 8) (size 9 to 14) (size 15 to 20)
#    0.000    1.176    4.706    2.824    9.882    0.941 
#    0.000    2.353    0.000    0.000    0.000    0.000 
#    0.000    0.000    0.000    0.000    0.000    0.000 
#
# Total GULP energy -94715.756505 kJ/mol
# GULP energy per Si atom -5571.515089 kJ/mol
# Density = 1.969980 g / cm^3
# Si number density = 19.744744 Si / 1000 Ang^3
#
#
#
# Elastic Constant Matrix: (Units=GPa)
#
#
# Indices 1 2 3 4 5 6 
#
# 1 41.1114 16.0521 39.7495 0.0000 -3.4234 0.0000
# 2 16.0521 170.2222 60.7055 0.0000 -2.0125 0.0000
# 3 39.7495 60.7055 165.2629 0.0000 -12.4450 0.0000
# 4 0.0000 0.0000 0.0000 -3.4347 0.0000 8.8748
# 5 -3.4234 -2.0125 -12.4450 0.0000 28.5712 0.0000
# 6 0.0000 0.0000 0.0000 8.8748 0.0000 -0.0787
#
#
#
# Elastic Compliance Matrix: (Units=1/GPa)
#
#
# Indices 1 2 3 4 5 6 
#
# 1 0.031717 -0.000320 -0.007472 0.000000 0.000523 0.000000
# 2 -0.000320 0.006774 -0.002459 0.000000 -0.000632 0.000000
# 3 -0.007472 -0.002459 0.008965 0.000000 0.002836 0.000000
# 4 0.000000 0.000000 0.000000 0.001003 0.000000 0.113066
# 5 0.000523 -0.000632 0.002836 0.000000 0.036254 0.000000
# 6 0.000000 0.000000 0.000000 0.113066 0.000000 0.043758
#
#
# Mechanical properties :
#
#
# Convention : Reuss Voigt Hill
#
# Bulk Modulus (GPa) = 37.09953 67.73454 52.41704
# Shear Modulus (GPa) = 31.65416 22.35086 27.00251
#
# Velocity S-wave (km/s) = 4.00830 3.36816 3.70209
# Velocity P-wave (km/s) = 6.34447 7.03602 6.69918
#
# Compressibility (1/GPa) = 0.02695452
#
# Stress axis : x y z
#
# Youngs Moduli (GPa) = 31.52898 147.61603 111.54596
#
# Poissons Ratio (x) = 0.04726 0.83343
# Poissons Ratio (y) = 0.01009 0.27429
# Poissons Ratio (z) = 0.23557 0.36299
#
# Static dielectric constant tensor:
#      x y z
#    x 1.550030 0.000000 -0.057740 
#    y 0.000000 1.680180 0.000000 
#    z -0.057740 0.000000 1.636830 
# 
# From -- ./inp_files/128986.got.cif
#   From: 2010.05.17/outbox.cif.g08.bks.cpg/sg12_65_cif.got.tgz:128986.got - 2010.06.03 13:09:07.
