data_PCOD9198398
_publ_section_title
;
Structure prediction by ZEFSAII (Michael W. Deem and Ramdas Pophale) SiO2 
 PCOD9198398
Probable space group: C 2/M
;
_chemical_formula_sum "Si O2"
_cell_formula_units_Z 56
_cell_length_a 28.128931
_cell_length_b 9.378257
_cell_length_c 13.831586
_cell_angle_alpha 90.000000
_cell_angle_beta 125.260130
_cell_angle_gamma 90.000000
_cell_volume 2979.370674
_symmetry_space_group_name_H-M "C 2/M"
_symmetry_group_IT_number 12
_symmetry_cell_setting 'monoclinic'
loop_
_space_group_symop_operation_xyz
x,y,z
-x,y,-z
-x,-y,-z
x,-y,z
1/2+x,1/2+y,z
1/2-x,1/2+y,-z
1/2-x,1/2-y,-z
1/2+x,1/2-y,z
loop_
_atom_site_type_symbol
_atom_site_label
_atom_site_fract_x
_atom_site_fract_y
_atom_site_fract_z
Si Si1 0.378731 0.841588 0.771886
Si Si2 0.412829 0.830181 0.125230
Si Si3 0.804811 0.328099 0.874890
Si Si4 0.509648 0.657391 0.124984
Si Si5 0.176545 0.827017 0.667837
Si Si6 0.563917 0.829659 0.620558
Si Si7 0.296283 0.839557 0.494678
O O1 0.337218 0.789448 0.811328
O O2 0.429836 0.737753 0.802967
O O3 0.344970 0.857094 0.632660
O O4 0.400453 0.000000 0.827401
O O5 0.458805 0.748368 0.113184
O O6 0.430421 0.806435 0.257286
O O7 0.416882 0.000000 0.113064
O O8 0.347892 0.784825 0.013105
O O9 0.802734 0.500000 0.872559
O O10 0.736891 0.284220 0.794755
O O11 0.511705 0.500000 0.171927
O O12 0.500000 0.644093 0.000000
O O13 0.117068 0.761517 0.639611
O O14 0.184552 0.754913 0.572898
O O15 0.173954 0.000000 0.660226
O O16 0.500000 0.794737 0.500000
O O17 0.573026 0.000000 0.613101
O O18 0.250000 0.750000 0.500000
O O19 0.277236 0.000000 0.442608
#
# Coordination Sequence:
#
# PCOD9198398 Si02
#       7
#     8   8   8   8   8   8   8
#     4  10  20  36  57  82 120 163 201 238 288 357
#     4  10  21  40  65  85 113 163 209 245 295 358
#     4   9  18  36  61  89 118 153 202 246 287 359
#     4  11  23  36  54  89 129 156 191 246 304 352
#     4  11  23  41  63  90 122 158 200 251 305 358
#     4  10  24  45  64  87 118 153 201 256 303 358
#     4  11  22  37  59  89 124 161 200 242 297 359
#
# _framework density 18.795915000000001
#
# number of rings (size 3 to 8) (size 9 to 14) (size 15 to 20)
#    0.000    1.714    2.857    1.286    2.000    3.143 
#    0.000    1.429    0.000    0.000    0.000    0.000 
#    0.000    0.000    0.000    0.000    0.000    0.000 
#
# Total GULP energy -155990.294805 kJ/mol
# GULP energy per Si atom -5571.081957 kJ/mol
# Density = 1.875314 g / cm^3
# Si number density = 18.795915 Si / 1000 Ang^3
#
#
#
# Elastic Constant Matrix: (Units=GPa)
#
#
# Indices 1 2 3 4 5 6 
#
# 1 131.6870 71.2991 66.4609 0.0000 15.8276 0.0000
# 2 71.2991 85.2416 51.0245 0.0000 6.1169 0.0000
# 3 66.4609 51.0245 137.2296 0.0000 17.9449 0.0000
# 4 0.0000 0.0000 0.0000 19.0740 0.0000 -0.9742
# 5 15.8276 6.1169 17.9449 0.0000 32.9685 0.0000
# 6 0.0000 0.0000 0.0000 -0.9742 0.0000 29.2764
#
#
#
# Elastic Compliance Matrix: (Units=1/GPa)
#
#
# Indices 1 2 3 4 5 6 
#
# 1 0.015409 -0.010864 -0.002928 0.000000 -0.003788 0.000000
# 2 -0.010864 0.022752 -0.003583 0.000000 0.002945 0.000000
# 3 -0.002928 -0.003583 0.010515 0.000000 -0.003653 0.000000
# 4 0.000000 0.000000 0.000000 0.052517 0.000000 0.001748
# 5 -0.003788 0.002945 -0.003653 0.000000 0.033593 0.000000
# 6 0.000000 0.000000 0.000000 0.001748 0.000000 0.034215
#
#
# Mechanical properties :
#
#
# Convention : Reuss Voigt Hill
#
# Bulk Modulus (GPa) = 71.80914 81.30302 76.55608
# Shear Modulus (GPa) = 23.99322 27.28869 25.64096
#
# Velocity S-wave (km/s) = 3.57671 3.81444 3.69748
# Velocity P-wave (km/s) = 7.43940 7.92146 7.68421
#
# Compressibility (1/GPa) = 0.01392580
#
# Stress axis : x y z
#
# Youngs Moduli (GPa) = 64.89793 43.95219 95.10302
#
# Poissons Ratio (x) = 0.47750 0.27843
# Poissons Ratio (y) = 0.70506 0.34076
# Poissons Ratio (z) = 0.19000 0.15749
#
# Static dielectric constant tensor:
#      x y z
#    x 1.635340 0.000000 0.003620 
#    y 0.000000 1.695950 0.000000 
#    z 0.003620 0.000000 1.651470 
# 
# From -- ./inp_files/238996.got.cif
#   From: 2010.05.17/outbox.cif.g08.bks.cpg/sg12_120_cif.got.tgz:238996.got - 2010.06.03 13:09:07.
