data_PCOD9198461
_publ_section_title
;
Structure prediction by ZEFSAII (Michael W. Deem and Ramdas Pophale) SiO2 
 PCOD9198461
Probable space group: C 2/M
;
_chemical_formula_sum "Si O2"
_cell_formula_units_Z 60
_cell_length_a 19.370120
_cell_length_b 27.591359
_cell_length_c 5.656656
_cell_angle_alpha 90.000000
_cell_angle_beta 102.239749
_cell_angle_gamma 90.000000
_cell_volume 2954.468186
_symmetry_space_group_name_H-M "C 2/M"
_symmetry_group_IT_number 12
_symmetry_cell_setting 'monoclinic'
loop_
_space_group_symop_operation_xyz
x,y,z
-x,y,-z
-x,-y,-z
x,-y,z
1/2+x,1/2+y,z
1/2-x,1/2+y,-z
1/2-x,1/2-y,-z
1/2+x,1/2-y,z
loop_
_atom_site_type_symbol
_atom_site_label
_atom_site_fract_x
_atom_site_fract_y
_atom_site_fract_z
Si Si1 0.368830 0.829772 0.688363
Si Si2 0.669615 0.445643 0.611211
Si Si3 0.724394 0.365426 0.329428
Si Si4 0.500000 0.844339 0.500000
Si Si5 0.791161 0.759052 0.783392
Si Si6 0.068246 0.413520 0.938023
Si Si7 0.284425 0.051383 0.053317
Si Si8 0.967969 0.942134 0.225350
O O1 0.295484 0.847643 0.517771
O O2 0.433944 0.816283 0.564189
O O3 0.351021 0.782021 0.824488
O O4 0.396825 0.875645 0.854075
O O5 0.650607 0.500000 0.503704
O O6 0.671926 0.399972 0.439930
O O7 0.748609 0.448553 0.770564
O O8 0.615911 0.436628 0.790711
O O9 0.689519 0.315882 0.211806
O O10 0.755194 0.401042 0.154835
O O11 0.537357 0.879531 0.713126
O O12 0.750000 0.750000 0.500000
O O13 0.750000 0.750000 0.000000
O O14 0.131776 0.445903 0.895548
O O15 0.000000 0.438952 0.000000
O O16 0.262467 0.000000 0.151817
O O17 0.000000 0.923964 0.500000
O O18 0.981855 0.000000 0.231041
O O19 0.000000 0.923151 0.000000
#
# Coordination Sequence:
#
# PCOD9198461 Si02
#       8
#     8   8   8   4   8   8   8   8
#     4  10  20  37  62  88 118 161 206 267 321 390
#     4  10  22  37  59  91 124 169 217 264 322 381
#     4  11  21  37  61  88 127 158 209 265 327 381
#     4  10  20  36  61  86 118 166 215 266 318 392
#     4  10  23  38  64  94 118 151 198 259 321 388
#     4  10  20  36  57  84 121 166 220 264 322 376
#     4  11  22  36  57  86 127 171 218 272 321 373
#     4   9  19  36  58  84 115 153 204 257 305 374
#
# _framework density 20.308222000000001
#
# number of rings (size 3 to 8) (size 9 to 14) (size 15 to 20)
#    0.000    1.867    2.667    1.200    5.600    0.267 
#    0.000    0.333    1.467    0.000    0.000    0.000 
#    0.000    0.000    0.000    0.000    0.000    0.000 
#
# Total GULP energy -167062.567389 kJ/mol
# GULP energy per Si atom -5568.752246 kJ/mol
# Density = 2.026200 g / cm^3
# Si number density = 20.308222 Si / 1000 Ang^3
#
#
#
# Elastic Constant Matrix: (Units=GPa)
#
#
# Indices 1 2 3 4 5 6 
#
# 1 89.1729 19.8207 20.5249 0.0000 -22.9430 0.0000
# 2 19.8207 138.0733 18.9287 0.0000 -24.8338 0.0000
# 3 20.5249 18.9287 64.8725 0.0000 -22.5741 0.0000
# 4 0.0000 0.0000 0.0000 34.7740 0.0000 -14.6908
# 5 -22.9430 -24.8338 -22.5741 0.0000 43.1194 0.0000
# 6 0.0000 0.0000 0.0000 -14.6908 0.0000 22.6262
#
#
#
# Elastic Compliance Matrix: (Units=1/GPa)
#
#
# Indices 1 2 3 4 5 6 
#
# 1 0.013273 -0.000610 -0.002062 0.000000 0.005632 0.000000
# 2 -0.000610 0.008151 -0.000813 0.000000 0.003944 0.000000
# 3 -0.002062 -0.000813 0.019270 0.000000 0.008523 0.000000
# 4 0.000000 0.000000 0.000000 0.039627 0.000000 0.025729
# 5 0.005632 0.003944 0.008523 0.000000 0.032922 0.000000
# 6 0.000000 0.000000 0.000000 0.025729 0.000000 0.060902
#
#
# Mechanical properties :
#
#
# Convention : Reuss Voigt Hill
#
# Bulk Modulus (GPa) = 29.65108 45.62968 37.64038
# Shear Modulus (GPa) = 25.99353 35.62688 30.81020
#
# Velocity S-wave (km/s) = 3.58152 4.19299 3.89926
# Velocity P-wave (km/s) = 5.63341 6.77930 6.23274
#
# Compressibility (1/GPa) = 0.03372559
#
# Stress axis : x y z
#
# Youngs Moduli (GPa) = 75.33929 122.68529 51.89341
#
# Poissons Ratio (x) = 0.07481 0.10700
# Poissons Ratio (y) = 0.04594 0.04218
# Poissons Ratio (z) = 0.15534 0.09972
#
# Static dielectric constant tensor:
#      x y z
#    x 1.937940 0.000000 0.131820 
#    y 0.000000 1.713010 0.000000 
#    z 0.131820 0.000000 1.948140 
# 
# From -- ./inp_files/22325.got.cif
#   From: 2010.05.17/outbox.cif.g08.bks.cpg/sg12_12_cif.got.tgz:22325.got - 2010.06.03 13:09:07.
