data_PCOD9198679
_publ_section_title
;
Structure prediction by ZEFSAII (Michael W. Deem and Ramdas Pophale) SiO2 
 PCOD9198679
Probable space group: C 2/M
;
_chemical_formula_sum "Si O2"
_cell_formula_units_Z 50
_cell_length_a 14.886016
_cell_length_b 7.573519
_cell_length_c 24.509095
_cell_angle_alpha 90.000000
_cell_angle_beta 135.658920
_cell_angle_gamma 90.000000
_cell_volume 1931.239195
_symmetry_space_group_name_H-M "C 2/M"
_symmetry_group_IT_number 12
_symmetry_cell_setting 'monoclinic'
loop_
_space_group_symop_operation_xyz
x,y,z
-x,y,-z
-x,-y,-z
x,-y,z
1/2+x,1/2+y,z
1/2-x,1/2+y,-z
1/2-x,1/2-y,-z
1/2+x,1/2-y,z
loop_
_atom_site_type_symbol
_atom_site_label
_atom_site_fract_x
_atom_site_fract_y
_atom_site_fract_z
Si Si1 0.741212 0.295793 0.697296
Si Si2 0.349502 0.305399 0.179912
Si Si3 0.504736 0.795928 0.148428
Si Si4 0.607875 0.297653 0.009835
Si Si5 0.097896 0.213059 0.341104
Si Si6 0.447670 0.284601 0.558683
Si Si7 0.000000 0.500000 0.500000
O O1 0.716837 0.500000 0.698172
O O2 0.598100 0.221448 0.631952
O O3 0.845564 0.235933 0.788542
O O4 0.814173 0.279430 0.670491
O O5 0.304981 0.500000 0.178133
O O6 0.442110 0.318801 0.167799
O O7 0.449038 0.227371 0.266173
O O8 0.231995 0.206031 0.101463
O O9 0.408895 0.790699 0.055758
O O10 0.509617 0.000000 0.168650
O O11 0.574171 0.500000 0.983327
O O12 0.500000 0.211482 0.000000
O O13 0.123857 0.256769 0.415357
O O14 0.094682 0.000000 0.335657
O O15 0.440985 0.500000 0.545624
O O16 0.413852 0.157340 0.494037
#
# Coordination Sequence:
#
# PCOD9198679 Si02
#       7
#     8   8   8   8   8   8   2
#     4   9  20  38  65  94 126 163 210 261 314 370
#     4  10  20  36  58  83 112 156 203 253 309 366
#     4  10  20  36  58  83 112 156 203 253 309 366
#     4  11  24  37  48  75 117 157 204 261 310 359
#     4   9  20  38  65  94 126 163 210 261 314 370
#     4  10  23  45  69  97 138 166 207 267 304 382
#     4  12  26  44  72 106 124 180 210 236 336 386
#
# _framework density 25.890111000000001
#
# number of rings (size 3 to 8) (size 9 to 14) (size 15 to 20)
#    0.000    2.080    0.000    2.160    4.480    2.560 
#    0.000    0.800    0.000    0.000    0.000    0.000 
#    0.000    0.000    0.000    0.000    0.000    0.000 
#
# Total GULP energy -139259.239548 kJ/mol
# GULP energy per Si atom -5570.369582 kJ/mol
# Density = 2.583118 g / cm^3
# Si number density = 25.890111 Si / 1000 Ang^3
#
#
#
# Elastic Constant Matrix: (Units=GPa)
#
#
# Indices 1 2 3 4 5 6 
#
# 1 51.0283 0.2175 22.6975 0.0000 -21.3958 0.0000
# 2 0.2175 104.5606 7.0446 0.0000 -16.8944 0.0000
# 3 22.6975 7.0446 141.1099 0.0000 -1.8361 0.0000
# 4 0.0000 0.0000 0.0000 -1.5778 0.0000 -5.5520
# 5 -21.3958 -16.8944 -1.8361 0.0000 55.5503 0.0000
# 6 0.0000 0.0000 0.0000 -5.5520 0.0000 3.2339
#
#
#
# Elastic Compliance Matrix: (Units=1/GPa)
#
#
# Indices 1 2 3 4 5 6 
#
# 1 0.025759 0.001897 -0.004103 0.000000 0.010363 0.000000
# 2 0.001897 0.010228 -0.000766 0.000000 0.003816 0.000000
# 3 -0.004103 -0.000766 0.007765 0.000000 -0.001557 0.000000
# 4 0.000000 0.000000 0.000000 -0.090012 0.000000 -0.154536
# 5 0.010363 0.003816 -0.001557 0.000000 0.023102 0.000000
# 6 0.000000 0.000000 0.000000 -0.154536 0.000000 0.043917
#
#
# Mechanical properties :
#
#
# Convention : Reuss Voigt Hill
#
# Bulk Modulus (GPa) = 26.44973 39.62423 33.03698
# Shear Modulus (GPa) = 127.20673 29.22388 78.21531
#
# Velocity S-wave (km/s) = 7.01712 3.36336 5.50237
# Velocity P-wave (km/s) = 8.71158 5.51551 7.29083
#
# Compressibility (1/GPa) = 0.03780757
#
# Stress axis : x y z
#
# Youngs Moduli (GPa) = 38.82132 97.77004 128.78852
#
# Poissons Ratio (x) = -0.18549 0.52845
# Poissons Ratio (y) = -0.07365 0.09867
# Poissons Ratio (z) = 0.15929 0.07490
#
# Static dielectric constant tensor:
#      x y z
#    x 2.073620 0.000000 -0.006410 
#    y 0.000000 1.977240 0.000000 
#    z -0.006410 0.000000 2.445860 
# 
# From -- ./inp_files/362794.got.cif
#   From: 2010.05.17/outbox.cif.g08.bks.cpg/sg12_182_cif.got.tgz:362794.got - 2010.06.03 13:09:07.
