data_PCOD9198751
_publ_section_title
;
Structure prediction by ZEFSAII (Michael W. Deem and Ramdas Pophale) SiO2 
 PCOD9198751
Probable space group: C 2/M
;
_chemical_formula_sum "Si O2"
_cell_formula_units_Z 48
_cell_length_a 15.094598
_cell_length_b 13.976063
_cell_length_c 9.443483
_cell_angle_alpha 90.000000
_cell_angle_beta 88.141206
_cell_angle_gamma 90.000000
_cell_volume 1991.177696
_symmetry_space_group_name_H-M "C 2/M"
_symmetry_group_IT_number 12
_symmetry_cell_setting 'monoclinic'
loop_
_space_group_symop_operation_xyz
x,y,z
-x,y,-z
-x,-y,-z
x,-y,z
1/2+x,1/2+y,z
1/2-x,1/2+y,-z
1/2-x,1/2-y,-z
1/2+x,1/2-y,z
loop_
_atom_site_type_symbol
_atom_site_label
_atom_site_fract_x
_atom_site_fract_y
_atom_site_fract_z
Si Si1 0.949751 0.734761 0.361259
Si Si2 0.261997 0.137049 0.010206
Si Si3 0.074826 0.894029 0.874540
Si Si4 0.118137 0.319927 0.223436
Si Si5 0.169113 0.893143 0.280256
Si Si6 0.703175 0.112199 0.491278
O O1 0.926388 0.814422 0.246781
O O2 0.865529 0.676996 0.419510
O O3 0.000000 0.773759 0.500000
O O4 0.020668 0.661591 0.286970
O O5 0.172046 0.101378 0.940649
O O6 0.353344 0.126640 0.920783
O O7 0.250000 0.250000 0.000000
O O8 0.254825 0.104730 0.171693
O O9 0.057530 0.000000 0.817084
O O10 0.000000 0.875390 0.000000
O O11 0.120971 0.202693 0.227872
O O12 0.192795 0.352856 0.331545
O O13 0.202059 0.877221 0.438136
O O14 0.129138 0.000000 0.271436
O O15 0.680940 0.000000 0.498379
#
# Coordination Sequence:
#
# PCOD9198751 Si02
#       6
#     8   8   8   8   8   8
#     4  10  22  39  59  83 115 154 192 236 288 340
#     4  10  20  36  58  84 116 150 190 234 276 333
#     4  11  23  39  60  87 120 156 191 231 287 348
#     4  10  21  37  59  85 112 149 193 237 285 338
#     4  10  20  36  58  84 115 147 184 234 289 342
#     4  10  22  40  60  82 113 152 193 238 287 340
#
# _framework density 24.106335000000001
#
# number of rings (size 3 to 8) (size 9 to 14) (size 15 to 20)
#    0.000    1.833    0.000    5.000    0.000    8.000 
#    0.000    5.833    0.000    2.500    0.000    0.000 
#    0.000    0.000    0.000    0.000    0.000    0.000 
#
# Total GULP energy -134047.594881 kJ/mol
# GULP energy per Si atom -5585.316453 kJ/mol
# Density = 2.405147 g / cm^3
# Si number density = 24.106335 Si / 1000 Ang^3
#
#
#
# Elastic Constant Matrix: (Units=GPa)
#
#
# Indices 1 2 3 4 5 6 
#
# 1 48.7962 11.4277 -0.2031 0.0000 -3.3542 0.0000
# 2 11.4277 131.8860 8.0373 0.0000 10.6443 0.0000
# 3 -0.2031 8.0373 55.8878 0.0000 1.1703 0.0000
# 4 0.0000 0.0000 0.0000 -1.4192 0.0000 -7.0339
# 5 -3.3542 10.6443 1.1703 0.0000 42.3471 0.0000
# 6 0.0000 0.0000 0.0000 -7.0339 0.0000 9.2311
#
#
#
# Elastic Compliance Matrix: (Units=1/GPa)
#
#
# Indices 1 2 3 4 5 6 
#
# 1 0.021118 -0.002025 0.000322 0.000000 0.002173 0.000000
# 2 -0.002025 0.007998 -0.001113 0.000000 -0.002140 0.000000
# 3 0.000322 -0.001113 0.018058 0.000000 -0.000194 0.000000
# 4 0.000000 0.000000 0.000000 -0.147519 0.000000 -0.112405
# 5 0.002173 -0.002140 -0.000194 0.000000 0.024330 0.000000
# 6 0.000000 0.000000 0.000000 -0.112405 0.000000 0.022680
#
#
# Mechanical properties :
#
#
# Convention : Reuss Voigt Hill
#
# Bulk Modulus (GPa) = 24.07063 30.56599 27.31831
# Shear Modulus (GPa) = -147.68385 24.51902 -61.58242
#
# Velocity S-wave (km/s) = -7.83559 3.19269 -5.05980
# Velocity P-wave (km/s) = 8.47674 5.12818 4.77268
#
# Compressibility (1/GPa) = 0.04154441
#
# Stress axis : x y z
#
# Youngs Moduli (GPa) = 47.35225 125.02661 55.37634
#
# Poissons Ratio (x) = 0.25316 -0.01786
# Poissons Ratio (y) = 0.09588 0.06162
# Poissons Ratio (z) = -0.01527 0.13913
#
# Static dielectric constant tensor:
#      x y z
#    x 1.997830 0.000000 -0.047750 
#    y 0.000000 2.013300 0.000000 
#    z -0.047750 0.000000 1.986250 
# 
# From -- ./inp_files/73647.got.cif
#   From: 2010.05.17/outbox.cif.g08.bks.cpg/sg12_37_cif.got.tgz:73647.got - 2010.06.03 13:09:07.
