data_PCOD9198961
_publ_section_title
;
Structure prediction by ZEFSAII (Michael W. Deem and Ramdas Pophale) SiO2 
 PCOD9198961
Probable space group: C 2/M
;
_chemical_formula_sum "Si O2"
_cell_formula_units_Z 44
_cell_length_a 10.424426
_cell_length_b 26.113443
_cell_length_c 13.043419
_cell_angle_alpha 90.000000
_cell_angle_beta 33.830838
_cell_angle_gamma 90.000000
_cell_volume 1976.798192
_symmetry_space_group_name_H-M "C 2/M"
_symmetry_group_IT_number 12
_symmetry_cell_setting 'monoclinic'
loop_
_space_group_symop_operation_xyz
x,y,z
-x,y,-z
-x,-y,-z
x,-y,z
1/2+x,1/2+y,z
1/2-x,1/2+y,-z
1/2-x,1/2-y,-z
1/2+x,1/2-y,z
loop_
_atom_site_type_symbol
_atom_site_label
_atom_site_fract_x
_atom_site_fract_y
_atom_site_fract_z
Si Si1 0.426013 0.638638 0.345196
Si Si2 0.462697 0.942980 0.402155
Si Si3 0.230693 0.240152 0.656238
Si Si4 0.500000 0.310006 0.000000
Si Si5 0.756740 0.606450 0.942469
Si Si6 0.143152 0.344257 0.804412
O O1 0.209302 0.602995 0.511436
O O2 0.357977 0.698305 0.367237
O O3 0.614277 0.638783 0.309881
O O4 0.546213 0.612295 0.163818
O O5 0.500000 0.938159 0.500000
O O6 0.687294 0.936469 0.179692
O O7 0.366809 0.000000 0.448136
O O8 0.500000 0.232975 0.500000
O O9 0.176609 0.300493 0.696315
O O10 0.091651 0.222386 0.847215
O O11 0.293280 0.344926 0.096393
O O12 0.981569 0.612474 0.863656
O O13 0.000000 0.325507 0.000000
#
# Coordination Sequence:
#
# PCOD9198961 Si02
#       6
#     8   8   8   4   8   8
#     4  10  23  41  60  92 135 163 205 259 302 364
#     4  11  24  44  69  95 119 153 210 268 319 370
#     4  11  22  34  57  88 123 173 209 246 297 359
#     4  10  20  36  59  82 128 158 211 252 300 354
#     4  10  22  40  63  89 124 168 201 255 312 367
#     4  10  23  39  59  90 134 170 210 247 297 368
#
# _framework density 22.258216000000001
#
# number of rings (size 3 to 8) (size 9 to 14) (size 15 to 20)
#    0.000    1.636    0.909    3.818    5.091    3.636 
#    0.000    4.091    0.000    3.273    0.000    0.000 
#    0.000    0.000    0.000    0.000    0.000    0.000 
#
# Total GULP energy -122737.247469 kJ/mol
# GULP energy per Si atom -5578.965794 kJ/mol
# Density = 2.220756 g / cm^3
# Si number density = 22.258216 Si / 1000 Ang^3
#
#
#
# Elastic Constant Matrix: (Units=GPa)
#
#
# Indices 1 2 3 4 5 6 
#
# 1 70.0226 3.8200 22.7428 0.0000 4.2421 0.0000
# 2 3.8200 61.0619 24.8507 0.0000 4.6529 0.0000
# 3 22.7428 24.8507 80.1024 0.0000 22.6836 0.0000
# 4 0.0000 0.0000 0.0000 15.2704 0.0000 -21.5212
# 5 4.2421 4.6529 22.6836 0.0000 48.9176 0.0000
# 6 0.0000 0.0000 0.0000 -21.5212 0.0000 -18.1391
#
#
#
# Elastic Compliance Matrix: (Units=1/GPa)
#
#
# Indices 1 2 3 4 5 6 
#
# 1 0.015813 0.000998 -0.005047 0.000000 0.000874 0.000000
# 2 0.000998 0.018853 -0.006447 0.000000 0.001110 0.000000
# 3 -0.005047 -0.006447 0.017980 0.000000 -0.007287 0.000000
# 4 0.000000 0.000000 0.000000 0.024507 0.000000 -0.029077
# 5 0.000874 0.001110 -0.007287 0.000000 0.023640 0.000000
# 6 0.000000 0.000000 0.000000 -0.029077 0.000000 -0.020631
#
#
# Mechanical properties :
#
#
# Convention : Reuss Voigt Hill
#
# Bulk Modulus (GPa) = 31.58948 34.89044 33.23996
# Shear Modulus (GPa) = 44.76060 19.86133 32.31096
#
# Velocity S-wave (km/s) = 4.48925 2.99040 3.81418
# Velocity P-wave (km/s) = 6.41048 5.25668 5.86204
#
# Compressibility (1/GPa) = 0.03165610
#
# Stress axis : x y z
#
# Youngs Moduli (GPa) = 63.23971 53.04069 55.61614
#
# Poissons Ratio (x) = -0.05294 0.28068
# Poissons Ratio (y) = -0.06312 0.35854
# Poissons Ratio (z) = 0.31915 0.34193
#
# Static dielectric constant tensor:
#      x y z
#    x 1.810860 0.000000 0.075850 
#    y 0.000000 1.810670 0.000000 
#    z 0.075850 0.000000 1.824640 
# 
# From -- ./inp_files/209032.got.cif
#   From: 2010.05.17/outbox.cif.g08.bks.cpg/sg12_105_cif.got.tgz:209032.got - 2010.06.03 13:09:07.
