data_PCOD9198819
_publ_section_title
;
Structure prediction by ZEFSAII (Michael W. Deem and Ramdas Pophale) SiO2 
 PCOD9198819
Probable space group: C 2/M
;
_chemical_formula_sum "Si O2"
_cell_formula_units_Z 50
_cell_length_a 16.288788
_cell_length_b 12.638423
_cell_length_c 13.514209
_cell_angle_alpha 90.000000
_cell_angle_beta 107.666042
_cell_angle_gamma 90.000000
_cell_volume 2650.897628
_symmetry_space_group_name_H-M "C 2/M"
_symmetry_group_IT_number 12
_symmetry_cell_setting 'monoclinic'
loop_
_space_group_symop_operation_xyz
x,y,z
-x,y,-z
-x,-y,-z
x,-y,z
1/2+x,1/2+y,z
1/2-x,1/2+y,-z
1/2-x,1/2-y,-z
1/2+x,1/2-y,z
loop_
_atom_site_type_symbol
_atom_site_label
_atom_site_fract_x
_atom_site_fract_y
_atom_site_fract_z
Si Si1 0.164102 0.701719 0.921091
Si Si2 0.513650 0.692288 0.152887
Si Si3 0.600916 0.624819 0.557466
Si Si4 0.719313 0.756389 0.738334
Si Si5 0.500000 0.500000 0.000000
Si Si6 0.629203 0.119491 0.113712
Si Si7 0.352259 0.625992 0.645848
O O1 0.188719 0.670222 0.818669
O O2 0.088249 0.787913 0.881265
O O3 0.250000 0.750000 0.000000
O O4 0.133608 0.622834 0.995773
O O5 0.558195 0.796939 0.124320
O O6 0.558833 0.668490 0.273656
O O7 0.531672 0.593330 0.088798
O O8 0.500000 0.642059 0.500000
O O9 0.611931 0.500000 0.585939
O O10 0.640836 0.698521 0.655810
O O11 0.649206 0.647511 0.471421
O O12 0.781973 0.666662 0.808870
O O13 0.776337 0.819930 0.680294
O O14 0.613891 0.000000 0.141503
O O15 0.349660 0.500000 0.657183
#
# Coordination Sequence:
#
# PCOD9198819 Si02
#       7
#     8   8   8   8   2   8   8
#     4  10  21  36  50  80 112 146 188 226 282 335
#     4  11  21  37  58  84 112 155 191 237 287 334
#     4  10  20  36  58  86 112 144 184 238 289 337
#     4  10  21  37  57  82 115 148 190 231 288 341
#     4  12  20  36  62  80 118 148 200 238 286 344
#     4  10  21  38  57  81 114 152 192 234 281 343
#     4  10  21  36  58  82 111 146 192 239 288 334
#
# _framework density 18.861536000000001
#
# number of rings (size 3 to 8) (size 9 to 14) (size 15 to 20)
#    0.000    1.760    2.400    1.920    0.000    1.920 
#    7.200    0.000    0.000    0.480    0.000    0.000 
#    0.000    0.000    0.000    0.000    0.000    0.000 
#
# Total GULP energy -139192.033443 kJ/mol
# GULP energy per Si atom -5567.681338 kJ/mol
# Density = 1.881861 g / cm^3
# Si number density = 18.861536 Si / 1000 Ang^3
#
#
#
# Elastic Constant Matrix: (Units=GPa)
#
#
# Indices 1 2 3 4 5 6 
#
# 1 71.9821 23.7588 29.2798 0.0000 1.3653 0.0000
# 2 23.7588 91.2703 16.4740 0.0000 -5.5841 0.0000
# 3 29.2798 16.4740 85.8086 0.0000 -1.9441 0.0000
# 4 0.0000 0.0000 0.0000 20.7354 0.0000 4.0327
# 5 1.3653 -5.5841 -1.9441 0.0000 36.9486 0.0000
# 6 0.0000 0.0000 0.0000 4.0327 0.0000 11.0336
#
#
#
# Elastic Compliance Matrix: (Units=1/GPa)
#
#
# Indices 1 2 3 4 5 6 
#
# 1 0.017243 -0.003636 -0.005219 0.000000 -0.001461 0.000000
# 2 -0.003636 0.012212 -0.001060 0.000000 0.001924 0.000000
# 3 -0.005219 -0.001060 0.013655 0.000000 0.000751 0.000000
# 4 0.000000 0.000000 0.000000 0.051917 0.000000 -0.018976
# 5 -0.001461 0.001924 0.000751 0.000000 0.027449 0.000000
# 6 0.000000 0.000000 0.000000 -0.018976 0.000000 0.097568
#
#
# Mechanical properties :
#
#
# Convention : Reuss Voigt Hill
#
# Bulk Modulus (GPa) = 42.95491 43.12067 43.03779
# Shear Modulus (GPa) = 20.19108 25.71341 22.95225
#
# Velocity S-wave (km/s) = 3.27538 3.69626 3.49217
# Velocity P-wave (km/s) = 6.09323 6.41309 6.25521
#
# Compressibility (1/GPa) = 0.02328022
#
# Stress axis : x y z
#
# Youngs Moduli (GPa) = 57.99472 81.88625 73.23240
#
# Poissons Ratio (x) = 0.29774 0.38218
# Poissons Ratio (y) = 0.21087 0.07765
# Poissons Ratio (z) = 0.30266 0.08682
#
# Static dielectric constant tensor:
#      x y z
#    x 1.696800 0.000000 -0.020740 
#    y 0.000000 1.613830 0.000000 
#    z -0.020740 0.000000 1.679190 
# 
# From -- ./inp_files/223433.got.cif
#   From: 2010.05.17/outbox.cif.g08.bks.cpg/sg12_112_cif.got.tgz:223433.got - 2010.06.03 13:09:07.
