data_PCOD9198431
_publ_section_title
;
Structure prediction by ZEFSAII (Michael W. Deem and Ramdas Pophale) SiO2 
 PCOD9198431
Probable space group: C 2/M
;
_chemical_formula_sum "Si O2"
_cell_formula_units_Z 56
_cell_length_a 25.077943
_cell_length_b 20.425196
_cell_length_c 5.029265
_cell_angle_alpha 90.000000
_cell_angle_beta 66.593832
_cell_angle_gamma 90.000000
_cell_volume 2364.117245
_symmetry_space_group_name_H-M "C 2/M"
_symmetry_group_IT_number 12
_symmetry_cell_setting 'monoclinic'
loop_
_space_group_symop_operation_xyz
x,y,z
-x,y,-z
-x,-y,-z
x,-y,z
1/2+x,1/2+y,z
1/2-x,1/2+y,-z
1/2-x,1/2-y,-z
1/2+x,1/2-y,z
loop_
_atom_site_type_symbol
_atom_site_label
_atom_site_fract_x
_atom_site_fract_y
_atom_site_fract_z
Si Si1 0.432878 0.718470 0.172029
Si Si2 0.117388 0.649200 0.949249
Si Si3 0.171391 0.929121 0.406880
Si Si4 0.089825 0.427132 0.464828
Si Si5 0.244550 0.326662 0.556549
Si Si6 0.780608 0.567457 0.807779
Si Si7 0.433066 0.633896 0.671454
O O1 0.397208 0.779905 0.144096
O O2 0.425001 0.696355 0.491079
O O3 0.500000 0.736579 0.000000
O O4 0.423858 0.656610 0.991553
O O5 0.100276 0.598454 0.743606
O O6 0.187739 0.658494 0.850919
O O7 0.074798 0.629855 0.282352
O O8 0.193724 0.862339 0.504816
O O9 0.114931 0.915821 0.340776
O O10 0.163165 0.000000 0.564930
O O11 0.227861 0.936316 0.110744
O O12 0.062114 0.500000 0.517992
O O13 0.154459 0.436711 0.215510
O O14 0.250000 0.250000 0.500000
O O15 0.225681 0.365875 0.334533
O O16 0.776480 0.500000 0.640495
O O17 0.500000 0.611987 0.500000
#
# Coordination Sequence:
#
# PCOD9198431 Si02
#       7
#     8   8   8   8   8   8   8
#     4  10  22  43  66  89 120 158 203 256 314 371
#     4  11  21  36  59  88 116 160 203 247 308 373
#     4  11  23  39  61  86 122 166 207 253 309 371
#     4  10  20  36  57  83 120 160 204 244 293 365
#     4  11  23  35  55  89 125 158 200 258 311 367
#     4   9  20  37  54  80 119 167 204 239 296 366
#     4  10  23  42  64  89 119 158 206 259 307 358
#
# _framework density 23.68749
#
# number of rings (size 3 to 8) (size 9 to 14) (size 15 to 20)
#    0.000    1.714    1.429    2.571    4.000    3.143 
#    0.000    0.000    0.000    5.143    0.000    0.000 
#    0.000    0.000    0.000    0.000    0.000    0.000 
#
# Total GULP energy -155896.823311 kJ/mol
# GULP energy per Si atom -5567.743690 kJ/mol
# Density = 2.363358 g / cm^3
# Si number density = 23.687490 Si / 1000 Ang^3
#
#
#
# Elastic Constant Matrix: (Units=GPa)
#
#
# Indices 1 2 3 4 5 6 
#
# 1 96.5733 4.7342 -5.4735 0.0000 -4.3900 0.0000
# 2 4.7342 118.7563 -8.4667 0.0000 -1.5029 0.0000
# 3 -5.4735 -8.4667 25.3931 0.0000 3.3561 0.0000
# 4 0.0000 0.0000 0.0000 103.2853 0.0000 -49.7153
# 5 -4.3900 -1.5029 3.3561 0.0000 21.6651 0.0000
# 6 0.0000 0.0000 0.0000 -49.7153 0.0000 55.5211
#
#
#
# Elastic Compliance Matrix: (Units=1/GPa)
#
#
# Indices 1 2 3 4 5 6 
#
# 1 0.010561 -0.000259 0.001949 0.000000 0.001820 0.000000
# 2 -0.000259 0.008633 0.002808 0.000000 0.000111 0.000000
# 3 0.001949 0.002808 0.041509 0.000000 -0.005840 0.000000
# 4 0.000000 0.000000 0.000000 0.017016 0.000000 0.015237
# 5 0.001820 0.000111 -0.005840 0.000000 0.047438 0.000000
# 6 0.000000 0.000000 0.000000 0.015237 0.000000 0.031654
#
#
# Mechanical properties :
#
#
# Convention : Reuss Voigt Hill
#
# Bulk Modulus (GPa) = 14.34747 24.70121 19.52434
# Shear Modulus (GPa) = 29.23167 52.75620 40.99394
#
# Velocity S-wave (km/s) = 3.51672 4.72442 4.16458
# Velocity P-wave (km/s) = 4.74973 6.34119 5.60226
#
# Compressibility (1/GPa) = 0.06969868
#
# Stress axis : x y z
#
# Youngs Moduli (GPa) = 94.69029 115.84106 24.09118
#
# Poissons Ratio (x) = 0.03000 -0.04697
# Poissons Ratio (y) = 0.02452 -0.06764
# Poissons Ratio (z) = -0.18460 -0.32525
#
# Static dielectric constant tensor:
#      x y z
#    x 2.003620 0.000000 0.049060 
#    y 0.000000 2.138570 0.000000 
#    z 0.049060 0.000000 1.945980 
# 
# From -- ./inp_files/28761.got.cif
#   From: 2010.05.17/outbox.cif.g08.bks.cpg/sg12_15_cif.got.tgz:28761.got - 2010.06.03 13:09:07.
