data_PCOD9198847
_publ_section_title
;
Structure prediction by ZEFSAII (Michael W. Deem and Ramdas Pophale) SiO2 
 PCOD9198847
Probable space group: C 2/M
;
_chemical_formula_sum "Si O2"
_cell_formula_units_Z 56
_cell_length_a 9.046158
_cell_length_b 30.795131
_cell_length_c 11.038967
_cell_angle_alpha 90.000000
_cell_angle_beta 115.554731
_cell_angle_gamma 90.000000
_cell_volume 2774.372621
_symmetry_space_group_name_H-M "C 2/M"
_symmetry_group_IT_number 12
_symmetry_cell_setting 'monoclinic'
loop_
_space_group_symop_operation_xyz
x,y,z
-x,y,-z
-x,-y,-z
x,-y,z
1/2+x,1/2+y,z
1/2-x,1/2+y,-z
1/2-x,1/2-y,-z
1/2+x,1/2-y,z
loop_
_atom_site_type_symbol
_atom_site_label
_atom_site_fract_x
_atom_site_fract_y
_atom_site_fract_z
Si Si1 0.438854 0.808409 0.357156
Si Si2 0.827021 0.548247 0.995616
Si Si3 0.209890 0.114695 0.360963
Si Si4 0.804599 0.207628 0.948400
Si Si5 0.568706 0.049527 0.694908
Si Si6 0.644314 0.370915 0.854467
Si Si7 0.695584 0.873349 0.352886
O O1 0.500000 0.782523 0.500000
O O2 0.345266 0.849238 0.381717
O O3 0.307157 0.791522 0.212664
O O4 0.591703 0.829352 0.339993
O O5 0.798727 0.500000 0.935835
O O6 0.688204 0.581523 0.915618
O O7 0.843680 0.546585 0.144749
O O8 0.000000 0.563605 0.000000
O O9 0.300644 0.070279 0.352772
O O10 0.178122 0.118596 0.492626
O O11 0.051038 0.128919 0.230017
O O12 0.750000 0.250000 0.000000
O O13 0.785368 0.164491 0.026032
O O14 0.000000 0.210067 0.000000
O O15 0.425659 0.084940 0.671099
O O16 0.516069 0.000000 0.645719
O O17 0.726246 0.368457 0.750927
#
# Coordination Sequence:
#
# PCOD9198847 Si02
#       7
#     8   8   8   8   8   8   8
#     4   9  20  43  67  91 129 168 208 260 317 386
#     4  10  21  36  58  90 124 165 220 269 322 391
#     4  10  21  38  58  91 125 166 217 269 322 395
#     4  12  28  46  70 102 132 167 219 272 324 401
#     4  10  20  36  58  86 124 172 225 275 323 386
#     4  12  23  39  66  91 132 165 211 274 341 374
#     4  10  21  36  63  91 122 171 219 256 328 400
#
# _framework density 20.184743000000001
#
# number of rings (size 3 to 8) (size 9 to 14) (size 15 to 20)
#    0.000    1.571    2.857    3.429    2.000    1.714 
#    0.000    3.571    0.000    2.571    0.000    0.000 
#    0.000    0.000    0.000    0.000    0.000    0.000 
#
# Total GULP energy -156054.474099 kJ/mol
# GULP energy per Si atom -5573.374075 kJ/mol
# Density = 2.013880 g / cm^3
# Si number density = 20.184743 Si / 1000 Ang^3
#
#
#
# Elastic Constant Matrix: (Units=GPa)
#
#
# Indices 1 2 3 4 5 6 
#
# 1 66.7182 11.1165 26.3324 0.0000 -6.2503 0.0000
# 2 11.1165 31.3195 23.0352 0.0000 5.2553 0.0000
# 3 26.3324 23.0352 129.1183 0.0000 5.0158 0.0000
# 4 0.0000 0.0000 0.0000 13.3579 0.0000 -3.7255
# 5 -6.2503 5.2553 5.0158 0.0000 32.7055 0.0000
# 6 0.0000 0.0000 0.0000 -3.7255 0.0000 19.0287
#
#
#
# Elastic Compliance Matrix: (Units=1/GPa)
#
#
# Indices 1 2 3 4 5 6 
#
# 1 0.017341 -0.004816 -0.002853 0.000000 0.004525 0.000000
# 2 -0.004816 0.038896 -0.005713 0.000000 -0.006294 0.000000
# 3 -0.002853 -0.005713 0.009387 0.000000 -0.001067 0.000000
# 4 0.000000 0.000000 0.000000 0.079186 0.000000 0.015503
# 5 0.004525 -0.006294 -0.001067 0.000000 0.032616 0.000000
# 6 0.000000 0.000000 0.000000 0.015503 0.000000 0.055588
#
#
# Mechanical properties :
#
#
# Convention : Reuss Voigt Hill
#
# Bulk Modulus (GPa) = 25.73265 38.68046 32.20655
# Shear Modulus (GPa) = 18.33313 24.12987 21.23150
#
# Velocity S-wave (km/s) = 3.01702 3.46128 3.24676
# Velocity P-wave (km/s) = 4.99127 5.93117 5.48140
#
# Compressibility (1/GPa) = 0.03886114
#
# Stress axis : x y z
#
# Youngs Moduli (GPa) = 57.66734 25.70958 106.52704
#
# Poissons Ratio (x) = 0.12381 0.30393
# Poissons Ratio (y) = 0.27772 0.60854
# Poissons Ratio (z) = 0.16453 0.14687
#
# Static dielectric constant tensor:
#      x y z
#    x 1.381530 0.000000 0.152760 
#    y 0.000000 1.715420 0.000000 
#    z 0.152760 0.000000 1.734740 
# 
# From -- ./inp_files/125809.got.cif
#   From: 2010.05.17/outbox.cif.g08.bks.cpg/sg12_63_cif.got.tgz:125809.got - 2010.06.03 13:09:07.
