data_PCOD9198178
_publ_section_title
;
Structure prediction by ZEFSAII (Michael W. Deem and Ramdas Pophale) SiO2 
 PCOD9198178
Probable space group: C 2/M
;
_chemical_formula_sum "Si O2"
_cell_formula_units_Z 40
_cell_length_a 28.111990
_cell_length_b 12.721381
_cell_length_c 8.213703
_cell_angle_alpha 90.000000
_cell_angle_beta 44.754116
_cell_angle_gamma 90.000000
_cell_volume 2068.131059
_symmetry_space_group_name_H-M "C 2/M"
_symmetry_group_IT_number 12
_symmetry_cell_setting 'monoclinic'
loop_
_space_group_symop_operation_xyz
x,y,z
-x,y,-z
-x,-y,-z
x,-y,z
1/2+x,1/2+y,z
1/2-x,1/2+y,-z
1/2-x,1/2-y,-z
1/2+x,1/2-y,z
loop_
_atom_site_type_symbol
_atom_site_label
_atom_site_fract_x
_atom_site_fract_y
_atom_site_fract_z
Si Si1 0.802973 0.879541 0.946966
Si Si2 0.922567 0.500000 0.244752
Si Si3 0.232169 0.800459 0.311410
Si Si4 0.078009 0.500000 0.366318
Si Si5 0.140103 0.299574 0.774061
Si Si6 0.922832 0.729355 0.745491
O O1 0.778082 0.871374 0.821492
O O2 0.873457 0.816013 0.788765
O O3 0.808513 0.000000 0.984042
O O4 0.752558 0.813545 0.185424
O O5 0.917575 0.500000 0.450910
O O6 0.887938 0.397721 0.254824
O O7 0.000000 0.500000 0.000000
O O8 0.166320 0.786718 0.582681
O O9 0.293773 0.830140 0.279970
O O10 0.103805 0.612019 0.237686
O O11 0.000000 0.500000 0.500000
O O12 0.085630 0.262479 0.039380
O O13 0.000000 0.738932 0.500000
#
# Coordination Sequence:
#
# PCOD9198178 Si02
#       6
#     8   4   8   4   8   8
#     4  10  21  38  61  87 117 159 203 249 295 363
#     4  12  22  32  56  90 118 154 195 242 314 357
#     4   9  21  40  56  85 116 157 208 246 300 344
#     4  10  20  36  56  82 120 156 194 234 287 365
#     4  10  21  37  57  85 118 155 198 253 293 355
#     4  10  20  38  60  87 123 159 200 243 301 358
#
# _framework density 19.341135000000001
#
# number of rings (size 3 to 8) (size 9 to 14) (size 15 to 20)
#    0.000    2.000    0.000    4.200    2.800    0.400 
#   10.800    1.000    0.000    1.200    0.000    0.000 
#    0.000    0.000    0.000    0.000    0.000    0.000 
#
# Total GULP energy -111672.979905 kJ/mol
# GULP energy per Si atom -5583.648995 kJ/mol
# Density = 1.929711 g / cm^3
# Si number density = 19.341135 Si / 1000 Ang^3
#
#
#
# Elastic Constant Matrix: (Units=GPa)
#
#
# Indices 1 2 3 4 5 6 
#
# 1 78.1885 23.8365 21.1798 0.0000 21.1322 0.0000
# 2 23.8365 97.7299 15.3845 0.0000 -5.3048 0.0000
# 3 21.1798 15.3845 137.1911 0.0000 5.8490 0.0000
# 4 0.0000 0.0000 0.0000 18.1268 0.0000 -8.0559
# 5 21.1322 -5.3048 5.8490 0.0000 27.8383 0.0000
# 6 0.0000 0.0000 0.0000 -8.0559 0.0000 21.6423
#
#
#
# Elastic Compliance Matrix: (Units=1/GPa)
#
#
# Indices 1 2 3 4 5 6 
#
# 1 0.018853 -0.005142 -0.001697 0.000000 -0.014935 0.000000
# 2 -0.005142 0.011960 -0.000818 0.000000 0.006354 0.000000
# 3 -0.001697 -0.000818 0.007663 0.000000 -0.000478 0.000000
# 4 0.000000 0.000000 0.000000 0.066102 0.000000 0.024605
# 5 -0.014935 0.006354 -0.000478 0.000000 0.048570 0.000000
# 6 0.000000 0.000000 0.000000 0.024605 0.000000 0.055364
#
#
# Mechanical properties :
#
#
# Convention : Reuss Voigt Hill
#
# Bulk Modulus (GPa) = 43.17437 48.21234 45.69335
# Shear Modulus (GPa) = 21.59373 30.36875 25.98124
#
# Velocity S-wave (km/s) = 3.34498 3.96683 3.66910
# Velocity P-wave (km/s) = 6.10652 6.77956 6.45182
#
# Compressibility (1/GPa) = 0.02316189
#
# Stress axis : x y z
#
# Youngs Moduli (GPa) = 53.04080 83.61123 130.49287
#
# Poissons Ratio (x) = 0.42992 0.22148
# Poissons Ratio (y) = 0.27273 0.10678
# Poissons Ratio (z) = 0.09003 0.06842
#
# Static dielectric constant tensor:
#      x y z
#    x 1.669600 0.000000 -0.004070 
#    y 0.000000 1.661420 0.000000 
#    z -0.004070 0.000000 1.704410 
# 
# From -- ./inp_files/102356.got.cif
#   From: 2010.05.17/outbox.cif.g08.bks.cpg/sg12_52_cif.got.tgz:102356.got - 2010.06.03 13:09:07.
