data_PCOD9198305
_publ_section_title
;
Structure prediction by ZEFSAII (Michael W. Deem and Ramdas Pophale) SiO2 
 PCOD9198305
Probable space group: C 2/M
;
_chemical_formula_sum "Si O2"
_cell_formula_units_Z 32
_cell_length_a 27.409063
_cell_length_b 10.859564
_cell_length_c 22.536144
_cell_angle_alpha 90.000000
_cell_angle_beta 12.082772
_cell_angle_gamma 90.000000
_cell_volume 1404.126869
_symmetry_space_group_name_H-M "C 2/M"
_symmetry_group_IT_number 12
_symmetry_cell_setting 'monoclinic'
loop_
_space_group_symop_operation_xyz
x,y,z
-x,y,-z
-x,-y,-z
x,-y,z
1/2+x,1/2+y,z
1/2-x,1/2+y,-z
1/2-x,1/2-y,-z
1/2+x,1/2-y,z
loop_
_atom_site_type_symbol
_atom_site_label
_atom_site_fract_x
_atom_site_fract_y
_atom_site_fract_z
Si Si1 0.579264 0.135279 0.126071
Si Si2 0.865646 0.134702 0.097263
Si Si3 0.395167 0.360831 0.540989
Si Si4 0.762139 0.712375 0.400037
O O1 0.484732 0.238150 0.283205
O O2 0.390189 0.134613 0.297892
O O3 0.587737 0.000000 0.144759
O O4 0.832741 0.158020 0.797024
O O5 0.700166 0.252296 0.304097
O O6 0.762940 0.000000 0.206619
O O7 0.000000 0.125214 0.000000
O O8 0.064406 0.171267 0.814234
O O9 0.357596 0.500000 0.608683
O O10 0.266275 0.349013 0.630326
#
# Coordination Sequence:
#
# PCOD9198305 Si02
#       4
#     8   8   8   8
#     4  10  21  36  55  82 112 144 183 226 273 324
#     4   9  19  36  58  82 110 146 184 225 273 323
#     4  10  21  37  58  83 111 144 182 226 274 324
#     4  10  20  36  57  80 109 147 184 224 270 325
#
# _framework density 22.789963
#
# number of rings (size 3 to 8) (size 9 to 14) (size 15 to 20)
#    0.000    2.250    0.000    2.250    0.000    7.500 
#    0.000   11.250    0.000    0.000    0.000    0.000 
#    0.000    0.000    0.000    0.000    0.000    0.000 
#
# Total GULP energy -89376.020164 kJ/mol
# GULP energy per Si atom -5586.001260 kJ/mol
# Density = 2.273809 g / cm^3
# Si number density = 22.789963 Si / 1000 Ang^3
#
#
#
# Elastic Constant Matrix: (Units=GPa)
#
#
# Indices 1 2 3 4 5 6 
#
# 1 59.6021 2.8020 -9.3450 0.0129 -4.6062 -0.0087
# 2 2.8020 172.0564 70.9943 -0.0270 11.1266 0.0194
# 3 -9.3450 70.9943 106.5469 -0.0002 -3.8896 -0.0041
# 4 0.0129 -0.0270 -0.0002 6.6152 0.0017 4.0532
# 5 -4.6062 11.1266 -3.8896 0.0017 27.3482 0.0059
# 6 -0.0087 0.0194 -0.0041 4.0532 0.0059 -12.0975
#
#
#
# Elastic Compliance Matrix: (Units=1/GPa)
#
#
# Indices 1 2 3 4 5 6 
#
# 1 0.017619 -0.001723 0.002842 -0.000028 0.004073 -0.000024
# 2 -0.001723 0.008655 -0.006089 0.000025 -0.004677 0.000023
# 3 0.002842 -0.006089 0.013872 -0.000019 0.004929 -0.000020
# 4 -0.000028 0.000025 -0.000019 0.125421 -0.000034 0.042022
# 5 0.004073 -0.004677 0.004929 -0.000034 0.039855 -0.000004
# 6 -0.000024 0.000023 -0.000020 0.042022 -0.000004 -0.068582
#
#
# Mechanical properties :
#
#
# Convention : Reuss Voigt Hill
#
# Bulk Modulus (GPa) = 33.10532 51.90088 42.50310
# Shear Modulus (GPa) = 31.87786 22.62343 27.25065
#
# Velocity S-wave (km/s) = 3.74407 3.15412 3.46168
# Velocity P-wave (km/s) = 5.76615 6.00730 5.88796
#
# Compressibility (1/GPa) = 0.03020663
#
# Stress axis : x y z
#
# Youngs Moduli (GPa) = 56.75587 115.54007 72.08818
#
# Poissons Ratio (x) = 0.19908 -0.20488
# Poissons Ratio (y) = 0.09779 0.43894
# Poissons Ratio (z) = -0.16131 0.70351
#
# Static dielectric constant tensor:
#      x y z
#    x 1.828520 0.000000 -0.009430 
#    y 0.000000 1.856820 0.000010 
#    z -0.009430 0.000010 1.840690 
# 
# From -- ./inp_files/56466.got.cif
#   From: 2010.05.17/outbox.cif.g08.bks.cpg/sg12_29_cif.got.tgz:56466.got - 2010.06.03 13:09:07.
