data_PCOD9198759
_publ_section_title
;
Structure prediction by ZEFSAII (Michael W. Deem and Ramdas Pophale) SiO2 
 PCOD9198759
Probable space group: C 2/M
;
_chemical_formula_sum "Si O2"
_cell_formula_units_Z 56
_cell_length_a 31.462781
_cell_length_b 7.408668
_cell_length_c 11.672512
_cell_angle_alpha 90.000000
_cell_angle_beta 52.299591
_cell_angle_gamma 90.000000
_cell_volume 2152.773653
_symmetry_space_group_name_H-M "C 2/M"
_symmetry_group_IT_number 12
_symmetry_cell_setting 'monoclinic'
loop_
_space_group_symop_operation_xyz
x,y,z
-x,y,-z
-x,-y,-z
x,-y,z
1/2+x,1/2+y,z
1/2-x,1/2+y,-z
1/2-x,1/2-y,-z
1/2+x,1/2-y,z
loop_
_atom_site_type_symbol
_atom_site_label
_atom_site_fract_x
_atom_site_fract_y
_atom_site_fract_z
Si Si1 0.893220 0.278853 0.603803
Si Si2 0.955216 0.279448 0.276311
Si Si3 0.777058 0.294599 0.792977
Si Si4 0.343119 0.709424 0.017046
Si Si5 0.549564 0.202986 0.277412
Si Si6 0.106203 0.701200 0.826365
Si Si7 0.198990 0.785412 0.505728
O O1 0.891574 0.500000 0.609252
O O2 0.911240 0.228094 0.446125
O O3 0.833932 0.213365 0.739035
O O4 0.938992 0.216641 0.616574
O O5 0.955487 0.500000 0.266795
O O6 0.942078 0.215117 0.169348
O O7 0.010777 0.218678 0.244059
O O8 0.774484 0.500000 0.840523
O O9 0.717134 0.216648 0.905088
O O10 0.787674 0.294988 0.639359
O O11 0.342687 0.500000 0.985209
O O12 0.362702 0.715526 0.117428
O O13 0.390605 0.804327 0.871695
O O14 0.528641 0.000000 0.330563
O O15 0.090114 0.500000 0.891379
O O16 0.150393 0.695660 0.653111
O O17 0.250000 0.750000 0.500000
O O18 0.190029 0.000000 0.509744
#
# Coordination Sequence:
#
# PCOD9198759 Si02
#       7
#     8   8   8   8   8   8   8
#     4   9  17  34  62  91 113 142 192 250 295 338
#     4   9  18  34  61  92 114 142 190 250 299 338
#     4  10  20  36  58  84 115 152 193 237 288 340
#     4  11  24  39  55  80 120 161 195 233 288 352
#     4  10  21  38  61  85 113 152 200 244 287 343
#     4  11  21  36  60  87 117 149 192 241 291 345
#     4  12  22  33  54  86 120 153 189 233 290 347
#
# _framework density 26.012953
#
# number of rings (size 3 to 8) (size 9 to 14) (size 15 to 20)
#    0.000    1.714    2.857    2.571    0.000    3.429 
#    0.000    5.000    0.000    0.857    0.000    0.000 
#    0.000    0.000    0.000    0.000    0.000    0.000 
#
# Total GULP energy -156453.696361 kJ/mol
# GULP energy per Si atom -5587.632013 kJ/mol
# Density = 2.595375 g / cm^3
# Si number density = 26.012953 Si / 1000 Ang^3
#
#
#
# Elastic Constant Matrix: (Units=GPa)
#
#
# Indices 1 2 3 4 5 6 
#
# 1 199.0838 7.7685 18.3823 0.0000 -13.8631 0.0000
# 2 7.7685 114.8976 -3.0813 0.0000 1.8385 0.0000
# 3 18.3823 -3.0813 68.4628 0.0000 -18.6994 0.0000
# 4 0.0000 0.0000 0.0000 10.1369 0.0000 -5.2764
# 5 -13.8631 1.8385 -18.6994 0.0000 38.8892 0.0000
# 6 0.0000 0.0000 0.0000 -5.2764 0.0000 -0.8811
#
#
#
# Elastic Compliance Matrix: (Units=1/GPa)
#
#
# Indices 1 2 3 4 5 6 
#
# 1 0.005231 -0.000404 -0.001046 0.000000 0.001381 0.000000
# 2 -0.000404 0.008747 0.000403 0.000000 -0.000364 0.000000
# 3 -0.001046 0.000403 0.017036 0.000000 0.007800 0.000000
# 4 0.000000 0.000000 0.000000 0.023961 0.000000 -0.143491
# 5 0.001381 -0.000364 0.007800 0.000000 0.029974 0.000000
# 6 0.000000 0.000000 0.000000 -0.143491 0.000000 -0.275674
#
#
# Mechanical properties :
#
#
# Convention : Reuss Voigt Hill
#
# Bulk Modulus (GPa) = 34.57682 47.62038 41.09860
# Shear Modulus (GPa) = -27.93438 33.58732 2.82647
#
# Velocity S-wave (km/s) = -3.28054 3.59719 1.04351
# Velocity P-wave (km/s) = 1.01403 5.96651 4.15758
#
# Compressibility (1/GPa) = 0.02892111
#
# Stress axis : x y z
#
# Youngs Moduli (GPa) = 191.14992 114.32063 58.70038
#
# Poissons Ratio (x) = 0.04617 0.06138
# Poissons Ratio (y) = 0.07720 -0.02364
# Poissons Ratio (z) = 0.19986 -0.04604
#
# Static dielectric constant tensor:
#      x y z
#    x 2.168970 0.000000 -0.012340 
#    y 0.000000 2.138080 0.000000 
#    z -0.012340 0.000000 2.015930 
# 
# From -- ./inp_files/181084.got.cif
#   From: 2010.05.17/outbox.cif.g08.bks.cpg/sg12_91_cif.got.tgz:181084.got - 2010.06.03 13:09:07.
