data_PCOD9198324
_publ_section_title
;
Structure prediction by ZEFSAII (Michael W. Deem and Ramdas Pophale) SiO2 
 PCOD9198324
Probable space group: C 2/M
;
_chemical_formula_sum "Si O2"
_cell_formula_units_Z 64
_cell_length_a 31.688647
_cell_length_b 8.403735
_cell_length_c 24.338889
_cell_angle_alpha 90.000000
_cell_angle_beta 27.809136
_cell_angle_gamma 90.000000
_cell_volume 3023.808028
_symmetry_space_group_name_H-M "C 2/M"
_symmetry_group_IT_number 12
_symmetry_cell_setting 'monoclinic'
loop_
_space_group_symop_operation_xyz
x,y,z
-x,y,-z
-x,-y,-z
x,-y,z
1/2+x,1/2+y,z
1/2-x,1/2+y,-z
1/2-x,1/2-y,-z
1/2+x,1/2-y,z
loop_
_atom_site_type_symbol
_atom_site_label
_atom_site_fract_x
_atom_site_fract_y
_atom_site_fract_z
Si Si1 0.162711 0.688581 0.166380
Si Si2 0.355841 0.310884 0.503522
Si Si3 0.051588 0.686913 0.702332
Si Si4 0.916335 0.187683 0.633629
Si Si5 0.785983 0.311384 0.695659
Si Si6 0.905652 0.807780 0.135011
Si Si7 0.635136 0.685281 0.076737
Si Si8 0.833103 0.690928 0.330577
O O1 0.157279 0.500000 0.160457
O O2 0.097775 0.731478 0.291333
O O3 0.145303 0.782408 0.130261
O O4 0.267492 0.725165 0.061206
O O5 0.351395 0.500000 0.517940
O O6 0.437476 0.269407 0.369270
O O7 0.348205 0.226262 0.570778
O O8 0.267047 0.255672 0.571346
O O9 0.065951 0.500000 0.677697
O O10 0.124772 0.752831 0.661463
O O11 0.951996 0.716416 0.840910
O O12 0.827802 0.220859 0.698918
O O13 0.000000 0.247329 0.500000
O O14 0.929471 0.000000 0.627527
O O15 0.786095 0.500000 0.706462
O O16 0.684359 0.260983 0.795444
O O17 0.894824 0.740161 0.208389
O O18 0.904392 0.000000 0.139404
O O19 0.000000 0.756983 0.000000
O O20 0.616976 0.500000 0.087746
O O21 0.830577 0.500000 0.337530
#
# Coordination Sequence:
#
# PCOD9198324 Si02
#       8
#     8   8   8   8   8   8   8   8
#     4  10  22  42  65  87 116 152 193 244 296 349
#     4  10  20  36  57  80 114 154 192 237 289 343
#     4  11  22  35  55  85 116 149 193 237 283 342
#     4  11  25  42  62  88 120 158 199 246 299 356
#     4  10  21  38  59  85 116 152 195 242 293 350
#     4   9  19  36  58  83 113 150 190 234 286 345
#     4  10  22  40  62  88 117 153 194 239 295 352
#     4   9  20  36  53  79 113 149 190 235 283 337
#
# _framework density 21.165364
#
# number of rings (size 3 to 8) (size 9 to 14) (size 15 to 20)
#    0.000    2.000    0.000    2.625    1.750    5.750 
#    0.000    3.750    0.000    0.000    0.000    0.000 
#    0.000    0.000    0.000    0.000    0.000    0.000 
#
# Total GULP energy -178795.611370 kJ/mol
# GULP energy per Si atom -5587.362855 kJ/mol
# Density = 2.111719 g / cm^3
# Si number density = 21.165364 Si / 1000 Ang^3
#
#
#
# Elastic Constant Matrix: (Units=GPa)
#
#
# Indices 1 2 3 4 5 6 
#
# 1 44.7636 -9.6023 0.5471 -0.0110 4.9691 0.0019
# 2 -9.6023 12.4367 1.4634 -0.0336 -0.9519 0.0032
# 3 0.5471 1.4634 91.1225 -0.0319 14.0043 0.0031
# 4 -0.0110 -0.0336 -0.0319 28.3353 0.0068 -0.8342
# 5 4.9691 -0.9519 14.0043 0.0068 21.0484 0.0028
# 6 0.0019 0.0032 0.0031 -0.8342 0.0028 23.3826
#
#
#
# Elastic Compliance Matrix: (Units=1/GPa)
#
#
# Indices 1 2 3 4 5 6 
#
# 1 0.027414 0.020676 0.000395 0.000037 -0.005799 -0.000003
# 2 0.020676 0.096632 -0.001779 0.000120 0.000673 -0.000010
# 3 0.000395 -0.001779 0.012283 0.000014 -0.008346 0.000000
# 4 0.000037 0.000120 0.000014 0.035329 -0.000024 0.001260
# 5 -0.005799 0.000673 -0.008346 -0.000024 0.054462 -0.000006
# 6 -0.000003 -0.000010 0.000000 0.001260 -0.000006 0.042812
#
#
# Mechanical properties :
#
#
# Convention : Reuss Voigt Hill
#
# Bulk Modulus (GPa) = 5.71718 14.79322 10.25520
# Shear Modulus (GPa) = 17.32183 24.94758 21.13470
#
# Velocity S-wave (km/s) = 2.86388 3.43694 3.16341
# Velocity P-wave (km/s) = 3.69362 4.77018 4.26600
#
# Compressibility (1/GPa) = 0.17491145
#
# Stress axis : x y z
#
# Youngs Moduli (GPa) = 36.47799 10.34854 81.41247
#
# Poissons Ratio (x) = -0.21397 -0.03213
# Poissons Ratio (y) = -0.75421 0.14486
# Poissons Ratio (z) = -0.01440 0.01841
#
# Static dielectric constant tensor:
#      x y z
#    x 1.766380 -0.000010 -0.035690 
#    y -0.000010 1.715810 0.000010 
#    z -0.035690 0.000010 1.790200 
# 
# From -- ./inp_files/353337.got.cif
#   From: 2010.05.17/outbox.cif.g08.bks.cpg/sg12_177_cif.got.tgz:353337.got - 2010.06.03 13:09:07.
