data_PCOD9198825
_publ_section_title
;
Structure prediction by ZEFSAII (Michael W. Deem and Ramdas Pophale) SiO2 
 PCOD9198825
Probable space group: C 2/M
;
_chemical_formula_sum "Si O2"
_cell_formula_units_Z 56
_cell_length_a 19.359610
_cell_length_b 8.938220
_cell_length_c 27.473935
_cell_angle_alpha 90.000000
_cell_angle_beta 41.414404
_cell_angle_gamma 90.000000
_cell_volume 3144.840581
_symmetry_space_group_name_H-M "C 2/M"
_symmetry_group_IT_number 12
_symmetry_cell_setting 'monoclinic'
loop_
_space_group_symop_operation_xyz
x,y,z
-x,y,-z
-x,-y,-z
x,-y,z
1/2+x,1/2+y,z
1/2-x,1/2+y,-z
1/2-x,1/2-y,-z
1/2+x,1/2-y,z
loop_
_atom_site_type_symbol
_atom_site_label
_atom_site_fract_x
_atom_site_fract_y
_atom_site_fract_z
Si Si1 0.681247 0.179897 0.078899
Si Si2 0.860428 0.826496 0.449243
Si Si3 0.968940 0.679627 0.572206
Si Si4 0.729421 0.682584 0.265762
Si Si5 0.448860 0.662846 0.294858
Si Si6 0.940003 0.676359 0.205997
Si Si7 0.698227 0.670744 0.170317
O O1 0.559554 0.231747 0.136217
O O2 0.724860 0.233246 0.108485
O O3 0.682746 0.000000 0.076299
O O4 0.750000 0.250000 0.000000
O O5 0.750000 0.750000 0.500000
O O6 0.909443 0.822756 0.369840
O O7 0.935107 0.737129 0.445875
O O8 0.851720 0.000000 0.469319
O O9 0.958751 0.500000 0.580122
O O10 0.863941 0.751739 0.651360
O O11 0.000000 0.719312 0.500000
O O12 0.720913 0.500000 0.272187
O O13 0.843154 0.731905 0.225179
O O14 0.722110 0.725193 0.212417
O O15 0.416021 0.500000 0.292435
O O16 0.413141 0.787237 0.276143
O O17 0.573078 0.665163 0.233524
O O18 0.944593 0.500000 0.195539
O O19 0.738727 0.500000 0.143904
#
# Coordination Sequence:
#
# PCOD9198825 Si02
#       7
#     8   8   8   8   8   8   8
#     4  10  20  36  58  86 116 147 184 226 274 333
#     4  11  23  39  57  80 110 146 191 241 292 345
#     4  11  25  41  56  80 115 154 196 243 293 344
#     4  10  20  38  60  83 112 148 190 236 287 343
#     4   9  18  34  54  76 105 140 181 228 278 331
#     4   9  20  35  56  85 112 142 186 230 274 332
#     4   9  17  34  58  81 106 142 182 224 276 333
#
# _framework density 17.806944000000001
#
# number of rings (size 3 to 8) (size 9 to 14) (size 15 to 20)
#    0.000    2.143    1.429    1.286    2.000    4.000 
#    0.000    0.714    0.000    4.286    0.000    0.000 
#    0.000    0.000    0.000    0.000    0.000    0.000 
#
# Total GULP energy -155973.255417 kJ/mol
# GULP energy per Si atom -5570.473408 kJ/mol
# Density = 1.776641 g / cm^3
# Si number density = 17.806944 Si / 1000 Ang^3
#
#
#
# Elastic Constant Matrix: (Units=GPa)
#
#
# Indices 1 2 3 4 5 6 
#
# 1 139.1655 35.1498 65.3422 0.0000 4.9745 0.0001
# 2 35.1498 37.4628 42.1121 0.0000 5.2442 0.0002
# 3 65.3422 42.1121 93.6546 0.0000 12.5362 0.0000
# 4 0.0000 0.0000 0.0000 27.6273 0.0000 5.7136
# 5 4.9745 5.2442 12.5362 0.0000 21.9114 0.0000
# 6 0.0001 0.0002 0.0000 5.7136 0.0000 24.8372
#
#
#
# Elastic Compliance Matrix: (Units=1/GPa)
#
#
# Indices 1 2 3 4 5 6 
#
# 1 0.010974 -0.003375 -0.006404 0.000000 0.001980 0.000000
# 2 -0.003375 0.055036 -0.022451 0.000000 0.000439 -0.000001
# 3 -0.006404 -0.022451 0.026345 0.000000 -0.008245 0.000000
# 4 0.000000 0.000000 0.000000 0.038004 0.000000 -0.008743
# 5 0.001980 0.000439 -0.008245 0.000000 0.049801 0.000000
# 6 0.000000 -0.000001 0.000000 -0.008743 0.000000 0.042273
#
#
# Mechanical properties :
#
#
# Convention : Reuss Voigt Hill
#
# Bulk Modulus (GPa) = 35.84993 61.72124 48.78559
# Shear Modulus (GPa) = 16.88098 23.38710 20.13404
#
# Velocity S-wave (km/s) = 3.08230 3.62798 3.36621
# Velocity P-wave (km/s) = 5.73094 7.23092 6.52418
#
# Compressibility (1/GPa) = 0.02789406
#
# Stress axis : x y z
#
# Youngs Moduli (GPa) = 91.12206 18.17007 37.95852
#
# Poissons Ratio (x) = 0.06132 0.24309
# Poissons Ratio (y) = 0.30753 0.85221
# Poissons Ratio (z) = 0.58357 0.40794
#
# Static dielectric constant tensor:
#      x y z
#    x 1.605630 0.000000 0.000030 
#    y 0.000000 1.626130 0.000000 
#    z 0.000030 0.000000 1.589440 
# 
# From -- ./inp_files/362967.got.cif
#   From: 2010.05.17/outbox.cif.g08.bks.cpg/sg12_182_cif.got.tgz:362967.got - 2010.06.03 13:09:07.
