data_PCOD9198592
_publ_section_title
;
Structure prediction by ZEFSAII (Michael W. Deem and Ramdas Pophale) SiO2 
 PCOD9198592
Probable space group: C 2/M
;
_chemical_formula_sum "Si O2"
_cell_formula_units_Z 56
_cell_length_a 19.252870
_cell_length_b 13.494503
_cell_length_c 15.313066
_cell_angle_alpha 90.000000
_cell_angle_beta 121.971282
_cell_angle_gamma 90.000000
_cell_volume 3374.978071
_symmetry_space_group_name_H-M "C 2/M"
_symmetry_group_IT_number 12
_symmetry_cell_setting 'monoclinic'
loop_
_space_group_symop_operation_xyz
x,y,z
-x,y,-z
-x,-y,-z
x,-y,z
1/2+x,1/2+y,z
1/2-x,1/2+y,-z
1/2-x,1/2-y,-z
1/2+x,1/2-y,z
loop_
_atom_site_type_symbol
_atom_site_label
_atom_site_fract_x
_atom_site_fract_y
_atom_site_fract_z
Si Si1 0.292694 0.617030 0.861023
Si Si2 0.909625 0.115441 0.104859
Si Si3 0.098072 0.885249 0.576812
Si Si4 0.845224 0.227698 0.552160
Si Si5 0.871895 0.742872 0.241758
Si Si6 0.979527 0.383318 0.589543
Si Si7 0.399292 0.616519 0.761584
O O1 0.271239 0.500000 0.844211
O O2 0.212102 0.682364 0.817788
O O3 0.340068 0.640607 0.802788
O O4 0.354341 0.631806 0.982923
O O5 0.885791 0.190320 0.165719
O O6 0.005855 0.128252 0.148770
O O7 0.898742 0.000000 0.125271
O O8 0.139481 0.850800 0.514872
O O9 0.127021 0.815957 0.674476
O O10 0.000000 0.873209 0.500000
O O11 0.114351 0.000000 0.606400
O O12 0.750000 0.250000 0.500000
O O13 0.897218 0.324095 0.558373
O O14 0.880222 0.182572 0.664949
O O15 0.947013 0.667457 0.307871
O O16 0.972739 0.500000 0.602887
O O17 0.000000 0.371385 0.500000
O O18 0.387411 0.500000 0.731626
#
# Coordination Sequence:
#
# PCOD9198592 Si02
#       7
#     8   8   8   8   8   8   8
#     4  10  22  36  55  85 112 143 186 234 277 323
#     4  10  20  36  59  84 110 140 185 237 284 325
#     4  11  21  36  57  82 111 142 183 227 274 327
#     4  12  22  37  55  83 114 147 184 224 271 330
#     4  12  19  37  56  85 110 150 181 225 277 335
#     4  11  23  39  57  80 114 153 186 221 268 334
#     4  10  20  36  58  81 111 144 182 229 280 325
#
# _framework density 16.592701000000002
#
# number of rings (size 3 to 8) (size 9 to 14) (size 15 to 20)
#    0.000    1.143    4.286    3.000    0.000    5.143 
#    0.000    0.000    0.000    0.000    0.000    1.000 
#    0.000    0.000    0.000    0.000    0.000    0.000 
#
# Total GULP energy -156434.317899 kJ/mol
# GULP energy per Si atom -5586.939925 kJ/mol
# Density = 1.655494 g / cm^3
# Si number density = 16.592701 Si / 1000 Ang^3
#
#
#
# Elastic Constant Matrix: (Units=GPa)
#
#
# Indices 1 2 3 4 5 6 
#
# 1 119.2450 54.1673 35.5151 0.0000 14.2725 0.0000
# 2 54.1673 100.6002 43.0837 0.0000 7.6883 0.0000
# 3 35.5151 43.0837 54.9561 0.0000 5.7950 0.0000
# 4 0.0000 0.0000 0.0000 25.2871 0.0000 7.1843
# 5 14.2725 7.6883 5.7950 0.0000 32.9604 0.0000
# 6 0.0000 0.0000 0.0000 7.1843 0.0000 12.9742
#
#
#
# Elastic Compliance Matrix: (Units=1/GPa)
#
#
# Indices 1 2 3 4 5 6 
#
# 1 0.012013 -0.004569 -0.003816 0.000000 -0.003465 0.000000
# 2 -0.004569 0.016771 -0.010180 0.000000 -0.000144 0.000000
# 3 -0.003816 -0.010180 0.028752 0.000000 -0.001028 0.000000
# 4 0.000000 0.000000 0.000000 0.046929 0.000000 -0.025986
# 5 -0.003465 -0.000144 -0.001028 0.000000 0.032054 0.000000
# 6 0.000000 0.000000 0.000000 -0.025986 0.000000 0.091466
#
#
# Mechanical properties :
#
#
# Convention : Reuss Voigt Hill
#
# Bulk Modulus (GPa) = 49.00643 60.03705 54.52174
# Shear Modulus (GPa) = 18.38797 23.71335 21.05066
#
# Velocity S-wave (km/s) = 3.33257 3.78450 3.56570
# Velocity P-wave (km/s) = 6.66386 7.44029 7.06276
#
# Compressibility (1/GPa) = 0.02040549
#
# Stress axis : x y z
#
# Youngs Moduli (GPa) = 83.24394 59.62515 34.78072
#
# Poissons Ratio (x) = 0.27244 0.13271
# Poissons Ratio (y) = 0.38036 0.35407
# Poissons Ratio (z) = 0.31764 0.60700
#
# Static dielectric constant tensor:
#      x y z
#    x 1.535430 0.000000 0.000970 
#    y 0.000000 1.545450 0.000000 
#    z 0.000970 0.000000 1.537870 
# 
# From -- ./inp_files/224650.got.cif
#   From: 2010.05.17/outbox.cif.g08.bks.cpg/sg12_113_cif.got.tgz:224650.got - 2010.06.03 13:09:07.
