data_PCOD9198773
_publ_section_title
;
Structure prediction by ZEFSAII (Michael W. Deem and Ramdas Pophale) SiO2 
 PCOD9198773
Probable space group: C 2/M
;
_chemical_formula_sum "Si O2"
_cell_formula_units_Z 64
_cell_length_a 12.323562
_cell_length_b 19.037578
_cell_length_c 29.188290
_cell_angle_alpha 90.000000
_cell_angle_beta 151.102160
_cell_angle_gamma 90.000000
_cell_volume 3309.237270
_symmetry_space_group_name_H-M "C 2/M"
_symmetry_group_IT_number 12
_symmetry_cell_setting 'monoclinic'
loop_
_space_group_symop_operation_xyz
x,y,z
-x,y,-z
-x,-y,-z
x,-y,z
1/2+x,1/2+y,z
1/2-x,1/2+y,-z
1/2-x,1/2-y,-z
1/2+x,1/2-y,z
loop_
_atom_site_type_symbol
_atom_site_label
_atom_site_fract_x
_atom_site_fract_y
_atom_site_fract_z
Si Si1 0.449197 0.809153 0.610499
Si Si2 0.037635 0.581898 0.920867
Si Si3 0.569204 0.288212 0.246159
Si Si4 0.757607 0.415869 0.101070
Si Si5 0.787637 0.334874 0.455567
Si Si6 0.503175 0.417341 0.721718
Si Si7 0.361481 0.832882 0.227376
Si Si8 0.145380 0.806515 0.927266
O O1 0.287542 0.746248 0.566909
O O2 0.352261 0.852417 0.531873
O O3 0.515176 0.852647 0.679958
O O4 0.678813 0.771554 0.677213
O O5 0.091773 0.500000 0.947733
O O6 0.114755 0.602563 0.898268
O O7 0.771623 0.590505 0.824231
O O8 0.182613 0.628709 0.008681
O O9 0.584480 0.368184 0.269629
O O10 0.471172 0.239846 0.250088
O O11 0.402209 0.280964 0.141617
O O12 0.753671 0.500000 0.103733
O O13 0.871226 0.384071 0.187828
O O14 0.500000 0.391301 0.000000
O O15 0.598241 0.383034 0.362005
O O16 0.000000 0.339711 0.500000
O O17 0.447290 0.500000 0.704078
O O18 0.099635 0.825651 0.143512
O O19 0.250000 0.750000 0.000000
#
# Coordination Sequence:
#
# PCOD9198773 Si02
#       8
#     8   8   8   8   8   8   8   8
#     4  10  22  39  63  90 121 152 194 252 308 363
#     4  10  22  39  57  82 119 165 205 240 295 359
#     4  11  23  39  59  91 125 157 206 250 301 363
#     4  10  20  36  58  84 118 161 205 245 295 356
#     4  11  21  42  66  90 117 152 200 251 314 370
#     4  11  24  42  63  89 123 162 202 251 306 366
#     4  11  21  35  58  87 120 157 199 249 300 349
#     4  11  23  34  55  87 120 157 202 251 288 348
#
# _framework density 19.339804000000001
#
# number of rings (size 3 to 8) (size 9 to 14) (size 15 to 20)
#    0.000    1.375    3.750    1.500    3.500    2.250 
#    0.000    3.750    0.000    0.000    0.000    2.625 
#    0.000    0.000    0.000    0.000    0.000    0.000 
#
# Total GULP energy -178647.319973 kJ/mol
# GULP energy per Si atom -5582.728749 kJ/mol
# Density = 1.929579 g / cm^3
# Si number density = 19.339804 Si / 1000 Ang^3
#
#
#
# Elastic Constant Matrix: (Units=GPa)
#
#
# Indices 1 2 3 4 5 6 
#
# 1 37.8716 3.3817 8.0153 -0.0002 -8.5406 0.0000
# 2 3.3817 36.0901 7.2495 0.0001 -2.1132 0.0002
# 3 8.0153 7.2495 78.5873 -0.0001 -25.9161 0.0004
# 4 -0.0002 0.0001 -0.0001 27.5109 -0.0002 -6.1350
# 5 -8.5406 -2.1132 -25.9161 -0.0002 39.5874 -0.0001
# 6 0.0000 0.0002 0.0004 -6.1350 -0.0001 18.1275
#
#
#
# Elastic Compliance Matrix: (Units=1/GPa)
#
#
# Indices 1 2 3 4 5 6 
#
# 1 0.027989 -0.002130 -0.000898 0.000000 0.005337 0.000000
# 2 -0.002130 0.028396 -0.002619 0.000000 -0.000658 0.000000
# 3 -0.000898 -0.002619 0.016513 0.000000 0.010477 0.000000
# 4 0.000000 0.000000 0.000000 0.039316 0.000000 0.013306
# 5 0.005337 -0.000658 0.010477 0.000000 0.033235 0.000000
# 6 0.000000 0.000000 0.000000 0.013306 0.000000 0.059668
#
#
# Mechanical properties :
#
#
# Convention : Reuss Voigt Hill
#
# Bulk Modulus (GPa) = 16.23310 21.09357 18.66334
# Shear Modulus (GPa) = 21.10188 25.97202 23.53695
#
# Velocity S-wave (km/s) = 3.30678 3.66858 3.49237
# Velocity P-wave (km/s) = 4.79495 5.37356 5.09248
#
# Compressibility (1/GPa) = 0.06160251
#
# Stress axis : x y z
#
# Youngs Moduli (GPa) = 35.72864 35.21676 60.55879
#
# Poissons Ratio (x) = 0.07500 0.05440
# Poissons Ratio (y) = 0.07609 0.15862
# Poissons Ratio (z) = 0.03210 0.09225
#
# Static dielectric constant tensor:
#      x y z
#    x 1.684140 0.000000 0.000640 
#    y 0.000000 1.681920 0.000000 
#    z 0.000640 0.000000 1.710040 
# 
# From -- ./inp_files/359006.got.cif
#   From: 2010.05.17/outbox.cif.g08.bks.cpg/sg12_180_cif.got.tgz:359006.got - 2010.06.03 13:09:07.
