data_PCOD9198908
_publ_section_title
;
Structure prediction by ZEFSAII (Michael W. Deem and Ramdas Pophale) SiO2 
 PCOD9198908
Probable space group: C 2/M
;
_chemical_formula_sum "Si O2"
_cell_formula_units_Z 50
_cell_length_a 8.890002
_cell_length_b 32.282970
_cell_length_c 12.962823
_cell_angle_alpha 90.000000
_cell_angle_beta 43.575747
_cell_angle_gamma 90.000000
_cell_volume 2564.433053
_symmetry_space_group_name_H-M "C 2/M"
_symmetry_group_IT_number 12
_symmetry_cell_setting 'monoclinic'
loop_
_space_group_symop_operation_xyz
x,y,z
-x,y,-z
-x,-y,-z
x,-y,z
1/2+x,1/2+y,z
1/2-x,1/2+y,-z
1/2-x,1/2-y,-z
1/2+x,1/2-y,z
loop_
_atom_site_type_symbol
_atom_site_label
_atom_site_fract_x
_atom_site_fract_y
_atom_site_fract_z
Si Si1 0.000000 0.500000 0.500000
Si Si2 0.336042 0.425129 0.316540
Si Si3 0.650724 0.272304 0.321488
Si Si4 0.820168 0.548383 0.000742
Si Si5 0.244065 0.391504 0.144921
Si Si6 0.971526 0.693310 0.739964
Si Si7 0.608199 0.349021 0.558863
O O1 0.811582 0.463646 0.578183
O O2 0.577780 0.440541 0.161995
O O3 0.215613 0.404253 0.277668
O O4 0.371454 0.389757 0.384015
O O5 0.500000 0.266514 0.500000
O O6 0.889349 0.285930 0.238044
O O7 0.644583 0.230196 0.262261
O O8 0.539529 0.311890 0.321054
O O9 0.822982 0.500000 0.969412
O O10 0.870085 0.576940 0.877127
O O11 0.000000 0.555037 0.000000
O O12 0.177971 0.344696 0.153974
O O13 0.500000 0.396257 0.000000
O O14 0.156820 0.671594 0.576980
O O15 0.500000 0.358016 0.500000
#
# Coordination Sequence:
#
# PCOD9198908 Si02
#       7
#     2   8   8   8   8   8   8
#     4  12  24  40  58 104 118 168 184 256 318 356
#     4  11  23  40  64  90 130 155 206 254 303 372
#     4   9  19  33  58  86 121 159 201 243 302 364
#     4  10  23  44  69  89 114 163 210 252 302 365
#     4  10  24  40  63  87 118 163 208 245 303 366
#     4  10  20  36  58  89 121 162 198 254 295 370
#     4   9  20  37  60  93 123 161 197 248 310 361
#
# _framework density 19.497488000000001
#
# number of rings (size 3 to 8) (size 9 to 14) (size 15 to 20)
#    0.000    2.400    0.800    2.880   10.080    0.960 
#    0.000    1.200    0.000    0.000    0.000    0.000 
#    0.000    0.000    0.000    0.000    0.000    0.000 
#
# Total GULP energy -139231.344327 kJ/mol
# GULP energy per Si atom -5569.253773 kJ/mol
# Density = 1.945311 g / cm^3
# Si number density = 19.497488 Si / 1000 Ang^3
#
#
#
# Elastic Constant Matrix: (Units=GPa)
#
#
# Indices 1 2 3 4 5 6 
#
# 1 92.6021 88.9213 21.3748 0.0000 5.9611 0.0000
# 2 88.9213 188.8355 30.3067 0.0000 21.8220 0.0000
# 3 21.3748 30.3067 11.4712 0.0000 4.9815 0.0000
# 4 0.0000 0.0000 0.0000 29.1058 0.0000 -3.0431
# 5 5.9611 21.8220 4.9815 0.0000 18.3229 0.0000
# 6 0.0000 0.0000 0.0000 -3.0431 0.0000 62.7082
#
#
#
# Elastic Compliance Matrix: (Units=1/GPa)
#
#
# Indices 1 2 3 4 5 6 
#
# 1 0.024487 -0.008050 -0.028419 0.000000 0.009347 0.000000
# 2 -0.008050 0.012250 -0.013796 0.000000 -0.008220 0.000000
# 3 -0.028419 -0.013796 0.187573 0.000000 -0.025320 0.000000
# 4 0.000000 0.000000 0.000000 0.034533 0.000000 0.001676
# 5 0.009347 -0.008220 -0.025320 0.000000 0.068209 0.000000
# 6 0.000000 0.000000 0.000000 0.001676 0.000000 0.016028
#
#
# Mechanical properties :
#
#
# Convention : Reuss Voigt Hill
#
# Bulk Modulus (GPa) = 8.07880 63.79049 35.93464
# Shear Modulus (GPa) = 10.31208 32.18111 21.24659
#
# Velocity S-wave (km/s) = 2.30226 4.06707 3.30466
# Velocity P-wave (km/s) = 3.34958 7.40561 5.74730
#
# Compressibility (1/GPa) = 0.12378074
#
# Stress axis : x y z
#
# Youngs Moduli (GPa) = 40.83856 81.63125 5.33127
#
# Poissons Ratio (x) = 0.65711 0.15151
# Poissons Ratio (y) = 0.32874 0.07355
# Poissons Ratio (z) = 1.16058 1.12618
#
# Static dielectric constant tensor:
#      x y z
#    x 1.692420 0.000000 0.007440 
#    y 0.000000 1.663450 0.000000 
#    z 0.007440 0.000000 1.719730 
# 
# From -- ./inp_files/199621.got.cif
#   From: 2010.05.17/outbox.cif.g08.bks.cpg/sg12_100_cif.got.tgz:199621.got - 2010.06.03 13:09:07.
