data_PCOD9198297
_publ_section_title
;
Structure prediction by ZEFSAII (Michael W. Deem and Ramdas Pophale) SiO2 
 PCOD9198297
Probable space group: C 2/M
;
_chemical_formula_sum "Si O2"
_cell_formula_units_Z 56
_cell_length_a 23.263337
_cell_length_b 11.922606
_cell_length_c 17.462387
_cell_angle_alpha 90.000000
_cell_angle_beta 39.051556
_cell_angle_gamma 90.000000
_cell_volume 3051.411341
_symmetry_space_group_name_H-M "C 2/M"
_symmetry_group_IT_number 12
_symmetry_cell_setting 'monoclinic'
loop_
_space_group_symop_operation_xyz
x,y,z
-x,y,-z
-x,-y,-z
x,-y,z
1/2+x,1/2+y,z
1/2-x,1/2+y,-z
1/2-x,1/2-y,-z
1/2+x,1/2-y,z
loop_
_atom_site_type_symbol
_atom_site_label
_atom_site_fract_x
_atom_site_fract_y
_atom_site_fract_z
Si Si1 0.082151 0.869240 0.855631
Si Si2 0.611394 0.790618 0.688796
Si Si3 0.773005 0.632865 0.930473
Si Si4 0.764965 0.630955 0.763579
Si Si5 0.302659 0.621604 0.522793
Si Si6 0.918671 0.786541 0.533344
Si Si7 0.989849 0.623697 0.685045
O O1 0.070383 0.788390 0.796058
O O2 0.179350 0.846792 0.796357
O O3 0.082498 0.000000 0.831769
O O4 0.000000 0.853791 0.000000
O O5 0.657408 0.712665 0.576325
O O6 0.694428 0.859939 0.639448
O O7 0.538299 0.860516 0.716883
O O8 0.749977 0.500000 0.979661
O O9 0.735558 0.645127 0.882452
O O10 0.882275 0.634065 0.808018
O O11 0.750000 0.750000 0.000000
O O12 0.791086 0.500000 0.727371
O O13 0.850263 0.708934 0.653597
O O14 0.320931 0.500000 0.470343
O O15 0.353473 0.634042 0.551014
O O16 0.000000 0.837779 0.500000
O O17 0.970581 0.710439 0.416838
O O18 0.011118 0.500000 0.633133
#
# Coordination Sequence:
#
# PCOD9198297 Si02
#       7
#     8   8   8   8   8   8   8
#     4  10  21  36  57  84 110 143 186 237 285 332
#     4  10  20  36  57  80 108 146 183 230 277 343
#     4  10  22  40  60  85 117 154 196 241 287 342
#     4  10  20  36  60  85 112 145 188 240 289 333
#     4  10  21  36  54  80 113 148 182 224 283 347
#     4  11  20  35  58  85 113 142 184 235 289 337
#     4  10  21  35  58  86 112 145 187 237 284 338
#
# _framework density 18.352163000000001
#
# number of rings (size 3 to 8) (size 9 to 14) (size 15 to 20)
#    0.000    1.857    2.857    1.286    2.000    0.857 
#    0.000    3.571    0.000    1.714    0.000    0.000 
#    0.000    0.000    0.000    0.000    0.000    0.000 
#
# Total GULP energy -156001.617397 kJ/mol
# GULP energy per Si atom -5571.486336 kJ/mol
# Density = 1.831039 g / cm^3
# Si number density = 18.352163 Si / 1000 Ang^3
#
#
#
# Elastic Constant Matrix: (Units=GPa)
#
#
# Indices 1 2 3 4 5 6 
#
# 1 76.8991 9.6009 2.1768 0.0000 0.6490 0.0000
# 2 9.6009 56.9984 8.9078 0.0000 4.7284 0.0000
# 3 2.1768 8.9078 33.4471 0.0000 4.3630 0.0000
# 4 0.0000 0.0000 0.0000 68.7881 0.0000 33.7679
# 5 0.6490 4.7284 4.3630 0.0000 20.9031 0.0000
# 6 0.0000 0.0000 0.0000 33.7679 0.0000 35.8230
#
#
#
# Elastic Compliance Matrix: (Units=1/GPa)
#
#
# Indices 1 2 3 4 5 6 
#
# 1 0.013286 -0.002204 -0.000297 0.000000 0.000148 0.000000
# 2 -0.002204 0.018884 -0.004459 0.000000 -0.003272 0.000000
# 3 -0.000297 -0.004459 0.031839 0.000000 -0.005628 0.000000
# 4 0.000000 0.000000 0.000000 0.027058 0.000000 -0.025506
# 5 0.000148 -0.003272 -0.005628 0.000000 0.049750 0.000000
# 6 0.000000 0.000000 0.000000 -0.025506 0.000000 0.051958
#
#
# Mechanical properties :
#
#
# Convention : Reuss Voigt Hill
#
# Bulk Modulus (GPa) = 19.96427 23.19063 21.57745
# Shear Modulus (GPa) = 22.38223 34.88011 28.63117
#
# Velocity S-wave (km/s) = 3.49606 4.36432 3.95409
# Velocity P-wave (km/s) = 5.21523 6.16930 5.71222
#
# Compressibility (1/GPa) = 0.05008948
#
# Stress axis : x y z
#
# Youngs Moduli (GPa) = 75.26516 52.95514 31.40805
#
# Poissons Ratio (x) = 0.11670 0.00933
# Poissons Ratio (y) = 0.16587 0.14005
# Poissons Ratio (z) = 0.02236 0.23613
#
# Static dielectric constant tensor:
#      x y z
#    x 1.665380 0.000000 -0.002770 
#    y 0.000000 1.643040 0.000000 
#    z -0.002770 0.000000 1.593510 
# 
# From -- ./inp_files/289010.got.cif
#   From: 2010.05.17/outbox.cif.g08.bks.cpg/sg12_145_cif.got.tgz:289010.got - 2010.06.03 13:09:07.
