data_PCOD9198256
_publ_section_title
;
Structure prediction by ZEFSAII (Michael W. Deem and Ramdas Pophale) SiO2 
 PCOD9198256
Probable space group: C 2/M
;
_chemical_formula_sum "Si O2"
_cell_formula_units_Z 64
_cell_length_a 31.066209
_cell_length_b 16.501680
_cell_length_c 21.909484
_cell_angle_alpha 90.000000
_cell_angle_beta 18.014938
_cell_angle_gamma 90.000000
_cell_volume 3473.595631
_symmetry_space_group_name_H-M "C 2/M"
_symmetry_group_IT_number 12
_symmetry_cell_setting 'monoclinic'
loop_
_space_group_symop_operation_xyz
x,y,z
-x,y,-z
-x,-y,-z
x,-y,z
1/2+x,1/2+y,z
1/2-x,1/2+y,-z
1/2-x,1/2-y,-z
1/2+x,1/2-y,z
loop_
_atom_site_type_symbol
_atom_site_label
_atom_site_fract_x
_atom_site_fract_y
_atom_site_fract_z
Si Si1 0.616980 0.093654 0.617104
Si Si2 0.911331 0.830667 0.248735
Si Si3 0.291819 0.095439 0.267503
Si Si4 0.274627 0.902042 0.871411
Si Si5 0.798249 0.902495 0.167156
Si Si6 0.464413 0.901172 0.402463
Si Si7 0.464513 0.597792 0.310276
Si Si8 0.984075 0.647089 0.121043
O O1 0.761168 0.141666 0.428367
O O2 0.530401 0.122396 0.675235
O O3 0.531442 0.099994 0.794875
O O4 0.655495 0.000000 0.555212
O O5 0.920487 0.856057 0.307776
O O6 0.934126 0.736704 0.205045
O O7 0.043909 0.873554 0.038367
O O8 0.136784 0.118078 0.497367
O O9 0.383184 0.109644 0.205525
O O10 0.297151 0.000000 0.245179
O O11 0.364895 0.143676 0.114261
O O12 0.257402 0.874950 0.824484
O O13 0.408363 0.871332 0.727481
O O14 0.287430 0.000000 0.851215
O O15 0.126672 0.884759 0.102512
O O16 0.685297 0.876029 0.368952
O O17 0.800996 0.000000 0.162902
O O18 0.469398 0.000000 0.398714
O O19 0.450450 0.500000 0.317527
#
# Coordination Sequence:
#
# PCOD9198256 Si02
#       8
#     8   8   8   8   8   8   8   8
#     4  11  21  34  51  72 109 142 164 204 261 329
#     4  11  21  33  49  80 106 137 168 207 267 315
#     4  10  20  36  57  78  99 134 186 223 254 293
#     4   8  14  28  51  78 101 125 172 224 250 282
#     4   9  17  31  51  74 104 139 174 212 245 295
#     4   9  18  29  47  77 104 135 170 202 253 310
#     4   9  17  32  58  81 102 132 174 225 259 296
#     4  11  22  34  51  77 104 137 170 220 261 306
#
# _framework density 18.424712
#
# number of rings (size 3 to 8) (size 9 to 14) (size 15 to 20)
#    0.000    2.250    1.250    4.125    0.000    4.000 
#    0.000    1.875    0.000    3.750    6.500    4.375 
#    0.000    0.000    0.000    0.000    0.000    0.000 
#
# Total GULP energy -178463.019453 kJ/mol
# GULP energy per Si atom -5576.969358 kJ/mol
# Density = 1.838278 g / cm^3
# Si number density = 18.424712 Si / 1000 Ang^3
#
#
#
# Elastic Constant Matrix: (Units=GPa)
#
#
# Indices 1 2 3 4 5 6 
#
# 1 48.6243 -3.1834 18.5722 0.0000 14.3973 -0.0002
# 2 -3.1834 35.1848 -0.3890 0.0000 8.2505 -0.0001
# 3 18.5722 -0.3890 67.6789 -0.0002 26.6825 0.0001
# 4 0.0000 0.0000 -0.0002 0.7358 0.0000 9.3379
# 5 14.3973 8.2505 26.6825 0.0000 19.5260 0.0002
# 6 -0.0002 -0.0001 0.0001 9.3379 0.0002 -3.4777
#
#
#
# Elastic Compliance Matrix: (Units=1/GPa)
#
#
# Indices 1 2 3 4 5 6 
#
# 1 0.028949 0.010248 0.004851 0.000001 -0.032304 0.000000
# 2 0.010248 0.040203 0.015382 0.000002 -0.045563 0.000000
# 3 0.004851 0.015382 0.037952 0.000001 -0.061938 0.000001
# 4 0.000001 0.000002 0.000001 0.038746 -0.000005 0.104037
# 5 -0.032304 -0.045563 -0.061938 -0.000005 0.178923 -0.000001
# 6 0.000000 0.000000 0.000001 0.104037 -0.000001 -0.008198
#
#
# Mechanical properties :
#
#
# Convention : Reuss Voigt Hill
#
# Bulk Modulus (GPa) = 5.95009 20.16530 13.05769
# Shear Modulus (GPa) = 16.04434 12.45604 14.25019
#
# Velocity S-wave (km/s) = 2.95414 2.60292 2.78407
# Velocity P-wave (km/s) = 3.85647 4.47236 4.17579
#
# Compressibility (1/GPa) = 0.16806482
#
# Stress axis : x y z
#
# Youngs Moduli (GPa) = 34.54359 24.87396 26.34891
#
# Poissons Ratio (x) = -0.25490 -0.12781
# Poissons Ratio (y) = -0.35399 -0.40531
# Poissons Ratio (z) = -0.16756 -0.38262
#
# Static dielectric constant tensor:
#      x y z
#    x 1.627790 0.000000 0.015970 
#    y 0.000000 1.726860 0.000000 
#    z 0.015970 0.000000 1.662220 
# 
# From -- ./inp_files/330367.got.cif
#   From: 2010.05.17/outbox.cif.g08.bks.cpg/sg12_166_cif.got.tgz:330367.got - 2010.06.03 13:09:07.
