data_PCOD9198519
_publ_section_title
;
Structure prediction by ZEFSAII (Michael W. Deem and Ramdas Pophale) SiO2 
 PCOD9198519
Probable space group: C 2/M
;
_chemical_formula_sum "Si O2"
_cell_formula_units_Z 64
_cell_length_a 19.769025
_cell_length_b 13.934552
_cell_length_c 11.992875
_cell_angle_alpha 90.000000
_cell_angle_beta 93.002335
_cell_angle_gamma 90.000000
_cell_volume 3299.172675
_symmetry_space_group_name_H-M "C 2/M"
_symmetry_group_IT_number 12
_symmetry_cell_setting 'monoclinic'
loop_
_space_group_symop_operation_xyz
x,y,z
-x,y,-z
-x,-y,-z
x,-y,z
1/2+x,1/2+y,z
1/2-x,1/2+y,-z
1/2-x,1/2-y,-z
1/2+x,1/2-y,z
loop_
_atom_site_type_symbol
_atom_site_label
_atom_site_fract_x
_atom_site_fract_y
_atom_site_fract_z
Si Si1 0.435434 0.615335 0.916031
Si Si2 0.826600 0.773302 0.046403
Si Si3 0.079986 0.613823 0.012833
Si Si4 0.919425 0.609557 0.508390
Si Si5 0.965514 0.115772 0.661762
Si Si6 0.709184 0.385732 0.736907
Si Si7 0.863151 0.615242 0.742900
Si Si8 0.603297 0.688280 0.563418
O O1 0.429205 0.500000 0.920244
O O2 0.447883 0.641437 0.787621
O O3 0.500000 0.641469 0.000000
O O4 0.368423 0.662657 0.961621
O O5 0.822800 0.831340 0.160970
O O6 0.750000 0.750000 0.000000
O O7 0.872050 0.677227 0.061343
O O8 0.091356 0.500000 0.996973
O O9 0.102237 0.643025 0.139337
O O10 0.000000 0.631069 0.000000
O O11 0.895738 0.500000 0.484155
O O12 0.903810 0.635864 0.634970
O O13 0.888978 0.696579 0.435177
O O14 0.000000 0.611201 0.500000
O O15 0.913205 0.152503 0.563225
O O16 0.037550 0.159195 0.630526
O O17 0.969951 0.000000 0.654883
O O18 0.708508 0.500000 0.757518
O O19 0.786232 0.350302 0.731000
O O20 0.667146 0.362613 0.623122
O O21 0.859447 0.500000 0.746860
#
# Coordination Sequence:
#
# PCOD9198519 Si02
#       8
#     8   8   8   8   8   8   8   8
#     4  10  22  40  64  93 126 165 213 269 325 380
#     4  12  24  38  62  94 130 166 208 262 323 387
#     4  10  22  41  64  91 125 168 216 265 318 382
#     4  10  21  38  61  88 121 160 207 263 314 366
#     4  10  20  36  57  90 127 161 210 270 318 371
#     4  11  23  41  63  89 125 170 213 254 319 401
#     4   9  20  39  61  85 119 162 208 258 315 386
#     4  11  21  36  62  91 121 165 211 260 318 383
#
# _framework density 19.398802
#
# number of rings (size 3 to 8) (size 9 to 14) (size 15 to 20)
#    0.000    1.625    2.500    3.000    1.750    3.000 
#    0.000    1.875    0.000    1.500    0.000    0.000 
#    0.000    0.000    0.000    0.000    0.000    0.000 
#
# Total GULP energy -178704.338048 kJ/mol
# GULP energy per Si atom -5584.510564 kJ/mol
# Density = 1.935465 g / cm^3
# Si number density = 19.398802 Si / 1000 Ang^3
#
#
#
# Elastic Constant Matrix: (Units=GPa)
#
#
# Indices 1 2 3 4 5 6 
#
# 1 127.6059 32.4529 78.4463 0.0000 7.9553 0.0000
# 2 32.4529 106.1797 40.6348 0.0000 -6.3997 0.0000
# 3 78.4463 40.6348 126.8436 0.0000 -7.9441 0.0000
# 4 0.0000 0.0000 0.0000 19.8410 0.0000 0.8691
# 5 7.9553 -6.3997 -7.9441 0.0000 34.6314 0.0000
# 6 0.0000 0.0000 0.0000 0.8691 0.0000 6.3629
#
#
#
# Elastic Compliance Matrix: (Units=1/GPa)
#
#
# Indices 1 2 3 4 5 6 
#
# 1 0.013622 -0.001289 -0.008342 0.000000 -0.005281 0.000000
# 2 -0.001289 0.010906 -0.002589 0.000000 0.001718 0.000000
# 3 -0.008342 -0.002589 0.014166 0.000000 0.004687 0.000000
# 4 0.000000 0.000000 0.000000 0.050704 0.000000 -0.006925
# 5 -0.005281 0.001718 0.004687 0.000000 0.031481 0.000000
# 6 0.000000 0.000000 0.000000 -0.006925 0.000000 0.158108
#
#
# Mechanical properties :
#
#
# Convention : Reuss Voigt Hill
#
# Bulk Modulus (GPa) = 70.15861 73.74416 71.95138
# Shear Modulus (GPa) = 16.22425 26.10673 21.16549
#
# Velocity S-wave (km/s) = 2.89511 3.67248 3.30672
# Velocity P-wave (km/s) = 6.88626 7.48867 7.19377
#
# Compressibility (1/GPa) = 0.01425342
#
# Stress axis : x y z
#
# Youngs Moduli (GPa) = 73.40909 91.68948 70.59119
#
# Poissons Ratio (x) = 0.11821 0.58890
# Poissons Ratio (y) = 0.09464 0.18276
# Poissons Ratio (z) = 0.61241 0.23739
#
# Static dielectric constant tensor:
#      x y z
#    x 1.659980 0.000000 0.000050 
#    y 0.000000 1.713850 0.000000 
#    z 0.000050 0.000000 1.690410 
# 
# From -- ./inp_files/156630.got.cif
#   From: 2010.05.17/outbox.cif.g08.bks.cpg/sg12_79_cif.got.tgz:156630.got - 2010.06.03 13:09:07.
