data_PCOD9198162
_publ_section_title
;
Structure prediction by ZEFSAII (Michael W. Deem and Ramdas Pophale) SiO2 
 PCOD9198162
Probable space group: C 2/M
;
_chemical_formula_sum "Si O2"
_cell_formula_units_Z 64
_cell_length_a 30.018505
_cell_length_b 13.519668
_cell_length_c 9.826478
_cell_angle_alpha 90.000000
_cell_angle_beta 62.740607
_cell_angle_gamma 90.000000
_cell_volume 3545.083188
_symmetry_space_group_name_H-M "C 2/M"
_symmetry_group_IT_number 12
_symmetry_cell_setting 'monoclinic'
loop_
_space_group_symop_operation_xyz
x,y,z
-x,y,-z
-x,-y,-z
x,-y,z
1/2+x,1/2+y,z
1/2-x,1/2+y,-z
1/2-x,1/2-y,-z
1/2+x,1/2-y,z
loop_
_atom_site_type_symbol
_atom_site_label
_atom_site_fract_x
_atom_site_fract_y
_atom_site_fract_z
Si Si1 0.986065 0.884025 0.670428
Si Si2 0.717121 0.618535 0.165621
Si Si3 0.303684 0.727754 0.085311
Si Si4 0.932501 0.205786 0.246339
Si Si5 0.080061 0.237080 0.050575
Si Si6 0.744420 0.884433 0.404023
Si Si7 0.996912 0.609027 0.167396
Si Si8 0.678666 0.303522 0.491523
O O1 0.936877 0.837676 0.808058
O O2 0.000000 0.844298 0.500000
O O3 0.030325 0.861860 0.717175
O O4 0.978742 0.000000 0.667178
O O5 0.720515 0.500000 0.156514
O O6 0.770242 0.673084 0.121248
O O7 0.680438 0.655929 0.336257
O O8 0.699289 0.666309 0.049701
O O9 0.278226 0.658434 0.234367
O O10 0.360868 0.751734 0.038880
O O11 0.951257 0.316408 0.259476
O O12 0.875501 0.186101 0.366521
O O13 0.937340 0.199574 0.075338
O O14 0.048390 0.335146 0.130830
O O15 0.696988 0.810640 0.474855
O O16 0.778632 0.865093 0.488442
O O17 0.732738 0.000000 0.405322
O O18 0.991678 0.500000 0.234052
O O19 0.000000 0.600488 0.000000
#
# Coordination Sequence:
#
# PCOD9198162 Si02
#       8
#     8   8   8   8   8   8   8   8
#     4  10  23  39  56  81 109 142 183 224 273 332
#     4  10  22  38  56  81 114 150 189 231 275 327
#     4  10  21  38  58  81 111 149 189 230 277 331
#     4  10  20  37  57  81 115 144 178 229 275 324
#     4  10  20  37  58  82 112 143 179 231 276 323
#     4  10  20  36  56  81 114 148 185 229 276 330
#     4   8  16  32  56  82 105 135 178 224 274 326
#     4  10  21  36  54  83 115 147 185 228 278 329
#
# _framework density 18.053173000000001
#
# number of rings (size 3 to 8) (size 9 to 14) (size 15 to 20)
#    0.000    2.250    1.250    1.875    1.750    4.000 
#    0.000    0.000    0.000    6.000    0.000    0.000 
#    0.000    0.000    0.000    0.000    0.000    0.000 
#
# Total GULP energy -178388.030744 kJ/mol
# GULP energy per Si atom -5574.625961 kJ/mol
# Density = 1.801208 g / cm^3
# Si number density = 18.053173 Si / 1000 Ang^3
#
#
#
# Elastic Constant Matrix: (Units=GPa)
#
#
# Indices 1 2 3 4 5 6 
#
# 1 41.6636 -7.4421 -2.0233 0.0000 -4.4434 0.0000
# 2 -7.4421 89.7604 -1.6733 0.0000 0.0450 0.0000
# 3 -2.0233 -1.6733 73.6147 0.0000 6.7584 0.0000
# 4 0.0000 0.0000 0.0000 13.5193 0.0000 4.0344
# 5 -4.4434 0.0450 6.7584 0.0000 27.1405 0.0000
# 6 0.0000 0.0000 0.0000 4.0344 0.0000 1.4245
#
#
#
# Elastic Compliance Matrix: (Units=1/GPa)
#
#
# Indices 1 2 3 4 5 6 
#
# 1 0.024811 0.002062 0.000365 0.000000 0.003968 0.000000
# 2 0.002062 0.011317 0.000291 0.000000 0.000246 0.000000
# 3 0.000365 0.000291 0.013914 0.000000 -0.003405 0.000000
# 4 0.000000 0.000000 0.000000 0.477795 0.000000 -1.353218
# 5 0.003968 0.000246 -0.003405 0.000000 0.038342 0.000000
# 6 0.000000 0.000000 0.000000 -1.353218 0.000000 4.534613
#
#
# Mechanical properties :
#
#
# Convention : Reuss Voigt Hill
#
# Bulk Modulus (GPa) = 18.02552 20.30682 19.16617
# Shear Modulus (GPa) = 0.97774 22.82870 11.90322
#
# Velocity S-wave (km/s) = 0.73672 3.55987 2.57055
# Velocity P-wave (km/s) = 3.27567 5.30751 4.41020
#
# Compressibility (1/GPa) = 0.05547691
#
# Stress axis : x y z
#
# Youngs Moduli (GPa) = 40.30484 88.36242 71.87254
#
# Poissons Ratio (x) = -0.18219 -0.02620
# Poissons Ratio (y) = -0.08310 -0.02094
# Poissons Ratio (z) = -0.01469 -0.02574
#
# Static dielectric constant tensor:
#      x y z
#    x 1.616770 0.000000 0.021070 
#    y 0.000000 1.618210 0.000000 
#    z 0.021070 0.000000 1.619740 
# 
# From -- ./inp_files/111622.got.cif
#   From: 2010.05.17/outbox.cif.g08.bks.cpg/sg12_56_cif.got.tgz:111622.got - 2010.06.03 13:09:07.
