data_PCOD9198432
_publ_section_title
;
Structure prediction by ZEFSAII (Michael W. Deem and Ramdas Pophale) SiO2 
 PCOD9198432
Probable space group: C 2/M
;
_chemical_formula_sum "Si O2"
_cell_formula_units_Z 48
_cell_length_a 11.678917
_cell_length_b 13.630956
_cell_length_c 33.267017
_cell_angle_alpha 90.000000
_cell_angle_beta 155.592110
_cell_angle_gamma 90.000000
_cell_volume 2188.438849
_symmetry_space_group_name_H-M "C 2/M"
_symmetry_group_IT_number 12
_symmetry_cell_setting 'monoclinic'
loop_
_space_group_symop_operation_xyz
x,y,z
-x,y,-z
-x,-y,-z
x,-y,z
1/2+x,1/2+y,z
1/2-x,1/2+y,-z
1/2-x,1/2-y,-z
1/2+x,1/2-y,z
loop_
_atom_site_type_symbol
_atom_site_label
_atom_site_fract_x
_atom_site_fract_y
_atom_site_fract_z
Si Si1 0.877575 0.704214 0.858445
Si Si2 0.539878 0.613404 0.964347
Si Si3 0.154890 0.114228 0.590091
Si Si4 0.776404 0.114578 0.547453
Si Si5 0.882495 0.270222 0.295362
Si Si6 0.232815 0.116875 0.327964
O O1 0.889237 0.740691 0.815756
O O2 0.583831 0.648709 0.767321
O O3 0.140479 0.632959 0.946680
O O4 0.890103 0.797011 0.892778
O O5 0.459298 0.500000 0.928214
O O6 0.500000 0.622450 0.000000
O O7 0.954848 0.124783 0.563700
O O8 0.435242 0.173865 0.679725
O O9 0.000000 0.144716 0.500000
O O10 0.222735 0.000000 0.607858
O O11 0.944318 0.178563 0.632665
O O12 0.533719 0.146439 0.564181
O O13 0.771886 0.000000 0.557797
O O14 0.829360 0.338276 0.316486
O O15 0.252210 0.000000 0.332530
#
# Coordination Sequence:
#
# PCOD9198432 Si02
#       6
#     8   8   8   8   8   8
#     4  11  25  41  66  99 123 155 201 256 318 377
#     4  10  23  48  73  92 120 156 198 253 318 388
#     4  10  20  36  57  83 120 172 221 255 290 341
#     4  10  23  39  57  86 129 177 218 252 295 350
#     4  12  23  37  62  91 129 168 212 254 301 355
#     4  11  23  39  59  90 129 168 209 255 303 355
#
# _framework density 21.933444000000001
#
# number of rings (size 3 to 8) (size 9 to 14) (size 15 to 20)
#    0.000    1.333    1.667    3.500    2.333    2.667 
#    0.000    5.833    0.000    5.500    0.000    0.000 
#    0.000    0.000    0.000    0.000    0.000    0.000 
#
# Total GULP energy -134195.745494 kJ/mol
# GULP energy per Si atom -5591.489396 kJ/mol
# Density = 2.188352 g / cm^3
# Si number density = 21.933444 Si / 1000 Ang^3
#
#
#
# Elastic Constant Matrix: (Units=GPa)
#
#
# Indices 1 2 3 4 5 6 
#
# 1 74.8356 27.8315 13.1560 -0.0001 -2.9988 -0.0001
# 2 27.8315 106.1083 27.5748 -0.0001 -9.0474 0.0000
# 3 13.1560 27.5748 72.5262 0.0019 -3.2342 -0.0005
# 4 -0.0001 -0.0001 0.0019 26.6861 0.0002 6.3670
# 5 -2.9988 -9.0474 -3.2342 0.0002 35.5180 -0.0003
# 6 -0.0001 0.0000 -0.0005 6.3670 -0.0003 25.9886
#
#
#
# Elastic Compliance Matrix: (Units=1/GPa)
#
#
# Indices 1 2 3 4 5 6 
#
# 1 0.014928 -0.003545 -0.001350 0.000000 0.000235 0.000000
# 2 -0.003545 0.011492 -0.003624 0.000000 0.002298 0.000000
# 3 -0.001350 -0.003624 0.015427 -0.000001 0.000368 0.000001
# 4 0.000000 0.000000 -0.000001 0.039799 0.000000 -0.009750
# 5 0.000235 0.002298 0.000368 0.000000 0.028793 0.000000
# 6 0.000000 0.000000 0.000001 -0.009750 0.000000 0.040867
#
#
# Mechanical properties :
#
#
# Convention : Reuss Voigt Hill
#
# Bulk Modulus (GPa) = 40.30589 43.39942 41.85265
# Shear Modulus (GPa) = 28.31061 29.96572 29.13817
#
# Velocity S-wave (km/s) = 3.59660 3.70024 3.64879
# Velocity P-wave (km/s) = 5.97191 6.17135 6.07245
#
# Compressibility (1/GPa) = 0.02481027
#
# Stress axis : x y z
#
# Youngs Moduli (GPa) = 66.99015 87.01902 64.82093
#
# Poissons Ratio (x) = 0.30845 0.08749
# Poissons Ratio (y) = 0.23746 0.23489
# Poissons Ratio (z) = 0.09041 0.31534
#
# Static dielectric constant tensor:
#      x y z
#    x 1.811250 0.000000 0.008760 
#    y 0.000000 1.802680 0.000000 
#    z 0.008760 0.000000 1.844460 
# 
# From -- ./inp_files/356368.got.cif
#   From: 2010.05.17/outbox.cif.g08.bks.cpg/sg12_179_cif.got.tgz:356368.got - 2010.06.03 13:09:07.
