data_PCOD9198666
_publ_section_title
;
Structure prediction by ZEFSAII (Michael W. Deem and Ramdas Pophale) SiO2 
 PCOD9198666
Probable space group: C 2/M
;
_chemical_formula_sum "Si O2"
_cell_formula_units_Z 48
_cell_length_a 16.891726
_cell_length_b 16.981768
_cell_length_c 13.644137
_cell_angle_alpha 90.000000
_cell_angle_beta 30.631364
_cell_angle_gamma 90.000000
_cell_volume 1994.150162
_symmetry_space_group_name_H-M "C 2/M"
_symmetry_group_IT_number 12
_symmetry_cell_setting 'monoclinic'
loop_
_space_group_symop_operation_xyz
x,y,z
-x,y,-z
-x,-y,-z
x,-y,z
1/2+x,1/2+y,z
1/2-x,1/2+y,-z
1/2-x,1/2-y,-z
1/2+x,1/2-y,z
loop_
_atom_site_type_symbol
_atom_site_label
_atom_site_fract_x
_atom_site_fract_y
_atom_site_fract_z
Si Si1 0.331353 0.583310 0.461331
Si Si2 0.618791 0.408560 0.280327
Si Si3 0.658440 0.113747 0.457616
Si Si4 0.806322 0.587855 0.812979
Si Si5 0.180762 0.734218 0.705047
Si Si6 0.662599 0.756343 0.956931
O O1 0.281302 0.500000 0.557415
O O2 0.508727 0.593170 0.302278
O O3 0.289607 0.582526 0.391491
O O4 0.234001 0.649110 0.618483
O O5 0.500000 0.392587 0.500000
O O6 0.675368 0.500000 0.231683
O O7 0.745049 0.339373 0.129337
O O8 0.483498 0.087535 0.663332
O O9 0.689205 0.092908 0.311504
O O10 0.677517 0.205945 0.460967
O O11 0.739947 0.500000 0.907795
O O12 0.741585 0.675037 0.908570
O O13 0.157288 0.745691 0.844758
O O14 0.018768 0.748690 0.822307
#
# Coordination Sequence:
#
# PCOD9198666 Si02
#       6
#     8   8   8   8   8   8
#     4  11  21  35  57  85 113 145 191 238 275 325
#     4  10  20  36  58  83 111 149 191 229 273 329
#     4  10  20  37  58  82 110 143 190 234 275 330
#     4  10  20  37  61  85 109 146 191 232 281 336
#     4  10  21  36  56  84 114 151 186 228 284 336
#     4  10  21  37  58  83 118 151 184 230 282 337
#
# _framework density 24.070404
#
# number of rings (size 3 to 8) (size 9 to 14) (size 15 to 20)
#    0.000    1.833    1.667    3.500    2.333    0.667 
#    0.000   13.333    0.000    2.000    0.000    0.000 
#    0.000    0.000    0.000    0.000    0.000    0.000 
#
# Total GULP energy -133852.518034 kJ/mol
# GULP energy per Si atom -5577.188251 kJ/mol
# Density = 2.401562 g / cm^3
# Si number density = 24.070404 Si / 1000 Ang^3
#
#
#
# Elastic Constant Matrix: (Units=GPa)
#
#
# Indices 1 2 3 4 5 6 
#
# 1 117.4452 23.5301 40.5275 0.0004 -20.6236 -0.0001
# 2 23.5301 217.1137 57.3745 0.0008 -26.7648 -0.0003
# 3 40.5275 57.3745 50.4661 0.0013 -10.5480 -0.0004
# 4 0.0004 0.0008 0.0013 2.4286 -0.0006 -7.6075
# 5 -20.6236 -26.7648 -10.5480 -0.0006 42.9654 0.0002
# 6 -0.0001 -0.0003 -0.0004 -7.6075 0.0002 14.9112
#
#
#
# Elastic Compliance Matrix: (Units=1/GPa)
#
#
# Indices 1 2 3 4 5 6 
#
# 1 0.013103 0.002410 -0.012263 -0.000007 0.004780 -0.000004
# 2 0.002410 0.007268 -0.009497 -0.000005 0.003353 -0.000002
# 3 -0.012263 -0.009497 0.040049 0.000024 -0.001971 0.000013
# 4 -0.000007 -0.000005 0.000024 -0.688407 -0.000009 -0.351217
# 5 0.004780 0.003353 -0.001971 -0.000009 0.027174 -0.000005
# 6 -0.000004 -0.000002 0.000013 -0.351217 -0.000005 -0.112123
#
#
# Mechanical properties :
#
#
# Convention : Reuss Voigt Hill
#
# Bulk Modulus (GPa) = 46.04366 69.76547 57.90456
# Shear Modulus (GPa) = -7.49629 29.63389 11.06880
#
# Velocity S-wave (km/s) = -1.76666 3.51256 2.14674
# Velocity P-wave (km/s) = 3.87412 6.74519 5.50029
#
# Compressibility (1/GPa) = 0.02171852
#
# Stress axis : x y z
#
# Youngs Moduli (GPa) = 76.31903 137.59473 24.96952
#
# Poissons Ratio (x) = -0.33159 0.30620
# Poissons Ratio (y) = -0.18392 0.23714
# Poissons Ratio (z) = 0.93591 1.30676
#
# Static dielectric constant tensor:
#      x y z
#    x 1.965450 0.000000 0.036410 
#    y 0.000000 1.986140 0.000000 
#    z 0.036410 0.000000 1.928490 
# 
# From -- ./inp_files/278044.got.cif
#   From: 2010.05.17/outbox.cif.g08.bks.cpg/sg12_140_cif.got.tgz:278044.got - 2010.06.03 13:09:07.
