data_PCOD9198302
_publ_section_title
;
Structure prediction by ZEFSAII (Michael W. Deem and Ramdas Pophale) SiO2 
 PCOD9198302
Probable space group: C 2/M
;
_chemical_formula_sum "Si O2"
_cell_formula_units_Z 64
_cell_length_a 13.079132
_cell_length_b 13.792801
_cell_length_c 29.152933
_cell_angle_alpha 90.000000
_cell_angle_beta 139.082717
_cell_angle_gamma 90.000000
_cell_volume 3444.563928
_symmetry_space_group_name_H-M "C 2/M"
_symmetry_group_IT_number 12
_symmetry_cell_setting 'monoclinic'
loop_
_space_group_symop_operation_xyz
x,y,z
-x,y,-z
-x,-y,-z
x,-y,z
1/2+x,1/2+y,z
1/2-x,1/2+y,-z
1/2-x,1/2-y,-z
1/2+x,1/2-y,z
loop_
_atom_site_type_symbol
_atom_site_label
_atom_site_fract_x
_atom_site_fract_y
_atom_site_fract_z
Si Si1 0.000220 0.189171 0.804103
Si Si2 0.609889 0.385860 0.137392
Si Si3 0.205199 0.888358 0.344672
Si Si4 0.677056 0.882437 0.048572
Si Si5 0.295901 0.383109 0.989126
Si Si6 0.392257 0.112762 0.166450
Si Si7 0.512028 0.763907 0.450562
Si Si8 0.171931 0.114791 0.438943
O O1 0.917151 0.167965 0.824333
O O2 0.923390 0.128297 0.737641
O O3 0.182325 0.159345 0.872929
O O4 0.982713 0.302833 0.786925
O O5 0.582628 0.500000 0.137991
O O6 0.476242 0.354614 0.055899
O O7 0.775616 0.377860 0.169696
O O8 0.350776 0.817802 0.384748
O O9 0.140443 0.869947 0.374001
O O10 0.259792 0.000000 0.362619
O O11 0.712975 0.852875 0.008198
O O12 0.687127 0.000000 0.054684
O O13 0.500000 0.854707 0.000000
O O14 0.295637 0.500000 0.988404
O O15 0.204750 0.358803 0.912317
O O16 0.441386 0.000000 0.179374
O O17 0.500000 0.733390 0.500000
O O18 0.654394 0.841073 0.494978
O O19 0.556685 0.675872 0.432254
O O20 0.167829 0.000000 0.446981
#
# Coordination Sequence:
#
# PCOD9198302 Si02
#       8
#     8   8   8   8   8   8   8   8
#     4  11  22  34  53  77 104 138 183 225 267 321
#     4   9  18  34  54  74  97 129 172 221 271 326
#     4  10  20  36  57  80 109 145 183 221 262 312
#     4   9  18  32  50  75 106 135 171 227 286 330
#     4   8  15  30  50  70  93 125 168 218 272 329
#     4  10  21  35  51  72 100 134 173 221 274 325
#     4   9  18  34  58  86 115 148 183 215 253 305
#     4   9  18  34  58  89 120 146 177 217 257 303
#
# _framework density 18.580000999999999
#
# number of rings (size 3 to 8) (size 9 to 14) (size 15 to 20)
#    0.000    2.625    0.000    2.625    0.000    8.250 
#    0.000    0.625    0.000    7.500    0.000    0.000 
#    0.000    0.000    0.000    0.000    0.000    0.000 
#
# Total GULP energy -178490.544102 kJ/mol
# GULP energy per Si atom -5577.829503 kJ/mol
# Density = 1.853771 g / cm^3
# Si number density = 18.580001 Si / 1000 Ang^3
#
#
#
# Elastic Constant Matrix: (Units=GPa)
#
#
# Indices 1 2 3 4 5 6 
#
# 1 82.7165 51.4714 31.2938 0.0000 0.6487 0.0000
# 2 51.4714 103.1678 20.2356 0.0000 -2.8605 0.0000
# 3 31.2938 20.2356 62.4656 0.0000 -4.7648 0.0000
# 4 0.0000 0.0000 0.0000 20.6804 0.0000 -1.9037
# 5 0.6487 -2.8605 -4.7648 0.0000 10.1925 0.0000
# 6 0.0000 0.0000 0.0000 -1.9037 0.0000 31.4753
#
#
#
# Elastic Compliance Matrix: (Units=1/GPa)
#
#
# Indices 1 2 3 4 5 6 
#
# 1 0.020818 -0.009011 -0.008093 0.000000 -0.007637 0.000000
# 2 -0.009011 0.014270 0.000250 0.000000 0.004695 0.000000
# 3 -0.008093 0.000250 0.020768 0.000000 0.010294 0.000000
# 4 0.000000 0.000000 0.000000 0.048626 0.000000 0.002941
# 5 -0.007637 0.004695 0.010294 0.000000 0.104727 0.000000
# 6 0.000000 0.000000 0.000000 0.002941 0.000000 0.031949
#
#
# Mechanical properties :
#
#
# Convention : Reuss Voigt Hill
#
# Bulk Modulus (GPa) = 45.15230 50.48352 47.81791
# Shear Modulus (GPa) = 17.71494 22.15957 19.93725
#
# Velocity S-wave (km/s) = 3.09113 3.45723 3.27930
# Velocity P-wave (km/s) = 6.09052 6.57012 6.33486
#
# Compressibility (1/GPa) = 0.02214726
#
# Stress axis : x y z
#
# Youngs Moduli (GPa) = 48.03467 70.07831 48.15213
#
# Poissons Ratio (x) = 0.63146 0.38970
# Poissons Ratio (y) = 0.43283 -0.01202
# Poissons Ratio (z) = 0.38874 -0.01750
#
# Static dielectric constant tensor:
#      x y z
#    x 1.631960 0.000000 0.003140 
#    y 0.000000 1.682170 0.000000 
#    z 0.003140 0.000000 1.627340 
# 
# From -- ./inp_files/358465.got.cif
#   From: 2010.05.17/outbox.cif.g08.bks.cpg/sg12_180_cif.got.tgz:358465.got - 2010.06.03 13:09:07.
