data_PCOD9198940
_publ_section_title
;
Structure prediction by ZEFSAII (Michael W. Deem and Ramdas Pophale) SiO2 
 PCOD9198940
Probable space group: C 2/M
;
_chemical_formula_sum "Si O2"
_cell_formula_units_Z 56
_cell_length_a 13.787336
_cell_length_b 10.186818
_cell_length_c 24.568299
_cell_angle_alpha 90.000000
_cell_angle_beta 132.169779
_cell_angle_gamma 90.000000
_cell_volume 2557.438877
_symmetry_space_group_name_H-M "C 2/M"
_symmetry_group_IT_number 12
_symmetry_cell_setting 'monoclinic'
loop_
_space_group_symop_operation_xyz
x,y,z
-x,y,-z
-x,-y,-z
x,-y,z
1/2+x,1/2+y,z
1/2-x,1/2+y,-z
1/2-x,1/2-y,-z
1/2+x,1/2-y,z
loop_
_atom_site_type_symbol
_atom_site_label
_atom_site_fract_x
_atom_site_fract_y
_atom_site_fract_z
Si Si1 0.609636 0.150203 0.635925
Si Si2 0.436223 0.653639 0.047811
Si Si3 0.667096 0.347171 0.205092
Si Si4 0.980130 0.847652 0.241075
Si Si5 0.757382 0.652294 0.919721
Si Si6 0.891417 0.137835 0.532325
Si Si7 0.208220 0.220023 0.393567
O O1 0.697119 0.205803 0.719236
O O2 0.490218 0.241707 0.574607
O O3 0.707367 0.150083 0.620966
O O4 0.570314 0.000000 0.632316
O O5 0.447506 0.500000 0.036449
O O6 0.575910 0.706381 0.122597
O O7 0.338752 0.653139 0.063496
O O8 0.369029 0.745079 0.977729
O O9 0.692394 0.500000 0.201171
O O10 0.569130 0.346723 0.220112
O O11 0.063117 0.761732 0.314562
O O12 0.835928 0.809778 0.166316
O O13 0.976748 0.000000 0.259212
O O14 0.800205 0.500000 0.928623
O O15 0.809654 0.141099 0.557406
O O16 0.792301 0.156730 0.445115
O O17 0.963345 0.000000 0.555132
#
# Coordination Sequence:
#
# PCOD9198940 Si02
#       7
#     8   8   8   8   8   8   8
#     4  10  20  36  59  81 102 138 186 221 250 308
#     4   8  12  20  35  57  90 125 154 192 243 294
#     4   7  12  24  43  67  92 123 167 211 243 283
#     4   8  13  25  45  66  89 123 168 211 244 286
#     4   8  13  20  34  60  90 118 154 200 244 286
#     4  11  24  38  54  81 112 137 168 220 279 317
#     4  10  21  37  58  76 103 143 182 213 255 320
#
# _framework density 21.896908
#
# number of rings (size 3 to 8) (size 9 to 14) (size 15 to 20)
#    0.000    3.143    0.000    4.286    0.000    5.143 
#    0.000    1.429    0.000    5.143    0.000    1.000 
#    0.000    6.857    0.000    0.571    0.000    0.000 
#
# Total GULP energy -156068.445207 kJ/mol
# GULP energy per Si atom -5573.873043 kJ/mol
# Density = 2.184707 g / cm^3
# Si number density = 21.896908 Si / 1000 Ang^3
#
#
#
# Elastic Constant Matrix: (Units=GPa)
#
#
# Indices 1 2 3 4 5 6 
#
# 1 61.3784 9.3658 25.9004 0.0000 8.3483 0.0000
# 2 9.3658 87.7237 83.3009 0.0000 20.0970 0.0000
# 3 25.9004 83.3009 222.4913 0.0000 17.2662 0.0000
# 4 0.0000 0.0000 0.0000 22.2827 0.0000 10.6039
# 5 8.3483 20.0970 17.2662 0.0000 33.4449 0.0000
# 6 0.0000 0.0000 0.0000 10.6039 0.0000 -10.6101
#
#
#
# Elastic Compliance Matrix: (Units=1/GPa)
#
#
# Indices 1 2 3 4 5 6 
#
# 1 0.017565 0.001046 -0.002133 0.000000 -0.003912 0.000000
# 2 0.001046 0.019768 -0.006855 0.000000 -0.008600 0.000000
# 3 -0.002133 -0.006855 0.007239 0.000000 0.000915 0.000000
# 4 0.000000 0.000000 0.000000 0.030413 0.000000 0.030395
# 5 -0.003912 -0.008600 0.000915 0.000000 0.035572 0.000000
# 6 0.000000 0.000000 0.000000 0.030395 0.000000 -0.063872
#
#
# Mechanical properties :
#
#
# Convention : Reuss Voigt Hill
#
# Bulk Modulus (GPa) = 34.85891 67.63640 51.24765
# Shear Modulus (GPa) = 69.31822 25.89193 47.60507
#
# Velocity S-wave (km/s) = 5.63253 3.44240 4.66773
# Velocity P-wave (km/s) = 7.63247 6.83782 7.24605
#
# Compressibility (1/GPa) = 0.02868707
#
# Stress axis : x y z
#
# Youngs Moduli (GPa) = 56.93192 50.58712 138.14942
#
# Poissons Ratio (x) = -0.05293 0.29465
# Poissons Ratio (y) = -0.05956 0.94708
# Poissons Ratio (z) = 0.12143 0.34680
#
# Static dielectric constant tensor:
#      x y z
#    x 1.836130 0.000000 -0.003860 
#    y 0.000000 1.784100 0.000000 
#    z -0.003860 0.000000 1.845140 
# 
# From -- ./inp_files/377767.got.cif
#   From: 2010.05.17/outbox.cif.g08.bks.cpg/sg12_189_cif.got.tgz:377767.got - 2010.06.03 13:09:07.
