data_PCOD9198909
_publ_section_title
;
Structure prediction by ZEFSAII (Michael W. Deem and Ramdas Pophale) SiO2 
 PCOD9198909
Probable space group: C 2/M
;
_chemical_formula_sum "Si O2"
_cell_formula_units_Z 48
_cell_length_a 23.338027
_cell_length_b 8.939210
_cell_length_c 22.067024
_cell_angle_alpha 90.000000
_cell_angle_beta 31.205977
_cell_angle_gamma 90.000000
_cell_volume 2385.251884
_symmetry_space_group_name_H-M "C 2/M"
_symmetry_group_IT_number 12
_symmetry_cell_setting 'monoclinic'
loop_
_space_group_symop_operation_xyz
x,y,z
-x,y,-z
-x,-y,-z
x,-y,z
1/2+x,1/2+y,z
1/2-x,1/2+y,-z
1/2-x,1/2-y,-z
1/2+x,1/2-y,z
loop_
_atom_site_type_symbol
_atom_site_label
_atom_site_fract_x
_atom_site_fract_y
_atom_site_fract_z
Si Si1 0.685003 0.177069 0.961004
Si Si2 0.867578 0.174233 0.115557
Si Si3 0.088899 0.678155 0.239744
Si Si4 0.971412 0.820958 0.456868
Si Si5 0.733701 0.678143 0.660556
Si Si6 0.962577 0.320477 0.234923
O O1 0.674387 0.221505 0.900177
O O2 0.791878 0.262744 0.888938
O O3 0.700120 0.000000 0.954859
O O4 0.569939 0.219617 0.097216
O O5 0.814697 0.209029 0.228371
O O6 0.842263 0.000000 0.123676
O O7 0.000000 0.188482 0.000000
O O8 0.092711 0.500000 0.242205
O O9 0.057342 0.752344 0.331725
O O10 0.997081 0.716036 0.272329
O O11 0.850923 0.758505 0.549294
O O12 0.000000 0.777054 0.500000
O O13 0.973335 0.000000 0.451236
O O14 0.747214 0.500000 0.642087
O O15 0.644460 0.737954 0.693430
O O16 0.946889 0.500000 0.244340
#
# Coordination Sequence:
#
# PCOD9198909 Si02
#       6
#     8   8   8   8   8   8
#     4  11  22  37  61  92 126 164 204 251 307 359
#     4  10  20  36  58  89 124 158 199 247 299 356
#     4  11  24  42  64  89 121 163 208 252 302 361
#     4  11  25  45  67  91 121 157 201 253 307 363
#     4  11  23  39  64  93 124 163 204 250 303 359
#     4  10  23  41  61  90 126 163 204 251 302 361
#
# _framework density 20.123660000000001
#
# number of rings (size 3 to 8) (size 9 to 14) (size 15 to 20)
#    0.000    1.333    1.667    3.500    0.000    8.333 
#    0.000    0.000    0.000    0.000    0.000    0.000 
#    0.000    0.000    0.000    0.000    0.000    0.000 
#
# Total GULP energy -134271.133999 kJ/mol
# GULP energy per Si atom -5594.630583 kJ/mol
# Density = 2.007786 g / cm^3
# Si number density = 20.123660 Si / 1000 Ang^3
#
#
#
# Elastic Constant Matrix: (Units=GPa)
#
#
# Indices 1 2 3 4 5 6 
#
# 1 112.6862 45.3028 28.2834 0.0000 -8.8581 0.0000
# 2 45.3028 50.1110 29.5111 -0.0002 -3.5779 0.0002
# 3 28.2834 29.5111 77.4295 0.0001 -13.1818 0.0000
# 4 0.0000 -0.0002 0.0001 30.6096 0.0000 -7.1797
# 5 -8.8581 -3.5779 -13.1818 0.0000 29.7835 0.0000
# 6 0.0000 0.0002 0.0000 -7.1797 0.0000 31.0259
#
#
#
# Elastic Compliance Matrix: (Units=1/GPa)
#
#
# Indices 1 2 3 4 5 6 
#
# 1 0.014153 -0.012675 0.000128 0.000000 0.002743 0.000000
# 2 -0.012675 0.037132 -0.010171 0.000000 -0.003811 0.000000
# 3 0.000128 -0.010171 0.017891 0.000000 0.006735 0.000000
# 4 0.000000 0.000000 0.000000 0.034545 0.000000 0.007994
# 5 0.002743 -0.003811 0.006735 0.000000 0.036914 0.000000
# 6 0.000000 0.000000 0.000000 0.007994 0.000000 0.034081
#
#
# Mechanical properties :
#
#
# Convention : Reuss Voigt Hill
#
# Bulk Modulus (GPa) = 42.12172 49.60236 45.86204
# Shear Modulus (GPa) = 21.92338 27.42577 24.67458
#
# Velocity S-wave (km/s) = 3.30424 3.69570 3.50544
# Velocity P-wave (km/s) = 5.96106 6.55082 6.26288
#
# Compressibility (1/GPa) = 0.02374072
#
# Stress axis : x y z
#
# Youngs Moduli (GPa) = 70.65464 26.93071 55.89272
#
# Poissons Ratio (x) = 0.34134 -0.00715
# Poissons Ratio (y) = 0.89553 0.56850
# Poissons Ratio (z) = -0.00904 0.27392
#
# Static dielectric constant tensor:
#      x y z
#    x 1.702820 0.000000 0.006160 
#    y 0.000000 1.666180 0.000000 
#    z 0.006160 0.000000 1.700670 
# 
# From -- ./inp_files/348752.got.cif
#   From: 2010.05.17/outbox.cif.g08.bks.cpg/sg12_175_cif.got.tgz:348752.got - 2010.06.03 13:09:07.
