data_PCOD9198252
_publ_section_title
;
Structure prediction by ZEFSAII (Michael W. Deem and Ramdas Pophale) SiO2 
 PCOD9198252
Probable space group: C 2/M
;
_chemical_formula_sum "Si O2"
_cell_formula_units_Z 64
_cell_length_a 20.714595
_cell_length_b 8.735104
_cell_length_c 22.727345
_cell_angle_alpha 90.000000
_cell_angle_beta 62.931051
_cell_angle_gamma 90.000000
_cell_volume 3661.907996
_symmetry_space_group_name_H-M "C 2/M"
_symmetry_group_IT_number 12
_symmetry_cell_setting 'monoclinic'
loop_
_space_group_symop_operation_xyz
x,y,z
-x,y,-z
-x,-y,-z
x,-y,z
1/2+x,1/2+y,z
1/2-x,1/2+y,-z
1/2-x,1/2-y,-z
1/2+x,1/2-y,z
loop_
_atom_site_type_symbol
_atom_site_label
_atom_site_fract_x
_atom_site_fract_y
_atom_site_fract_z
Si Si1 0.244311 0.318098 0.173131
Si Si2 0.599766 0.816389 0.906611
Si Si3 0.439811 0.183543 0.940781
Si Si4 0.862674 0.815694 0.441305
Si Si5 0.013605 0.813372 0.427068
Si Si6 0.327182 0.314284 0.681172
Si Si7 0.192863 0.182303 0.070590
Si Si8 0.753551 0.183994 0.591498
O O1 0.240025 0.500000 0.170939
O O2 0.328046 0.266354 0.144027
O O3 0.200395 0.256949 0.247252
O O4 0.213063 0.245627 0.126203
O O5 0.524800 0.773460 0.905181
O O6 0.608755 0.000000 0.896988
O O7 0.587682 0.785180 0.981176
O O8 0.386806 0.266510 0.917688
O O9 0.434950 0.000000 0.934268
O O10 0.816077 0.770614 0.518604
O O11 0.820862 0.750028 0.402751
O O12 0.945035 0.764987 0.416577
O O13 0.861410 0.000000 0.439003
O O14 0.091144 0.766819 0.369809
O O15 0.000000 0.763799 0.500000
O O16 0.013929 0.000000 0.428258
O O17 0.325735 0.500000 0.686163
O O18 0.276416 0.268826 0.647191
O O19 0.199021 0.000000 0.067954
O O20 0.250000 0.250000 0.000000
O O21 0.750304 0.000000 0.591874
#
# Coordination Sequence:
#
# PCOD9198252 Si02
#       8
#     8   8   8   8   8   8   8   8
#     4  12  25  39  56  81 115 154 194 237 284 338
#     4   9  18  35  59  85 114 146 181 227 282 337
#     4   9  18  34  59  89 116 142 179 230 283 333
#     4   9  16  28  51  81 108 133 171 226 273 319
#     4   9  15  29  55  83 106 136 184 235 276 325
#     4  10  20  36  57  78 106 147 190 231 282 341
#     4  12  23  37  59  87 117 150 190 235 282 335
#     4   9  17  30  50  77 107 139 174 216 272 334
#
# _framework density 17.477228
#
# number of rings (size 3 to 8) (size 9 to 14) (size 15 to 20)
#    0.000    2.125    2.500    3.000    0.000    1.000 
#    0.000    3.125    0.000    3.750    0.000    0.000 
#    0.000    0.000    0.000    0.000    0.000    0.000 
#
# Total GULP energy -178573.769889 kJ/mol
# GULP energy per Si atom -5580.430309 kJ/mol
# Density = 1.743745 g / cm^3
# Si number density = 17.477228 Si / 1000 Ang^3
#
#
#
# Elastic Constant Matrix: (Units=GPa)
#
#
# Indices 1 2 3 4 5 6 
#
# 1 181.2173 56.8290 93.0889 0.0001 2.3502 0.0003
# 2 56.8290 52.8569 48.0404 0.0003 -0.5803 0.0006
# 3 93.0889 48.0404 124.8145 0.0000 1.8861 0.0001
# 4 0.0001 0.0003 0.0000 19.9669 0.0000 2.5948
# 5 2.3502 -0.5803 1.8861 0.0000 25.2076 0.0001
# 6 0.0003 0.0006 0.0001 2.5948 0.0001 30.2762
#
#
#
# Elastic Compliance Matrix: (Units=1/GPa)
#
#
# Indices 1 2 3 4 5 6 
#
# 1 0.010118 -0.006209 -0.005145 0.000000 -0.000701 0.000000
# 2 -0.006209 0.032966 -0.008087 0.000000 0.001943 -0.000001
# 3 -0.005145 -0.008087 0.014975 0.000000 -0.000827 0.000000
# 4 0.000000 0.000000 0.000000 0.050647 0.000000 -0.004341
# 5 -0.000701 0.001943 -0.000827 0.000000 0.039843 0.000000
# 6 0.000000 -0.000001 0.000000 -0.004341 0.000000 0.033401
#
#
# Mechanical properties :
#
#
# Convention : Reuss Voigt Hill
#
# Bulk Modulus (GPa) = 52.15054 83.86725 68.00890
# Shear Modulus (GPa) = 22.00472 25.81883 23.91178
#
# Velocity S-wave (km/s) = 3.55216 3.84772 3.70289
# Velocity P-wave (km/s) = 6.83577 8.23594 7.56830
#
# Compressibility (1/GPa) = 0.01917526
#
# Stress axis : x y z
#
# Youngs Moduli (GPa) = 98.83742 30.33426 66.77960
#
# Poissons Ratio (x) = 0.18835 0.34361
# Poissons Ratio (y) = 0.61368 0.54005
# Poissons Ratio (z) = 0.50857 0.24531
#
# Static dielectric constant tensor:
#      x y z
#    x 1.603180 0.000000 -0.006420 
#    y 0.000000 1.588710 0.000000 
#    z -0.006420 0.000000 1.566050 
# 
# From -- ./inp_files/319778.got.cif
#   From: 2010.05.17/outbox.cif.g08.bks.cpg/sg12_160_cif.got.tgz:319778.got - 2010.06.03 13:09:07.
