data_PCOD9198845
_publ_section_title
;
Structure prediction by ZEFSAII (Michael W. Deem and Ramdas Pophale) SiO2 
 PCOD9198845
Probable space group: C 2/M
;
_chemical_formula_sum "Si O2"
_cell_formula_units_Z 48
_cell_length_a 23.893403
_cell_length_b 18.892135
_cell_length_c 8.706032
_cell_angle_alpha 90.000000
_cell_angle_beta 142.576530
_cell_angle_gamma 90.000000
_cell_volume 2388.192908
_symmetry_space_group_name_H-M "C 2/M"
_symmetry_group_IT_number 12
_symmetry_cell_setting 'monoclinic'
loop_
_space_group_symop_operation_xyz
x,y,z
-x,y,-z
-x,-y,-z
x,-y,z
1/2+x,1/2+y,z
1/2-x,1/2+y,-z
1/2-x,1/2-y,-z
1/2+x,1/2-y,z
loop_
_atom_site_type_symbol
_atom_site_label
_atom_site_fract_x
_atom_site_fract_y
_atom_site_fract_z
Si Si1 0.499147 0.080961 0.814583
Si Si2 0.373719 0.584910 0.810501
Si Si3 0.212320 0.583720 0.684437
Si Si4 0.956395 0.284414 0.234076
Si Si5 0.550449 0.341555 0.320760
Si Si6 0.321865 0.310894 0.112961
O O1 0.394608 0.103255 0.547171
O O2 0.564570 0.139297 0.881424
O O3 0.516846 0.000000 0.802262
O O4 0.500000 0.081243 0.000000
O O5 0.381376 0.500000 0.800005
O O6 0.274208 0.599480 0.668684
O O7 0.389585 0.630087 0.690554
O O8 0.458659 0.609272 0.106759
O O9 0.215857 0.500000 0.710213
O O10 0.263791 0.623246 0.930971
O O11 0.876921 0.228405 0.097274
O O12 0.000000 0.295027 0.500000
O O13 0.018901 0.240681 0.248932
O O14 0.607954 0.339089 0.604134
O O15 0.250000 0.250000 0.000000
#
# Coordination Sequence:
#
# PCOD9198845 Si02
#       6
#     8   8   8   8   8   8
#     4  10  23  42  63  87 117 160 207 255 306 358
#     4  10  21  37  61  93 126 161 200 244 302 376
#     4  10  21  39  61  88 122 157 201 249 300 360
#     4  10  21  38  59  86 119 155 199 245 300 361
#     4  10  20  36  58  86 124 158 195 243 301 363
#     4  11  23  40  59  88 122 159 205 254 302 361
#
# _framework density 20.098880000000001
#
# number of rings (size 3 to 8) (size 9 to 14) (size 15 to 20)
#    0.000    1.833    1.667    3.000    2.333    3.000 
#    0.000    5.000    0.000    0.000    0.000    0.000 
#    0.000    0.000    0.000    0.000    0.000    0.000 
#
# Total GULP energy -133711.301063 kJ/mol
# GULP energy per Si atom -5571.304211 kJ/mol
# Density = 2.005313 g / cm^3
# Si number density = 20.098880 Si / 1000 Ang^3
#
#
#
# Elastic Constant Matrix: (Units=GPa)
#
#
# Indices 1 2 3 4 5 6 
#
# 1 48.3393 31.5422 5.1869 0.0000 -10.9481 0.0000
# 2 31.5422 69.8726 20.7465 0.0000 -13.6528 0.0000
# 3 5.1869 20.7465 61.3612 0.0000 -4.0624 0.0000
# 4 0.0000 0.0000 0.0000 30.2899 0.0000 -6.0731
# 5 -10.9481 -13.6528 -4.0624 0.0000 11.9663 0.0000
# 6 0.0000 0.0000 0.0000 -6.0731 0.0000 42.6796
#
#
#
# Elastic Compliance Matrix: (Units=1/GPa)
#
#
# Indices 1 2 3 4 5 6 
#
# 1 0.031927 -0.011920 0.002419 0.000000 0.016431 0.000000
# 2 -0.011920 0.024464 -0.006279 0.000000 0.014874 0.000000
# 3 0.002419 -0.006279 0.018299 0.000000 0.001262 0.000000
# 4 0.000000 0.000000 0.000000 0.033984 0.000000 0.004836
# 5 0.016431 0.014874 0.001262 0.000000 0.116000 0.000000
# 6 0.000000 0.000000 0.000000 0.004836 0.000000 0.024119
#
#
# Mechanical properties :
#
#
# Convention : Reuss Voigt Hill
#
# Bulk Modulus (GPa) = 23.18586 32.72492 27.95539
# Shear Modulus (GPa) = 16.96476 25.12698 21.04587
#
# Velocity S-wave (km/s) = 2.90843 3.53961 3.23943
# Velocity P-wave (km/s) = 4.77908 5.74651 5.28498
#
# Compressibility (1/GPa) = 0.04312973
#
# Stress axis : x y z
#
# Youngs Moduli (GPa) = 31.32119 40.87719 54.64817
#
# Poissons Ratio (x) = 0.48727 -0.13221
# Poissons Ratio (y) = 0.37336 0.34313
# Poissons Ratio (z) = -0.07578 0.25666
#
# Static dielectric constant tensor:
#      x y z
#    x 1.781540 0.000000 0.029800 
#    y 0.000000 1.685840 0.000000 
#    z 0.029800 0.000000 1.726820 
# 
# From -- ./inp_files/105043.got.cif
#   From: 2010.05.17/outbox.cif.g08.bks.cpg/sg12_53_cif.got.tgz:105043.got - 2010.06.03 13:09:07.
