data_PCOD9198241
_publ_section_title
;
Structure prediction by ZEFSAII (Michael W. Deem and Ramdas Pophale) SiO2 
 PCOD9198241
Probable space group: C 2/M
;
_chemical_formula_sum "Si O2"
_cell_formula_units_Z 56
_cell_length_a 19.464072
_cell_length_b 7.819777
_cell_length_c 26.157152
_cell_angle_alpha 90.000000
_cell_angle_beta 141.910934
_cell_angle_gamma 90.000000
_cell_volume 2455.970933
_symmetry_space_group_name_H-M "C 2/M"
_symmetry_group_IT_number 12
_symmetry_cell_setting 'monoclinic'
loop_
_space_group_symop_operation_xyz
x,y,z
-x,y,-z
-x,-y,-z
x,-y,z
1/2+x,1/2+y,z
1/2-x,1/2+y,-z
1/2-x,1/2-y,-z
1/2+x,1/2-y,z
loop_
_atom_site_type_symbol
_atom_site_label
_atom_site_fract_x
_atom_site_fract_y
_atom_site_fract_z
Si Si1 0.470951 0.194702 0.543610
Si Si2 0.379758 0.205939 0.083724
Si Si3 0.789037 0.201272 0.186541
Si Si4 0.418046 0.790773 0.996373
Si Si5 0.001596 0.301400 0.744716
Si Si6 0.211888 0.292624 0.704937
Si Si7 0.760995 0.797488 0.620372
O O1 0.500000 0.184530 0.500000
O O2 0.583581 0.273793 0.631654
O O3 0.347783 0.274620 0.472554
O O4 0.464891 0.000000 0.560537
O O5 0.438500 0.273629 0.169306
O O6 0.385200 0.000000 0.089222
O O7 0.250000 0.250000 0.000000
O O8 0.440183 0.265044 0.067058
O O9 0.704566 0.264784 0.093642
O O10 0.909049 0.283013 0.247855
O O11 0.737088 0.234498 0.211807
O O12 0.802355 0.000000 0.187900
O O13 0.419736 0.000000 0.997183
O O14 0.500000 0.732196 0.000000
O O15 0.981080 0.500000 0.741884
O O16 0.880251 0.225039 0.664892
O O17 0.210524 0.500000 0.703956
O O18 0.263398 0.234622 0.681014
O O19 0.738282 0.000000 0.610750
#
# Coordination Sequence:
#
# PCOD9198241 Si02
#       7
#     8   8   8   8   8   8   8
#     4   7  12  28  54  80 105 139 176 212 261 320
#     4  10  20  36  57  77 102 139 179 217 262 317
#     4  11  22  36  56  78 108 146 183 219 266 326
#     4   9  19  35  55  77 103 136 174 217 263 315
#     4  11  23  36  54  79 111 144 181 227 269 312
#     4   9  18  34  57  83 112 140 173 221 272 318
#     4   9  18  34  58  84 109 140 180 219 262 323
#
# _framework density 22.801572
#
# number of rings (size 3 to 8) (size 9 to 14) (size 15 to 20)
#    0.000    2.571    1.429    2.571    2.000    1.143 
#    0.000    1.429    0.000    4.714    0.000    0.000 
#    0.000    0.000    0.000    0.000    0.000    0.000 
#
# Total GULP energy -156195.648556 kJ/mol
# GULP energy per Si atom -5578.416020 kJ/mol
# Density = 2.274967 g / cm^3
# Si number density = 22.801572 Si / 1000 Ang^3
#
#
#
# Elastic Constant Matrix: (Units=GPa)
#
#
# Indices 1 2 3 4 5 6 
#
# 1 65.3587 -7.9282 -7.6137 0.0000 13.3775 0.0001
# 2 -7.9282 32.7334 -1.5170 0.0001 0.8924 0.0004
# 3 -7.6137 -1.5170 20.9997 0.0000 10.6181 0.0000
# 4 0.0000 0.0001 0.0000 1.1830 0.0000 1.3561
# 5 13.3775 0.8924 10.6181 0.0000 41.6459 0.0000
# 6 0.0001 0.0004 0.0000 1.3561 0.0000 12.6760
#
#
#
# Elastic Compliance Matrix: (Units=1/GPa)
#
#
# Indices 1 2 3 4 5 6 
#
# 1 0.019313 0.005498 0.012164 0.000000 -0.009423 0.000000
# 2 0.005498 0.032289 0.006393 -0.000001 -0.004088 -0.000001
# 3 0.012164 0.006393 0.062608 0.000000 -0.020007 0.000000
# 4 0.000000 -0.000001 0.000000 0.963469 0.000000 -0.103074
# 5 -0.009423 -0.004088 -0.020007 0.000000 0.032227 0.000000
# 6 0.000000 -0.000001 0.000000 -0.103074 0.000000 0.089916
#
#
# Mechanical properties :
#
#
# Convention : Reuss Voigt Hill
#
# Bulk Modulus (GPa) = 6.16068 9.44156 7.80112
# Shear Modulus (GPa) = 4.14656 20.17770 12.16213
#
# Velocity S-wave (km/s) = 1.35000 2.97800 2.31203
# Velocity P-wave (km/s) = 2.26665 3.99679 3.24901
#
# Compressibility (1/GPa) = 0.16231978
#
# Stress axis : x y z
#
# Youngs Moduli (GPa) = 51.77927 30.97007 15.97248
#
# Poissons Ratio (x) = -0.17028 -0.19428
# Poissons Ratio (y) = -0.28470 -0.10211
# Poissons Ratio (z) = -0.62983 -0.19799
#
# Static dielectric constant tensor:
#      x y z
#    x 1.833830 0.000000 0.015870 
#    y 0.000000 1.827760 0.000000 
#    z 0.015870 0.000000 1.890300 
# 
# From -- ./inp_files/363122.got.cif
#   From: 2010.05.17/outbox.cif.g08.bks.cpg/sg12_182_cif.got.tgz:363122.got - 2010.06.03 13:09:07.
