data_PCOD9198933
_publ_section_title
;
Structure prediction by ZEFSAII (Michael W. Deem and Ramdas Pophale) SiO2 
 PCOD9198933
Probable space group: C 2/M
;
_chemical_formula_sum "Si O2"
_cell_formula_units_Z 56
_cell_length_a 16.016603
_cell_length_b 7.404406
_cell_length_c 17.305253
_cell_angle_alpha 90.000000
_cell_angle_beta 79.462539
_cell_angle_gamma 90.000000
_cell_volume 2017.678600
_symmetry_space_group_name_H-M "C 2/M"
_symmetry_group_IT_number 12
_symmetry_cell_setting 'monoclinic'
loop_
_space_group_symop_operation_xyz
x,y,z
-x,y,-z
-x,-y,-z
x,-y,z
1/2+x,1/2+y,z
1/2-x,1/2+y,-z
1/2-x,1/2-y,-z
1/2+x,1/2-y,z
loop_
_atom_site_type_symbol
_atom_site_label
_atom_site_fract_x
_atom_site_fract_y
_atom_site_fract_z
Si Si1 0.610969 0.784331 0.021626
Si Si2 0.744886 0.716156 0.881210
Si Si3 0.316896 0.707209 0.590282
Si Si4 0.476743 0.218185 0.160884
Si Si5 0.874830 0.716407 0.739273
Si Si6 0.142516 0.278044 0.692119
Si Si7 0.059273 0.705012 0.554048
O O1 0.686451 0.718814 0.065865
O O2 0.522955 0.716201 0.074422
O O3 0.604564 0.000000 0.030257
O O4 0.651513 0.758490 0.929911
O O5 0.750166 0.500000 0.878948
O O6 0.787182 0.783832 0.794815
O O7 0.302232 0.500000 0.572023
O O8 0.382283 0.713742 0.651448
O O9 0.232750 0.784169 0.644721
O O10 0.352207 0.801430 0.508517
O O11 0.549962 0.254194 0.213341
O O12 0.392576 0.285844 0.219330
O O13 0.467518 0.000000 0.155834
O O14 0.871407 0.500000 0.734243
O O15 0.143607 0.500000 0.693238
O O16 0.077945 0.221729 0.635003
O O17 0.027289 0.500000 0.571235
O O18 0.000000 0.796261 0.500000
#
# Coordination Sequence:
#
# PCOD9198933 Si02
#       7
#     8   8   8   8   8   8   8
#     4   8  13  22  41  68  93 118 151 196 245 283
#     4   8  14  24  40  65  95 123 153 195 242 282
#     4  11  22  33  48  73 104 130 151 191 248 289
#     4   8  14  28  50  72  93 122 165 207 235 273
#     4   9  17  31  51  71  93 128 171 204 231 277
#     4   9  18  32  50  73  99 126 158 195 236 283
#     4  10  20  36  59  78  92 122 165 198 227 277
#
# _framework density 27.754669
#
# number of rings (size 3 to 8) (size 9 to 14) (size 15 to 20)
#    0.000    3.000    0.000    3.429    0.000    3.143 
#    0.000    2.857    0.000    5.143    0.000    6.000 
#    0.000    0.000    0.000    0.000    0.000    0.000 
#
# Total GULP energy -156554.514230 kJ/mol
# GULP energy per Si atom -5591.232651 kJ/mol
# Density = 2.769150 g / cm^3
# Si number density = 27.754669 Si / 1000 Ang^3
#
#
#
# Elastic Constant Matrix: (Units=GPa)
#
#
# Indices 1 2 3 4 5 6 
#
# 1 93.6619 -3.1465 29.7518 0.0000 -25.3826 0.0000
# 2 -3.1465 100.8232 0.3082 0.0000 -4.8875 0.0000
# 3 29.7518 0.3082 235.2730 0.0000 -22.6823 0.0000
# 4 0.0000 0.0000 0.0000 15.6000 0.0000 -8.5098
# 5 -25.3826 -4.8875 -22.6823 0.0000 65.7021 0.0000
# 6 0.0000 0.0000 0.0000 -8.5098 0.0000 5.0855
#
#
#
# Elastic Compliance Matrix: (Units=1/GPa)
#
#
# Indices 1 2 3 4 5 6 
#
# 1 0.012243 0.000598 -0.001126 0.000000 0.004386 0.000000
# 2 0.000598 0.009984 0.000005 0.000000 0.000976 0.000000
# 3 -0.001126 0.000005 0.004501 0.000000 0.001119 0.000000
# 4 0.000000 0.000000 0.000000 0.735245 0.000000 1.230319
# 5 0.004386 0.000976 0.001119 0.000000 0.017373 0.000000
# 6 0.000000 0.000000 0.000000 1.230319 0.000000 2.255385
#
#
# Mechanical properties :
#
#
# Convention : Reuss Voigt Hill
#
# Bulk Modulus (GPa) = 38.93696 53.73168 46.33432
# Shear Modulus (GPa) = 1.64239 44.13384 22.88812
#
# Velocity S-wave (km/s) = 0.77009 3.99198 2.87480
# Velocity P-wave (km/s) = 3.85359 6.37569 5.26781
#
# Compressibility (1/GPa) = 0.02568254
#
# Stress axis : x y z
#
# Youngs Moduli (GPa) = 81.67923 100.15731 222.18874
#
# Poissons Ratio (x) = -0.05991 0.25023
# Poissons Ratio (y) = -0.04885 -0.00119
# Poissons Ratio (z) = 0.09199 -0.00054
#
# Static dielectric constant tensor:
#      x y z
#    x 2.331900 0.000000 -0.011900 
#    y 0.000000 2.019730 0.000000 
#    z -0.011900 0.000000 2.108290 
# 
# From -- ./inp_files/275353.got.cif
#   From: 2010.05.17/outbox.cif.g08.bks.cpg/sg12_138_cif.got.tgz:275353.got - 2010.06.03 13:09:07.
