data_PCOD9198381
_publ_section_title
;
Structure prediction by ZEFSAII (Michael W. Deem and Ramdas Pophale) SiO2 
 PCOD9198381
Probable space group: C 2/M
;
_chemical_formula_sum "Si O2"
_cell_formula_units_Z 42
_cell_length_a 14.839773
_cell_length_b 7.562209
_cell_length_c 18.799625
_cell_angle_alpha 90.000000
_cell_angle_beta 133.979990
_cell_angle_gamma 90.000000
_cell_volume 1518.118344
_symmetry_space_group_name_H-M "C 2/M"
_symmetry_group_IT_number 12
_symmetry_cell_setting 'monoclinic'
loop_
_space_group_symop_operation_xyz
x,y,z
-x,y,-z
-x,-y,-z
x,-y,z
1/2+x,1/2+y,z
1/2-x,1/2+y,-z
1/2-x,1/2-y,-z
1/2+x,1/2-y,z
loop_
_atom_site_type_symbol
_atom_site_label
_atom_site_fract_x
_atom_site_fract_y
_atom_site_fract_z
Si Si1 0.083687 0.209891 0.945190
Si Si2 0.000000 0.000000 0.500000
Si Si3 0.956049 0.704498 0.577916
Si Si4 0.313932 0.706097 0.628767
Si Si5 0.306290 0.211219 0.789778
Si Si6 0.165330 0.798430 0.840502
O O1 0.090371 0.276875 0.866648
O O2 0.942802 0.233910 0.893457
O O3 0.111943 0.000000 0.960132
O O4 0.193736 0.302398 0.048564
O O5 0.037693 0.844403 0.579876
O O6 0.976238 0.500000 0.569294
O O7 0.818442 0.773695 0.473983
O O8 0.930119 0.713999 0.648503
O O9 0.317573 0.500000 0.614771
O O10 0.309044 0.729180 0.709993
O O11 0.196278 0.284863 0.780557
O O12 0.299960 0.000000 0.788761
O O13 0.119527 0.000000 0.804799
#
# Coordination Sequence:
#
# PCOD9198381 Si02
#       6
#     8   2   8   8   8   8
#     4  10  20  36  57  82 113 151 197 251 303 359
#     4  12  22  40  68 102 120 162 202 264 300 370
#     4  10  22  41  66  93 126 162 206 248 309 370
#     4  10  21  41  63  87 120 164 203 250 304 372
#     4  11  22  36  58  85 116 158 201 243 305 369
#     4   9  20  38  56  79 113 154 196 244 303 365
#
# _framework density 27.665828000000001
#
# number of rings (size 3 to 8) (size 9 to 14) (size 15 to 20)
#    0.000    1.905    0.952    2.571    2.667    4.571 
#    3.429    0.000    0.000    0.000    0.000    0.000 
#    0.000    0.000    0.000    0.000    0.000    0.000 
#
# Total GULP energy -117374.877525 kJ/mol
# GULP energy per Si atom -5589.279882 kJ/mol
# Density = 2.760286 g / cm^3
# Si number density = 27.665828 Si / 1000 Ang^3
#
#
#
# Elastic Constant Matrix: (Units=GPa)
#
#
# Indices 1 2 3 4 5 6 
#
# 1 172.6931 14.4882 10.0106 0.0000 -23.6442 0.0000
# 2 14.4882 154.2042 1.7700 0.0000 -14.8720 0.0000
# 3 10.0106 1.7700 94.0554 0.0000 -34.1652 0.0000
# 4 0.0000 0.0000 0.0000 32.9539 0.0000 -6.7801
# 5 -23.6442 -14.8720 -34.1652 0.0000 64.5631 0.0000
# 6 0.0000 0.0000 0.0000 -6.7801 0.0000 13.2247
#
#
#
# Elastic Compliance Matrix: (Units=1/GPa)
#
#
# Indices 1 2 3 4 5 6 
#
# 1 0.006119 -0.000360 0.000173 0.000000 0.002249 0.000000
# 2 -0.000360 0.006675 0.000524 0.000000 0.001683 0.000000
# 3 0.000173 0.000524 0.013210 0.000000 0.007174 0.000000
# 4 0.000000 0.000000 0.000000 0.033924 0.000000 0.017392
# 5 0.002249 0.001683 0.007174 0.000000 0.020497 0.000000
# 6 0.000000 0.000000 0.000000 0.017392 0.000000 0.084533
#
#
# Mechanical properties :
#
#
# Convention : Reuss Voigt Hill
#
# Bulk Modulus (GPa) = 37.48558 52.61004 45.04781
# Shear Modulus (GPa) = 28.87242 48.46061 38.66652
#
# Velocity S-wave (km/s) = 3.23400 4.18980 3.74254
# Velocity P-wave (km/s) = 5.24632 6.51640 5.91554
#
# Compressibility (1/GPa) = 0.02667692
#
# Stress axis : x y z
#
# Youngs Moduli (GPa) = 163.43174 149.81195 75.70139
#
# Poissons Ratio (x) = 0.05392 -0.01306
# Poissons Ratio (y) = 0.05883 -0.03967
# Poissons Ratio (z) = -0.02820 -0.07851
#
# Static dielectric constant tensor:
#      x y z
#    x 2.263320 0.000000 0.005690 
#    y 0.000000 2.059780 0.000000 
#    z 0.005690 0.000000 2.318420 
# 
# From -- ./inp_files/267524.got.cif
#   From: 2010.05.17/outbox.cif.g08.bks.cpg/sg12_134_cif.got.tgz:267524.got - 2010.06.03 13:09:07.
