data_PCOD9198101
_publ_section_title
;
Structure prediction by ZEFSAII (Michael W. Deem and Ramdas Pophale) SiO2 
 PCOD9198101
Probable space group: C 2/M
;
_chemical_formula_sum "Si O2"
_cell_formula_units_Z 40
_cell_length_a 28.052475
_cell_length_b 8.674230
_cell_length_c 26.231803
_cell_angle_alpha 90.000000
_cell_angle_beta 159.252552
_cell_angle_gamma 90.000000
_cell_volume 2261.202025
_symmetry_space_group_name_H-M "C 2/M"
_symmetry_group_IT_number 12
_symmetry_cell_setting 'monoclinic'
loop_
_space_group_symop_operation_xyz
x,y,z
-x,y,-z
-x,-y,-z
x,-y,z
1/2+x,1/2+y,z
1/2-x,1/2+y,-z
1/2-x,1/2-y,-z
1/2+x,1/2-y,z
loop_
_atom_site_type_symbol
_atom_site_label
_atom_site_fract_x
_atom_site_fract_y
_atom_site_fract_z
Si Si1 0.750004 0.185333 0.670119
Si Si2 0.749936 0.816059 0.216484
Si Si3 0.955867 0.684934 0.342605
Si Si4 0.455950 0.684931 0.069264
Si Si5 0.249979 0.316047 0.056675
O O1 0.750078 0.264844 0.725213
O O2 0.612795 0.224781 0.503603
O O3 0.750018 0.000000 0.678230
O O4 0.887128 0.224782 0.777895
O O5 0.621414 0.747888 0.057980
O O6 0.878526 0.747961 0.315129
O O7 0.749899 0.000000 0.211873
O O8 0.941485 0.500000 0.326807
O O9 0.878469 0.756177 0.217165
O O10 0.441572 0.500000 0.056328
O O11 0.378570 0.756237 0.039909
O O12 0.250011 0.500000 0.055940
O O13 0.250000 0.250000 0.000000
#
# Coordination Sequence:
#
# PCOD9198101 Si02
#       5
#     8   8   8   8   8
#     4  10  21  35  53  78 110 145 178 216 263 312
#     4  11  21  32  50  78 111 148 185 217 255 308
#     4  10  20  36  56  79 107 140 179 220 263 311
#     4  10  20  36  56  79 107 140 179 220 263 311
#     4  11  22  39  61  82 103 133 174 217 265 318
#
# _framework density 17.689708
#
# number of rings (size 3 to 8) (size 9 to 14) (size 15 to 20)
#    0.000    1.600    0.000    8.400    0.000    8.000 
#    0.000    1.000    0.000    0.000    0.000    0.000 
#    0.000    0.000    0.000    0.000    0.000    0.000 
#
# Total GULP energy -111761.440291 kJ/mol
# GULP energy per Si atom -5588.072015 kJ/mol
# Density = 1.764944 g / cm^3
# Si number density = 17.689708 Si / 1000 Ang^3
#
#
#
# Elastic Constant Matrix: (Units=GPa)
#
#
# Indices 1 2 3 4 5 6 
#
# 1 139.0212 68.3285 95.7220 0.0000 -12.2045 0.0000
# 2 68.3285 109.6238 76.6681 0.0021 2.6014 0.0006
# 3 95.7220 76.6681 176.7895 0.0018 23.7209 0.0006
# 4 0.0000 0.0021 0.0018 -3.9952 0.0006 -9.7885
# 5 -12.2045 2.6014 23.7209 0.0006 11.1104 0.0001
# 6 0.0000 0.0006 0.0006 -9.7885 0.0001 29.4448
#
#
#
# Elastic Compliance Matrix: (Units=1/GPa)
#
#
# Indices 1 2 3 4 5 6 
#
# 1 0.125666 -0.004619 -0.118713 -0.000002 0.392578 0.000001
# 2 -0.004619 0.014678 -0.003816 0.000003 -0.000364 0.000001
# 3 -0.118713 -0.003816 0.124683 0.000001 -0.395710 -0.000001
# 4 -0.000002 0.000003 0.000001 -0.137945 0.000003 -0.045858
# 5 0.392578 -0.000364 -0.395710 0.000003 1.366178 0.000006
# 6 0.000001 0.000001 -0.000001 -0.045858 0.000006 0.018717
#
#
# Mechanical properties :
#
#
# Convention : Reuss Voigt Hill
#
# Bulk Modulus (GPa) = 93.17949 100.76353 96.97151
# Shear Modulus (GPa) = 2.82510 19.62639 11.22575
#
# Velocity S-wave (km/s) = 1.26511 3.33450 2.52184
# Velocity P-wave (km/s) = 7.41099 8.48001 7.96346
#
# Compressibility (1/GPa) = 0.01073198
#
# Stress axis : x y z
#
# Youngs Moduli (GPa) = 7.95758 68.12703 8.02036
#
# Poissons Ratio (x) = 0.31469 0.95212
# Poissons Ratio (y) = 0.03676 0.03060
# Poissons Ratio (z) = 0.94467 0.25995
#
# Static dielectric constant tensor:
#      x y z
#    x 1.563490 0.000000 0.014330 
#    y 0.000000 1.592900 0.000000 
#    z 0.014330 0.000000 1.612120 
# 
# From -- ./inp_files/92945.got.cif
#   From: 2010.05.17/outbox.cif.g08.bks.cpg/sg12_47_cif.got.tgz:92945.got - 2010.06.03 13:09:07.
