data_PCOD9198367
_publ_section_title
;
Structure prediction by ZEFSAII (Michael W. Deem and Ramdas Pophale) SiO2 
 PCOD9198367
Probable space group: C 2/M
;
_chemical_formula_sum "Si O2"
_cell_formula_units_Z 64
_cell_length_a 18.523416
_cell_length_b 16.926247
_cell_length_c 16.291106
_cell_angle_alpha 90.000000
_cell_angle_beta 139.926189
_cell_angle_gamma 90.000000
_cell_volume 3288.256663
_symmetry_space_group_name_H-M "C 2/M"
_symmetry_group_IT_number 12
_symmetry_cell_setting 'monoclinic'
loop_
_space_group_symop_operation_xyz
x,y,z
-x,y,-z
-x,-y,-z
x,-y,z
1/2+x,1/2+y,z
1/2-x,1/2+y,-z
1/2-x,1/2-y,-z
1/2+x,1/2-y,z
loop_
_atom_site_type_symbol
_atom_site_label
_atom_site_fract_x
_atom_site_fract_y
_atom_site_fract_z
Si Si1 0.664824 0.856107 0.413281
Si Si2 0.112481 0.811285 0.151751
Si Si3 0.496482 0.094444 0.403354
Si Si4 0.247769 0.404956 0.858233
Si Si5 0.104521 0.635656 0.187317
Si Si6 0.090308 0.825325 0.319285
Si Si7 0.357640 0.404539 0.129950
Si Si8 0.139330 0.588727 0.040096
O O1 0.602411 0.885147 0.439947
O O2 0.641333 0.897605 0.306354
O O3 0.797281 0.859525 0.542961
O O4 0.612590 0.768277 0.351741
O O5 0.196971 0.861928 0.171075
O O6 0.151982 0.722355 0.206620
O O7 0.090612 0.846162 0.222695
O O8 0.000000 0.806576 0.000000
O O9 0.500000 0.126054 0.500000
O O10 0.383048 0.118347 0.256974
O O11 0.491928 0.000000 0.405723
O O12 0.255704 0.500000 0.855555
O O13 0.310673 0.385157 0.997837
O O14 0.968918 0.641296 0.074419
O O15 0.138332 0.585963 0.137575
O O16 0.971887 0.857880 0.247979
O O17 0.376191 0.500000 0.149906
O O18 0.256219 0.384301 0.103748
O O19 0.118109 0.500000 0.988872
#
# Coordination Sequence:
#
# PCOD9198367 Si02
#       8
#     8   8   8   8   8   8   8   8
#     4  10  22  39  58  80 112 152 186 226 275 337
#     4  11  19  34  56  84 112 143 182 230 270 331
#     4  10  21  38  59  86 116 147 187 231 276 331
#     4  10  21  35  55  84 115 148 184 228 285 337
#     4  10  20  36  57  84 109 142 188 231 277 328
#     4  10  22  39  55  80 115 148 188 227 278 333
#     4  10  21  36  55  82 115 146 183 233 284 333
#     4  10  20  36  57  82 111 140 181 236 285 325
#
# _framework density 19.463201000000002
#
# number of rings (size 3 to 8) (size 9 to 14) (size 15 to 20)
#    0.000    1.875    2.500    2.250    0.000    4.250 
#    0.000    3.125    0.000    1.500    0.000    0.000 
#    0.000    0.000    0.000    0.000    0.000    0.000 
#
# Total GULP energy -178430.470680 kJ/mol
# GULP energy per Si atom -5575.952209 kJ/mol
# Density = 1.941890 g / cm^3
# Si number density = 19.463201 Si / 1000 Ang^3
#
#
#
# Elastic Constant Matrix: (Units=GPa)
#
#
# Indices 1 2 3 4 5 6 
#
# 1 120.6745 17.0506 56.1949 0.0000 9.5422 0.0000
# 2 17.0506 16.9046 20.5372 0.0000 11.6631 0.0000
# 3 56.1949 20.5372 114.9343 0.0000 -0.7421 0.0000
# 4 0.0000 0.0000 0.0000 15.0256 0.0000 -3.1629
# 5 9.5422 11.6631 -0.7421 0.0000 34.3622 0.0000
# 6 0.0000 0.0000 0.0000 -3.1629 0.0000 34.3327
#
#
#
# Elastic Compliance Matrix: (Units=1/GPa)
#
#
# Indices 1 2 3 4 5 6 
#
# 1 0.011245 -0.004418 -0.004720 0.000000 -0.001725 0.000000
# 2 -0.004418 0.110607 -0.017841 0.000000 -0.036700 0.000000
# 3 -0.004720 -0.017841 0.014246 0.000000 0.007674 0.000000
# 4 0.000000 0.000000 0.000000 0.067869 0.000000 0.006252
# 5 -0.001725 -0.036700 0.007674 0.000000 0.042203 0.000000
# 6 0.000000 0.000000 0.000000 0.006252 0.000000 0.029703
#
#
# Mechanical properties :
#
#
# Convention : Reuss Voigt Hill
#
# Bulk Modulus (GPa) = 12.17428 48.89765 30.53597
# Shear Modulus (GPa) = 13.99734 27.32615 20.66175
#
# Velocity S-wave (km/s) = 2.68464 3.75105 3.26172
# Velocity P-wave (km/s) = 3.98476 6.62859 5.46884
#
# Compressibility (1/GPa) = 0.08214036
#
# Stress axis : x y z
#
# Youngs Moduli (GPa) = 88.92570 9.04104 70.19636
#
# Poissons Ratio (x) = 0.03994 0.33132
# Poissons Ratio (y) = 0.39289 1.25235
# Poissons Ratio (z) = 0.41972 0.16130
#
# Static dielectric constant tensor:
#      x y z
#    x 1.670590 0.000000 -0.013950 
#    y 0.000000 1.706570 0.000000 
#    z -0.013950 0.000000 1.693020 
# 
# From -- ./inp_files/226898.got.cif
#   From: 2010.05.17/outbox.cif.g08.bks.cpg/sg12_114_cif.got.tgz:226898.got - 2010.06.03 13:09:07.
