data_PCOD9198873
_publ_section_title
;
Structure prediction by ZEFSAII (Michael W. Deem and Ramdas Pophale) SiO2 
 PCOD9198873
Probable space group: C 2/M
;
_chemical_formula_sum "Si O2"
_cell_formula_units_Z 40
_cell_length_a 15.507577
_cell_length_b 9.435193
_cell_length_c 13.763430
_cell_angle_alpha 90.000000
_cell_angle_beta 60.755368
_cell_angle_gamma 90.000000
_cell_volume 1757.145179
_symmetry_space_group_name_H-M "C 2/M"
_symmetry_group_IT_number 12
_symmetry_cell_setting 'monoclinic'
loop_
_space_group_symop_operation_xyz
x,y,z
-x,y,-z
-x,-y,-z
x,-y,z
1/2+x,1/2+y,z
1/2-x,1/2+y,-z
1/2-x,1/2-y,-z
1/2+x,1/2-y,z
loop_
_atom_site_type_symbol
_atom_site_label
_atom_site_fract_x
_atom_site_fract_y
_atom_site_fract_z
Si Si1 0.508581 0.334884 0.878965
Si Si2 0.843923 0.336618 0.853038
Si Si3 0.288960 0.830390 0.215341
Si Si4 0.321984 0.338461 0.525196
Si Si5 0.484554 0.146582 0.394464
O O1 0.513862 0.500000 0.842455
O O2 0.413296 0.252430 0.888366
O O3 0.609636 0.245446 0.805005
O O4 0.500000 0.337935 0.000000
O O5 0.819110 0.500000 0.897519
O O6 0.752456 0.247538 0.858939
O O7 0.917801 0.350934 0.721150
O O8 0.207298 0.812719 0.346255
O O9 0.303742 0.000000 0.192253
O O10 0.307279 0.500000 0.516008
O O11 0.250000 0.250000 0.500000
O O12 0.426823 0.292009 0.424465
O O13 0.500000 0.133494 0.500000
O O14 0.429881 0.000000 0.393103
#
# Coordination Sequence:
#
# PCOD9198873 Si02
#       5
#     8   8   8   8   8
#     4  11  26  47  69  94 125 163 211 270 331 386
#     4  11  23  41  68  98 130 171 214 262 318 376
#     4  11  24  42  65  95 129 168 215 263 316 382
#     4  11  23  36  56  87 125 167 210 254 304 365
#     4  10  20  36  58  87 125 164 202 245 297 360
#
# _framework density 22.764196999999999
#
# number of rings (size 3 to 8) (size 9 to 14) (size 15 to 20)
#    0.000    1.200    2.000    3.600    0.000   11.600 
#    0.000    0.000    0.000    0.000    0.000    0.000 
#    0.000    0.000    0.000    0.000    0.000    0.000 
#
# Total GULP energy -111576.631685 kJ/mol
# GULP energy per Si atom -5578.831584 kJ/mol
# Density = 2.271238 g / cm^3
# Si number density = 22.764197 Si / 1000 Ang^3
#
#
#
# Elastic Constant Matrix: (Units=GPa)
#
#
# Indices 1 2 3 4 5 6 
#
# 1 96.5409 89.1199 6.9677 0.0000 18.5808 0.0000
# 2 89.1199 200.3154 41.3758 0.0000 18.5224 0.0000
# 3 6.9677 41.3758 50.8952 0.0000 -7.3886 0.0000
# 4 0.0000 0.0000 0.0000 38.3886 0.0000 9.4270
# 5 18.5808 18.5224 -7.3886 0.0000 37.3204 0.0000
# 6 0.0000 0.0000 0.0000 9.4270 0.0000 42.0970
#
#
#
# Elastic Compliance Matrix: (Units=1/GPa)
#
#
# Indices 1 2 3 4 5 6 
#
# 1 0.019170 -0.008967 0.004042 0.000000 -0.004294 0.000000
# 2 -0.008967 0.010857 -0.007962 0.000000 -0.002501 0.000000
# 3 0.004042 -0.007962 0.026614 0.000000 0.007208 0.000000
# 4 0.000000 0.000000 0.000000 0.027565 0.000000 -0.006173
# 5 -0.004294 -0.002501 0.007208 0.000000 0.031601 0.000000
# 6 0.000000 0.000000 0.000000 -0.006173 0.000000 0.025137
#
#
# Mechanical properties :
#
#
# Convention : Reuss Voigt Hill
#
# Bulk Modulus (GPa) = 32.39607 69.18646 50.79127
# Shear Modulus (GPa) = 28.24731 37.58038 32.91385
#
# Velocity S-wave (km/s) = 3.52641 4.06748 3.80657
# Velocity P-wave (km/s) = 5.55363 7.24692 6.45603
#
# Compressibility (1/GPa) = 0.03086794
#
# Stress axis : x y z
#
# Youngs Moduli (GPa) = 52.16354 92.10529 37.57414
#
# Poissons Ratio (x) = 0.82588 -0.15186
# Poissons Ratio (y) = 0.46773 0.29916
# Poissons Ratio (z) = -0.21083 0.73333
#
# Static dielectric constant tensor:
#      x y z
#    x 1.840820 0.000000 0.028310 
#    y 0.000000 1.826440 0.000000 
#    z 0.028310 0.000000 1.849540 
# 
# From -- ./inp_files/211238.got.cif
#   From: 2010.05.17/outbox.cif.g08.bks.cpg/sg12_106_cif.got.tgz:211238.got - 2010.06.03 13:09:07.
