data_PCOD9198643
_publ_section_title
;
Structure prediction by ZEFSAII (Michael W. Deem and Ramdas Pophale) SiO2 
 PCOD9198643
Probable space group: C 2/M
;
_chemical_formula_sum "Si O2"
_cell_formula_units_Z 40
_cell_length_a 18.311343
_cell_length_b 8.946110
_cell_length_c 26.303606
_cell_angle_alpha 90.000000
_cell_angle_beta 149.692462
_cell_angle_gamma 90.000000
_cell_volume 2174.465069
_symmetry_space_group_name_H-M "C 2/M"
_symmetry_group_IT_number 12
_symmetry_cell_setting 'monoclinic'
loop_
_space_group_symop_operation_xyz
x,y,z
-x,y,-z
-x,-y,-z
x,-y,z
1/2+x,1/2+y,z
1/2-x,1/2+y,-z
1/2-x,1/2-y,-z
1/2+x,1/2-y,z
loop_
_atom_site_type_symbol
_atom_site_label
_atom_site_fract_x
_atom_site_fract_y
_atom_site_fract_z
Si Si1 0.165779 0.677670 0.902270
Si Si2 0.311815 0.677040 0.287057
Si Si3 0.851200 0.819840 0.714684
Si Si4 0.577766 0.828184 0.491256
Si Si5 0.668830 0.322565 0.104040
O O1 0.149752 0.500000 0.900750
O O2 0.257484 0.700821 0.906147
O O3 0.009301 0.752981 0.802846
O O4 0.250000 0.750000 0.000000
O O5 0.299878 0.500000 0.285055
O O6 0.217832 0.755713 0.274950
O O7 0.477629 0.728280 0.395514
O O8 0.251032 0.732593 0.196991
O O9 0.740825 0.780088 0.602428
O O10 0.854726 0.000000 0.720097
O O11 0.500000 0.827268 0.500000
O O12 0.576752 0.000000 0.472632
O O13 0.676475 0.500000 0.120823
O O14 0.500000 0.280744 0.000000
#
# Coordination Sequence:
#
# PCOD9198643 Si02
#       5
#     8   8   8   8   8
#     4  11  23  38  59  85 112 144 183 229 278 332
#     4  11  21  33  56  87 115 144 183 232 276 322
#     4  10  20  36  58  82 113 151 187 226 273 326
#     4   8  16  32  54  79 109 148 187 223 270 326
#     4  10  22  40  59  79 108 147 185 223 275 335
#
# _framework density 18.395329
#
# number of rings (size 3 to 8) (size 9 to 14) (size 15 to 20)
#    0.000    2.000    0.000    5.400    0.000    8.000 
#    0.000    1.000    0.000    0.000    0.000    0.000 
#    0.000    0.000    0.000    0.000    0.000    0.000 
#
# Total GULP energy -111688.258749 kJ/mol
# GULP energy per Si atom -5584.412937 kJ/mol
# Density = 1.835346 g / cm^3
# Si number density = 18.395329 Si / 1000 Ang^3
#
#
#
# Elastic Constant Matrix: (Units=GPa)
#
#
# Indices 1 2 3 4 5 6 
#
# 1 59.8249 58.8110 71.0734 0.0000 10.1417 0.0000
# 2 58.8110 109.4279 96.8337 0.0000 -1.7825 0.0000
# 3 71.0734 96.8337 191.3066 -0.0002 16.6222 0.0000
# 4 0.0000 0.0000 -0.0002 27.1788 0.0000 3.7733
# 5 10.1417 -1.7825 16.6222 0.0000 31.2759 0.0000
# 6 0.0000 0.0000 0.0000 3.7733 0.0000 24.9061
#
#
#
# Elastic Compliance Matrix: (Units=1/GPa)
#
#
# Indices 1 2 3 4 5 6 
#
# 1 0.044223 -0.018792 -0.005848 0.000000 -0.012303 0.000000
# 2 -0.018792 0.025551 -0.006928 0.000000 0.011232 0.000000
# 3 -0.005848 -0.006928 0.011298 0.000000 -0.004503 0.000000
# 4 0.000000 0.000000 0.000000 0.037584 0.000000 -0.005694
# 5 -0.012303 0.011232 -0.004503 0.000000 0.038996 0.000000
# 6 0.000000 0.000000 0.000000 -0.005694 0.000000 0.041013
#
#
# Mechanical properties :
#
#
# Convention : Reuss Voigt Hill
#
# Bulk Modulus (GPa) = 55.75551 90.44394 73.09972
# Shear Modulus (GPa) = 18.67198 25.59492 22.13345
#
# Velocity S-wave (km/s) = 3.18942 3.73417 3.47250
# Velocity P-wave (km/s) = 6.62862 8.23806 7.47677
#
# Compressibility (1/GPa) = 0.01793545
#
# Stress axis : x y z
#
# Youngs Moduli (GPa) = 22.61270 39.13671 88.51245
#
# Poissons Ratio (x) = 0.73547 0.51766
# Poissons Ratio (y) = 0.42494 0.61319
# Poissons Ratio (z) = 0.13225 0.27113
#
# Static dielectric constant tensor:
#      x y z
#    x 1.611570 0.000000 0.015100 
#    y 0.000000 1.612510 0.000000 
#    z 0.015100 0.000000 1.635130 
# 
# From -- ./inp_files/151736.got.cif
#   From: 2010.05.17/outbox.cif.g08.bks.cpg/sg12_76_cif.got.tgz:151736.got - 2010.06.03 13:09:07.
