data_PCOD9198298
_publ_section_title
;
Structure prediction by ZEFSAII (Michael W. Deem and Ramdas Pophale) SiO2 
 PCOD9198298
Probable space group: C 2/M
;
_chemical_formula_sum "Si O2"
_cell_formula_units_Z 56
_cell_length_a 19.266813
_cell_length_b 8.875590
_cell_length_c 25.256921
_cell_angle_alpha 90.000000
_cell_angle_beta 134.417536
_cell_angle_gamma 90.000000
_cell_volume 3084.913149
_symmetry_space_group_name_H-M "C 2/M"
_symmetry_group_IT_number 12
_symmetry_cell_setting 'monoclinic'
loop_
_space_group_symop_operation_xyz
x,y,z
-x,y,-z
-x,-y,-z
x,-y,z
1/2+x,1/2+y,z
1/2-x,1/2+y,-z
1/2-x,1/2-y,-z
1/2+x,1/2-y,z
loop_
_atom_site_type_symbol
_atom_site_label
_atom_site_fract_x
_atom_site_fract_y
_atom_site_fract_z
Si Si1 0.548951 0.669416 0.306084
Si Si2 0.659397 0.820150 0.921083
Si Si3 0.043594 0.170865 0.176583
Si Si4 0.751536 0.681755 0.745704
Si Si5 0.256852 0.822584 0.560548
Si Si6 0.610136 0.316469 0.572981
Si Si7 0.151359 0.680408 0.791220
O O1 0.566185 0.500000 0.336359
O O2 0.540762 0.659769 0.238638
O O3 0.637142 0.780143 0.363014
O O4 0.450877 0.739661 0.276233
O O5 0.558033 0.753872 0.889533
O O6 0.669633 0.787337 0.863340
O O7 0.657914 0.000000 0.925919
O O8 0.750000 0.750000 0.000000
O O9 0.142284 0.257793 0.214437
O O10 0.045550 0.000000 0.156012
O O11 0.752739 0.500000 0.748078
O O12 0.667589 0.727731 0.657725
O O13 0.726145 0.750725 0.789295
O O14 0.250000 0.750000 0.500000
O O15 0.178329 0.765770 0.560916
O O16 0.243996 0.000000 0.549665
O O17 0.500000 0.267279 0.500000
O O18 0.608129 0.500000 0.573208
O O19 0.145300 0.500000 0.782068
#
# Coordination Sequence:
#
# PCOD9198298 Si02
#       7
#     8   8   8   8   8   8   8
#     4  10  20  36  57  80 108 148 195 241 288 343
#     4  10  21  39  64  91 122 154 190 234 288 347
#     4  10  20  36  60  86 116 152 194 238 286 343
#     4  11  21  36  60  86 117 157 200 243 292 349
#     4  11  22  36  55  79 111 147 192 246 297 350
#     4   9  20  37  55  78 112 154 196 242 295 346
#     4  10  22  38  58  87 120 152 189 237 290 343
#
# _framework density 18.152861999999999
#
# number of rings (size 3 to 8) (size 9 to 14) (size 15 to 20)
#    0.000    1.857    1.429    2.571    2.000    2.857 
#    0.000    0.714    0.000    7.714    0.000    0.000 
#    0.000    0.000    0.000    0.000    0.000    0.000 
#
# Total GULP energy -156149.768530 kJ/mol
# GULP energy per Si atom -5576.777448 kJ/mol
# Density = 1.811155 g / cm^3
# Si number density = 18.152862 Si / 1000 Ang^3
#
#
#
# Elastic Constant Matrix: (Units=GPa)
#
#
# Indices 1 2 3 4 5 6 
#
# 1 115.5953 45.5287 46.5304 0.0000 11.1032 0.0000
# 2 45.5287 64.0479 24.4821 0.0000 -3.9721 0.0000
# 3 46.5304 24.4821 78.3200 0.0000 17.0021 0.0000
# 4 0.0000 0.0000 0.0000 29.5810 0.0000 2.4626
# 5 11.1032 -3.9721 17.0021 0.0000 24.4657 0.0000
# 6 0.0000 0.0000 0.0000 2.4626 0.0000 31.1392
#
#
#
# Elastic Compliance Matrix: (Units=1/GPa)
#
#
# Indices 1 2 3 4 5 6 
#
# 1 0.014494 -0.008720 -0.004887 0.000000 -0.004597 0.000000
# 2 -0.008720 0.024388 -0.004900 0.000000 0.011322 0.000000
# 3 -0.004887 -0.004900 0.019896 0.000000 -0.012404 0.000000
# 4 0.000000 0.000000 0.000000 0.034029 0.000000 -0.002691
# 5 -0.004597 0.011322 -0.012404 0.000000 0.053418 0.000000
# 6 0.000000 0.000000 0.000000 -0.002691 0.000000 0.032327
#
#
# Mechanical properties :
#
#
# Convention : Reuss Voigt Hill
#
# Bulk Modulus (GPa) = 45.95139 54.56062 50.25601
# Shear Modulus (GPa) = 22.43933 26.46532 24.45233
#
# Velocity S-wave (km/s) = 3.51968 3.82241 3.67416
# Velocity P-wave (km/s) = 6.47195 7.04291 6.76345
#
# Compressibility (1/GPa) = 0.02176213
#
# Stress axis : x y z
#
# Youngs Moduli (GPa) = 68.99248 41.00444 50.26059
#
# Poissons Ratio (x) = 0.35757 0.24564
# Poissons Ratio (y) = 0.60164 0.24630
# Poissons Ratio (z) = 0.33718 0.20094
#
# Static dielectric constant tensor:
#      x y z
#    x 1.646920 0.000000 0.018790 
#    y 0.000000 1.622020 0.000000 
#    z 0.018790 0.000000 1.599010 
# 
# From -- ./inp_files/342510.got.cif
#   From: 2010.05.17/outbox.cif.g08.bks.cpg/sg12_172_cif.got.tgz:342510.got - 2010.06.03 13:09:07.
