data_PCOD9198123
_publ_section_title
;
Structure prediction by ZEFSAII (Michael W. Deem and Ramdas Pophale) SiO2 
 PCOD9198123
Probable space group: C 2/M
;
_chemical_formula_sum "Si O2"
_cell_formula_units_Z 56
_cell_length_a 25.054666
_cell_length_b 7.519953
_cell_length_c 14.163742
_cell_angle_alpha 90.000000
_cell_angle_beta 55.609190
_cell_angle_gamma 90.000000
_cell_volume 2202.130902
_symmetry_space_group_name_H-M "C 2/M"
_symmetry_group_IT_number 12
_symmetry_cell_setting 'monoclinic'
loop_
_space_group_symop_operation_xyz
x,y,z
-x,y,-z
-x,-y,-z
x,-y,z
1/2+x,1/2+y,z
1/2-x,1/2+y,-z
1/2-x,1/2-y,-z
1/2+x,1/2-y,z
loop_
_atom_site_type_symbol
_atom_site_label
_atom_site_fract_x
_atom_site_fract_y
_atom_site_fract_z
Si Si1 0.935083 0.198448 0.951522
Si Si2 0.009085 0.216470 0.696448
Si Si3 0.154582 0.213536 0.597519
Si Si4 0.207791 0.780266 0.353073
Si Si5 0.094665 0.201634 0.337648
Si Si6 0.345056 0.802409 0.187073
Si Si7 0.325400 0.788400 0.924545
O O1 0.915272 0.246579 0.077759
O O2 0.959983 0.000000 0.931877
O O3 0.978225 0.286206 0.826203
O O4 0.863423 0.212160 0.976571
O O5 0.970481 0.281421 0.642493
O O6 0.084232 0.251126 0.623434
O O7 0.999978 0.000000 0.704186
O O8 0.204192 0.270852 0.466607
O O9 0.154614 0.299425 0.699945
O O10 0.159361 0.000000 0.606022
O O11 0.142724 0.717554 0.366536
O O12 0.274473 0.715672 0.239127
O O13 0.207567 0.000000 0.349924
O O14 0.140677 0.199735 0.199226
O O15 0.079989 0.000000 0.384874
O O16 0.338743 0.000000 0.154422
O O17 0.335871 0.000000 0.910069
O O18 0.250000 0.750000 0.000000
#
# Coordination Sequence:
#
# PCOD9198123 Si02
#       7
#     8   8   8   8   8   8   8
#     4  10  20  36  56  80 107 140 178 225 276 327
#     4   8  17  33  56  83 109 135 176 224 274 328
#     4  10  20  37  57  78 105 144 184 226 272 323
#     4   9  19  34  56  81 107 138 181 228 273 319
#     4   9  17  33  54  79 108 139 174 223 275 326
#     4  11  22  36  53  80 111 144 183 227 271 322
#     4  11  20  31  49  77 110 146 182 221 267 323
#
# _framework density 25.429914
#
# number of rings (size 3 to 8) (size 9 to 14) (size 15 to 20)
#    0.000    2.286    0.000    4.286    0.000    2.286 
#    0.000   11.429    0.000    0.000    0.000    5.000 
#    0.000    0.000    0.000    0.000    0.000    0.000 
#
# Total GULP energy -156293.851466 kJ/mol
# GULP energy per Si atom -5581.923267 kJ/mol
# Density = 2.537203 g / cm^3
# Si number density = 25.429914 Si / 1000 Ang^3
#
#
#
# Elastic Constant Matrix: (Units=GPa)
#
#
# Indices 1 2 3 4 5 6 
#
# 1 69.2786 -4.4218 -6.5093 0.0000 1.4197 0.0001
# 2 -4.4218 77.2743 1.6829 0.0000 -2.9984 0.0001
# 3 -6.5093 1.6829 117.7284 0.0000 2.5513 0.0000
# 4 0.0000 0.0000 0.0000 10.5856 0.0000 2.2427
# 5 1.4197 -2.9984 2.5513 0.0000 37.8398 0.0000
# 6 0.0001 0.0001 0.0000 2.2427 0.0000 9.9245
#
#
#
# Elastic Compliance Matrix: (Units=1/GPa)
#
#
# Indices 1 2 3 4 5 6 
#
# 1 0.014572 0.000795 0.000806 0.000000 -0.000538 0.000000
# 2 0.000795 0.013029 -0.000164 0.000000 0.001014 0.000000
# 3 0.000806 -0.000164 0.008554 0.000000 -0.000620 0.000000
# 4 0.000000 0.000000 0.000000 0.099218 0.000000 -0.022421
# 5 -0.000538 0.001014 -0.000620 0.000000 0.026570 0.000000
# 6 0.000000 0.000000 0.000000 -0.022421 0.000000 0.105827
#
#
# Mechanical properties :
#
#
# Convention : Reuss Voigt Hill
#
# Bulk Modulus (GPa) = 25.62125 27.30945 26.46535
# Shear Modulus (GPa) = 17.99166 29.90526 23.94846
#
# Velocity S-wave (km/s) = 2.66277 3.43299 3.07211
# Velocity P-wave (km/s) = 4.42164 5.14551 4.79725
#
# Compressibility (1/GPa) = 0.03903011
#
# Stress axis : x y z
#
# Youngs Moduli (GPa) = 68.62477 76.74984 116.89784
#
# Poissons Ratio (x) = -0.06105 -0.09422
# Poissons Ratio (y) = -0.05458 0.01920
# Poissons Ratio (z) = -0.05531 0.01261
#
# Static dielectric constant tensor:
#      x y z
#    x 2.070700 0.000000 0.039170 
#    y 0.000000 2.031410 0.000000 
#    z 0.039170 0.000000 2.037920 
# 
# From -- ./inp_files/238400.got.cif
#   From: 2010.05.17/outbox.cif.g08.bks.cpg/sg12_120_cif.got.tgz:238400.got - 2010.06.03 13:09:07.
