data_PCOD9198618
_publ_section_title
;
Structure prediction by ZEFSAII (Michael W. Deem and Ramdas Pophale) SiO2 
 PCOD9198618
Probable space group: C 2/M
;
_chemical_formula_sum "Si O2"
_cell_formula_units_Z 56
_cell_length_a 14.657463
_cell_length_b 8.514987
_cell_length_c 25.191990
_cell_angle_alpha 90.000000
_cell_angle_beta 74.808615
_cell_angle_gamma 90.000000
_cell_volume 3034.294599
_symmetry_space_group_name_H-M "C 2/M"
_symmetry_group_IT_number 12
_symmetry_cell_setting 'monoclinic'
loop_
_space_group_symop_operation_xyz
x,y,z
-x,y,-z
-x,-y,-z
x,-y,z
1/2+x,1/2+y,z
1/2-x,1/2+y,-z
1/2-x,1/2-y,-z
1/2+x,1/2-y,z
loop_
_atom_site_type_symbol
_atom_site_label
_atom_site_fract_x
_atom_site_fract_y
_atom_site_fract_z
Si Si1 0.621670 0.689552 0.928229
Si Si2 0.282327 0.688389 0.651050
Si Si3 0.194144 0.812421 0.143592
Si Si4 0.597969 0.690437 0.049897
Si Si5 0.107971 0.313453 0.264740
Si Si6 0.923414 0.188260 0.347926
Si Si7 0.969496 0.808813 0.562609
O O1 0.630715 0.500000 0.924912
O O2 0.696359 0.765659 0.877556
O O3 0.513227 0.728993 0.931811
O O4 0.638005 0.743780 0.986823
O O5 0.282163 0.500000 0.653391
O O6 0.318694 0.751880 0.701991
O O7 0.179030 0.747129 0.651192
O O8 0.363901 0.737829 0.596640
O O9 0.148921 0.753415 0.095039
O O10 0.143206 0.739305 0.201869
O O11 0.184294 0.000000 0.147672
O O12 0.604060 0.500000 0.048154
O O13 0.102982 0.500000 0.268563
O O14 0.005637 0.243613 0.295441
O O15 0.959507 0.239553 0.400985
O O16 0.920401 0.000000 0.347754
O O17 0.000000 0.752195 0.500000
O O18 0.970734 0.000000 0.561356
#
# Coordination Sequence:
#
# PCOD9198618 Si02
#       7
#     8   8   8   8   8   8   8
#     4   9  17  34  55  76 101 136 177 211 254 318
#     4  10  20  36  58  82 110 145 183 224 271 323
#     4  11  21  34  52  78 107 135 170 219 276 325
#     4   8  17  33  54  75 102 137 171 210 259 319
#     4  11  23  39  56  76 104 141 186 233 276 321
#     4  10  20  36  58  82 111 147 183 222 270 322
#     4   8  16  32  54  82 116 149 182 221 262 309
#
# _framework density 18.455690000000001
#
# number of rings (size 3 to 8) (size 9 to 14) (size 15 to 20)
#    0.000    2.429    0.000    4.714    0.000    1.714 
#    0.000    7.857    0.000   14.571    0.000    0.000 
#    0.000    0.000    0.000    0.000    0.000    0.000 
#
# Total GULP energy -156254.731280 kJ/mol
# GULP energy per Si atom -5580.526117 kJ/mol
# Density = 1.841368 g / cm^3
# Si number density = 18.455690 Si / 1000 Ang^3
#
#
#
# Elastic Constant Matrix: (Units=GPa)
#
#
# Indices 1 2 3 4 5 6 
#
# 1 100.6416 8.1453 34.6672 0.0000 0.7405 0.0000
# 2 8.1453 39.5914 5.5166 0.0000 6.9394 0.0000
# 3 34.6672 5.5166 96.8217 0.0000 -2.9741 0.0000
# 4 0.0000 0.0000 0.0000 17.1645 0.0000 -1.2333
# 5 0.7405 6.9394 -2.9741 0.0000 4.8611 0.0000
# 6 0.0000 0.0000 0.0000 -1.2333 0.0000 23.8595
#
#
#
# Elastic Compliance Matrix: (Units=1/GPa)
#
#
# Indices 1 2 3 4 5 6 
#
# 1 0.011478 -0.001392 -0.004100 0.000000 -0.002269 0.000000
# 2 -0.001392 0.035034 -0.003085 0.000000 -0.051688 0.000000
# 3 -0.004100 -0.003085 0.012359 0.000000 0.012590 0.000000
# 4 0.000000 0.000000 0.000000 0.058477 0.000000 0.003023
# 5 -0.002269 -0.051688 0.012590 0.000000 0.287551 0.000000
# 6 0.000000 0.000000 0.000000 0.003023 0.000000 0.042068
#
#
# Mechanical properties :
#
#
# Convention : Reuss Voigt Hill
#
# Bulk Modulus (GPa) = 23.97202 37.07921 30.52562
# Shear Modulus (GPa) = 10.45965 21.75873 16.10919
#
# Velocity S-wave (km/s) = 2.38322 3.43734 2.95762
# Velocity P-wave (km/s) = 4.53764 5.99068 5.31406
#
# Compressibility (1/GPa) = 0.04171530
#
# Stress axis : x y z
#
# Youngs Moduli (GPa) = 87.12355 28.54370 80.91385
#
# Poissons Ratio (x) = 0.03974 0.33175
# Poissons Ratio (y) = 0.12131 0.24964
# Poissons Ratio (z) = 0.35721 0.08807
#
# Static dielectric constant tensor:
#      x y z
#    x 1.634210 0.000000 0.009120 
#    y 0.000000 1.623300 0.000000 
#    z 0.009120 0.000000 1.625700 
# 
# From -- ./inp_files/337844.got.cif
#   From: 2010.05.17/outbox.cif.g08.bks.cpg/sg12_169_cif.got.tgz:337844.got - 2010.06.03 13:09:07.
