data_PCOD9198193
_publ_section_title
;
Structure prediction by ZEFSAII (Michael W. Deem and Ramdas Pophale) SiO2 
 PCOD9198193
Probable space group: C 2/M
;
_chemical_formula_sum "Si O2"
_cell_formula_units_Z 56
_cell_length_a 16.295681
_cell_length_b 26.542328
_cell_length_c 15.421688
_cell_angle_alpha 90.000000
_cell_angle_beta 152.816782
_cell_angle_gamma 90.000000
_cell_volume 3047.228955
_symmetry_space_group_name_H-M "C 2/M"
_symmetry_group_IT_number 12
_symmetry_cell_setting 'monoclinic'
loop_
_space_group_symop_operation_xyz
x,y,z
-x,y,-z
-x,-y,-z
x,-y,z
1/2+x,1/2+y,z
1/2-x,1/2+y,-z
1/2-x,1/2-y,-z
1/2+x,1/2-y,z
loop_
_atom_site_type_symbol
_atom_site_label
_atom_site_fract_x
_atom_site_fract_y
_atom_site_fract_z
Si Si1 0.603334 0.940717 0.810371
Si Si2 0.368402 0.360725 0.115786
Si Si3 0.774047 0.272987 0.429813
Si Si4 0.591922 0.715905 0.002948
Si Si5 0.215642 0.057275 0.207108
Si Si6 0.591462 0.294811 0.670776
Si Si7 0.759538 0.610018 0.425335
O O1 0.694430 0.932758 0.800861
O O2 0.397041 0.923646 0.608927
O O3 0.620869 0.000000 0.847877
O O4 0.711940 0.902058 0.972843
O O5 0.333896 0.321845 0.002010
O O6 0.392283 0.330029 0.228203
O O7 0.554384 0.389274 0.266138
O O8 0.750000 0.250000 0.500000
O O9 0.585925 0.261685 0.207447
O O10 0.810813 0.331719 0.473872
O O11 0.939324 0.246919 0.541043
O O12 0.500000 0.688344 0.000000
O O13 0.727309 0.760162 0.159559
O O14 0.273571 0.092413 0.339470
O O15 0.264593 0.000000 0.277761
O O16 0.000000 0.059845 0.000000
O O17 0.500000 0.321967 0.500000
#
# Coordination Sequence:
#
# PCOD9198193 Si02
#       7
#     8   8   8   8   8   8   8
#     4  11  24  39  60  88 118 158 205 251 304 361
#     4  11  25  39  61  88 123 158 204 249 296 355
#     4  11  23  39  56  88 124 161 208 247 284 354
#     4  11  23  37  62  90 125 166 201 240 292 359
#     4  10  20  36  56  83 122 161 198 242 290 357
#     4  12  24  41  61  86 122 165 203 251 304 348
#     4  11  22  35  59  83 124 162 202 237 295 352
#
# _framework density 18.377351999999998
#
# number of rings (size 3 to 8) (size 9 to 14) (size 15 to 20)
#    0.000    1.000    5.714    2.143    6.000    2.857 
#    0.000    0.000    0.000    0.429    0.000    1.000 
#    0.000    0.000    0.000    0.000    0.000    0.000 
#
# Total GULP energy -156148.146161 kJ/mol
# GULP energy per Si atom -5576.719506 kJ/mol
# Density = 1.833552 g / cm^3
# Si number density = 18.377352 Si / 1000 Ang^3
#
#
#
# Elastic Constant Matrix: (Units=GPa)
#
#
# Indices 1 2 3 4 5 6 
#
# 1 53.2937 25.3193 18.1442 0.0002 -19.7546 0.0000
# 2 25.3193 89.7276 47.6878 0.0000 -17.6801 0.0000
# 3 18.1442 47.6878 91.3297 0.0003 -11.6162 0.0001
# 4 0.0002 0.0000 0.0003 101.1809 0.0002 16.4391
# 5 -19.7546 -17.6801 -11.6162 0.0002 30.7888 0.0000
# 6 0.0000 0.0000 0.0001 16.4391 0.0000 28.6910
#
#
#
# Elastic Compliance Matrix: (Units=1/GPa)
#
#
# Indices 1 2 3 4 5 6 
#
# 1 0.026330 -0.003905 -0.001395 0.000000 0.014125 0.000000
# 2 -0.003905 0.017184 -0.007626 0.000000 0.004485 0.000000
# 3 -0.001395 -0.007626 0.015270 0.000000 0.000487 0.000000
# 4 0.000000 0.000000 0.000000 0.010898 0.000000 -0.006244
# 5 0.014125 0.004485 0.000487 0.000000 0.044301 0.000000
# 6 0.000000 0.000000 0.000000 -0.006244 0.000000 0.038432
#
#
# Mechanical properties :
#
#
# Convention : Reuss Voigt Hill
#
# Bulk Modulus (GPa) = 30.36653 46.29484 38.33068
# Shear Modulus (GPa) = 26.42081 41.67878 34.04979
#
# Velocity S-wave (km/s) = 3.79579 4.76746 4.30910
# Velocity P-wave (km/s) = 5.98084 7.45324 6.75727
#
# Compressibility (1/GPa) = 0.03293099
#
# Stress axis : x y z
#
# Youngs Moduli (GPa) = 37.97949 58.19527 65.48576
#
# Poissons Ratio (x) = 0.22725 0.09138
# Poissons Ratio (y) = 0.14831 0.49941
# Poissons Ratio (z) = 0.05299 0.44381
#
# Static dielectric constant tensor:
#      x y z
#    x 1.676750 0.000000 -0.007280 
#    y 0.000000 1.660140 0.000000 
#    z -0.007280 0.000000 1.675720 
# 
# From -- ./inp_files/219139.got.cif
#   From: 2010.05.17/outbox.cif.g08.bks.cpg/sg12_110_cif.got.tgz:219139.got - 2010.06.03 13:09:07.
