data_PCOD9198233
_publ_section_title
;
Structure prediction by ZEFSAII (Michael W. Deem and Ramdas Pophale) SiO2 
 PCOD9198233
Probable space group: C 2/M
;
_chemical_formula_sum "Si O2"
_cell_formula_units_Z 56
_cell_length_a 22.806077
_cell_length_b 15.180626
_cell_length_c 8.776593
_cell_angle_alpha 90.000000
_cell_angle_beta 61.676950
_cell_angle_gamma 90.000000
_cell_volume 2674.793728
_symmetry_space_group_name_H-M "C 2/M"
_symmetry_group_IT_number 12
_symmetry_cell_setting 'monoclinic'
loop_
_space_group_symop_operation_xyz
x,y,z
-x,y,-z
-x,-y,-z
x,-y,z
1/2+x,1/2+y,z
1/2-x,1/2+y,-z
1/2-x,1/2-y,-z
1/2+x,1/2-y,z
loop_
_atom_site_type_symbol
_atom_site_label
_atom_site_fract_x
_atom_site_fract_y
_atom_site_fract_z
Si Si1 0.005394 0.500000 0.814525
Si Si2 0.426552 0.000000 0.654276
Si Si3 0.287685 0.603029 0.229225
Si Si4 0.946739 0.686444 0.201958
Si Si5 0.175004 0.289319 0.858838
Si Si6 0.705461 0.598606 0.413800
Si Si7 0.430974 0.681205 0.499072
Si Si8 0.153086 0.669135 0.236356
O O1 0.038267 0.593104 0.736430
O O2 0.933412 0.500000 0.828425
O O3 0.000000 0.500000 0.000000
O O4 0.500000 0.000000 0.500000
O O5 0.390461 0.087474 0.657815
O O6 0.299322 0.500000 0.170602
O O7 0.337108 0.683159 0.126541
O O8 0.283310 0.604615 0.418019
O O9 0.222646 0.643324 0.228336
O O10 0.875926 0.677367 0.206358
O O11 0.948569 0.763090 0.324971
O O12 0.000000 0.700757 0.000000
O O13 0.247620 0.327136 0.720341
O O14 0.162066 0.323487 0.044305
O O15 0.725602 0.500000 0.338336
O O16 0.626687 0.611676 0.476559
O O17 0.500000 0.654950 0.500000
O O18 0.387859 0.746373 0.658989
#
# Coordination Sequence:
#
# PCOD9198233 Si02
#       8
#     4   4   8   8   8   8   8   8
#     4  10  20  36  56  94 132 166 209 257 316 403
#     4  12  24  40  60  98 144 178 217 261 329 413
#     4  11  23  45  68  96 133 175 226 280 345 404
#     4  11  23  41  67  98 135 180 222 272 339 405
#     4  12  24  44  69 101 139 174 230 282 336 406
#     4  11  26  44  70  98 131 181 232 287 339 395
#     4  12  24  44  67  95 135 180 229 279 341 402
#     4  12  24  40  67 102 137 181 217 277 339 407
#
# _framework density 20.936192999999999
#
# number of rings (size 3 to 8) (size 9 to 14) (size 15 to 20)
#    0.000    0.571    3.571    6.429    2.000    0.286 
#    0.000    0.000    0.000    3.429    0.000    0.000 
#    0.000    0.000    0.000    0.000    0.000    0.000 
#
# Total GULP energy -156211.908818 kJ/mol
# GULP energy per Si atom -5578.996743 kJ/mol
# Density = 2.088854 g / cm^3
# Si number density = 20.936193 Si / 1000 Ang^3
#
#
#
# Elastic Constant Matrix: (Units=GPa)
#
#
# Indices 1 2 3 4 5 6 
#
# 1 48.6187 -26.2708 -8.5776 0.0000 7.4665 0.0000
# 2 -26.2708 92.7515 3.1453 0.0000 -4.6048 0.0000
# 3 -8.5776 3.1453 77.1415 0.0000 9.9031 0.0000
# 4 0.0000 0.0000 0.0000 19.3821 0.0000 11.3290
# 5 7.4665 -4.6048 9.9031 0.0000 26.5136 0.0000
# 6 0.0000 0.0000 0.0000 11.3290 0.0000 7.3904
#
#
#
# Elastic Compliance Matrix: (Units=1/GPa)
#
#
# Indices 1 2 3 4 5 6 
#
# 1 0.026073 0.006892 0.003579 0.000000 -0.007482 0.000000
# 2 0.006892 0.012735 0.000223 0.000000 0.000188 0.000000
# 3 0.003579 0.000223 0.014155 0.000000 -0.006256 0.000000
# 4 0.000000 0.000000 0.000000 0.496190 0.000000 -0.760630
# 5 -0.007482 0.000188 -0.006256 0.000000 0.042193 0.000000
# 6 0.000000 0.000000 0.000000 -0.760630 0.000000 1.301311
#
#
# Mechanical properties :
#
#
# Convention : Reuss Voigt Hill
#
# Bulk Modulus (GPa) = 13.44987 17.23396 15.34191
# Shear Modulus (GPa) = 2.63706 27.33821 14.98764
#
# Velocity S-wave (km/s) = 1.12352 3.61749 2.67848
# Velocity P-wave (km/s) = 2.84978 5.06930 4.11212
#
# Compressibility (1/GPa) = 0.07435014
#
# Stress axis : x y z
#
# Youngs Moduli (GPa) = 38.35444 78.52180 70.64562
#
# Poissons Ratio (x) = -0.54117 -0.25281
# Poissons Ratio (y) = -0.26434 -0.01575
# Poissons Ratio (z) = -0.13726 -0.01751
#
# Static dielectric constant tensor:
#      x y z
#    x 1.713140 0.000000 -0.004330 
#    y 0.000000 1.762940 0.000000 
#    z -0.004330 0.000000 1.772340 
# 
# From -- ./inp_files/96811.got.cif
#   From: 2010.05.17/outbox.cif.g08.bks.cpg/sg12_49_cif.got.tgz:96811.got - 2010.06.03 13:09:07.
