data_PCOD9198434
_publ_section_title
;
Structure prediction by ZEFSAII (Michael W. Deem and Ramdas Pophale) SiO2 
 PCOD9198434
Probable space group: C 2/M
;
_chemical_formula_sum "Si O2"
_cell_formula_units_Z 40
_cell_length_a 14.763035
_cell_length_b 7.346856
_cell_length_c 14.291870
_cell_angle_alpha 90.000000
_cell_angle_beta 103.829611
_cell_angle_gamma 90.000000
_cell_volume 1505.186545
_symmetry_space_group_name_H-M "C 2/M"
_symmetry_group_IT_number 12
_symmetry_cell_setting 'monoclinic'
loop_
_space_group_symop_operation_xyz
x,y,z
-x,y,-z
-x,-y,-z
x,-y,z
1/2+x,1/2+y,z
1/2-x,1/2+y,-z
1/2-x,1/2-y,-z
1/2+x,1/2-y,z
loop_
_atom_site_type_symbol
_atom_site_label
_atom_site_fract_x
_atom_site_fract_y
_atom_site_fract_z
Si Si1 0.354112 0.221678 0.717361
Si Si2 0.866937 0.708375 0.923868
Si Si3 0.534383 0.222575 0.664494
Si Si4 0.646838 0.778419 0.877274
Si Si5 0.680098 0.199568 0.565357
O O1 0.390227 0.284132 0.827598
O O2 0.427671 0.275124 0.655402
O O3 0.252666 0.298347 0.670208
O O4 0.347006 0.000000 0.716648
O O5 0.899631 0.500000 0.929568
O O6 0.753456 0.712606 0.897019
O O7 0.893886 0.783584 0.032122
O O8 0.589012 0.276726 0.772384
O O9 0.589425 0.291654 0.587310
O O10 0.537003 0.000000 0.663204
O O11 0.649250 0.000000 0.880585
O O12 0.750000 0.250000 0.500000
O O13 0.647543 0.000000 0.530085
#
# Coordination Sequence:
#
# PCOD9198434 Si02
#       5
#     8   8   8   8   8
#     4  10  20  36  57  84 112 142 181 224 268 320
#     4   9  17  28  50  81 111 142 180 223 261 303
#     4   9  19  35  57  81 110 146 182 218 268 326
#     4   9  16  30  51  77 110 148 183 215 258 316
#     4  11  23  41  61  81 106 141 179 225 279 329
#
# _framework density 26.574778999999999
#
# number of rings (size 3 to 8) (size 9 to 14) (size 15 to 20)
#    0.000    2.400    2.000    0.600    0.000    1.600 
#    0.000   11.000    0.000    0.000    0.000    7.000 
#    0.000    0.000    0.000    0.000    0.000    0.000 
#
# Total GULP energy -111781.749656 kJ/mol
# GULP energy per Si atom -5589.087483 kJ/mol
# Density = 2.651429 g / cm^3
# Si number density = 26.574779 Si / 1000 Ang^3
#
#
#
# Elastic Constant Matrix: (Units=GPa)
#
#
# Indices 1 2 3 4 5 6 
#
# 1 129.8159 -6.0386 53.5814 0.0000 -19.5616 0.0000
# 2 -6.0386 102.2368 2.1674 0.0000 -5.1486 0.0000
# 3 53.5814 2.1674 140.0394 0.0000 -29.1909 0.0000
# 4 0.0000 0.0000 0.0000 8.3162 0.0000 2.0634
# 5 -19.5616 -5.1486 -29.1909 0.0000 66.7378 0.0000
# 6 0.0000 0.0000 0.0000 2.0634 0.0000 6.2580
#
#
#
# Elastic Compliance Matrix: (Units=1/GPa)
#
#
# Indices 1 2 3 4 5 6 
#
# 1 0.009294 0.000686 -0.003287 0.000000 0.001339 0.000000
# 2 0.000686 0.009870 -0.000236 0.000000 0.000859 0.000000
# 3 -0.003287 -0.000236 0.009020 0.000000 0.002964 0.000000
# 4 0.000000 0.000000 0.000000 0.130961 0.000000 -0.043180
# 5 0.001339 0.000859 0.002964 0.000000 0.016739 0.000000
# 6 0.000000 0.000000 0.000000 -0.043180 0.000000 0.174032
#
#
# Mechanical properties :
#
#
# Convention : Reuss Voigt Hill
#
# Bulk Modulus (GPa) = 44.42698 52.39026 48.40862
# Shear Modulus (GPa) = 13.77053 37.75453 25.76253
#
# Velocity S-wave (km/s) = 2.27883 3.77329 3.11695
# Velocity P-wave (km/s) = 4.86601 6.22421 5.58654
#
# Compressibility (1/GPa) = 0.02250885
#
# Stress axis : x y z
#
# Youngs Moduli (GPa) = 107.59851 101.31702 110.86371
#
# Poissons Ratio (x) = -0.06951 0.36446
# Poissons Ratio (y) = -0.07382 0.02618
# Poissons Ratio (z) = 0.35372 0.02393
#
# Static dielectric constant tensor:
#      x y z
#    x 2.030080 0.000000 -0.036210 
#    y 0.000000 -14.719200 0.000000 
#    z -0.036210 0.000000 2.127140 
# 
# From -- ./inp_files/202975.got.cif
#   From: 2010.05.17/outbox.cif.g08.bks.cpg/sg12_102_cif.got.tgz:202975.got - 2010.06.03 13:09:07.
