data_PCOD9198290
_publ_section_title
;
Structure prediction by ZEFSAII (Michael W. Deem and Ramdas Pophale) SiO2 
 PCOD9198290
Probable space group: C 2/M
;
_chemical_formula_sum "Si O2"
_cell_formula_units_Z 64
_cell_length_a 18.869316
_cell_length_b 20.689487
_cell_length_c 9.161057
_cell_angle_alpha 90.000000
_cell_angle_beta 60.707819
_cell_angle_gamma 90.000000
_cell_volume 3119.145998
_symmetry_space_group_name_H-M "C 2/M"
_symmetry_group_IT_number 12
_symmetry_cell_setting 'monoclinic'
loop_
_space_group_symop_operation_xyz
x,y,z
-x,y,-z
-x,-y,-z
x,-y,z
1/2+x,1/2+y,z
1/2-x,1/2+y,-z
1/2-x,1/2-y,-z
1/2+x,1/2-y,z
loop_
_atom_site_type_symbol
_atom_site_label
_atom_site_fract_x
_atom_site_fract_y
_atom_site_fract_z
Si Si1 0.403377 0.427973 0.125305
Si Si2 0.802378 0.568469 0.160066
Si Si3 0.027572 0.570675 0.141886
Si Si4 0.114618 0.200157 0.679703
Si Si5 0.129495 0.927893 0.174586
Si Si6 0.625663 0.702837 0.322188
Si Si7 0.039313 0.712646 0.191016
Si Si8 0.192220 0.708072 0.816681
O O1 0.380508 0.500000 0.199635
O O2 0.385299 0.371428 0.255370
O O3 0.500000 0.427414 0.000000
O O4 0.364597 0.416804 0.004655
O O5 0.810448 0.500000 0.232977
O O6 0.717126 0.569021 0.162902
O O7 0.810074 0.634391 0.241334
O O8 0.874519 0.570226 0.969048
O O9 0.001128 0.500000 0.226693
O O10 0.005787 0.639388 0.233306
O O11 0.000000 0.573596 0.000000
O O12 0.124114 0.198745 0.497179
O O13 0.181848 0.240587 0.699675
O O14 0.030540 0.238818 0.792115
O O15 0.091884 0.863911 0.285221
O O16 0.091102 0.000000 0.232568
O O17 0.573939 0.760622 0.307575
O O18 0.721221 0.713029 0.189588
O O19 0.115559 0.714933 0.002433
#
# Coordination Sequence:
#
# PCOD9198290 Si02
#       8
#     8   8   8   8   8   8   8   8
#     4  10  21  37  57  79 105 141 185 227 266 319
#     4   8  15  29  51  79 105 130 170 221 266 310
#     4   9  17  30  51  80 106 130 170 223 269 310
#     4  12  23  36  54  81 115 144 179 228 281 326
#     4   9  18  34  55  78 105 141 184 223 263 320
#     4  11  23  36  54  81 114 147 179 226 280 326
#     4  11  21  36  58  81 107 143 185 224 268 325
#     4  10  20  36  57  80 106 145 187 224 266 323
#
# _framework density 20.518436999999999
#
# number of rings (size 3 to 8) (size 9 to 14) (size 15 to 20)
#    0.000    2.000    0.000    5.250    0.000    2.500 
#    0.000    0.000    0.000    6.000    0.000    0.000 
#    0.000    0.000    0.000    0.000    0.000    0.250 
#
# Total GULP energy -178485.346900 kJ/mol
# GULP energy per Si atom -5577.667091 kJ/mol
# Density = 2.047174 g / cm^3
# Si number density = 20.518437 Si / 1000 Ang^3
#
#
#
# Elastic Constant Matrix: (Units=GPa)
#
#
# Indices 1 2 3 4 5 6 
#
# 1 32.4688 42.5842 3.0587 0.0000 3.2499 0.0000
# 2 42.5842 193.9248 53.4091 0.0000 31.4222 0.0000
# 3 3.0587 53.4091 54.2834 0.0000 14.1079 0.0000
# 4 0.0000 0.0000 0.0000 4.6351 0.0000 8.7353
# 5 3.2499 31.4222 14.1079 0.0000 29.1077 0.0000
# 6 0.0000 0.0000 0.0000 8.7353 0.0000 29.7244
#
#
#
# Elastic Compliance Matrix: (Units=1/GPa)
#
#
# Indices 1 2 3 4 5 6 
#
# 1 0.047712 -0.013980 0.009758 0.000000 0.005035 0.000000
# 2 -0.013980 0.011832 -0.009084 0.000000 -0.006809 0.000000
# 3 0.009758 -0.009084 0.028081 0.000000 -0.004894 0.000000
# 4 0.000000 0.000000 0.000000 0.483554 0.000000 -0.142106
# 5 0.005035 -0.006809 -0.004894 0.000000 0.043515 0.000000
# 6 0.000000 0.000000 0.000000 -0.142106 0.000000 0.075404
#
#
# Mechanical properties :
#
#
# Convention : Reuss Voigt Hill
#
# Bulk Modulus (GPa) = 16.39010 53.19790 34.79400
# Shear Modulus (GPa) = 6.78382 24.80178 15.79280
#
# Velocity S-wave (km/s) = 1.82027 3.48049 2.77734
# Velocity P-wave (km/s) = 3.52465 6.49114 5.22293
#
# Compressibility (1/GPa) = 0.06101246
#
# Stress axis : x y z
#
# Youngs Moduli (GPa) = 20.95929 84.51895 35.61085
#
# Poissons Ratio (x) = 1.18162 -0.34750
# Poissons Ratio (y) = 0.29302 0.32348
# Poissons Ratio (z) = -0.20453 0.76775
#
# Static dielectric constant tensor:
#      x y z
#    x 1.757250 0.000000 -0.035830 
#    y 0.000000 1.809270 0.000000 
#    z -0.035830 0.000000 1.714390 
# 
# From -- ./inp_files/89552.got.cif
#   From: 2010.05.17/outbox.cif.g08.bks.cpg/sg12_45_cif.got.tgz:89552.got - 2010.06.03 13:09:07.
