data_PCOD9198159
_publ_section_title
;
Structure prediction by ZEFSAII (Michael W. Deem and Ramdas Pophale) SiO2 
 PCOD9198159
Probable space group: C 2/M
;
_chemical_formula_sum "Si O2"
_cell_formula_units_Z 64
_cell_length_a 14.758969
_cell_length_b 23.247626
_cell_length_c 12.468667
_cell_angle_alpha 90.000000
_cell_angle_beta 141.174075
_cell_angle_gamma 90.000000
_cell_volume 2682.205094
_symmetry_space_group_name_H-M "C 2/M"
_symmetry_group_IT_number 12
_symmetry_cell_setting 'monoclinic'
loop_
_space_group_symop_operation_xyz
x,y,z
-x,y,-z
-x,-y,-z
x,-y,z
1/2+x,1/2+y,z
1/2-x,1/2+y,-z
1/2-x,1/2-y,-z
1/2+x,1/2-y,z
loop_
_atom_site_type_symbol
_atom_site_label
_atom_site_fract_x
_atom_site_fract_y
_atom_site_fract_z
Si Si1 0.913945 0.770689 0.659877
Si Si2 0.872944 0.299726 0.816586
Si Si3 0.837268 0.097376 0.394719
Si Si4 0.550696 0.592517 0.280832
Si Si5 0.443545 0.930410 0.275487
Si Si6 0.697889 0.269647 0.835312
Si Si7 0.714605 0.068146 0.660798
Si Si8 0.252195 0.905560 0.909442
O O1 0.750000 0.750000 0.500000
O O2 0.956885 0.734296 0.803382
O O3 0.934950 0.838208 0.699225
O O4 0.027983 0.755475 0.672332
O O5 0.755840 0.345309 0.668300
O O6 0.788365 0.253860 0.813759
O O7 0.000000 0.330423 0.000000
O O8 0.863443 0.069153 0.534597
O O9 0.758374 0.068110 0.219983
O O10 0.000000 0.109623 0.500000
O O11 0.627478 0.576305 0.241665
O O12 0.385185 0.574078 0.146225
O O13 0.329164 0.910095 0.261681
O O14 0.597826 0.910171 0.464559
O O15 0.444341 0.000000 0.271009
O O16 0.393453 0.910877 0.112176
O O17 0.719676 0.338583 0.857416
O O18 0.750000 0.250000 0.000000
O O19 0.688962 0.000000 0.643877
#
# Coordination Sequence:
#
# PCOD9198159 Si02
#       8
#     8   8   8   8   8   8   8   8
#     4  11  22  36  55  80 110 152 196 232 279 332
#     4  11  21  34  55  77 108 151 194 232 286 329
#     4   9  19  37  57  79 111 152 188 228 278 332
#     4  10  20  36  56  81 113 144 187 234 273 333
#     4   9  19  39  61  82 111 143 180 225 281 340
#     4  10  21  36  51  79 114 145 186 238 273 328
#     4   9  20  38  60  82 109 145 180 225 280 337
#     4   9  20  34  57  83 108 145 182 228 280 329
#
# _framework density 23.860963999999999
#
# number of rings (size 3 to 8) (size 9 to 14) (size 15 to 20)
#    0.000    2.250    2.500    1.500    0.000    5.000 
#    0.000    3.125    0.000    3.750    0.000    0.000 
#    0.000    0.000    0.000    0.000    0.000    0.000 
#
# Total GULP energy -178487.950816 kJ/mol
# GULP energy per Si atom -5577.748463 kJ/mol
# Density = 2.380666 g / cm^3
# Si number density = 23.860964 Si / 1000 Ang^3
#
#
#
# Elastic Constant Matrix: (Units=GPa)
#
#
# Indices 1 2 3 4 5 6 
#
# 1 99.2567 -2.8636 -16.8695 0.0000 9.7765 0.0000
# 2 -2.8636 39.9221 -0.5389 0.0000 -3.8812 0.0000
# 3 -16.8695 -0.5389 73.7531 0.0000 -8.6382 0.0000
# 4 0.0000 0.0000 0.0000 9.2880 0.0000 7.0026
# 5 9.7765 -3.8812 -8.6382 0.0000 28.8549 0.0000
# 6 0.0000 0.0000 0.0000 7.0026 0.0000 -9.2386
#
#
#
# Elastic Compliance Matrix: (Units=1/GPa)
#
#
# Indices 1 2 3 4 5 6 
#
# 1 0.010739 0.000513 0.002116 0.000000 -0.002936 0.000000
# 2 0.000513 0.025431 0.000708 0.000000 0.003459 0.000000
# 3 0.002116 0.000708 0.014483 0.000000 0.003714 0.000000
# 4 0.000000 0.000000 0.000000 0.068513 0.000000 0.051931
# 5 -0.002936 0.003459 0.003714 0.000000 0.037228 0.000000
# 6 0.000000 0.000000 0.000000 0.051931 0.000000 -0.068880
#
#
# Mechanical properties :
#
#
# Convention : Reuss Voigt Hill
#
# Bulk Modulus (GPa) = 17.44326 19.15420 18.29873
# Shear Modulus (GPa) = 50.02592 21.32778 35.67685
#
# Velocity S-wave (km/s) = 4.58379 2.99295 3.87097
# Velocity P-wave (km/s) = 5.94483 4.47085 5.25973
#
# Compressibility (1/GPa) = 0.05732873
#
# Stress axis : x y z
#
# Youngs Moduli (GPa) = 93.12269 39.32138 69.04673
#
# Poissons Ratio (x) = -0.02019 -0.14611
# Poissons Ratio (y) = -0.04781 -0.04891
# Poissons Ratio (z) = -0.19706 -0.02785
#
# Static dielectric constant tensor:
#      x y z
#    x 1.972700 0.000000 -0.056220 
#    y 0.000000 1.916250 0.000000 
#    z -0.056220 0.000000 2.084280 
# 
# From -- ./inp_files/149817.got.cif
#   From: 2010.05.17/outbox.cif.g08.bks.cpg/sg12_75_cif.got.tgz:149817.got - 2010.06.03 13:09:07.
