data_PCOD9198322
_publ_section_title
;
Structure prediction by ZEFSAII (Michael W. Deem and Ramdas Pophale) SiO2 
 PCOD9198322
Probable space group: C 2/M
;
_chemical_formula_sum "Si O2"
_cell_formula_units_Z 48
_cell_length_a 8.083451
_cell_length_b 30.379055
_cell_length_c 17.979646
_cell_angle_alpha 90.000000
_cell_angle_beta 145.776830
_cell_angle_gamma 90.000000
_cell_volume 2483.197498
_symmetry_space_group_name_H-M "C 2/M"
_symmetry_group_IT_number 12
_symmetry_cell_setting 'monoclinic'
loop_
_space_group_symop_operation_xyz
x,y,z
-x,y,-z
-x,-y,-z
x,-y,z
1/2+x,1/2+y,z
1/2-x,1/2+y,-z
1/2-x,1/2-y,-z
1/2+x,1/2-y,z
loop_
_atom_site_type_symbol
_atom_site_label
_atom_site_fract_x
_atom_site_fract_y
_atom_site_fract_z
Si Si1 0.646417 0.636818 0.437065
Si Si2 0.197793 0.149508 0.278862
Si Si3 0.235521 0.101624 0.147661
Si Si4 0.661555 0.451399 0.638144
Si Si5 0.081944 0.311360 0.239112
Si Si6 0.725557 0.273434 0.847138
O O1 0.662450 0.643284 0.354344
O O2 0.538708 0.586501 0.400662
O O3 0.392962 0.667641 0.375584
O O4 0.945791 0.648999 0.591133
O O5 0.115850 0.113039 0.186138
O O6 0.990635 0.192155 0.190825
O O7 0.513396 0.068792 0.252298
O O8 0.353120 0.148825 0.161305
O O9 0.000000 0.085509 0.000000
O O10 0.500000 0.456329 0.500000
O O11 0.672626 0.500000 0.678090
O O12 0.134146 0.294877 0.174153
O O13 0.968285 0.269489 0.242244
O O14 0.000000 0.260091 0.000000
#
# Coordination Sequence:
#
# PCOD9198322 Si02
#       6
#     8   8   8   8   8   8
#     4   9  20  38  57  82 109 146 188 230 283 328
#     4  10  20  36  57  80 113 146 189 235 271 328
#     4  11  21  36  59  85 114 149 186 229 282 332
#     4  10  20  38  62  86 113 145 181 226 279 339
#     4  10  21  33  52  77 108 151 191 232 273 324
#     4  11  20  33  50  76 113 151 192 230 274 328
#
# _framework density 19.329916999999998
#
# number of rings (size 3 to 8) (size 9 to 14) (size 15 to 20)
#    0.000    1.833    1.667    3.000    0.000    1.000 
#    0.000    5.833    0.000    1.000    0.000    0.000 
#    0.000    0.000    0.000    0.000    0.000    0.000 
#
# Total GULP energy -133699.504490 kJ/mol
# GULP energy per Si atom -5570.812687 kJ/mol
# Density = 1.928592 g / cm^3
# Si number density = 19.329917 Si / 1000 Ang^3
#
#
#
# Elastic Constant Matrix: (Units=GPa)
#
#
# Indices 1 2 3 4 5 6 
#
# 1 59.2059 10.0537 19.1154 0.0000 2.5331 0.0000
# 2 10.0537 93.2473 24.2672 0.0000 18.6931 0.0000
# 3 19.1154 24.2672 100.4643 0.0000 7.0998 0.0000
# 4 0.0000 0.0000 0.0000 8.4332 0.0000 -10.0775
# 5 2.5331 18.6931 7.0998 0.0000 25.8491 0.0000
# 6 0.0000 0.0000 0.0000 -10.0775 0.0000 7.9800
#
#
#
# Elastic Compliance Matrix: (Units=1/GPa)
#
#
# Indices 1 2 3 4 5 6 
#
# 1 0.018106 -0.001106 -0.003171 0.000000 -0.000103 0.000000
# 2 -0.001106 0.013223 -0.002361 0.000000 -0.008806 0.000000
# 3 -0.003171 -0.002361 0.011202 0.000000 -0.001059 0.000000
# 4 0.000000 0.000000 0.000000 -0.232933 0.000000 -0.294159
# 5 -0.000103 -0.008806 -0.001059 0.000000 0.045355 0.000000
# 6 0.000000 0.000000 0.000000 -0.294159 0.000000 -0.246164
#
#
# Mechanical properties :
#
#
# Convention : Reuss Voigt Hill
#
# Bulk Modulus (GPa) = 34.18184 39.97668 37.07926
# Shear Modulus (GPa) = -13.58021 21.75122 4.08550
#
# Velocity S-wave (km/s) = -2.65344 3.35813 1.45539
# Velocity P-wave (km/s) = 2.88689 5.98015 4.69555
#
# Compressibility (1/GPa) = 0.02925530
#
# Stress axis : x y z
#
# Youngs Moduli (GPa) = 55.22992 75.62469 89.26808
#
# Poissons Ratio (x) = 0.08366 0.28303
# Poissons Ratio (y) = 0.06110 0.21079
# Poissons Ratio (z) = 0.17511 0.17857
#
# Static dielectric constant tensor:
#      x y z
#    x 1.818590 0.000000 -0.022660 
#    y 0.000000 1.713920 0.000000 
#    z -0.022660 0.000000 1.683840 
# 
# From -- ./inp_files/42148.got.cif
#   From: 2010.05.17/outbox.cif.g08.bks.cpg/sg12_22_cif.got.tgz:42148.got - 2010.06.03 13:09:07.
