data_PCOD9198802
_publ_section_title
;
Structure prediction by ZEFSAII (Michael W. Deem and Ramdas Pophale) SiO2 
 PCOD9198802
Probable space group: C 2/M
;
_chemical_formula_sum "Si O2"
_cell_formula_units_Z 56
_cell_length_a 13.635287
_cell_length_b 21.303247
_cell_length_c 8.026392
_cell_angle_alpha 90.000000
_cell_angle_beta 106.660906
_cell_angle_gamma 90.000000
_cell_volume 2233.594222
_symmetry_space_group_name_H-M "C 2/M"
_symmetry_group_IT_number 12
_symmetry_cell_setting 'monoclinic'
loop_
_space_group_symop_operation_xyz
x,y,z
-x,y,-z
-x,-y,-z
x,-y,z
1/2+x,1/2+y,z
1/2-x,1/2+y,-z
1/2-x,1/2-y,-z
1/2+x,1/2-y,z
loop_
_atom_site_type_symbol
_atom_site_label
_atom_site_fract_x
_atom_site_fract_y
_atom_site_fract_z
Si Si1 0.572651 0.928434 0.241151
Si Si2 0.888029 0.698458 0.618909
Si Si3 0.229074 0.268288 0.741513
Si Si4 0.745078 0.070892 0.616698
Si Si5 0.294656 0.929770 0.015132
Si Si6 0.443337 0.345026 0.643567
Si Si7 0.133419 0.826227 0.929141
O O1 0.538978 0.856605 0.276210
O O2 0.664919 0.929764 0.423559
O O3 0.610687 0.923634 0.067413
O O4 0.524869 0.000000 0.237197
O O5 0.837849 0.689208 0.413212
O O6 0.786518 0.710189 0.681062
O O7 0.928470 0.769535 0.623225
O O8 0.153178 0.237229 0.835106
O O9 0.322401 0.304606 0.872774
O O10 0.840817 0.115311 0.618521
O O11 0.787934 0.000000 0.646026
O O12 0.693945 0.078136 0.778716
O O13 0.212502 0.879732 0.916894
O O14 0.256106 0.000000 0.969742
O O15 0.500000 0.364096 0.500000
O O16 0.522648 0.351693 0.834008
#
# Coordination Sequence:
#
# PCOD9198802 Si02
#       7
#     8   8   8   8   8   8   8
#     4  10  20  37  62  89 115 153 202 251 301 357
#     4  11  20  38  60  87 116 154 197 252 300 347
#     4  10  21  35  60  81 112 153 201 245 283 349
#     4  10  22  39  59  86 124 164 200 237 290 360
#     4  10  20  36  58  85 118 155 199 242 286 351
#     4  12  24  38  58  90 128 161 195 246 306 352
#     4  11  21  37  55  86 116 156 197 239 291 351
#
# _framework density 25.071698999999999
#
# number of rings (size 3 to 8) (size 9 to 14) (size 15 to 20)
#    0.000    1.429    2.857    4.286    0.000    3.143 
#    0.000    1.429    0.000    0.429    0.000    3.000 
#    0.000    0.000    0.000    0.000    0.000    0.143 
#
# Total GULP energy -156207.036295 kJ/mol
# GULP energy per Si atom -5578.822725 kJ/mol
# Density = 2.501463 g / cm^3
# Si number density = 25.071699 Si / 1000 Ang^3
#
#
#
# Elastic Constant Matrix: (Units=GPa)
#
#
# Indices 1 2 3 4 5 6 
#
# 1 74.9246 27.6103 34.3201 0.0000 -2.9885 0.0000
# 2 27.6103 131.9105 40.6197 0.0000 -7.0199 0.0000
# 3 34.3201 40.6197 125.4292 0.0000 -18.8747 0.0000
# 4 0.0000 0.0000 0.0000 46.2616 0.0000 -1.2012
# 5 -2.9885 -7.0199 -18.8747 0.0000 30.2959 0.0000
# 6 0.0000 0.0000 0.0000 -1.2012 0.0000 34.0054
#
#
#
# Elastic Compliance Matrix: (Units=1/GPa)
#
#
# Indices 1 2 3 4 5 6 
#
# 1 0.015861 -0.002213 -0.003823 0.000000 -0.001330 0.000000
# 2 -0.002213 0.008732 -0.002152 0.000000 0.000464 0.000000
# 3 -0.003823 -0.002152 0.010575 0.000000 0.005713 0.000000
# 4 0.000000 0.000000 0.000000 0.021636 0.000000 0.000764
# 5 -0.001330 0.000464 0.005713 0.000000 0.036543 0.000000
# 6 0.000000 0.000000 0.000000 0.000764 0.000000 0.029434
#
#
# Mechanical properties :
#
#
# Convention : Reuss Voigt Hill
#
# Bulk Modulus (GPa) = 53.21959 59.70716 56.46338
# Shear Modulus (GPa) = 34.38276 37.42687 35.90482
#
# Velocity S-wave (km/s) = 3.70723 3.86786 3.78840
# Velocity P-wave (km/s) = 6.29268 6.61917 6.45799
#
# Compressibility (1/GPa) = 0.01879007
#
# Stress axis : x y z
#
# Youngs Moduli (GPa) = 63.04948 114.52635 94.55913
#
# Poissons Ratio (x) = 0.25348 0.36152
# Poissons Ratio (y) = 0.13955 0.20352
# Poissons Ratio (z) = 0.24105 0.24649
#
# Static dielectric constant tensor:
#      x y z
#    x 2.008310 0.000000 -0.033950 
#    y 0.000000 2.075940 0.000000 
#    z -0.033950 0.000000 2.052620 
# 
# From -- ./inp_files/76924.got.cif
#   From: 2010.05.17/outbox.cif.g08.bks.cpg/sg12_39_cif.got.tgz:76924.got - 2010.06.03 13:09:07.
