data_PCOD9198009
_publ_section_title
;
Structure prediction by ZEFSAII (Michael W. Deem and Ramdas Pophale) SiO2 
 PCOD9198009
Probable space group: C 2/M
;
_chemical_formula_sum "Si O2"
_cell_formula_units_Z 40
_cell_length_a 7.176894
_cell_length_b 12.547801
_cell_length_c 16.774796
_cell_angle_alpha 90.000000
_cell_angle_beta 103.882999
_cell_angle_gamma 90.000000
_cell_volume 1466.512185
_symmetry_space_group_name_H-M "C 2/M"
_symmetry_group_IT_number 12
_symmetry_cell_setting 'monoclinic'
loop_
_space_group_symop_operation_xyz
x,y,z
-x,y,-z
-x,-y,-z
x,-y,z
1/2+x,1/2+y,z
1/2-x,1/2+y,-z
1/2-x,1/2-y,-z
1/2+x,1/2-y,z
loop_
_atom_site_type_symbol
_atom_site_label
_atom_site_fract_x
_atom_site_fract_y
_atom_site_fract_z
Si Si1 0.746011 0.344138 0.298466
Si Si2 0.148393 0.387324 0.260919
Si Si3 0.272237 0.120727 0.478587
Si Si4 0.420734 0.154142 0.077611
Si Si5 0.980543 0.113009 0.883687
O O1 0.763432 0.216314 0.296717
O O2 0.693746 0.379759 0.380629
O O3 0.594308 0.374519 0.214554
O O4 0.953599 0.385828 0.293043
O O5 0.246978 0.500000 0.281154
O O6 0.072471 0.375467 0.162491
O O7 0.500000 0.113295 0.500000
O O8 0.250000 0.250000 0.500000
O O9 0.214740 0.000000 0.508377
O O10 0.214758 0.112981 0.084472
O O11 0.404709 0.282524 0.081447
O O12 0.500000 0.123402 0.000000
O O13 0.079273 0.000000 0.903787
#
# Coordination Sequence:
#
# PCOD9198009 Si02
#       5
#     8   8   8   8   8
#     4  10  20  39  61  83 114 150 193 238 281 344
#     4  10  21  38  60  84 114 154 194 236 286 338
#     4  11  24  41  63  91 122 156 194 242 300 356
#     4  10  20  36  55  83 117 146 189 239 282 337
#     4  10  21  37  57  79 109 151 190 231 283 334
#
# _framework density 27.275599
#
# number of rings (size 3 to 8) (size 9 to 14) (size 15 to 20)
#    0.000    1.800    0.000    5.400    0.000    4.800 
#    0.000   21.000    0.000    0.000    0.000    0.000 
#    0.000    0.000    0.000    0.000    0.000    0.000 
#
# Total GULP energy -112000.972160 kJ/mol
# GULP energy per Si atom -5600.048608 kJ/mol
# Density = 2.721352 g / cm^3
# Si number density = 27.275599 Si / 1000 Ang^3
#
#
#
# Elastic Constant Matrix: (Units=GPa)
#
#
# Indices 1 2 3 4 5 6 
#
# 1 73.5546 40.1946 -0.1210 0.0000 -0.1182 0.0000
# 2 40.1946 316.1003 30.4651 0.0000 -4.5008 0.0000
# 3 -0.1210 30.4651 129.9165 0.0000 -4.7173 0.0000
# 4 0.0000 0.0000 0.0000 -2.9653 0.0000 -7.7839
# 5 -0.1182 -4.5008 -4.7173 0.0000 27.9490 0.0000
# 6 0.0000 0.0000 0.0000 -7.7839 0.0000 36.8839
#
#
#
# Elastic Compliance Matrix: (Units=1/GPa)
#
#
# Indices 1 2 3 4 5 6 
#
# 1 0.014638 -0.001908 0.000455 0.000000 -0.000169 0.000000
# 2 -0.001908 0.003490 -0.000805 0.000000 0.000418 0.000000
# 3 0.000455 -0.000805 0.007930 0.000000 0.001211 0.000000
# 4 0.000000 0.000000 0.000000 -0.217014 0.000000 -0.045798
# 5 -0.000169 0.000418 0.001211 0.000000 0.036050 0.000000
# 6 0.000000 0.000000 0.000000 -0.045798 0.000000 0.017447
#
#
# Mechanical properties :
#
#
# Convention : Reuss Voigt Hill
#
# Bulk Modulus (GPa) = 46.41893 73.40542 59.91217
# Shear Modulus (GPa) = -39.75770 42.30904 1.27567
#
# Velocity S-wave (km/s) = -3.82203 3.94276 0.68463
# Velocity P-wave (km/s) = 1.55622 6.90638 4.75795
#
# Compressibility (1/GPa) = 0.02154294
#
# Stress axis : x y z
#
# Youngs Moduli (GPa) = 68.31421 286.56196 126.09724
#
# Poissons Ratio (x) = 0.54665 -0.05735
# Poissons Ratio (y) = 0.13032 0.10150
# Poissons Ratio (z) = -0.03107 0.23066
#
# Static dielectric constant tensor:
#      x y z
#    x 2.045490 0.000000 -0.043880 
#    y 0.000000 2.154010 0.000000 
#    z -0.043880 0.000000 2.105100 
# 
# From -- ./inp_files/254605.got.cif
#   From: 2010.05.17/outbox.cif.g08.bks.cpg/sg12_128_cif.got.tgz:254605.got - 2010.06.03 13:09:07.
