data_PCOD9198303
_publ_section_title
;
Structure prediction by ZEFSAII (Michael W. Deem and Ramdas Pophale) SiO2 
 PCOD9198303
Probable space group: C 2/M
;
_chemical_formula_sum "Si O2"
_cell_formula_units_Z 56
_cell_length_a 24.567348
_cell_length_b 8.718654
_cell_length_c 15.014508
_cell_angle_alpha 90.000000
_cell_angle_beta 69.404152
_cell_angle_gamma 90.000000
_cell_volume 3010.468770
_symmetry_space_group_name_H-M "C 2/M"
_symmetry_group_IT_number 12
_symmetry_cell_setting 'monoclinic'
loop_
_space_group_symop_operation_xyz
x,y,z
-x,y,-z
-x,-y,-z
x,-y,z
1/2+x,1/2+y,z
1/2-x,1/2+y,-z
1/2-x,1/2-y,-z
1/2+x,1/2-y,z
loop_
_atom_site_type_symbol
_atom_site_label
_atom_site_fract_x
_atom_site_fract_y
_atom_site_fract_z
Si Si1 0.321534 0.316489 0.366878
Si Si2 0.803680 0.815420 0.580767
Si Si3 0.144968 0.183713 0.266462
Si Si4 0.878261 0.684493 0.043524
Si Si5 0.559113 0.185278 0.176277
Si Si6 0.254271 0.682915 0.097000
Si Si7 0.069336 0.684422 0.801582
O O1 0.321232 0.500000 0.362084
O O2 0.260122 0.254117 0.365986
O O3 0.323306 0.269556 0.470321
O O4 0.376390 0.252239 0.282729
O O5 0.847432 0.771691 0.634514
O O6 0.797980 0.000000 0.584862
O O7 0.089950 0.249842 0.245804
O O8 0.202258 0.246315 0.183994
O O9 0.144041 0.000000 0.260971
O O10 0.868895 0.500000 0.047578
O O11 0.817197 0.766475 0.096257
O O12 0.922151 0.719566 0.098714
O O13 0.903834 0.729784 0.932876
O O14 0.492860 0.236681 0.199611
O O15 0.559927 0.000000 0.179380
O O16 0.248808 0.500000 0.098084
O O17 0.250000 0.750000 0.000000
O O18 0.071180 0.500000 0.792619
#
# Coordination Sequence:
#
# PCOD9198303 Si02
#       7
#     8   8   8   8   8   8   8
#     4  10  20  36  59  86 111 139 180 230 276 323
#     4   9  20  38  59  83 112 144 178 220 279 338
#     4  11  22  37  57  81 111 147 183 225 276 327
#     4  10  20  36  57  80 109 146 186 228 273 324
#     4  10  21  37  56  78 109 149 190 227 266 324
#     4  12  23  35  53  80 113 145 179 222 270 322
#     4  10  21  37  57  81 110 147 186 225 276 329
#
# _framework density 18.601755000000001
#
# number of rings (size 3 to 8) (size 9 to 14) (size 15 to 20)
#    0.000    1.714    1.429    3.429    0.000    8.000 
#    0.000    0.714    0.000    6.857    0.000    0.000 
#    0.000    0.000    0.000    0.000    0.000    0.000 
#
# Total GULP energy -156434.467389 kJ/mol
# GULP energy per Si atom -5586.945264 kJ/mol
# Density = 1.855942 g / cm^3
# Si number density = 18.601755 Si / 1000 Ang^3
#
#
#
# Elastic Constant Matrix: (Units=GPa)
#
#
# Indices 1 2 3 4 5 6 
#
# 1 140.1561 28.1495 36.6611 0.0000 25.0096 0.0000
# 2 28.1495 21.4771 12.4901 0.0000 8.3800 0.0000
# 3 36.6611 12.4901 48.4325 0.0000 17.6455 0.0000
# 4 0.0000 0.0000 0.0000 23.5790 0.0000 2.7757
# 5 25.0096 8.3800 17.6455 0.0000 29.7724 0.0000
# 6 0.0000 0.0000 0.0000 2.7757 0.0000 28.6817
#
#
#
# Elastic Compliance Matrix: (Units=1/GPa)
#
#
# Indices 1 2 3 4 5 6 
#
# 1 0.011036 -0.010508 -0.004265 0.000000 -0.003785 0.000000
# 2 -0.010508 0.066733 -0.007178 0.000000 -0.005702 0.000000
# 3 -0.004265 -0.007178 0.030208 0.000000 -0.012301 0.000000
# 4 0.000000 0.000000 0.000000 0.042899 0.000000 -0.004152
# 5 -0.003785 -0.005702 -0.012301 0.000000 0.045663 0.000000
# 6 0.000000 0.000000 0.000000 -0.004152 0.000000 0.035267
#
#
# Mechanical properties :
#
#
# Convention : Reuss Voigt Hill
#
# Bulk Modulus (GPa) = 15.60655 40.51857 28.06256
# Shear Modulus (GPa) = 16.83112 25.25763 21.04437
#
# Velocity S-wave (km/s) = 3.01128 3.68884 3.36715
# Velocity P-wave (km/s) = 4.52752 6.32241 5.49869
#
# Compressibility (1/GPa) = 0.06407567
#
# Stress axis : x y z
#
# Youngs Moduli (GPa) = 90.60880 14.98508 33.10329
#
# Poissons Ratio (x) = 0.15746 0.14119
# Poissons Ratio (y) = 0.95210 0.23762
# Poissons Ratio (z) = 0.38645 0.10757
#
# Static dielectric constant tensor:
#      x y z
#    x 1.646490 0.000000 0.033310 
#    y 0.000000 1.625460 0.000000 
#    z 0.033310 0.000000 1.634960 
# 
# From -- ./inp_files/237444.got.cif
#   From: 2010.05.17/outbox.cif.g08.bks.cpg/sg12_119_cif.got.tgz:237444.got - 2010.06.03 13:09:07.
