data_PCOD9198243
_publ_section_title
;
Structure prediction by ZEFSAII (Michael W. Deem and Ramdas Pophale) SiO2 
 PCOD9198243
Probable space group: C 2/M
;
_chemical_formula_sum "Si O2"
_cell_formula_units_Z 56
_cell_length_a 15.204264
_cell_length_b 27.850808
_cell_length_c 8.702585
_cell_angle_alpha 90.000000
_cell_angle_beta 122.822285
_cell_angle_gamma 90.000000
_cell_volume 3096.810992
_symmetry_space_group_name_H-M "C 2/M"
_symmetry_group_IT_number 12
_symmetry_cell_setting 'monoclinic'
loop_
_space_group_symop_operation_xyz
x,y,z
-x,y,-z
-x,-y,-z
x,-y,z
1/2+x,1/2+y,z
1/2-x,1/2+y,-z
1/2-x,1/2-y,-z
1/2+x,1/2-y,z
loop_
_atom_site_type_symbol
_atom_site_label
_atom_site_fract_x
_atom_site_fract_y
_atom_site_fract_z
Si Si1 0.463300 0.100224 0.791169
Si Si2 0.467426 0.305335 0.292433
Si Si3 0.405355 0.624540 0.805592
Si Si4 0.962765 0.305883 0.288363
Si Si5 0.337625 0.054875 0.171642
Si Si6 0.267966 0.651431 0.959325
Si Si7 0.232132 0.555470 0.539930
O O1 0.473258 0.155681 0.750844
O O2 0.545614 0.070560 0.764113
O O3 0.348226 0.080587 0.651148
O O4 0.500000 0.094358 0.000000
O O5 0.500000 0.309549 0.500000
O O6 0.542942 0.337479 0.259357
O O7 0.475452 0.249417 0.254928
O O8 0.349834 0.324502 0.152108
O O9 0.325768 0.649839 0.849155
O O10 0.340291 0.583997 0.656937
O O11 0.500000 0.604214 0.000000
O O12 0.841367 0.320869 0.157267
O O13 0.000000 0.311320 0.500000
O O14 0.262007 0.096066 0.031091
O O15 0.319961 0.057708 0.338518
O O16 0.317138 0.000000 0.104391
O O17 0.247033 0.500000 0.514688
#
# Coordination Sequence:
#
# PCOD9198243 Si02
#       7
#     8   8   8   8   8   8   8
#     4  11  22  33  50  81 114 138 168 214 267 320
#     4  10  21  36  54  78 107 139 174 216 264 311
#     4   9  19  35  55  78 105 134 175 222 257 300
#     4  10  20  37  57  77 103 138 179 216 259 314
#     4   9  18  34  56  78 103 140 179 215 258 308
#     4   9  18  35  56  77 104 137 174 219 259 305
#     4  10  20  36  57  77 103 142 181 215 256 307
#
# _framework density 18.083119
#
# number of rings (size 3 to 8) (size 9 to 14) (size 15 to 20)
#    0.000    2.286    0.000    3.857    0.000    6.571 
#    0.000    8.571    0.000    0.857    0.000    0.000 
#    0.000    0.000    0.000    0.000    0.000    0.000 
#
# Total GULP energy -156245.257838 kJ/mol
# GULP energy per Si atom -5580.187780 kJ/mol
# Density = 1.804196 g / cm^3
# Si number density = 18.083119 Si / 1000 Ang^3
#
#
#
# Elastic Constant Matrix: (Units=GPa)
#
#
# Indices 1 2 3 4 5 6 
#
# 1 61.7083 54.5141 37.4293 0.0000 23.7392 0.0000
# 2 54.5141 160.8028 94.0184 0.0000 29.5190 0.0000
# 3 37.4293 94.0184 111.9058 0.0000 31.5996 0.0000
# 4 0.0000 0.0000 0.0000 14.5074 0.0000 0.0564
# 5 23.7392 29.5190 31.5996 0.0000 18.1074 0.0000
# 6 0.0000 0.0000 0.0000 0.0564 0.0000 16.3602
#
#
#
# Elastic Compliance Matrix: (Units=1/GPa)
#
#
# Indices 1 2 3 4 5 6 
#
# 1 0.038568 -0.008972 0.009435 0.000000 -0.052403 0.000000
# 2 -0.008972 0.014455 -0.011457 0.000000 0.008190 0.000000
# 3 0.009435 -0.011457 0.026862 0.000000 -0.040570 0.000000
# 4 0.000000 0.000000 0.000000 0.068931 0.000000 -0.000238
# 5 -0.052403 0.008190 -0.040570 0.000000 0.181376 0.000000
# 6 0.000000 0.000000 0.000000 -0.000238 0.000000 0.061125
#
#
# Mechanical properties :
#
#
# Convention : Reuss Voigt Hill
#
# Bulk Modulus (GPa) = 17.27168 78.48226 47.87697
# Shear Modulus (GPa) = 11.55797 19.69199 15.62498
#
# Velocity S-wave (km/s) = 2.53090 3.30354 2.94269
# Velocity P-wave (km/s) = 4.25589 7.61881 6.17085
#
# Compressibility (1/GPa) = 0.05789825
#
# Stress axis : x y z
#
# Youngs Moduli (GPa) = 25.92855 69.17852 37.22781
#
# Poissons Ratio (x) = 0.62066 -0.35126
# Poissons Ratio (y) = 0.23263 0.42651
# Poissons Ratio (z) = -0.24464 0.79255
#
# Static dielectric constant tensor:
#      x y z
#    x 1.613370 0.000000 -0.002900 
#    y 0.000000 1.616720 0.000000 
#    z -0.002900 0.000000 1.611330 
# 
# From -- ./inp_files/67056.got.cif
#   From: 2010.05.17/outbox.cif.g08.bks.cpg/sg12_34_cif.got.tgz:67056.got - 2010.06.03 13:09:07.
