data_PCOD9198405
_publ_section_title
;
Structure prediction by ZEFSAII (Michael W. Deem and Ramdas Pophale) SiO2 
 PCOD9198405
Probable space group: C 2/M
;
_chemical_formula_sum "Si O2"
_cell_formula_units_Z 48
_cell_length_a 16.633068
_cell_length_b 13.323756
_cell_length_c 12.825423
_cell_angle_alpha 90.000000
_cell_angle_beta 108.493169
_cell_angle_gamma 90.000000
_cell_volume 2695.532898
_symmetry_space_group_name_H-M "C 2/M"
_symmetry_group_IT_number 12
_symmetry_cell_setting 'monoclinic'
loop_
_space_group_symop_operation_xyz
x,y,z
-x,y,-z
-x,-y,-z
x,-y,z
1/2+x,1/2+y,z
1/2-x,1/2+y,-z
1/2-x,1/2-y,-z
1/2+x,1/2-y,z
loop_
_atom_site_type_symbol
_atom_site_label
_atom_site_fract_x
_atom_site_fract_y
_atom_site_fract_z
Si Si1 0.388004 0.882648 0.308567
Si Si2 0.335714 0.729390 0.472398
Si Si3 0.832620 0.886599 0.275986
Si Si4 0.428181 0.382215 0.881965
Si Si5 0.011528 0.781371 0.304014
Si Si6 0.746230 0.714438 0.117367
O O1 0.358675 0.819440 0.399651
O O2 0.473930 0.830590 0.302534
O O3 0.319197 0.860506 0.189515
O O4 0.395555 0.000000 0.333301
O O5 0.250000 0.750000 0.500000
O O6 0.322098 0.632807 0.393984
O O7 0.414352 0.709649 0.580884
O O8 0.766187 0.814294 0.191978
O O9 0.928288 0.849827 0.290120
O O10 0.821647 0.000000 0.239422
O O11 0.418198 0.500000 0.848138
O O12 0.453992 0.315418 0.793357
O O13 0.342018 0.337800 0.893100
O O14 0.500000 0.376880 0.000000
O O15 0.750000 0.750000 0.000000
#
# Coordination Sequence:
#
# PCOD9198405 Si02
#       6
#     8   8   8   8   8   8
#     4  10  21  37  58  82 111 150 189 227 277 333
#     4  10  21  36  54  80 113 146 185 231 277 330
#     4  10  21  36  55  80 110 145 183 229 281 326
#     4  11  22  37  60  86 111 144 185 229 277 328
#     4  10  20  36  57  83 113 143 186 234 274 326
#     4  10  21  38  58  81 113 144 182 230 273 330
#
# _framework density 17.807238000000002
#
# number of rings (size 3 to 8) (size 9 to 14) (size 15 to 20)
#    0.000    2.167    0.000    7.000    0.000    6.667 
#    0.000    2.500    0.000    2.000    0.000    0.000 
#    0.000    0.000    0.000    0.000    0.000    0.000 
#
# Total GULP energy -133839.391108 kJ/mol
# GULP energy per Si atom -5576.641296 kJ/mol
# Density = 1.776671 g / cm^3
# Si number density = 17.807238 Si / 1000 Ang^3
#
#
#
# Elastic Constant Matrix: (Units=GPa)
#
#
# Indices 1 2 3 4 5 6 
#
# 1 85.1392 17.4266 39.2224 0.0000 -0.7775 0.0000
# 2 17.4266 117.8314 25.4122 0.0000 0.8242 0.0000
# 3 39.2224 25.4122 113.3372 0.0000 -0.2065 0.0000
# 4 0.0000 0.0000 0.0000 11.2554 0.0000 -1.2974
# 5 -0.7775 0.8242 -0.2065 0.0000 38.3576 0.0000
# 6 0.0000 0.0000 0.0000 -1.2974 0.0000 13.3701
#
#
#
# Elastic Compliance Matrix: (Units=1/GPa)
#
#
# Indices 1 2 3 4 5 6 
#
# 1 0.014107 -0.001088 -0.004638 0.000000 0.000284 0.000000
# 2 -0.001088 0.009003 -0.001643 0.000000 -0.000224 0.000000
# 3 -0.004638 -0.001643 0.010796 0.000000 -0.000001 0.000000
# 4 0.000000 0.000000 0.000000 0.089851 0.000000 0.008719
# 5 0.000284 -0.000224 -0.000001 0.000000 0.026081 0.000000
# 6 0.000000 0.000000 0.000000 0.008719 0.000000 0.075639
#
#
# Mechanical properties :
#
#
# Convention : Reuss Voigt Hill
#
# Bulk Modulus (GPa) = 52.16346 53.38114 52.77230
# Shear Modulus (GPa) = 20.27526 28.21306 24.24416
#
# Velocity S-wave (km/s) = 3.37797 3.98472 3.69382
# Velocity P-wave (km/s) = 6.67617 7.15632 6.92041
#
# Compressibility (1/GPa) = 0.01917051
#
# Stress axis : x y z
#
# Youngs Moduli (GPa) = 70.88539 111.06845 92.62317
#
# Poissons Ratio (x) = 0.12087 0.42955
# Poissons Ratio (y) = 0.07714 0.15214
# Poissons Ratio (z) = 0.32874 0.18244
#
# Static dielectric constant tensor:
#      x y z
#    x 1.614730 0.000000 0.001040 
#    y 0.000000 1.565170 0.000000 
#    z 0.001040 0.000000 1.616540 
# 
# From -- ./inp_files/143065.got.cif
#   From: 2010.05.17/outbox.cif.g08.bks.cpg/sg12_72_cif.got.tgz:143065.got - 2010.06.03 13:09:07.
