data_PCOD9198865
_publ_section_title
;
Structure prediction by ZEFSAII (Michael W. Deem and Ramdas Pophale) SiO2 
 PCOD9198865
Probable space group: C 2/M
;
_chemical_formula_sum "Si O2"
_cell_formula_units_Z 56
_cell_length_a 29.033055
_cell_length_b 13.503844
_cell_length_c 9.464913
_cell_angle_alpha 90.000000
_cell_angle_beta 127.502716
_cell_angle_gamma 90.000000
_cell_volume 2943.863252
_symmetry_space_group_name_H-M "C 2/M"
_symmetry_group_IT_number 12
_symmetry_cell_setting 'monoclinic'
loop_
_space_group_symop_operation_xyz
x,y,z
-x,y,-z
-x,-y,-z
x,-y,z
1/2+x,1/2+y,z
1/2-x,1/2+y,-z
1/2-x,1/2-y,-z
1/2+x,1/2-y,z
loop_
_atom_site_type_symbol
_atom_site_label
_atom_site_fract_x
_atom_site_fract_y
_atom_site_fract_z
Si Si1 0.098081 0.219307 0.440966
Si Si2 0.016914 0.888358 0.732445
Si Si3 0.158795 0.384474 0.175685
Si Si4 0.130110 0.887631 0.770290
Si Si5 0.064617 0.774726 0.072576
Si Si6 0.817059 0.614822 0.450102
Si Si7 0.778569 0.765062 0.900383
O O1 0.135415 0.158922 0.624615
O O2 0.098113 0.188950 0.276055
O O3 0.123715 0.329755 0.487545
O O4 0.032234 0.195663 0.363475
O O5 0.062791 0.886502 0.691784
O O6 0.991729 0.000000 0.694613
O O7 0.053058 0.862558 0.941281
O O8 0.147061 0.500000 0.123631
O O9 0.101238 0.315495 0.075516
O O10 0.185036 0.378664 0.383435
O O11 0.201423 0.334116 0.141994
O O12 0.150601 0.000000 0.806780
O O13 0.164578 0.827423 0.952405
O O14 0.000000 0.740733 0.000000
O O15 0.816788 0.500000 0.409155
O O16 0.764351 0.673179 0.279701
O O17 0.750000 0.750000 0.000000
#
# Coordination Sequence:
#
# PCOD9198865 Si02
#       7
#     8   8   8   8   8   8   8
#     4  10  20  36  58  87 119 155 195 247 297 359
#     4  10  20  36  59  86 121 161 201 251 306 359
#     4  10  22  41  64  89 120 159 207 255 305 361
#     4  11  22  37  58  86 120 161 201 245 305 365
#     4   9  19  36  61  89 121 158 200 250 302 361
#     4  10  22  42  64  88 121 162 203 250 305 360
#     4  12  23  41  63  88 122 162 202 257 301 362
#
# _framework density 19.022621999999998
#
# number of rings (size 3 to 8) (size 9 to 14) (size 15 to 20)
#    0.000    1.714    2.857    1.714    0.000    5.714 
#    0.000    2.143    0.000    0.857    0.000    0.000 
#    0.000    0.000    0.000    0.000    0.000    0.000 
#
# Total GULP energy -156078.393800 kJ/mol
# GULP energy per Si atom -5574.228350 kJ/mol
# Density = 1.897933 g / cm^3
# Si number density = 19.022622 Si / 1000 Ang^3
#
#
#
# Elastic Constant Matrix: (Units=GPa)
#
#
# Indices 1 2 3 4 5 6 
#
# 1 85.3191 49.9802 16.2093 0.0000 -8.7731 0.0000
# 2 49.9802 105.9608 39.4643 0.0000 -15.4856 0.0000
# 3 16.2093 39.4643 77.4687 0.0000 -1.8392 0.0000
# 4 0.0000 0.0000 0.0000 24.0673 0.0000 -2.3081
# 5 -8.7731 -15.4856 -1.8392 0.0000 24.6246 0.0000
# 6 0.0000 0.0000 0.0000 -2.3081 0.0000 28.6842
#
#
#
# Elastic Compliance Matrix: (Units=1/GPa)
#
#
# Indices 1 2 3 4 5 6 
#
# 1 0.016241 -0.007728 0.000562 0.000000 0.000968 0.000000
# 2 -0.007728 0.016623 -0.006680 0.000000 0.007201 0.000000
# 3 0.000562 -0.006680 0.016128 0.000000 -0.002796 0.000000
# 4 0.000000 0.000000 0.000000 0.041873 0.000000 0.003369
# 5 0.000968 0.007201 -0.002796 0.000000 0.045275 0.000000
# 6 0.000000 0.000000 0.000000 0.003369 0.000000 0.035134
#
#
# Mechanical properties :
#
#
# Convention : Reuss Voigt Hill
#
# Bulk Modulus (GPa) = 46.95263 53.33960 50.14612
# Shear Modulus (GPa) = 24.26409 26.34821 25.30615
#
# Velocity S-wave (km/s) = 3.57534 3.72573 3.65131
# Velocity P-wave (km/s) = 6.46376 6.82708 6.64790
#
# Compressibility (1/GPa) = 0.02129806
#
# Stress axis : x y z
#
# Youngs Moduli (GPa) = 61.57341 60.15677 62.00566
#
# Poissons Ratio (x) = 0.46491 -0.03483
# Poissons Ratio (y) = 0.47586 0.41421
# Poissons Ratio (z) = -0.03459 0.40186
#
# Static dielectric constant tensor:
#      x y z
#    x 1.697430 0.000000 0.011470 
#    y 0.000000 1.623410 0.000000 
#    z 0.011470 0.000000 1.707960 
# 
# From -- ./inp_files/110557.got.cif
#   From: 2010.05.17/outbox.cif.g08.bks.cpg/sg12_56_cif.got.tgz:110557.got - 2010.06.03 13:09:07.
