data_PCOD9198889
_publ_section_title
;
Structure prediction by ZEFSAII (Michael W. Deem and Ramdas Pophale) SiO2 
 PCOD9198889
Probable space group: C 2/M
;
_chemical_formula_sum "Si O2"
_cell_formula_units_Z 56
_cell_length_a 27.762770
_cell_length_b 7.770298
_cell_length_c 17.926225
_cell_angle_alpha 90.000000
_cell_angle_beta 39.200133
_cell_angle_gamma 90.000000
_cell_volume 2444.149480
_symmetry_space_group_name_H-M "C 2/M"
_symmetry_group_IT_number 12
_symmetry_cell_setting 'monoclinic'
loop_
_space_group_symop_operation_xyz
x,y,z
-x,y,-z
-x,-y,-z
x,-y,z
1/2+x,1/2+y,z
1/2-x,1/2+y,-z
1/2-x,1/2-y,-z
1/2+x,1/2-y,z
loop_
_atom_site_type_symbol
_atom_site_label
_atom_site_fract_x
_atom_site_fract_y
_atom_site_fract_z
Si Si1 0.497555 0.207182 0.091191
Si Si2 0.836738 0.704999 0.089609
Si Si3 0.241653 0.208205 0.666341
Si Si4 0.403816 0.802420 0.454548
Si Si5 0.211029 0.207995 0.126020
Si Si6 0.646510 0.302753 0.645159
Si Si7 0.043713 0.800387 0.374250
O O1 0.426661 0.297588 0.213344
O O2 0.489630 0.000000 0.111696
O O3 0.500000 0.237366 0.000000
O O4 0.578121 0.267962 0.028025
O O5 0.839339 0.500000 0.075561
O O6 0.815401 0.737234 0.200893
O O7 0.769866 0.774337 0.117972
O O8 0.326698 0.269017 0.584938
O O9 0.213141 0.268057 0.619166
O O10 0.243447 0.000000 0.660669
O O11 0.379981 0.795262 0.396667
O O12 0.480868 0.709062 0.384246
O O13 0.414719 0.000000 0.463621
O O14 0.125088 0.271882 0.248236
O O15 0.207693 0.000000 0.133194
O O16 0.250000 0.250000 0.000000
O O17 0.662700 0.500000 0.605516
O O18 0.000000 0.725551 0.500000
O O19 0.058805 0.000000 0.374933
#
# Coordination Sequence:
#
# PCOD9198889 Si02
#       7
#     8   8   8   8   8   8   8
#     4  10  20  36  58  88 121 155 195 240 292 354
#     4  10  21  38  62  87 117 158 200 240 292 357
#     4  10  22  39  59  88 121 156 197 243 295 357
#     4  11  24  40  61  88 120 156 199 249 302 357
#     4  10  23  41  62  91 123 160 203 252 308 363
#     4  11  23  38  58  86 122 159 197 241 296 356
#     4  10  22  43  67  91 121 158 208 260 309 367
#
# _framework density 22.911854999999999
#
# number of rings (size 3 to 8) (size 9 to 14) (size 15 to 20)
#    0.000    1.714    1.429    2.143    2.000    5.143 
#    0.000    0.000    0.000    0.000    0.000    0.000 
#    0.000    0.000    0.000    0.000    0.000    0.000 
#
# Total GULP energy -156431.630468 kJ/mol
# GULP energy per Si atom -5586.843945 kJ/mol
# Density = 2.285971 g / cm^3
# Si number density = 22.911855 Si / 1000 Ang^3
#
#
#
# Elastic Constant Matrix: (Units=GPa)
#
#
# Indices 1 2 3 4 5 6 
#
# 1 127.7321 4.3771 45.3839 -0.0034 -24.7279 0.0020
# 2 4.3771 35.7338 17.6938 -0.0019 -11.0569 0.0174
# 3 45.3839 17.6938 119.3302 -0.0042 -25.0076 0.0066
# 4 -0.0034 -0.0019 -0.0042 26.7353 0.0021 6.2827
# 5 -24.7279 -11.0569 -25.0076 0.0021 45.1454 -0.0017
# 6 0.0020 0.0174 0.0066 6.2827 -0.0017 8.0088
#
#
#
# Elastic Compliance Matrix: (Units=1/GPa)
#
#
# Indices 1 2 3 4 5 6 
#
# 1 0.009631 0.001563 -0.003065 0.000001 0.003960 -0.000004
# 2 0.001563 0.031743 -0.003951 0.000020 0.006442 -0.000081
# 3 -0.003065 -0.003951 0.010835 0.000001 0.003355 0.000001
# 4 0.000001 0.000020 0.000001 0.045857 0.000003 -0.035974
# 5 0.003960 0.006442 0.003355 0.000003 0.027756 -0.000014
# 6 -0.000004 -0.000081 0.000001 -0.035974 -0.000014 0.153084
#
#
# Mechanical properties :
#
#
# Convention : Reuss Voigt Hill
#
# Bulk Modulus (GPa) = 24.21110 46.41173 35.31141
# Shear Modulus (GPa) = 16.47014 30.33398 23.40206
#
# Velocity S-wave (km/s) = 2.68404 3.64255 3.19939
# Velocity P-wave (km/s) = 4.49393 6.16373 5.39384
#
# Compressibility (1/GPa) = 0.04130338
#
# Stress axis : x y z
#
# Youngs Moduli (GPa) = 103.83217 31.50299 92.29593
#
# Poissons Ratio (x) = -0.04925 0.28286
# Poissons Ratio (y) = -0.16232 0.36468
# Poissons Ratio (z) = 0.31821 0.12448
#
# Static dielectric constant tensor:
#      x y z
#    x 1.865080 -0.000010 -0.011370 
#    y -0.000010 1.842610 0.000010 
#    z -0.011370 0.000010 1.866800 
# 
# From -- ./inp_files/292424.got.cif
#   From: 2010.05.17/outbox.cif.g08.bks.cpg/sg12_147_cif.got.tgz:292424.got - 2010.06.03 13:09:07.
