data_PCOD9198598
_publ_section_title
;
Structure prediction by ZEFSAII (Michael W. Deem and Ramdas Pophale) SiO2 
 PCOD9198598
Probable space group: C 2/M
;
_chemical_formula_sum "Si O2"
_cell_formula_units_Z 48
_cell_length_a 5.265869
_cell_length_b 18.040653
_cell_length_c 26.160986
_cell_angle_alpha 90.000000
_cell_angle_beta 76.725329
_cell_angle_gamma 90.000000
_cell_volume 2418.880561
_symmetry_space_group_name_H-M "C 2/M"
_symmetry_group_IT_number 12
_symmetry_cell_setting 'monoclinic'
loop_
_space_group_symop_operation_xyz
x,y,z
-x,y,-z
-x,-y,-z
x,-y,z
1/2+x,1/2+y,z
1/2-x,1/2+y,-z
1/2-x,1/2-y,-z
1/2+x,1/2-y,z
loop_
_atom_site_type_symbol
_atom_site_label
_atom_site_fract_x
_atom_site_fract_y
_atom_site_fract_z
Si Si1 0.547151 0.589561 0.440498
Si Si2 0.737439 0.698202 0.725465
Si Si3 0.877805 0.589904 0.625759
Si Si4 0.664269 0.414319 0.821773
Si Si5 0.639675 0.777589 0.059242
Si Si6 0.913719 0.417251 0.108529
O O1 0.500000 0.618530 0.500000
O O2 0.548060 0.500000 0.443971
O O3 0.317955 0.607934 0.411701
O O4 0.828795 0.609374 0.404979
O O5 0.485215 0.748210 0.723857
O O6 0.798974 0.639797 0.677428
O O7 0.685418 0.647319 0.777437
O O8 0.864069 0.500000 0.636171
O O9 0.666075 0.500000 0.801562
O O10 0.908657 0.408467 0.849014
O O11 0.387711 0.405927 0.863494
O O12 0.385612 0.729876 0.085043
O O13 0.527202 0.859217 0.063516
O O14 0.750000 0.750000 0.000000
O O15 0.947013 0.500000 0.087693
#
# Coordination Sequence:
#
# PCOD9198598 Si02
#       6
#     8   8   8   8   8   8
#     4   9  17  31  56  87 110 138 191 246 284 327
#     4  12  25  39  57  84 117 151 188 232 284 345
#     4  10  20  36  58  81 112 151 186 232 288 339
#     4  10  22  40  61  86 114 148 191 237 285 339
#     4  10  21  37  56  83 116 152 189 228 276 330
#     4  10  21  38  61  86 114 148 189 237 283 331
#
# _framework density 19.843890999999999
#
# number of rings (size 3 to 8) (size 9 to 14) (size 15 to 20)
#    0.000    1.833    0.000    4.000    0.000    6.000 
#    0.000   10.000    0.000   10.000    0.000    0.000 
#    0.000    0.000    0.000    0.000    0.000    0.000 
#
# Total GULP energy -133950.958754 kJ/mol
# GULP energy per Si atom -5581.289948 kJ/mol
# Density = 1.979873 g / cm^3
# Si number density = 19.843891 Si / 1000 Ang^3
#
#
#
# Elastic Constant Matrix: (Units=GPa)
#
#
# Indices 1 2 3 4 5 6 
#
# 1 104.1688 12.3327 -10.5969 0.0000 -3.2629 0.0000
# 2 12.3327 97.8075 48.0971 0.0000 -3.0652 0.0000
# 3 -10.5969 48.0971 47.6276 0.0000 -0.3577 0.0000
# 4 0.0000 0.0000 0.0000 10.9949 0.0000 -2.8287
# 5 -3.2629 -3.0652 -0.3577 0.0000 19.7559 0.0000
# 6 0.0000 0.0000 0.0000 -2.8287 0.0000 26.9223
#
#
#
# Elastic Compliance Matrix: (Units=1/GPa)
#
#
# Indices 1 2 3 4 5 6 
#
# 1 0.011011 -0.005087 0.007596 0.000000 0.001167 0.000000
# 2 -0.005087 0.022814 -0.024154 0.000000 0.002262 0.000000
# 3 0.007596 -0.024154 0.047066 0.000000 -0.001641 0.000000
# 4 0.000000 0.000000 0.000000 0.093479 0.000000 0.009822
# 5 0.001167 0.002262 -0.001641 0.000000 0.051132 0.000000
# 6 0.000000 0.000000 0.000000 0.009822 0.000000 0.038176
#
#
# Mechanical properties :
#
#
# Convention : Reuss Voigt Hill
#
# Bulk Modulus (GPa) = 26.59466 38.80775 32.70121
# Shear Modulus (GPa) = 15.64930 24.85268 20.25099
#
# Velocity S-wave (km/s) = 2.81128 3.54278 3.19802
# Velocity P-wave (km/s) = 4.89579 6.02777 5.49103
#
# Compressibility (1/GPa) = 0.03760153
#
# Stress axis : x y z
#
# Youngs Moduli (GPa) = 90.81486 43.83180 21.24655
#
# Poissons Ratio (x) = 0.22299 -0.16139
# Poissons Ratio (y) = 0.46201 0.51320
# Poissons Ratio (z) = -0.68985 1.05873
#
# Static dielectric constant tensor:
#      x y z
#    x 1.708650 0.000000 0.008770 
#    y 0.000000 1.717190 0.000000 
#    z 0.008770 0.000000 1.667400 
# 
# From -- ./inp_files/331046.got.cif
#   From: 2010.05.17/outbox.cif.g08.bks.cpg/sg12_166_cif.got.tgz:331046.got - 2010.06.03 13:09:07.
