data_PCOD9198641
_publ_section_title
;
Structure prediction by ZEFSAII (Michael W. Deem and Ramdas Pophale) SiO2 
 PCOD9198641
Probable space group: C 2/M
;
_chemical_formula_sum "Si O2"
_cell_formula_units_Z 56
_cell_length_a 20.442573
_cell_length_b 19.401844
_cell_length_c 9.442985
_cell_angle_alpha 90.000000
_cell_angle_beta 122.306619
_cell_angle_gamma 90.000000
_cell_volume 3165.537071
_symmetry_space_group_name_H-M "C 2/M"
_symmetry_group_IT_number 12
_symmetry_cell_setting 'monoclinic'
loop_
_space_group_symop_operation_xyz
x,y,z
-x,y,-z
-x,-y,-z
x,-y,z
1/2+x,1/2+y,z
1/2-x,1/2+y,-z
1/2-x,1/2-y,-z
1/2+x,1/2-y,z
loop_
_atom_site_type_symbol
_atom_site_label
_atom_site_fract_x
_atom_site_fract_y
_atom_site_fract_z
Si Si1 0.151927 0.579727 0.852300
Si Si2 0.411586 0.312034 0.453863
Si Si3 0.417935 0.846307 0.489706
Si Si4 0.385815 0.420194 0.983235
Si Si5 0.213724 0.173857 0.937181
Si Si6 0.511104 0.080179 0.171765
Si Si7 0.936183 0.078836 0.719004
O O1 0.172705 0.500000 0.859516
O O2 0.139472 0.614683 0.683928
O O3 0.071275 0.582987 0.843762
O O4 0.215311 0.622736 0.010130
O O5 0.500000 0.316932 0.500000
O O6 0.398407 0.233453 0.486338
O O7 0.350325 0.325294 0.259141
O O8 0.404840 0.366509 0.571822
O O9 0.500000 0.849084 0.500000
O O10 0.430185 0.881625 0.655381
O O11 0.361692 0.500000 0.985728
O O12 0.397557 0.414005 0.828497
O O13 0.329260 0.362283 0.979329
O O14 0.471470 0.411409 0.150156
O O15 0.250000 0.250000 0.000000
O O16 0.534397 0.000000 0.186835
O O17 0.500000 0.108125 0.000000
O O18 0.924719 0.000000 0.656877
#
# Coordination Sequence:
#
# PCOD9198641 Si02
#       7
#     8   8   8   8   8   8   8
#     4  10  20  36  58  82 112 155 194 232 287 344
#     4  11  21  37  57  85 119 149 191 240 290 345
#     4   9  18  34  54  80 111 149 191 230 273 339
#     4   9  19  38  61  85 115 152 194 239 289 346
#     4  12  23  38  57  85 122 151 189 244 293 350
#     4   9  18  35  59  86 112 143 192 245 283 332
#     4   9  19  37  61  88 113 146 198 246 285 343
#
# _framework density 17.690519999999999
#
# number of rings (size 3 to 8) (size 9 to 14) (size 15 to 20)
#    0.000    2.143    2.857    1.714    0.000    3.143 
#    5.143    2.143    0.000    3.429    0.000    0.000 
#    0.000    0.000    0.000    0.000    0.000    0.000 
#
# Total GULP energy -156114.704415 kJ/mol
# GULP energy per Si atom -5575.525158 kJ/mol
# Density = 1.765026 g / cm^3
# Si number density = 17.690520 Si / 1000 Ang^3
#
#
#
# Elastic Constant Matrix: (Units=GPa)
#
#
# Indices 1 2 3 4 5 6 
#
# 1 36.2414 41.0720 24.9677 0.0000 1.5859 0.0000
# 2 41.0720 146.6496 76.4489 0.0000 -1.8830 0.0000
# 3 24.9677 76.4489 138.6092 0.0000 2.1932 0.0000
# 4 0.0000 0.0000 0.0000 37.8631 0.0000 3.0893
# 5 1.5859 -1.8830 2.1932 0.0000 27.3507 0.0000
# 6 0.0000 0.0000 0.0000 3.0893 0.0000 24.1089
#
#
#
# Elastic Compliance Matrix: (Units=1/GPa)
#
#
# Indices 1 2 3 4 5 6 
#
# 1 0.040877 -0.010770 -0.001376 0.000000 -0.003001 0.000000
# 2 -0.010770 0.012440 -0.004951 0.000000 0.001878 0.000000
# 3 -0.001376 -0.004951 0.010210 0.000000 -0.001080 0.000000
# 4 0.000000 0.000000 0.000000 0.026690 0.000000 -0.003420
# 5 -0.003001 0.001878 -0.001080 0.000000 0.036952 0.000000
# 6 0.000000 0.000000 0.000000 -0.003420 0.000000 0.041917
#
#
# Mechanical properties :
#
#
# Convention : Reuss Voigt Hill
#
# Bulk Modulus (GPa) = 34.08964 67.38636 50.73800
# Shear Modulus (GPa) = 23.46779 29.79866 26.63322
#
# Velocity S-wave (km/s) = 3.64617 4.10865 3.88430
# Velocity P-wave (km/s) = 6.08588 7.78990 6.99001
#
# Compressibility (1/GPa) = 0.02933443
#
# Stress axis : x y z
#
# Youngs Moduli (GPa) = 24.46356 80.38307 97.94114
#
# Poissons Ratio (x) = 0.86571 0.13474
# Poissons Ratio (y) = 0.26347 0.48492
# Poissons Ratio (z) = 0.03365 0.39799
#
# Static dielectric constant tensor:
#      x y z
#    x 1.618880 0.000000 0.002610 
#    y 0.000000 1.598810 0.000000 
#    z 0.002610 0.000000 1.605430 
# 
# From -- ./inp_files/88073.got.cif
#   From: 2010.05.17/outbox.cif.g08.bks.cpg/sg12_45_cif.got.tgz:88073.got - 2010.06.03 13:09:07.
