data_PCOD9198693
_publ_section_title
;
Structure prediction by ZEFSAII (Michael W. Deem and Ramdas Pophale) SiO2 
 PCOD9198693
Probable space group: C 2/M
;
_chemical_formula_sum "Si O2"
_cell_formula_units_Z 48
_cell_length_a 29.460660
_cell_length_b 14.768326
_cell_length_c 10.278231
_cell_angle_alpha 90.000000
_cell_angle_beta 29.737624
_cell_angle_gamma 90.000000
_cell_volume 2218.192074
_symmetry_space_group_name_H-M "C 2/M"
_symmetry_group_IT_number 12
_symmetry_cell_setting 'monoclinic'
loop_
_space_group_symop_operation_xyz
x,y,z
-x,y,-z
-x,-y,-z
x,-y,z
1/2+x,1/2+y,z
1/2-x,1/2+y,-z
1/2-x,1/2-y,-z
1/2+x,1/2-y,z
loop_
_atom_site_type_symbol
_atom_site_label
_atom_site_fract_x
_atom_site_fract_y
_atom_site_fract_z
Si Si1 0.262561 0.889000 0.339070
Si Si2 0.069398 0.891062 0.941151
Si Si3 0.448611 0.896867 0.005528
Si Si4 0.756280 0.152640 0.912995
Si Si5 0.061549 0.371717 0.468133
Si Si6 0.041663 0.845003 0.530258
O O1 0.172102 0.865999 0.645726
O O2 0.256430 0.845243 0.211314
O O3 0.266180 0.000000 0.312670
O O4 0.353869 0.857987 0.186683
O O5 0.067261 0.000000 0.952164
O O6 0.000000 0.862771 0.000000
O O7 0.029551 0.857324 0.175966
O O8 0.517394 0.899781 0.713354
O O9 0.424993 0.000000 0.104753
O O10 0.500000 0.852941 0.000000
O O11 0.858036 0.115518 0.686628
O O12 0.750000 0.250000 0.000000
O O13 0.666895 0.101669 0.188600
O O14 0.056621 0.262523 0.478129
O O15 0.000000 0.402587 0.500000
O O16 0.000000 0.880926 0.500000
#
# Coordination Sequence:
#
# PCOD9198693 Si02
#       6
#     8   8   8   8   8   8
#     4  10  20  37  63  89 117 155 199 241 290 353
#     4  10  20  36  58  83 113 152 196 238 288 351
#     4  10  22  39  58  86 121 150 188 245 296 345
#     4  10  20  36  58  84 118 152 191 243 287 342
#     4  10  20  37  59  82 115 153 196 235 288 350
#     4  10  22  37  56  84 120 151 192 244 290 341
#
# _framework density 21.639243
#
# number of rings (size 3 to 8) (size 9 to 14) (size 15 to 20)
#    0.000    2.000    3.333    0.000    0.000    3.333 
#    0.000    0.833    0.000    0.000    0.000    0.000 
#    0.000    0.000    0.000    0.000    0.000    0.000 
#
# Total GULP energy -134054.529470 kJ/mol
# GULP energy per Si atom -5585.605395 kJ/mol
# Density = 2.158999 g / cm^3
# Si number density = 21.639243 Si / 1000 Ang^3
#
#
#
# Elastic Constant Matrix: (Units=GPa)
#
#
# Indices 1 2 3 4 5 6 
#
# 1 220.4375 19.7095 116.3202 0.0000 -4.7915 0.0000
# 2 19.7095 65.9481 19.1446 0.0000 -3.5339 0.0000
# 3 116.3202 19.1446 217.6208 0.0000 -9.2512 0.0000
# 4 0.0000 0.0000 0.0000 20.8314 0.0000 16.4002
# 5 -4.7915 -3.5339 -9.2512 0.0000 43.8491 0.0000
# 6 0.0000 0.0000 0.0000 16.4002 0.0000 16.5064
#
#
#
# Elastic Compliance Matrix: (Units=1/GPa)
#
#
# Indices 1 2 3 4 5 6 
#
# 1 0.006375 -0.000944 -0.003328 0.000000 -0.000082 0.000000
# 2 -0.000944 0.015742 -0.000838 0.000000 0.000989 0.000000
# 3 -0.003328 -0.000838 0.006488 0.000000 0.000938 0.000000
# 4 0.000000 0.000000 0.000000 0.220423 0.000000 -0.219005
# 5 -0.000082 0.000989 0.000938 0.000000 0.023074 0.000000
# 6 0.000000 0.000000 0.000000 -0.219005 0.000000 0.278179
#
#
# Mechanical properties :
#
#
# Convention : Reuss Voigt Hill
#
# Bulk Modulus (GPa) = 54.39372 90.48388 72.43880
# Shear Modulus (GPa) = 8.82412 39.49286 24.15849
#
# Velocity S-wave (km/s) = 2.02155 4.27670 3.34491
# Velocity P-wave (km/s) = 5.53535 8.14202 6.96177
#
# Compressibility (1/GPa) = 0.01838448
#
# Stress axis : x y z
#
# Youngs Moduli (GPa) = 156.85885 63.52506 154.13943
#
# Poissons Ratio (x) = 0.05994 0.51298
# Poissons Ratio (y) = 0.14800 0.12924
# Poissons Ratio (z) = 0.52203 0.05326
#
# Static dielectric constant tensor:
#      x y z
#    x 1.780860 0.000000 -0.023550 
#    y 0.000000 1.847600 0.000000 
#    z -0.023550 0.000000 1.771730 
# 
# From -- ./inp_files/77299.got.cif
#   From: 2010.05.17/outbox.cif.g08.bks.cpg/sg12_39_cif.got.tgz:77299.got - 2010.06.03 13:09:07.
