data_PCOD9198354
_publ_section_title
;
Structure prediction by ZEFSAII (Michael W. Deem and Ramdas Pophale) SiO2 
 PCOD9198354
Probable space group: C 2/M
;
_chemical_formula_sum "Si O2"
_cell_formula_units_Z 48
_cell_length_a 8.493856
_cell_length_b 10.976865
_cell_length_c 24.513571
_cell_angle_alpha 90.000000
_cell_angle_beta 99.444442
_cell_angle_gamma 90.000000
_cell_volume 2254.564962
_symmetry_space_group_name_H-M "C 2/M"
_symmetry_group_IT_number 12
_symmetry_cell_setting 'monoclinic'
loop_
_space_group_symop_operation_xyz
x,y,z
-x,y,-z
-x,-y,-z
x,-y,z
1/2+x,1/2+y,z
1/2-x,1/2+y,-z
1/2-x,1/2-y,-z
1/2+x,1/2-y,z
loop_
_atom_site_type_symbol
_atom_site_label
_atom_site_fract_x
_atom_site_fract_y
_atom_site_fract_z
Si Si1 0.761165 0.362193 0.042975
Si Si2 0.452912 0.867970 0.731711
Si Si3 0.060036 0.864827 0.441046
Si Si4 0.292401 0.138727 0.606498
Si Si5 0.297777 0.691989 0.196513
Si Si6 0.490332 0.698416 0.885444
O O1 0.786990 0.500000 0.023277
O O2 0.594899 0.361903 0.067504
O O3 0.912255 0.318533 0.088684
O O4 0.750000 0.250000 0.000000
O O5 0.385421 0.840024 0.668099
O O6 0.573518 0.770977 0.763329
O O7 0.302524 0.876802 0.763742
O O8 0.534418 0.000000 0.734225
O O9 0.897832 0.859057 0.396447
O O10 0.000000 0.859367 0.500000
O O11 0.163451 0.748235 0.431403
O O12 0.134484 0.000000 0.437196
O O13 0.330528 0.000000 0.589206
O O14 0.387284 0.634037 0.149238
O O15 0.161616 0.771829 0.160082
#
# Coordination Sequence:
#
# PCOD9198354 Si02
#       6
#     8   8   8   8   8   8
#     4  11  24  42  63  90 123 157 197 244 293 349
#     4  10  20  36  57  81 115 153 190 237 289 346
#     4  10  21  37  57  83 115 152 198 249 297 349
#     4  10  21  36  56  84 117 154 195 239 293 354
#     4   9  19  37  58  85 114 148 189 231 288 345
#     4   9  21  38  59  87 116 152 193 237 287 342
#
# _framework density 21.290137000000001
#
# number of rings (size 3 to 8) (size 9 to 14) (size 15 to 20)
#    0.000    2.167    0.000    2.000    0.000   10.333 
#    0.000    8.333    0.000    0.000    0.000    0.000 
#    0.000    0.000    0.000    0.000    0.000    0.000 
#
# Total GULP energy -133670.824796 kJ/mol
# GULP energy per Si atom -5569.617700 kJ/mol
# Density = 2.124168 g / cm^3
# Si number density = 21.290137 Si / 1000 Ang^3
#
#
#
# Elastic Constant Matrix: (Units=GPa)
#
#
# Indices 1 2 3 4 5 6 
#
# 1 66.8737 29.0501 0.0977 0.0000 3.8166 0.0000
# 2 29.0501 140.8833 35.1761 0.0000 -8.0029 0.0000
# 3 0.0977 35.1761 61.0611 0.0000 3.9010 0.0000
# 4 0.0000 0.0000 0.0000 444.5022 0.0000 146.8336
# 5 3.8166 -8.0029 3.9010 0.0000 37.5654 0.0000
# 6 0.0000 0.0000 0.0000 146.8336 0.0000 63.2147
#
#
#
# Elastic Compliance Matrix: (Units=1/GPa)
#
#
# Indices 1 2 3 4 5 6 
#
# 1 0.017000 -0.004335 0.002657 0.000000 -0.002927 0.000000
# 2 -0.004335 0.009594 -0.005717 0.000000 0.003078 0.000000
# 3 0.002657 -0.005717 0.019893 0.000000 -0.003554 0.000000
# 4 0.000000 0.000000 0.000000 0.009667 0.000000 -0.022455
# 5 -0.002927 0.003078 -0.003554 0.000000 0.027942 0.000000
# 6 0.000000 0.000000 0.000000 -0.022455 0.000000 0.067977
#
#
# Mechanical properties :
#
#
# Convention : Reuss Voigt Hill
#
# Bulk Modulus (GPa) = 31.54792 44.16289 37.85541
# Shear Modulus (GPa) = 28.18019 122.68940 75.43479
#
# Velocity S-wave (km/s) = 3.64211 7.59950 5.95892
# Velocity P-wave (km/s) = 5.70412 9.88897 8.07244
#
# Compressibility (1/GPa) = 0.03169781
#
# Stress axis : x y z
#
# Youngs Moduli (GPa) = 58.82398 104.22986 50.26865
#
# Poissons Ratio (x) = 0.45184 -0.13357
# Poissons Ratio (y) = 0.25501 0.28737
# Poissons Ratio (z) = -0.15630 0.59585
#
# Static dielectric constant tensor:
#      x y z
#    x 1.762260 0.000000 -0.017810 
#    y 0.000000 1.804010 0.000000 
#    z -0.017810 0.000000 1.813570 
# 
# From -- ./inp_files/332062.got.cif
#   From: 2010.05.17/outbox.cif.g08.bks.cpg/sg12_167_cif.got.tgz:332062.got - 2010.06.03 13:09:07.
