data_PCOD9198450
_publ_section_title
;
Structure prediction by ZEFSAII (Michael W. Deem and Ramdas Pophale) SiO2 
 PCOD9198450
Probable space group: C 2/M
;
_chemical_formula_sum "Si O2"
_cell_formula_units_Z 64
_cell_length_a 31.316027
_cell_length_b 7.888313
_cell_length_c 15.035737
_cell_angle_alpha 90.000000
_cell_angle_beta 49.187210
_cell_angle_gamma 90.000000
_cell_volume 2811.155414
_symmetry_space_group_name_H-M "C 2/M"
_symmetry_group_IT_number 12
_symmetry_cell_setting 'monoclinic'
loop_
_space_group_symop_operation_xyz
x,y,z
-x,y,-z
-x,-y,-z
x,-y,z
1/2+x,1/2+y,z
1/2-x,1/2+y,-z
1/2-x,1/2-y,-z
1/2+x,1/2-y,z
loop_
_atom_site_type_symbol
_atom_site_label
_atom_site_fract_x
_atom_site_fract_y
_atom_site_fract_z
Si Si1 0.732501 0.702314 0.923617
Si Si2 0.387911 0.802154 0.867956
Si Si3 0.076157 0.301152 0.747080
Si Si4 0.353770 0.208132 0.716777
Si Si5 0.851060 0.194688 0.194945
Si Si6 0.115253 0.696083 0.511307
Si Si7 0.953354 0.804209 0.939291
Si Si8 0.266002 0.303739 0.578948
O O1 0.726361 0.500000 0.923305
O O2 0.787948 0.758542 0.795069
O O3 0.750000 0.750000 0.000000
O O4 0.671280 0.782599 0.998076
O O5 0.376798 0.739172 0.782253
O O6 0.434417 0.708745 0.862584
O O7 0.402745 0.000000 0.843122
O O8 0.092188 0.500000 0.725835
O O9 0.121047 0.203683 0.745647
O O10 0.079197 0.233773 0.642059
O O11 0.013355 0.282078 0.869541
O O12 0.386638 0.269789 0.585220
O O13 0.353617 0.000000 0.718703
O O14 0.789992 0.277589 0.285296
O O15 0.842157 0.000000 0.178963
O O16 0.900977 0.270500 0.066386
O O17 0.098147 0.500000 0.525053
O O18 0.180093 0.704338 0.457029
O O19 0.959502 0.000000 0.957779
O O20 0.281622 0.500000 0.556935
O O21 0.250000 0.250000 0.500000
#
# Coordination Sequence:
#
# PCOD9198450 Si02
#       8
#     8   8   8   8   8   8   8   8
#     4   9  16  29  50  77 110 151 190 233 289 346
#     4  10  20  36  57  84 117 154 199 253 300 351
#     4  11  23  40  64  90 118 155 200 253 303 357
#     4   8  17  34  57  83 116 157 197 238 293 359
#     4  11  24  42  64  88 120 160 199 245 304 367
#     4  10  21  39  62  89 122 161 201 242 297 364
#     4  11  25  42  62  86 117 161 204 250 307 362
#     4  12  24  39  61  92 126 161 197 245 299 355
#
# _framework density 22.766438999999998
#
# number of rings (size 3 to 8) (size 9 to 14) (size 15 to 20)
#    0.000    1.750    1.250    4.125    1.750    4.000 
#    0.000    3.750    0.000    3.750    0.000    0.000 
#    0.000    0.000    0.000    0.000    0.000    0.000 
#
# Total GULP energy -178782.055467 kJ/mol
# GULP energy per Si atom -5586.939233 kJ/mol
# Density = 2.271462 g / cm^3
# Si number density = 22.766439 Si / 1000 Ang^3
#
#
#
# Elastic Constant Matrix: (Units=GPa)
#
#
# Indices 1 2 3 4 5 6 
#
# 1 55.7326 -5.6913 8.2585 -0.0001 1.8187 0.0002
# 2 -5.6913 43.7957 -0.6749 -0.0002 0.3401 -0.0004
# 3 8.2585 -0.6749 111.9790 0.0000 7.8663 0.0001
# 4 -0.0001 -0.0002 0.0000 16.3528 0.0000 -1.3542
# 5 1.8187 0.3401 7.8663 0.0000 33.4994 0.0001
# 6 0.0002 -0.0004 0.0001 -1.3542 0.0001 19.1026
#
#
#
# Elastic Compliance Matrix: (Units=1/GPa)
#
#
# Indices 1 2 3 4 5 6 
#
# 1 0.018401 0.002377 -0.001292 0.000000 -0.000720 0.000000
# 2 0.002377 0.023145 -0.000010 0.000000 -0.000362 0.000001
# 3 -0.001292 -0.000010 0.009172 0.000000 -0.002083 0.000000
# 4 0.000000 0.000000 0.000000 0.061513 0.000000 0.004361
# 5 -0.000720 -0.000362 -0.002083 0.000000 0.030383 0.000000
# 6 0.000000 0.000001 0.000000 0.004361 0.000000 0.052658
#
#
# Mechanical properties :
#
#
# Convention : Reuss Voigt Hill
#
# Bulk Modulus (GPa) = 18.91584 23.92133 21.41858
# Shear Modulus (GPa) = 23.72539 27.76528 25.74533
#
# Velocity S-wave (km/s) = 3.23169 3.49602 3.36645
# Velocity P-wave (km/s) = 4.71718 5.17941 4.95369
#
# Compressibility (1/GPa) = 0.05286574
#
# Stress axis : x y z
#
# Youngs Moduli (GPa) = 54.34633 43.20619 109.02941
#
# Poissons Ratio (x) = -0.10269 0.14088
# Poissons Ratio (y) = -0.12917 0.00113
# Poissons Ratio (z) = 0.07022 0.00045
#
# Static dielectric constant tensor:
#      x y z
#    x 1.815620 0.000010 0.034540 
#    y 0.000010 2.289980 0.000000 
#    z 0.034540 0.000000 1.901230 
# 
# From -- ./inp_files/249769.got.cif
#   From: 2010.05.17/outbox.cif.g08.bks.cpg/sg12_125_cif.got.tgz:249769.got - 2010.06.03 13:09:07.
