data_PCOD9198543
_publ_section_title
;
Structure prediction by ZEFSAII (Michael W. Deem and Ramdas Pophale) SiO2 
 PCOD9198543
Probable space group: C 2/M
;
_chemical_formula_sum "Si O2"
_cell_formula_units_Z 64
_cell_length_a 16.156553
_cell_length_b 8.023528
_cell_length_c 19.354918
_cell_angle_alpha 90.000000
_cell_angle_beta 91.398209
_cell_angle_gamma 90.000000
_cell_volume 2508.280424
_symmetry_space_group_name_H-M "C 2/M"
_symmetry_group_IT_number 12
_symmetry_cell_setting 'monoclinic'
loop_
_space_group_symop_operation_xyz
x,y,z
-x,y,-z
-x,-y,-z
x,-y,z
1/2+x,1/2+y,z
1/2-x,1/2+y,-z
1/2-x,1/2-y,-z
1/2+x,1/2-y,z
loop_
_atom_site_type_symbol
_atom_site_label
_atom_site_fract_x
_atom_site_fract_y
_atom_site_fract_z
Si Si1 0.065090 0.303667 0.205869
Si Si2 0.929251 0.807584 0.047837
Si Si3 0.679900 0.804282 0.839645
Si Si4 0.840886 0.304336 0.922420
Si Si5 0.975148 0.695139 0.331046
Si Si6 0.273412 0.700911 0.709599
Si Si7 0.580260 0.306946 0.451962
Si Si8 0.322062 0.201829 0.420483
O O1 0.047858 0.500000 0.195942
O O2 0.091141 0.235597 0.131652
O O3 0.997776 0.229538 0.257185
O O4 0.149571 0.286353 0.252228
O O5 0.851024 0.790128 0.994333
O O6 0.948320 0.000000 0.059412
O O7 0.904220 0.731768 0.120733
O O8 0.000000 0.729204 0.000000
O O9 0.753659 0.715359 0.882578
O O10 0.695281 0.765046 0.759408
O O11 0.694790 0.000000 0.846501
O O12 0.854738 0.500000 0.935112
O O13 0.956560 0.500000 0.319307
O O14 0.055079 0.708762 0.382918
O O15 0.899824 0.762713 0.374866
O O16 0.286498 0.500000 0.710339
O O17 0.253916 0.750222 0.630588
O O18 0.500000 0.281045 0.500000
O O19 0.585433 0.500000 0.432550
O O20 0.658042 0.265429 0.502534
O O21 0.323568 0.000000 0.424270
#
# Coordination Sequence:
#
# PCOD9198543 Si02
#       8
#     8   8   8   8   8   8   8   8
#     4   9  19  34  53  77 103 132 166 206 250 298
#     4  11  24  39  54  77 109 139 170 213 260 303
#     4  10  20  36  58  80 104 137 175 212 253 306
#     4  10  20  36  58  80 104 137 175 212 253 306
#     4   9  17  31  51  73  98 130 167 206 249 297
#     4   9  19  34  53  77 103 132 166 206 250 298
#     4   9  17  29  46  71 100 129 165 207 250 297
#     4   9  17  31  51  73  98 130 167 206 249 297
#
# _framework density 25.515487
#
# number of rings (size 3 to 8) (size 9 to 14) (size 15 to 20)
#    0.000    2.500    0.000    1.875    0.000    5.500 
#    0.000    3.125    0.000    3.000    0.000    0.000 
#    0.000    0.000    0.000    0.000    0.000    0.000 
#
# Total GULP energy -178848.890929 kJ/mol
# GULP energy per Si atom -5589.027842 kJ/mol
# Density = 2.545741 g / cm^3
# Si number density = 25.515487 Si / 1000 Ang^3
#
#
#
# Elastic Constant Matrix: (Units=GPa)
#
#
# Indices 1 2 3 4 5 6 
#
# 1 63.0215 -3.3859 16.9651 0.0000 -4.5097 0.0000
# 2 -3.3859 35.9934 18.2521 0.0000 -1.3345 0.0000
# 3 16.9651 18.2521 159.4184 0.0000 -11.4211 0.0000
# 4 0.0000 0.0000 0.0000 14.6405 0.0000 7.2852
# 5 -4.5097 -1.3345 -11.4211 0.0000 50.5318 0.0000
# 6 0.0000 0.0000 0.0000 7.2852 0.0000 21.4551
#
#
#
# Elastic Compliance Matrix: (Units=1/GPa)
#
#
# Indices 1 2 3 4 5 6 
#
# 1 0.016622 0.002613 -0.001989 0.000000 0.001103 0.000000
# 2 0.002613 0.029906 -0.003689 0.000000 0.000189 0.000000
# 3 -0.001989 -0.003689 0.007000 0.000000 0.001307 0.000000
# 4 0.000000 0.000000 0.000000 0.082191 0.000000 -0.027909
# 5 0.001103 0.000189 0.001307 0.000000 0.020188 0.000000
# 6 0.000000 0.000000 0.000000 -0.027909 0.000000 0.056086
#
#
# Mechanical properties :
#
#
# Convention : Reuss Voigt Hill
#
# Bulk Modulus (GPa) = 21.09700 35.78844 28.44272
# Shear Modulus (GPa) = 21.37454 32.43228 26.90341
#
# Velocity S-wave (km/s) = 2.89746 3.56909 3.25067
# Velocity P-wave (km/s) = 4.41361 5.57146 5.02599
#
# Compressibility (1/GPa) = 0.04740010
#
# Stress axis : x y z
#
# Youngs Moduli (GPa) = 60.15983 33.43796 142.84806
#
# Poissons Ratio (x) = -0.08738 0.28414
# Poissons Ratio (y) = -0.15721 0.52690
# Poissons Ratio (z) = 0.11966 0.12334
#
# Static dielectric constant tensor:
#      x y z
#    x 2.175420 0.000000 -0.038390 
#    y 0.000000 1.885590 0.000000 
#    z -0.038390 0.000000 2.012840 
# 
# From -- ./inp_files/314099.got.cif
#   From: 2010.05.17/outbox.cif.g08.bks.cpg/sg12_158_cif.got.tgz:314099.got - 2010.06.03 13:09:07.
