data_PCOD9198755
_publ_section_title
;
Structure prediction by ZEFSAII (Michael W. Deem and Ramdas Pophale) SiO2 
 PCOD9198755
Probable space group: C 2/M
;
_chemical_formula_sum "Si O2"
_cell_formula_units_Z 64
_cell_length_a 16.597251
_cell_length_b 7.986008
_cell_length_c 19.944078
_cell_angle_alpha 90.000000
_cell_angle_beta 98.756220
_cell_angle_gamma 90.000000
_cell_volume 2612.693303
_symmetry_space_group_name_H-M "C 2/M"
_symmetry_group_IT_number 12
_symmetry_cell_setting 'monoclinic'
loop_
_space_group_symop_operation_xyz
x,y,z
-x,y,-z
-x,-y,-z
x,-y,z
1/2+x,1/2+y,z
1/2-x,1/2+y,-z
1/2-x,1/2-y,-z
1/2+x,1/2-y,z
loop_
_atom_site_type_symbol
_atom_site_label
_atom_site_fract_x
_atom_site_fract_y
_atom_site_fract_z
Si Si1 0.410475 0.205310 0.466878
Si Si2 0.893469 0.304124 0.835941
Si Si3 0.638163 0.195220 0.792697
Si Si4 0.931514 0.703123 0.081081
Si Si5 0.306487 0.802063 0.334587
Si Si6 0.965814 0.805390 0.714452
Si Si7 0.817672 0.193619 0.955250
Si Si8 0.658572 0.196762 0.405626
O O1 0.500000 0.259506 0.500000
O O2 0.378710 0.265775 0.391210
O O3 0.350351 0.258048 0.519450
O O4 0.410318 0.000000 0.465734
O O5 0.897646 0.500000 0.820466
O O6 0.898867 0.209940 0.766060
O O7 0.824367 0.275443 0.882801
O O8 0.977737 0.253397 0.884135
O O9 0.627475 0.265500 0.866008
O O10 0.693722 0.270439 0.740638
O O11 0.546722 0.210916 0.749827
O O12 0.659100 0.000000 0.805287
O O13 0.927772 0.500000 0.076580
O O14 0.900409 0.772296 0.007320
O O15 0.226638 0.781659 0.368977
O O16 0.320958 0.000000 0.327577
O O17 0.926728 0.726379 0.643482
O O18 0.984638 0.000000 0.706954
O O19 0.806093 0.000000 0.941323
O O20 0.750000 0.250000 0.000000
O O21 0.675960 0.000000 0.408891
#
# Coordination Sequence:
#
# PCOD9198755 Si02
#       8
#     8   8   8   8   8   8   8   8
#     4   9  18  34  58  83 108 146 194 240 286 339
#     4  10  21  40  64  87 114 148 187 234 287 342
#     4   9  19  37  61  85 112 148 187 231 283 338
#     4   9  19  37  60  85 113 146 186 233 286 342
#     4  10  20  36  58  84 115 150 191 237 286 339
#     4  11  22  37  59  86 115 147 188 235 280 335
#     4  12  25  39  57  83 117 155 195 238 285 337
#     4  11  22  36  55  81 116 154 191 233 286 344
#
# _framework density 24.495794
#
# number of rings (size 3 to 8) (size 9 to 14) (size 15 to 20)
#    0.000    1.875    0.000    5.250    0.000    7.500 
#    0.000    4.375    0.000    2.625    0.000    0.000 
#    0.000    0.000    0.000    0.000    0.000    0.000 
#
# Total GULP energy -178983.186349 kJ/mol
# GULP energy per Si atom -5593.224573 kJ/mol
# Density = 2.444004 g / cm^3
# Si number density = 24.495794 Si / 1000 Ang^3
#
#
#
# Elastic Constant Matrix: (Units=GPa)
#
#
# Indices 1 2 3 4 5 6 
#
# 1 61.1774 -10.1795 11.3249 0.0000 -14.2820 0.0000
# 2 -10.1795 36.6907 10.1619 0.0000 -3.4163 0.0000
# 3 11.3249 10.1619 140.7324 0.0000 -22.5243 0.0000
# 4 0.0000 0.0000 0.0000 13.4042 0.0000 -11.9999
# 5 -14.2820 -3.4163 -22.5243 0.0000 48.2208 0.0000
# 6 0.0000 0.0000 0.0000 -11.9999 0.0000 11.8042
#
#
#
# Elastic Compliance Matrix: (Units=1/GPa)
#
#
# Indices 1 2 3 4 5 6 
#
# 1 0.018833 0.006034 -0.001070 0.000000 0.005506 0.000000
# 2 0.006034 0.029800 -0.002176 0.000000 0.002882 0.000000
# 3 -0.001070 -0.002176 0.007861 0.000000 0.003201 0.000000
# 4 0.000000 0.000000 0.000000 0.829555 0.000000 0.843302
# 5 0.005506 0.002882 0.003201 0.000000 0.024068 0.000000
# 6 0.000000 0.000000 0.000000 0.843302 0.000000 0.941992
#
#
# Mechanical properties :
#
#
# Convention : Reuss Voigt Hill
#
# Bulk Modulus (GPa) = 16.11068 29.02389 22.56729
# Shear Modulus (GPa) = 2.67777 29.83873 16.25825
#
# Velocity S-wave (km/s) = 1.04668 3.49394 2.57906
# Velocity P-wave (km/s) = 2.83759 5.30576 4.25458
#
# Compressibility (1/GPa) = 0.06207061
#
# Stress axis : x y z
#
# Youngs Moduli (GPa) = 53.09726 33.55704 127.20647
#
# Poissons Ratio (x) = -0.20249 0.13612
# Poissons Ratio (y) = -0.32040 0.27681
# Poissons Ratio (z) = 0.05682 0.07302
#
# Static dielectric constant tensor:
#      x y z
#    x 2.026130 0.000000 -0.019330 
#    y 0.000000 1.861830 0.000000 
#    z -0.019330 0.000000 1.912410 
# 
# From -- ./inp_files/314180.got.cif
#   From: 2010.05.17/outbox.cif.g08.bks.cpg/sg12_158_cif.got.tgz:314180.got - 2010.06.03 13:09:07.
