data_PCOD9198791
_publ_section_title
;
Structure prediction by ZEFSAII (Michael W. Deem and Ramdas Pophale) SiO2 
 PCOD9198791
Probable space group: C 2/M
;
_chemical_formula_sum "Si O2"
_cell_formula_units_Z 56
_cell_length_a 22.102431
_cell_length_b 11.982921
_cell_length_c 21.909110
_cell_angle_alpha 90.000000
_cell_angle_beta 148.929677
_cell_angle_gamma 90.000000
_cell_volume 2994.695749
_symmetry_space_group_name_H-M "C 2/M"
_symmetry_group_IT_number 12
_symmetry_cell_setting 'monoclinic'
loop_
_space_group_symop_operation_xyz
x,y,z
-x,y,-z
-x,-y,-z
x,-y,z
1/2+x,1/2+y,z
1/2-x,1/2+y,-z
1/2-x,1/2-y,-z
1/2+x,1/2-y,z
loop_
_atom_site_type_symbol
_atom_site_label
_atom_site_fract_x
_atom_site_fract_y
_atom_site_fract_z
Si Si1 0.635705 0.823279 0.618889
Si Si2 0.301752 0.500000 0.820452
Si Si3 0.853545 0.255625 0.502422
Si Si4 0.871206 0.630579 0.645704
Si Si5 0.912391 0.871068 0.337627
Si Si6 0.263008 0.627431 0.087603
Si Si7 0.933568 0.208788 0.128619
Si Si8 0.520447 0.500000 0.916768
O O1 0.500000 0.863768 0.500000
O O2 0.717765 0.895329 0.733599
O O3 0.681879 0.820392 0.589783
O O4 0.629870 0.698268 0.640543
O O5 0.408284 0.500000 0.864070
O O6 0.363243 0.500000 0.939622
O O7 0.873285 0.338948 0.575735
O O8 0.755167 0.168042 0.438093
O O9 0.972329 0.190745 0.588113
O O10 0.893335 0.500000 0.674518
O O11 0.965131 0.710426 0.759425
O O12 0.816612 0.864984 0.201257
O O13 0.936018 0.000000 0.371565
O O14 0.223701 0.500000 0.042679
O O15 0.364941 0.656127 0.127027
O O16 0.159910 0.714952 0.987873
O O17 0.978208 0.109354 0.124424
#
# Coordination Sequence:
#
# PCOD9198791 Si02
#       8
#     8   4   8   8   8   8   8   4
#     4  10  22  39  60  88 118 156 201 247 303 350
#     4  11  23  42  60  88 119 161 202 253 293 371
#     4  10  22  39  57  90 118 161 200 244 295 357
#     4  11  23  39  59  88 124 159 199 243 298 359
#     4  10  20  38  61  86 118 154 197 249 295 354
#     4  10  20  36  58  85 116 149 197 246 302 350
#     4  11  21  38  58  87 116 156 194 247 297 360
#     4  11  24  40  64  86 120 161 206 242 312 356
#
# _framework density 18.699729999999999
#
# number of rings (size 3 to 8) (size 9 to 14) (size 15 to 20)
#    0.000    1.571    2.143    2.786    1.000    3.143 
#    6.429    0.000    0.000    0.000    0.000    9.000 
#    0.000    0.000    0.000    0.000    0.000    0.000 
#
# Total GULP energy -156417.273242 kJ/mol
# GULP energy per Si atom -5586.331187 kJ/mol
# Density = 1.865717 g / cm^3
# Si number density = 18.699730 Si / 1000 Ang^3
#
#
#
# Elastic Constant Matrix: (Units=GPa)
#
#
# Indices 1 2 3 4 5 6 
#
# 1 71.4930 27.9194 23.0029 0.0000 -11.9083 0.0000
# 2 27.9194 111.9116 26.0177 0.0000 -6.4590 0.0000
# 3 23.0029 26.0177 62.4150 0.0000 -10.0736 0.0000
# 4 0.0000 0.0000 0.0000 6.2477 0.0000 -2.8697
# 5 -11.9083 -6.4590 -10.0736 0.0000 24.0453 0.0000
# 6 0.0000 0.0000 0.0000 -2.8697 0.0000 12.4658
#
#
#
# Elastic Compliance Matrix: (Units=1/GPa)
#
#
# Indices 1 2 3 4 5 6 
#
# 1 0.017550 -0.003046 -0.004212 0.000000 0.006108 0.000000
# 2 -0.003046 0.010446 -0.003241 0.000000 -0.000061 0.000000
# 3 -0.004212 -0.003241 0.019786 0.000000 0.005332 0.000000
# 4 0.000000 0.000000 0.000000 0.178986 0.000000 0.041203
# 5 0.006108 -0.000061 0.005332 0.000000 0.046831 0.000000
# 6 0.000000 0.000000 0.000000 0.041203 0.000000 0.089705
#
#
# Mechanical properties :
#
#
# Convention : Reuss Voigt Hill
#
# Bulk Modulus (GPa) = 37.33909 44.41108 40.87509
# Shear Modulus (GPa) = 12.71520 19.81039 16.26280
#
# Velocity S-wave (km/s) = 2.61045 3.25837 2.95223
# Velocity P-wave (km/s) = 5.39416 6.16093 5.79025
#
# Compressibility (1/GPa) = 0.02678158
#
# Stress axis : x y z
#
# Youngs Moduli (GPa) = 56.98073 95.73317 50.54091
#
# Poissons Ratio (x) = 0.29165 0.21288
# Poissons Ratio (y) = 0.17359 0.16382
# Poissons Ratio (z) = 0.24001 0.31030
#
# Static dielectric constant tensor:
#      x y z
#    x 1.626070 0.000000 -0.010010 
#    y 0.000000 1.625130 0.000000 
#    z -0.010010 0.000000 1.645090 
# 
# From -- ./inp_files/349209.got.cif
#   From: 2010.05.17/outbox.cif.g08.bks.cpg/sg12_175_cif.got.tgz:349209.got - 2010.06.03 13:09:07.
