data_PCOD9198068
_publ_section_title
;
Structure prediction by ZEFSAII (Michael W. Deem and Ramdas Pophale) SiO2 
 PCOD9198068
Probable space group: C 2/M
;
_chemical_formula_sum "Si O2"
_cell_formula_units_Z 64
_cell_length_a 18.964196
_cell_length_b 8.919799
_cell_length_c 33.880530
_cell_angle_alpha 90.000000
_cell_angle_beta 142.329130
_cell_angle_gamma 90.000000
_cell_volume 3502.430530
_symmetry_space_group_name_H-M "C 2/M"
_symmetry_group_IT_number 12
_symmetry_cell_setting 'monoclinic'
loop_
_space_group_symop_operation_xyz
x,y,z
-x,y,-z
-x,-y,-z
x,-y,z
1/2+x,1/2+y,z
1/2-x,1/2+y,-z
1/2-x,1/2-y,-z
1/2+x,1/2-y,z
loop_
_atom_site_type_symbol
_atom_site_label
_atom_site_fract_x
_atom_site_fract_y
_atom_site_fract_z
Si Si1 0.777111 0.175818 0.762250
Si Si2 0.533690 0.320938 0.636266
Si Si3 0.489832 0.178581 0.155477
Si Si4 0.705485 0.679445 0.439236
Si Si5 0.905776 0.178551 0.036106
Si Si6 0.919068 0.820380 0.500374
Si Si7 0.655914 0.673881 0.116460
Si Si8 0.284635 0.322698 0.102798
O O1 0.651037 0.234662 0.695997
O O2 0.798757 0.193125 0.818823
O O3 0.878299 0.266351 0.785195
O O4 0.789652 0.000000 0.758822
O O5 0.553799 0.500000 0.647305
O O6 0.430536 0.283198 0.621334
O O7 0.484134 0.287884 0.570525
O O8 0.437805 0.246561 0.091802
O O9 0.409340 0.246296 0.153848
O O10 0.483424 0.000000 0.152036
O O11 0.715013 0.500000 0.445417
O O12 0.750000 0.750000 0.500000
O O13 0.793665 0.743409 0.446118
O O14 0.018559 0.199976 0.058438
O O15 0.889346 0.000000 0.034080
O O16 0.796681 0.253342 0.967312
O O17 0.000000 0.774053 0.500000
O O18 0.902547 0.000000 0.491211
O O19 0.673626 0.500000 0.112246
O O20 0.721939 0.779471 0.115633
O O21 0.294144 0.500000 0.102204
#
# Coordination Sequence:
#
# PCOD9198068 Si02
#       8
#     8   8   8   8   8   8   8   8
#     4  10  21  38  58  78 102 136 178 217 258 313
#     4   9  18  33  54  78 104 139 180 217 255 304
#     4  11  22  37  56  76 104 139 175 217 264 313
#     4   9  17  30  50  77 107 138 174 213 252 297
#     4  10  20  36  56  78 106 137 172 213 261 319
#     4   9  18  33  53  80 114 146 175 212 259 306
#     4   9  20  37  54  74 102 135 171 215 264 312
#     4  12  23  34  52  79 107 134 171 217 266 317
#
# _framework density 18.273026000000002
#
# number of rings (size 3 to 8) (size 9 to 14) (size 15 to 20)
#    0.000    2.125    0.000    5.625    0.000    7.250 
#    0.000    1.250    0.000    4.500    0.000    0.000 
#    0.000    0.000    0.000    0.000    0.000    0.000 
#
# Total GULP energy -178630.942863 kJ/mol
# GULP energy per Si atom -5582.216964 kJ/mol
# Density = 1.823144 g / cm^3
# Si number density = 18.273026 Si / 1000 Ang^3
#
#
#
# Elastic Constant Matrix: (Units=GPa)
#
#
# Indices 1 2 3 4 5 6 
#
# 1 127.0978 65.5240 32.3996 0.0000 31.8755 0.0000
# 2 65.5240 110.0700 36.1653 0.0000 24.5670 0.0001
# 3 32.3996 36.1653 51.8228 0.0000 30.1717 0.0000
# 4 0.0000 0.0000 0.0000 27.1277 0.0000 5.9255
# 5 31.8755 24.5670 30.1717 0.0000 25.6474 0.0000
# 6 0.0000 0.0001 0.0000 5.9255 0.0000 34.6365
#
#
#
# Elastic Compliance Matrix: (Units=1/GPa)
#
#
# Indices 1 2 3 4 5 6 
#
# 1 0.014446 -0.006461 0.007385 0.000000 -0.020453 0.000000
# 2 -0.006461 0.014894 -0.008644 0.000000 0.003932 0.000000
# 3 0.007385 -0.008644 0.067393 0.000000 -0.080181 0.000000
# 4 0.000000 0.000000 0.000000 0.038294 0.000000 -0.006551
# 5 -0.020453 0.003932 -0.080181 0.000000 0.154968 0.000000
# 6 0.000000 0.000000 0.000000 -0.006551 0.000000 0.029992
#
#
# Mechanical properties :
#
#
# Convention : Reuss Voigt Hill
#
# Bulk Modulus (GPa) = 12.30102 61.90758 37.10430
# Shear Modulus (GPa) = 13.79221 27.80913 20.80067
#
# Velocity S-wave (km/s) = 2.75032 3.90534 3.37757
# Velocity P-wave (km/s) = 4.10269 7.36807 5.96324
#
# Compressibility (1/GPa) = 0.08129404
#
# Stress axis : x y z
#
# Youngs Moduli (GPa) = 69.22496 67.14239 14.83823
#
# Poissons Ratio (x) = 0.43381 -0.10958
# Poissons Ratio (y) = 0.44726 0.12826
# Poissons Ratio (z) = -0.51124 0.58036
#
# Static dielectric constant tensor:
#      x y z
#    x 1.664260 0.000000 0.005430 
#    y 0.000000 1.605490 0.000000 
#    z 0.005430 0.000000 1.610400 
# 
# From -- ./inp_files/378440.got.cif
#   From: 2010.05.17/outbox.cif.g08.bks.cpg/sg12_190_cif.got.tgz:378440.got - 2010.06.03 13:09:07.
