data_PCOD9198230
_publ_section_title
;
Structure prediction by ZEFSAII (Michael W. Deem and Ramdas Pophale) SiO2 
 PCOD9198230
Probable space group: C 2/M
;
_chemical_formula_sum "Si O2"
_cell_formula_units_Z 52
_cell_length_a 23.743324
_cell_length_b 22.912677
_cell_length_c 5.252919
_cell_angle_alpha 90.000000
_cell_angle_beta 120.306602
_cell_angle_gamma 90.000000
_cell_volume 2467.167389
_symmetry_space_group_name_H-M "C 2/M"
_symmetry_group_IT_number 12
_symmetry_cell_setting 'monoclinic'
loop_
_space_group_symop_operation_xyz
x,y,z
-x,y,-z
-x,-y,-z
x,-y,z
1/2+x,1/2+y,z
1/2-x,1/2+y,-z
1/2-x,1/2-y,-z
1/2+x,1/2-y,z
loop_
_atom_site_type_symbol
_atom_site_label
_atom_site_fract_x
_atom_site_fract_y
_atom_site_fract_z
Si Si1 0.116474 0.376382 0.480728
Si Si2 0.821943 0.813822 0.300883
Si Si3 0.571581 0.235694 0.186622
Si Si4 0.700442 0.435750 0.932291
Si Si5 0.045755 0.500000 0.360518
Si Si6 0.786746 0.435431 0.630347
Si Si7 0.318891 0.795317 0.956635
O O1 0.063616 0.325739 0.319399
O O2 0.087137 0.439515 0.478223
O O3 0.158190 0.389475 0.319552
O O4 0.164589 0.342663 0.785173
O O5 0.881095 0.782512 0.575352
O O6 0.838008 0.877900 0.233697
O O7 0.807327 0.770205 0.036219
O O8 0.753854 0.813286 0.307460
O O9 0.500000 0.260847 0.000000
O O10 0.614460 0.215316 0.045171
O O11 0.668423 0.500000 0.846693
O O12 0.756167 0.436538 0.839781
O O13 0.732023 0.429934 0.284146
O O14 0.000000 0.500000 0.500000
O O15 0.000000 0.500000 0.000000
O O16 0.816644 0.500000 0.663004
#
# Coordination Sequence:
#
# PCOD9198230 Si02
#       7
#     8   8   8   8   4   8   8
#     4  11  23  39  61  85 124 169 222 270 313 372
#     4  10  21  38  63  93 122 163 210 276 323 393
#     4  11  25  40  61  87 126 172 216 268 329 393
#     4  10  21  35  62  94 130 155 199 257 328 387
#     4  12  30  44  62  90 130 186 231 265 315 378
#     4  10  20  36  56  92 124 162 200 255 315 376
#     4  10  22  39  64  91 121 164 221 274 326 377
#
# _framework density 21.076799999999999
#
# number of rings (size 3 to 8) (size 9 to 14) (size 15 to 20)
#    0.000    1.538    2.308    1.846    6.462    1.846 
#    0.000    0.000    0.000    0.462    0.000    1.077 
#    0.000    0.000    0.000    0.000    0.000    0.000 
#
# Total GULP energy -144881.997540 kJ/mol
# GULP energy per Si atom -5572.384521 kJ/mol
# Density = 2.102883 g / cm^3
# Si number density = 21.076800 Si / 1000 Ang^3
#
#
#
# Elastic Constant Matrix: (Units=GPa)
#
#
# Indices 1 2 3 4 5 6 
#
# 1 62.1385 22.7801 12.9105 0.0000 15.9702 0.0000
# 2 22.7801 150.5889 26.7858 0.0000 11.6591 0.0000
# 3 12.9105 26.7858 55.3029 0.0000 12.8186 0.0000
# 4 0.0000 0.0000 0.0000 30.5016 0.0000 0.4919
# 5 15.9702 11.6591 12.8186 0.0000 34.2934 0.0000
# 6 0.0000 0.0000 0.0000 0.4919 0.0000 18.8467
#
#
#
# Elastic Compliance Matrix: (Units=1/GPa)
#
#
# Indices 1 2 3 4 5 6 
#
# 1 0.019136 -0.001998 -0.001742 0.000000 -0.007581 0.000000
# 2 -0.001998 0.007526 -0.003067 0.000000 -0.000482 0.000000
# 3 -0.001742 -0.003067 0.021399 0.000000 -0.006145 0.000000
# 4 0.000000 0.000000 0.000000 0.032799 0.000000 -0.000856
# 5 -0.007581 -0.000482 -0.006145 0.000000 0.035151 0.000000
# 6 0.000000 0.000000 0.000000 -0.000856 0.000000 0.053082
#
#
# Mechanical properties :
#
#
# Convention : Reuss Voigt Hill
#
# Bulk Modulus (GPa) = 29.03121 43.66480 36.34800
# Shear Modulus (GPa) = 25.74815 30.43195 28.09005
#
# Velocity S-wave (km/s) = 3.49898 3.80394 3.65464
# Velocity P-wave (km/s) = 5.48887 6.32892 5.92381
#
# Compressibility (1/GPa) = 0.03444569
#
# Stress axis : x y z
#
# Youngs Moduli (GPa) = 52.25778 132.87891 46.73177
#
# Poissons Ratio (x) = 0.26548 0.08143
# Poissons Ratio (y) = 0.10440 0.14332
# Poissons Ratio (z) = 0.09106 0.40753
#
# Static dielectric constant tensor:
#      x y z
#    x 1.816010 0.000000 -0.053610 
#    y 0.000000 1.847110 0.000000 
#    z -0.053610 0.000000 1.827900 
# 
# From -- ./inp_files/21823.got.cif
#   From: 2010.05.17/outbox.cif.g08.bks.cpg/sg12_11_cif.got.tgz:21823.got - 2010.06.03 13:09:07.
