data_PCOD9198960
_publ_section_title
;
Structure prediction by ZEFSAII (Michael W. Deem and Ramdas Pophale) SiO2 
 PCOD9198960
Probable space group: C 2/M
;
_chemical_formula_sum "Si O2"
_cell_formula_units_Z 64
_cell_length_a 18.356492
_cell_length_b 12.573508
_cell_length_c 14.986950
_cell_angle_alpha 90.000000
_cell_angle_beta 97.179918
_cell_angle_gamma 90.000000
_cell_volume 3431.946412
_symmetry_space_group_name_H-M "C 2/M"
_symmetry_group_IT_number 12
_symmetry_cell_setting 'monoclinic'
loop_
_space_group_symop_operation_xyz
x,y,z
-x,y,-z
-x,-y,-z
x,-y,z
1/2+x,1/2+y,z
1/2-x,1/2+y,-z
1/2-x,1/2-y,-z
1/2+x,1/2-y,z
loop_
_atom_site_type_symbol
_atom_site_label
_atom_site_fract_x
_atom_site_fract_y
_atom_site_fract_z
Si Si1 0.820645 0.293990 0.958960
Si Si2 0.030282 0.878725 0.290038
Si Si3 0.610555 0.764051 0.718209
Si Si4 0.545105 0.318800 0.090415
Si Si5 0.181512 0.626998 0.560676
Si Si6 0.058814 0.377810 0.886376
Si Si7 0.669612 0.752797 0.376714
Si Si8 0.754311 0.376734 0.770621
O O1 0.871234 0.199678 0.925912
O O2 0.793453 0.363255 0.871747
O O3 0.750000 0.250000 0.000000
O O4 0.874959 0.354726 0.034698
O O5 0.036527 0.876662 0.182931
O O6 0.098922 0.814041 0.338631
O O7 0.956615 0.816701 0.304814
O O8 0.029705 0.000000 0.320974
O O9 0.631573 0.826811 0.632346
O O10 0.588022 0.844434 0.793489
O O11 0.680694 0.694291 0.758980
O O12 0.507341 0.202906 0.101326
O O13 0.500000 0.365919 0.000000
O O14 0.181091 0.500000 0.559157
O O15 0.263193 0.672483 0.592346
O O16 0.157577 0.676266 0.462561
O O17 0.036131 0.500000 0.887074
O O18 0.694607 0.827846 0.298930
O O19 0.737809 0.500000 0.750468
#
# Coordination Sequence:
#
# PCOD9198960 Si02
#       8
#     8   8   8   8   8   8   8   8
#     4  11  20  36  55  85 122 151 197 251 294 350
#     4  11  22  41  63  86 119 162 199 240 297 350
#     4  10  22  39  57  87 123 152 200 244 288 355
#     4   9  21  38  57  85 121 155 203 247 284 350
#     4  10  21  41  66  90 121 156 191 246 306 347
#     4  10  20  36  59  82 116 161 199 243 299 350
#     4  10  22  40  63  93 119 150 204 246 285 360
#     4  11  21  37  59  84 119 158 194 244 304 348
#
# _framework density 18.648309999999999
#
# number of rings (size 3 to 8) (size 9 to 14) (size 15 to 20)
#    0.000    1.750    2.500    1.875    0.000    3.500 
#    0.000    7.500    0.000    0.000    0.000    0.000 
#    0.000    0.000    0.000    0.000    0.000    0.000 
#
# Total GULP energy -178760.521790 kJ/mol
# GULP energy per Si atom -5586.266306 kJ/mol
# Density = 1.860587 g / cm^3
# Si number density = 18.648310 Si / 1000 Ang^3
#
#
#
# Elastic Constant Matrix: (Units=GPa)
#
#
# Indices 1 2 3 4 5 6 
#
# 1 87.6668 24.1286 40.7494 0.0000 -10.0528 0.0000
# 2 24.1286 107.2761 41.7458 0.0000 -2.6860 0.0000
# 3 40.7494 41.7458 113.8088 0.0000 -10.9666 0.0000
# 4 0.0000 0.0000 0.0000 7.4764 0.0000 2.1936
# 5 -10.0528 -2.6860 -10.9666 0.0000 26.6173 0.0000
# 6 0.0000 0.0000 0.0000 2.1936 0.0000 10.2311
#
#
#
# Elastic Compliance Matrix: (Units=1/GPa)
#
#
# Indices 1 2 3 4 5 6 
#
# 1 0.014159 -0.001464 -0.004198 0.000000 0.003470 0.000000
# 2 -0.001464 0.011034 -0.003612 0.000000 -0.000928 0.000000
# 3 -0.004198 -0.003612 0.011899 0.000000 0.002953 0.000000
# 4 0.000000 0.000000 0.000000 0.142733 0.000000 -0.030603
# 5 0.003470 -0.000928 0.002953 0.000000 0.040003 0.000000
# 6 0.000000 0.000000 0.000000 -0.030603 0.000000 0.104303
#
#
# Mechanical properties :
#
#
# Convention : Reuss Voigt Hill
#
# Bulk Modulus (GPa) = 53.92972 57.99994 55.96483
# Shear Modulus (GPa) = 14.33235 22.34015 18.33625
#
# Velocity S-wave (km/s) = 2.77530 3.46493 3.13911
# Velocity P-wave (km/s) = 6.26513 6.86856 6.57377
#
# Compressibility (1/GPa) = 0.01854265
#
# Stress axis : x y z
#
# Youngs Moduli (GPa) = 70.62560 90.63272 84.03767
#
# Poissons Ratio (x) = 0.13269 0.35282
# Poissons Ratio (y) = 0.10340 0.30358
# Poissons Ratio (z) = 0.29651 0.32740
#
# Static dielectric constant tensor:
#      x y z
#    x 1.624160 0.000000 -0.002240 
#    y 0.000000 1.611040 0.000000 
#    z -0.002240 0.000000 1.644470 
# 
# From -- ./inp_files/223811.got.cif
#   From: 2010.05.17/outbox.cif.g08.bks.cpg/sg12_112_cif.got.tgz:223811.got - 2010.06.03 13:09:07.
