data_PCOD9198430
_publ_section_title
;
Structure prediction by ZEFSAII (Michael W. Deem and Ramdas Pophale) SiO2 
 PCOD9198430
Probable space group: C 2/M
;
_chemical_formula_sum "Si O2"
_cell_formula_units_Z 56
_cell_length_a 30.037788
_cell_length_b 8.448952
_cell_length_c 13.014050
_cell_angle_alpha 90.000000
_cell_angle_beta 58.560580
_cell_angle_gamma 90.000000
_cell_volume 2817.929383
_symmetry_space_group_name_H-M "C 2/M"
_symmetry_group_IT_number 12
_symmetry_cell_setting 'monoclinic'
loop_
_space_group_symop_operation_xyz
x,y,z
-x,y,-z
-x,-y,-z
x,-y,z
1/2+x,1/2+y,z
1/2-x,1/2+y,-z
1/2-x,1/2-y,-z
1/2+x,1/2-y,z
loop_
_atom_site_type_symbol
_atom_site_label
_atom_site_fract_x
_atom_site_fract_y
_atom_site_fract_z
Si Si1 0.364088 0.309446 0.499045
Si Si2 0.059382 0.191177 0.412644
Si Si3 0.748903 0.309140 0.686609
Si Si4 0.946360 0.808668 0.009213
Si Si5 0.640816 0.693111 0.723529
Si Si6 0.595474 0.812746 0.148620
Si Si7 0.710720 0.310332 0.960888
O O1 0.367555 0.500000 0.494827
O O2 0.402502 0.250341 0.542261
O O3 0.304466 0.263151 0.592748
O O4 0.377314 0.255004 0.367485
O O5 0.079712 0.240039 0.276639
O O6 0.000000 0.246264 0.500000
O O7 0.059256 0.000000 0.417244
O O8 0.753004 0.500000 0.675383
O O9 0.700379 0.257658 0.673848
O O10 0.732449 0.267062 0.822576
O O11 0.897834 0.756037 0.138984
O O12 0.944738 0.000000 0.005408
O O13 0.940732 0.744142 0.901455
O O14 0.000000 0.763077 0.000000
O O15 0.640459 0.500000 0.725704
O O16 0.593480 0.000000 0.159426
O O17 0.653791 0.759374 0.049123
O O18 0.706840 0.500000 0.969416
O O19 0.750000 0.250000 0.000000
#
# Coordination Sequence:
#
# PCOD9198430 Si02
#       7
#     8   8   8   8   8   8   8
#     4  10  21  36  59  89 120 152 197 251 299 362
#     4  10  23  42  65  90 117 156 209 261 305 360
#     4  10  20  36  57  83 120 157 194 241 299 365
#     4  10  21  39  68  94 118 158 206 258 312 367
#     4   9  18  36  59  89 120 150 193 246 303 360
#     4  12  25  41  62  90 128 165 202 252 311 373
#     4  11  22  38  61  89 122 162 209 256 308 365
#
# _framework density 19.872748999999999
#
# number of rings (size 3 to 8) (size 9 to 14) (size 15 to 20)
#    0.000    1.714    1.429    3.000    2.000    4.571 
#    0.000    0.714    0.000    0.000    0.000    0.000 
#    0.000    0.000    0.000    0.000    0.000    0.000 
#
# Total GULP energy -156484.669205 kJ/mol
# GULP energy per Si atom -5588.738186 kJ/mol
# Density = 1.982752 g / cm^3
# Si number density = 19.872749 Si / 1000 Ang^3
#
#
#
# Elastic Constant Matrix: (Units=GPa)
#
#
# Indices 1 2 3 4 5 6 
#
# 1 130.8923 14.8597 38.1145 0.0000 28.5496 0.0000
# 2 14.8597 7.6500 6.9909 0.0000 4.6483 0.0000
# 3 38.1145 6.9909 94.1110 0.0000 28.6164 0.0000
# 4 0.0000 0.0000 0.0000 16.4849 0.0000 -5.2004
# 5 28.5496 4.6483 28.6164 0.0000 38.1742 0.0000
# 6 0.0000 0.0000 0.0000 -5.2004 0.0000 18.5185
#
#
#
# Elastic Compliance Matrix: (Units=1/GPa)
#
#
# Indices 1 2 3 4 5 6 
#
# 1 0.011171 -0.017087 -0.001745 0.000000 -0.004966 0.000000
# 2 -0.017087 0.170753 -0.004310 0.000000 -0.004782 0.000000
# 3 -0.001745 -0.004310 0.014372 0.000000 -0.008944 0.000000
# 4 0.000000 0.000000 0.000000 0.066558 0.000000 0.018691
# 5 -0.004966 -0.004782 -0.008944 0.000000 0.037196 0.000000
# 6 0.000000 0.000000 0.000000 0.018691 0.000000 0.059249
#
#
# Mechanical properties :
#
#
# Convention : Reuss Voigt Hill
#
# Bulk Modulus (GPa) = 6.66612 39.17596 22.92104
# Shear Modulus (GPa) = 10.97486 26.14808 18.56147
#
# Velocity S-wave (km/s) = 2.35256 3.63130 3.05948
# Velocity P-wave (km/s) = 3.27736 6.11048 4.90301
#
# Compressibility (1/GPa) = 0.15001231
#
# Stress axis : x y z
#
# Youngs Moduli (GPa) = 89.51833 5.85642 69.57877
#
# Poissons Ratio (x) = 0.10007 0.12141
# Poissons Ratio (y) = 1.52959 0.29988
# Poissons Ratio (z) = 0.15620 0.02524
#
# Static dielectric constant tensor:
#      x y z
#    x 1.691040 0.000000 0.014460 
#    y 0.000000 1.684490 0.000000 
#    z 0.014460 0.000000 1.672370 
# 
# From -- ./inp_files/181051.got.cif
#   From: 2010.05.17/outbox.cif.g08.bks.cpg/sg12_91_cif.got.tgz:181051.got - 2010.06.03 13:09:07.
