data_PCOD9198099
_publ_section_title
;
Structure prediction by ZEFSAII (Michael W. Deem and Ramdas Pophale) SiO2 
 PCOD9198099
Probable space group: C 2/M
;
_chemical_formula_sum "Si O2"
_cell_formula_units_Z 28
_cell_length_a 14.650828
_cell_length_b 5.659761
_cell_length_c 20.665331
_cell_angle_alpha 90.000000
_cell_angle_beta 41.846357
_cell_angle_gamma 90.000000
_cell_volume 1143.185260
_symmetry_space_group_name_H-M "C 2/M"
_symmetry_group_IT_number 12
_symmetry_cell_setting 'monoclinic'
loop_
_space_group_symop_operation_xyz
x,y,z
-x,y,-z
-x,-y,-z
x,-y,z
1/2+x,1/2+y,z
1/2-x,1/2+y,-z
1/2-x,1/2-y,-z
1/2+x,1/2-y,z
loop_
_atom_site_type_symbol
_atom_site_label
_atom_site_fract_x
_atom_site_fract_y
_atom_site_fract_z
Si Si1 0.739752 0.500000 0.800859
Si Si2 0.370409 0.000000 0.872750
Si Si3 0.343250 0.252364 0.386097
Si Si4 0.361126 0.500000 0.894949
Si Si5 0.646064 0.000000 0.889089
Si Si6 0.653791 0.000000 0.394195
O O1 0.813200 0.500000 0.831070
O O2 0.661702 0.247647 0.842741
O O3 0.835758 0.500000 0.687660
O O4 0.440669 0.251739 0.849851
O O5 0.235219 0.000000 0.990708
O O6 0.426049 0.500000 0.344686
O O7 0.250000 0.250000 0.500000
O O8 0.237748 0.285523 0.382722
O O9 0.412978 0.000000 0.345056
O O10 0.258748 0.500000 0.887462
O O11 0.500000 0.000000 0.000000
O O12 0.500000 0.000000 0.500000
#
# Coordination Sequence:
#
# PCOD9198099 Si02
#       6
#     4   4   8   4   4   4
#     4  10  21  34  54  82 112 138 181 229 278 321
#     4   8  14  27  46  70  96 129 165 205 265 318
#     4   8  16  32  54  75 101 151 191 222 281 329
#     4   8  14  26  49  70  91 132 164 205 267 314
#     4  10  20  36  56  79 106 144 181 228 271 333
#     4  10  22  35  58  87 116 153 190 237 280 334
#
# _framework density 24.49297
#
# number of rings (size 3 to 8) (size 9 to 14) (size 15 to 20)
#    0.857    2.286    0.000    0.429    2.000    0.571 
#    0.000    0.000    6.286    0.000    0.000    0.000 
#    0.000    0.000    0.000    0.000    0.000    0.000 
#
# Total GULP energy -78133.230699 kJ/mol
# GULP energy per Si atom -5580.945050 kJ/mol
# Density = 2.443722 g / cm^3
# Si number density = 24.492970 Si / 1000 Ang^3
#
#
#
# Elastic Constant Matrix: (Units=GPa)
#
#
# Indices 1 2 3 4 5 6 
#
# 1 84.0097 28.4207 33.1494 0.0004 20.5592 0.0009
# 2 28.4207 304.2601 72.1159 0.0012 -7.0089 0.0032
# 3 33.1494 72.1159 128.6713 0.0001 15.6824 0.0006
# 4 0.0004 0.0012 0.0001 30.3400 -0.0001 0.1336
# 5 20.5592 -7.0089 15.6824 -0.0001 43.8924 0.0004
# 6 0.0009 0.0032 0.0006 0.1336 0.0004 -8.4496
#
#
#
# Elastic Compliance Matrix: (Units=1/GPa)
#
#
# Indices 1 2 3 4 5 6 
#
# 1 0.014712 -0.000916 -0.002529 0.000000 -0.006134 0.000001
# 2 -0.000916 0.003935 -0.002194 0.000000 0.001841 0.000001
# 3 -0.002529 -0.002194 0.009986 0.000000 -0.002733 -0.000001
# 4 0.000000 0.000000 0.000000 0.032957 0.000000 0.000521
# 5 -0.006134 0.001841 -0.002733 0.000000 0.026927 0.000001
# 6 0.000001 0.000001 -0.000001 0.000521 0.000001 -0.118341
#
#
# Mechanical properties :
#
#
# Convention : Reuss Voigt Hill
#
# Bulk Modulus (GPa) = 57.62027 87.14591 72.38309
# Shear Modulus (GPa) = -391.82329 38.70691 -176.55819
#
# Velocity S-wave (km/s) = -12.66180 3.97965 -8.49951
# Velocity P-wave (km/s) = 13.79076 7.53485 8.16735
#
# Compressibility (1/GPa) = 0.01735500
#
# Stress axis : x y z
#
# Youngs Moduli (GPa) = 67.96963 254.15763 100.14076
#
# Poissons Ratio (x) = 0.23283 0.25329
# Poissons Ratio (y) = 0.06227 0.21967
# Poissons Ratio (z) = 0.17192 0.55751
#
# Static dielectric constant tensor:
#      x y z
#    x 1.847680 0.000000 0.032480 
#    y 0.000000 2.078100 0.000000 
#    z 0.032480 0.000000 1.918500 
# 
# From -- ./inp_files/161379.got.cif
#   From: 2010.05.17/outbox.cif.g08.bks.cpg/sg12_81_cif.got.tgz:161379.got - 2010.06.03 13:09:07.
