data_PCOD9198691
_publ_section_title
;
Structure prediction by ZEFSAII (Michael W. Deem and Ramdas Pophale) SiO2 
 PCOD9198691
Probable space group: C 2/M
;
_chemical_formula_sum "Si O2"
_cell_formula_units_Z 48
_cell_length_a 8.642528
_cell_length_b 18.367631
_cell_length_c 14.836350
_cell_angle_alpha 90.000000
_cell_angle_beta 98.826647
_cell_angle_gamma 90.000000
_cell_volume 2327.271319
_symmetry_space_group_name_H-M "C 2/M"
_symmetry_group_IT_number 12
_symmetry_cell_setting 'monoclinic'
loop_
_space_group_symop_operation_xyz
x,y,z
-x,y,-z
-x,-y,-z
x,-y,z
1/2+x,1/2+y,z
1/2-x,1/2+y,-z
1/2-x,1/2-y,-z
1/2+x,1/2-y,z
loop_
_atom_site_type_symbol
_atom_site_label
_atom_site_fract_x
_atom_site_fract_y
_atom_site_fract_z
Si Si1 0.112525 0.584907 0.099290
Si Si2 0.678419 0.912570 0.823785
Si Si3 0.679061 0.670004 0.994841
Si Si4 0.176564 0.416354 0.481955
Si Si5 0.380781 0.700661 0.403667
Si Si6 0.319603 0.344238 0.658297
O O1 0.151749 0.500000 0.108876
O O2 0.005147 0.605646 0.174791
O O3 0.264464 0.631972 0.092188
O O4 0.000000 0.593493 0.000000
O O5 0.761654 0.881663 0.919620
O O6 0.757755 0.875080 0.746235
O O7 0.689952 0.000000 0.820323
O O8 0.500000 0.678700 0.000000
O O9 0.750000 0.750000 0.000000
O O10 0.177444 0.500000 0.450781
O O11 0.252826 0.360868 0.417591
O O12 0.284655 0.405104 0.579505
O O13 0.000000 0.399116 0.500000
O O14 0.500000 0.709548 0.500000
O O15 0.498760 0.678064 0.334223
O O16 0.286516 0.774343 0.377034
#
# Coordination Sequence:
#
# PCOD9198691 Si02
#       6
#     8   8   8   8   8   8
#     4   8  16  34  57  78 106 142 177 216 266 326
#     4  10  22  39  59  85 115 145 181 230 285 333
#     4  11  22  37  59  84 111 146 188 227 269 331
#     4  10  20  36  58  83 113 151 194 233 275 333
#     4  10  21  36  57  82 113 153 193 232 274 331
#     4  11  21  36  58  84 116 149 186 234 285 329
#
# _framework density 20.625014
#
# number of rings (size 3 to 8) (size 9 to 14) (size 15 to 20)
#    0.000    2.000    0.000    7.000    0.000    7.667 
#    0.000    1.667    0.000    0.000    0.000    0.000 
#    0.000    0.000    0.000    0.000    0.000    0.000 
#
# Total GULP energy -133958.384975 kJ/mol
# GULP energy per Si atom -5581.599374 kJ/mol
# Density = 2.057807 g / cm^3
# Si number density = 20.625014 Si / 1000 Ang^3
#
#
#
# Elastic Constant Matrix: (Units=GPa)
#
#
# Indices 1 2 3 4 5 6 
#
# 1 165.1488 82.6022 34.5764 0.0000 -50.1541 0.0000
# 2 82.6022 113.2718 36.9219 0.0000 -34.8325 0.0000
# 3 34.5764 36.9219 60.9125 0.0000 -40.5533 0.0000
# 4 0.0000 0.0000 0.0000 25.0099 0.0000 -11.0275
# 5 -50.1541 -34.8325 -40.5533 0.0000 39.5364 0.0000
# 6 0.0000 0.0000 0.0000 -11.0275 0.0000 31.4590
#
#
#
# Elastic Compliance Matrix: (Units=1/GPa)
#
#
# Indices 1 2 3 4 5 6 
#
# 1 0.014722 -0.007040 0.013291 0.000000 0.026105 0.000000
# 2 -0.007040 0.015486 -0.007105 0.000000 -0.002574 0.000000
# 3 0.013291 -0.007105 0.063815 0.000000 0.076057 0.000000
# 4 0.000000 0.000000 0.000000 0.047294 0.000000 0.016578
# 5 0.026105 -0.002574 0.076057 0.000000 0.134154 0.000000
# 6 0.000000 0.000000 0.000000 0.016578 0.000000 0.037599
#
#
# Mechanical properties :
#
#
# Convention : Reuss Voigt Hill
#
# Bulk Modulus (GPa) = 10.83248 71.94823 41.39035
# Shear Modulus (GPa) = 14.46969 31.54991 23.00980
#
# Velocity S-wave (km/s) = 2.65157 3.91537 3.34372
# Velocity P-wave (km/s) = 3.82596 7.44311 5.91768
#
# Compressibility (1/GPa) = 0.09231498
#
# Stress axis : x y z
#
# Youngs Moduli (GPa) = 67.92699 64.57240 15.67026
#
# Poissons Ratio (x) = 0.45460 -0.20827
# Poissons Ratio (y) = 0.47822 0.11133
# Poissons Ratio (z) = -0.90279 0.45876
#
# Static dielectric constant tensor:
#      x y z
#    x 1.796390 0.000000 -0.018830 
#    y 0.000000 1.696030 0.000000 
#    z -0.018830 0.000000 1.759420 
# 
# From -- ./inp_files/195942.got.cif
#   From: 2010.05.17/outbox.cif.g08.bks.cpg/sg12_98_cif.got.tgz:195942.got - 2010.06.03 13:09:07.
