data_PCOD9198031
_publ_section_title
;
Structure prediction by ZEFSAII (Michael W. Deem and Ramdas Pophale) SiO2 
 PCOD9198031
Probable space group: C 2/M
;
_chemical_formula_sum "Si O2"
_cell_formula_units_Z 56
_cell_length_a 13.647766
_cell_length_b 18.840565
_cell_length_c 16.958054
_cell_angle_alpha 90.000000
_cell_angle_beta 42.631881
_cell_angle_gamma 90.000000
_cell_volume 2953.270654
_symmetry_space_group_name_H-M "C 2/M"
_symmetry_group_IT_number 12
_symmetry_cell_setting 'monoclinic'
loop_
_space_group_symop_operation_xyz
x,y,z
-x,y,-z
-x,-y,-z
x,-y,z
1/2+x,1/2+y,z
1/2-x,1/2+y,-z
1/2-x,1/2-y,-z
1/2+x,1/2-y,z
loop_
_atom_site_type_symbol
_atom_site_label
_atom_site_fract_x
_atom_site_fract_y
_atom_site_fract_z
Si Si1 0.576534 0.815012 0.631562
Si Si2 0.618712 0.718423 0.029077
Si Si3 0.457622 0.577467 0.171210
Si Si4 0.740729 0.845345 0.208159
Si Si5 0.684792 0.419506 0.572517
Si Si6 0.968820 0.828825 0.610664
Si Si7 0.327286 0.782757 0.247700
O O1 0.422422 0.855402 0.722601
O O2 0.689422 0.862019 0.515934
O O3 0.535001 0.738665 0.618743
O O4 0.641926 0.802035 0.679860
O O5 0.562909 0.644351 0.099319
O O6 0.484482 0.772742 0.115328
O O7 0.750000 0.750000 0.000000
O O8 0.676293 0.698025 0.909044
O O9 0.527051 0.500000 0.123274
O O10 0.335899 0.587731 0.175757
O O11 0.377979 0.582056 0.302236
O O12 0.750581 0.794023 0.279271
O O13 0.733982 0.500000 0.526579
O O14 0.553318 0.396306 0.593592
O O15 0.000000 0.818650 0.500000
O O16 0.794205 0.832406 0.720125
#
# Coordination Sequence:
#
# PCOD9198031 Si02
#       7
#     8   8   8   8   8   8   8
#     4  11  22  37  60  92 122 156 202 251 305 354
#     4  11  21  38  63  93 122 151 202 259 303 356
#     4  10  23  41  60  85 123 165 199 241 309 372
#     4  10  22  36  61  91 121 155 195 255 304 359
#     4  11  25  42  59  86 127 165 203 251 300 365
#     4  11  22  34  61  88 115 160 200 250 297 358
#     4  10  20  36  55  89 119 152 198 244 307 348
#
# _framework density 18.962026999999999
#
# number of rings (size 3 to 8) (size 9 to 14) (size 15 to 20)
#    0.000    1.429    2.857    3.857    8.000    2.000 
#    0.000    1.429    0.000    0.857    0.000    2.000 
#    0.000    0.000    0.000    0.000    0.000    0.000 
#
# Total GULP energy -156181.356635 kJ/mol
# GULP energy per Si atom -5577.905594 kJ/mol
# Density = 1.891887 g / cm^3
# Si number density = 18.962027 Si / 1000 Ang^3
#
#
#
# Elastic Constant Matrix: (Units=GPa)
#
#
# Indices 1 2 3 4 5 6 
#
# 1 120.9129 36.4452 47.7672 0.0001 -12.7572 -0.0001
# 2 36.4452 66.0046 33.8154 0.0000 -0.1425 -0.0001
# 3 47.7672 33.8154 82.3604 -0.0001 -14.5082 0.0000
# 4 0.0001 0.0000 -0.0001 16.3419 -0.0001 -1.4508
# 5 -12.7572 -0.1425 -14.5082 -0.0001 40.0826 0.0001
# 6 -0.0001 -0.0001 0.0000 -1.4508 0.0001 16.0195
#
#
#
# Elastic Compliance Matrix: (Units=1/GPa)
#
#
# Indices 1 2 3 4 5 6 
#
# 1 0.011531 -0.003941 -0.004727 0.000000 0.001945 0.000000
# 2 -0.003941 0.020871 -0.006933 0.000000 -0.003690 0.000000
# 3 -0.004727 -0.006933 0.018650 0.000000 0.005221 0.000000
# 4 0.000000 0.000000 0.000000 0.061688 0.000000 0.005587
# 5 0.001945 -0.003690 0.005221 0.000000 0.027444 0.000000
# 6 0.000000 0.000000 0.000000 0.005587 0.000000 0.062930
#
#
# Mechanical properties :
#
#
# Convention : Reuss Voigt Hill
#
# Bulk Modulus (GPa) = 50.38105 56.14816 53.26461
# Shear Modulus (GPa) = 20.75268 24.57213 22.66240
#
# Velocity S-wave (km/s) = 3.31181 3.60371 3.46084
# Velocity P-wave (km/s) = 6.42271 6.85498 6.64236
#
# Compressibility (1/GPa) = 0.01984873
#
# Stress axis : x y z
#
# Youngs Moduli (GPa) = 86.72333 47.91422 53.62017
#
# Poissons Ratio (x) = 0.18883 0.25346
# Poissons Ratio (y) = 0.34178 0.37176
# Poissons Ratio (z) = 0.40994 0.33220
#
# Static dielectric constant tensor:
#      x y z
#    x 1.689700 0.000000 -0.013860 
#    y 0.000000 1.658830 0.000000 
#    z -0.013860 0.000000 1.704710 
# 
# From -- ./inp_files/271397.got.cif
#   From: 2010.05.17/outbox.cif.g08.bks.cpg/sg12_136_cif.got.tgz:271397.got - 2010.06.03 13:09:07.
