data_PCOD9198260
_publ_section_title
;
Structure prediction by ZEFSAII (Michael W. Deem and Ramdas Pophale) SiO2 
 PCOD9198260
Probable space group: C 2/M
;
_chemical_formula_sum "Si O2"
_cell_formula_units_Z 56
_cell_length_a 19.534435
_cell_length_b 8.198546
_cell_length_c 25.575939
_cell_angle_alpha 90.000000
_cell_angle_beta 41.859613
_cell_angle_gamma 90.000000
_cell_volume 2733.351213
_symmetry_space_group_name_H-M "C 2/M"
_symmetry_group_IT_number 12
_symmetry_cell_setting 'monoclinic'
loop_
_space_group_symop_operation_xyz
x,y,z
-x,y,-z
-x,-y,-z
x,-y,z
1/2+x,1/2+y,z
1/2-x,1/2+y,-z
1/2-x,1/2-y,-z
1/2+x,1/2-y,z
loop_
_atom_site_type_symbol
_atom_site_label
_atom_site_fract_x
_atom_site_fract_y
_atom_site_fract_z
Si Si1 0.536937 0.302750 0.267155
Si Si2 0.168295 0.695869 0.003218
Si Si3 0.268195 0.197058 0.325291
Si Si4 0.708764 0.304621 0.249163
Si Si5 0.999310 0.303933 0.824100
Si Si6 0.115044 0.192311 0.923361
Si Si7 0.696708 0.694084 0.583232
O O1 0.537439 0.500000 0.268338
O O2 0.620435 0.240516 0.260931
O O3 0.558732 0.251440 0.195293
O O4 0.421286 0.244268 0.345946
O O5 0.171851 0.500000 0.995582
O O6 0.059658 0.748598 0.090550
O O7 0.250000 0.750000 0.000000
O O8 0.177407 0.774194 0.941338
O O9 0.203347 0.254078 0.312177
O O10 0.384513 0.255380 0.247387
O O11 0.244877 0.251703 0.397273
O O12 0.268035 0.000000 0.325418
O O13 0.697735 0.500000 0.256920
O O14 0.819592 0.269155 0.160642
O O15 0.001113 0.500000 0.823537
O O16 0.107194 0.000000 0.918180
O O17 0.000000 0.258250 0.000000
O O18 0.691993 0.500000 0.586048
O O19 0.750000 0.750000 0.500000
#
# Coordination Sequence:
#
# PCOD9198260 Si02
#       7
#     8   8   8   8   8   8   8
#     4   9  19  34  54  80 106 135 172 216 264 313
#     4  11  22  35  52  75 104 139 182 231 281 329
#     4   9  18  34  56  79 102 132 171 212 257 312
#     4  10  20  36  57  79 105 139 180 224 271 322
#     4   9  18  32  50  72  98 132 174 217 261 313
#     4  11  24  38  52  75 109 148 189 233 278 322
#     4  10  20  36  58  83 110 138 170 208 254 311
#
# _framework density 20.487670999999999
#
# number of rings (size 3 to 8) (size 9 to 14) (size 15 to 20)
#    0.000    2.143    0.000    3.000    0.000    7.429 
#    0.000    3.571    0.000    4.286    0.000    0.000 
#    0.000    0.000    0.000    0.000    0.000    0.000 
#
# Total GULP energy -156334.983435 kJ/mol
# GULP energy per Si atom -5583.392266 kJ/mol
# Density = 2.044104 g / cm^3
# Si number density = 20.487671 Si / 1000 Ang^3
#
#
#
# Elastic Constant Matrix: (Units=GPa)
#
#
# Indices 1 2 3 4 5 6 
#
# 1 101.6106 -0.2567 23.4481 0.0000 27.9157 0.0001
# 2 -0.2567 7.6049 -0.9507 -0.0001 2.3092 0.0001
# 3 23.4481 -0.9507 85.0841 0.0000 30.9655 0.0000
# 4 0.0000 -0.0001 0.0000 23.1493 0.0000 3.6343
# 5 27.9157 2.3092 30.9655 0.0000 35.0079 0.0000
# 6 0.0001 0.0001 0.0000 3.6343 0.0000 21.7523
#
#
#
# Elastic Compliance Matrix: (Units=1/GPa)
#
#
# Indices 1 2 3 4 5 6 
#
# 1 0.012709 0.003766 0.000469 0.000000 -0.010798 0.000000
# 2 0.003766 0.138153 0.007249 0.000000 -0.018528 -0.000001
# 3 0.000469 0.007249 0.017719 0.000000 -0.016525 0.000000
# 4 0.000000 0.000000 0.000000 0.044361 0.000000 -0.007412
# 5 -0.010798 -0.018528 -0.016525 0.000000 0.053015 0.000000
# 6 0.000000 -0.000001 0.000000 -0.007412 0.000000 0.047210
#
#
# Mechanical properties :
#
#
# Convention : Reuss Voigt Hill
#
# Bulk Modulus (GPa) = 5.22056 26.53121 15.87589
# Shear Modulus (GPa) = 14.12235 27.45249 20.78742
#
# Velocity S-wave (km/s) = 2.62832 3.66451 3.18878
# Velocity P-wave (km/s) = 3.42993 5.55723 4.61775
#
# Compressibility (1/GPa) = 0.19155038
#
# Stress axis : x y z
#
# Youngs Moduli (GPa) = 78.68256 7.23836 56.43668
#
# Poissons Ratio (x) = -0.02726 -0.02650
# Poissons Ratio (y) = -0.29635 -0.40910
# Poissons Ratio (z) = -0.03694 -0.05247
#
# Static dielectric constant tensor:
#      x y z
#    x 1.777290 0.000000 -0.021800 
#    y 0.000000 1.713530 0.000000 
#    z -0.021800 0.000000 1.728300 
# 
# From -- ./inp_files/280368.got.cif
#   From: 2010.05.17/outbox.cif.g08.bks.cpg/sg12_141_cif.got.tgz:280368.got - 2010.06.03 13:09:07.
