data_PCOD9198444
_publ_section_title
;
Structure prediction by ZEFSAII (Michael W. Deem and Ramdas Pophale) SiO2 
 PCOD9198444
Probable space group: C 2/M
;
_chemical_formula_sum "Si O2"
_cell_formula_units_Z 56
_cell_length_a 32.993050
_cell_length_b 8.213740
_cell_length_c 20.813244
_cell_angle_alpha 90.000000
_cell_angle_beta 30.027659
_cell_angle_gamma 90.000000
_cell_volume 2822.514109
_symmetry_space_group_name_H-M "C 2/M"
_symmetry_group_IT_number 12
_symmetry_cell_setting 'monoclinic'
loop_
_space_group_symop_operation_xyz
x,y,z
-x,y,-z
-x,-y,-z
x,-y,z
1/2+x,1/2+y,z
1/2-x,1/2+y,-z
1/2-x,1/2-y,-z
1/2+x,1/2-y,z
loop_
_atom_site_type_symbol
_atom_site_label
_atom_site_fract_x
_atom_site_fract_y
_atom_site_fract_z
Si Si1 0.095162 0.804210 0.055997
Si Si2 0.433386 0.303544 0.643292
Si Si3 0.501530 0.302912 0.686616
Si Si4 0.700481 0.695414 0.630588
Si Si5 0.683441 0.196419 0.414370
Si Si6 0.777019 0.303218 0.784318
Si Si7 0.981679 0.694380 0.097297
O O1 0.046475 0.743182 0.185012
O O2 0.045998 0.762343 0.059527
O O3 0.098628 0.000000 0.056274
O O4 0.187388 0.744459 0.925480
O O5 0.500000 0.246031 0.500000
O O6 0.435289 0.500000 0.640857
O O7 0.459169 0.247271 0.678684
O O8 0.345740 0.249498 0.739661
O O9 0.500455 0.500000 0.688454
O O10 0.594568 0.249203 0.558489
O O11 0.697650 0.500000 0.635104
O O12 0.750000 0.750000 0.500000
O O13 0.749084 0.752307 0.627366
O O14 0.609048 0.759141 0.757444
O O15 0.700029 0.254724 0.319054
O O16 0.685904 0.000000 0.410061
O O17 0.775762 0.500000 0.784382
O O18 0.988601 0.500000 0.087668
O O19 0.000000 0.755200 0.000000
#
# Coordination Sequence:
#
# PCOD9198444 Si02
#       7
#     8   8   8   8   8   8   8
#     4  10  22  40  60  84 115 152 193 238 290 347
#     4  10  20  36  57  84 116 150 187 230 284 343
#     4  10  21  37  58  83 114 151 190 233 284 342
#     4  11  23  39  60  87 119 155 196 245 298 352
#     4  10  21  36  56  82 111 145 188 235 283 338
#     4  10  21  37  58  84 112 145 189 236 282 338
#     4  11  24  41  61  87 119 156 199 245 294 354
#
# _framework density 19.840467
#
# number of rings (size 3 to 8) (size 9 to 14) (size 15 to 20)
#    0.000    1.714    1.429    2.571    0.000    8.286 
#    0.000    0.000    0.000    0.000    0.000    0.000 
#    0.000    0.000    0.000    0.000    0.000    0.000 
#
# Total GULP energy -156506.075625 kJ/mol
# GULP energy per Si atom -5589.502701 kJ/mol
# Density = 1.979531 g / cm^3
# Si number density = 19.840467 Si / 1000 Ang^3
#
#
#
# Elastic Constant Matrix: (Units=GPa)
#
#
# Indices 1 2 3 4 5 6 
#
# 1 91.6726 -1.4750 31.5018 0.0900 -16.6700 -0.1209
# 2 -1.4750 2.5931 1.5476 0.0509 3.2315 -0.0715
# 3 31.5018 1.5476 137.1536 0.0745 -14.2713 -0.0957
# 4 0.0900 0.0509 0.0745 -26.5106 0.0118 82.9206
# 5 -16.6700 3.2315 -14.2713 0.0118 43.0962 -0.0155
# 6 -0.1209 -0.0715 -0.0957 82.9206 -0.0155 -121.6728
#
#
#
# Elastic Compliance Matrix: (Units=1/GPa)
#
#
# Indices 1 2 3 4 5 6 
#
# 1 0.012517 0.004021 -0.002535 -0.000003 0.003701 -0.000015
# 2 0.004021 0.436249 -0.009413 -0.000029 -0.034274 -0.000268
# 3 -0.002535 -0.009413 0.008235 -0.000001 0.002452 0.000000
# 4 -0.000003 -0.000029 -0.000001 0.033333 0.000000 0.022717
# 5 0.003701 -0.034274 0.002452 0.000000 0.028017 0.000011
# 6 -0.000015 -0.000268 0.000000 0.022717 0.000011 0.007263
#
#
# Mechanical properties :
#
#
# Convention : Reuss Voigt Hill
#
# Bulk Modulus (GPa) = 2.26682 32.72979 17.49830
# Shear Modulus (GPa) = 7.26198 -7.69444 -0.21623
#
# Velocity S-wave (km/s) = 1.91524 -1.97144 -0.33049
# Velocity P-wave (km/s) = 2.45680 3.36901 2.94839
#
# Compressibility (1/GPa) = 0.44114758
#
# Stress axis : x y z
#
# Youngs Moduli (GPa) = 79.88997 2.29227 121.43646
#
# Poissons Ratio (x) = -0.00922 0.30788
# Poissons Ratio (y) = -0.32123 1.14302
# Poissons Ratio (z) = 0.20254 0.02158
#
# Static dielectric constant tensor:
#      x y z
#    x 1.674740 0.000000 0.020880 
#    y 0.000000 1.700570 0.000000 
#    z 0.020880 0.000000 1.668310 
# 
# From -- ./inp_files/275628.got.cif
#   From: 2010.05.17/outbox.cif.g08.bks.cpg/sg12_138_cif.got.tgz:275628.got - 2010.06.03 13:09:07.
