data_PCOD9198375
_publ_section_title
;
Structure prediction by ZEFSAII (Michael W. Deem and Ramdas Pophale) SiO2 
 PCOD9198375
Probable space group: C 2/M
;
_chemical_formula_sum "Si O2"
_cell_formula_units_Z 48
_cell_length_a 19.566323
_cell_length_b 7.576130
_cell_length_c 23.165850
_cell_angle_alpha 90.000000
_cell_angle_beta 40.800361
_cell_angle_gamma 90.000000
_cell_volume 2243.886427
_symmetry_space_group_name_H-M "C 2/M"
_symmetry_group_IT_number 12
_symmetry_cell_setting 'monoclinic'
loop_
_space_group_symop_operation_xyz
x,y,z
-x,y,-z
-x,-y,-z
x,-y,z
1/2+x,1/2+y,z
1/2-x,1/2+y,-z
1/2-x,1/2-y,-z
1/2+x,1/2-y,z
loop_
_atom_site_type_symbol
_atom_site_label
_atom_site_fract_x
_atom_site_fract_y
_atom_site_fract_z
Si Si1 0.123547 0.796798 0.929630
Si Si2 0.026993 0.716012 0.417702
Si Si3 0.069988 0.211612 0.752573
Si Si4 0.363818 0.712432 0.951225
Si Si5 0.372867 0.791972 0.415519
Si Si6 0.732926 0.716402 0.744439
O O1 0.176617 0.721191 0.838822
O O2 0.162964 0.000000 0.907904
O O3 0.137665 0.713449 0.983003
O O4 0.000000 0.803194 0.000000
O O5 0.024455 0.500000 0.418755
O O6 0.146608 0.769470 0.330663
O O7 0.000000 0.771027 0.500000
O O8 0.945975 0.780869 0.420537
O O9 0.086610 0.248299 0.674536
O O10 0.166493 0.274554 0.730973
O O11 0.960504 0.277100 0.850122
O O12 0.068921 0.000000 0.758344
O O13 0.378515 0.500000 0.946048
O O14 0.250000 0.750000 0.000000
O O15 0.250000 0.750000 0.500000
O O16 0.380787 0.000000 0.416269
O O17 0.730265 0.500000 0.745053
#
# Coordination Sequence:
#
# PCOD9198375 Si02
#       6
#     8   8   8   8   8   8
#     4   9  15  28  50  78 105 137 187 233 266 304
#     4   9  18  32  52  80 105 130 174 228 273 311
#     4  10  20  36  57  82 112 146 181 225 281 329
#     4  10  21  34  53  81 114 150 186 228 275 324
#     4  11  23  38  59  85 112 143 177 220 274 332
#     4   9  16  29  53  79 105 138 182 235 274 306
#
# _framework density 21.391458
#
# number of rings (size 3 to 8) (size 9 to 14) (size 15 to 20)
#    0.000    2.333    1.667    1.500    2.333    3.333 
#    0.000    0.000    0.000   10.500    0.000    0.000 
#    0.000    0.000    0.000    0.000    0.000    0.000 
#
# Total GULP energy -133933.811229 kJ/mol
# GULP energy per Si atom -5580.575468 kJ/mol
# Density = 2.134277 g / cm^3
# Si number density = 21.391458 Si / 1000 Ang^3
#
#
#
# Elastic Constant Matrix: (Units=GPa)
#
#
# Indices 1 2 3 4 5 6 
#
# 1 227.2768 6.9567 126.6378 0.0000 13.6905 0.0000
# 2 6.9567 50.0384 5.5007 -0.0001 0.3845 0.0002
# 3 126.6378 5.5007 196.7943 0.0000 13.2882 0.0000
# 4 0.0000 -0.0001 0.0000 4.8913 0.0000 -2.6152
# 5 13.6905 0.3845 13.2882 0.0000 40.8095 0.0000
# 6 0.0000 0.0002 0.0000 -2.6152 0.0000 6.0459
#
#
#
# Elastic Compliance Matrix: (Units=1/GPa)
#
#
# Indices 1 2 3 4 5 6 
#
# 1 0.006902 -0.000473 -0.004368 0.000000 -0.000889 0.000000
# 2 -0.000473 0.020079 -0.000261 0.000000 0.000054 0.000000
# 3 -0.004368 -0.000261 0.007976 0.000000 -0.001129 0.000000
# 4 0.000000 0.000000 0.000000 0.265952 0.000000 0.115040
# 5 -0.000889 0.000054 -0.001129 0.000000 0.025169 0.000000
# 6 0.000000 0.000000 0.000000 0.115040 0.000000 0.215164
#
#
# Mechanical properties :
#
#
# Convention : Reuss Voigt Hill
#
# Bulk Modulus (GPa) = 40.39857 83.58886 61.99371
# Shear Modulus (GPa) = 8.93342 32.68362 20.80852
#
# Velocity S-wave (km/s) = 2.04578 3.91305 3.12228
# Velocity P-wave (km/s) = 4.95042 7.71859 6.48395
#
# Compressibility (1/GPa) = 0.02475335
#
# Stress axis : x y z
#
# Youngs Moduli (GPa) = 144.88931 49.80430 125.37775
#
# Poissons Ratio (x) = 0.02353 0.54767
# Poissons Ratio (y) = 0.06846 0.03270
# Poissons Ratio (z) = 0.63290 0.01299
#
# Static dielectric constant tensor:
#      x y z
#    x 1.722010 0.000000 0.002780 
#    y 0.000000 1.847410 0.000000 
#    z 0.002780 0.000000 1.789900 
# 
# From -- ./inp_files/315207.got.cif
#   From: 2010.05.17/outbox.cif.g08.bks.cpg/sg12_158_cif.got.tgz:315207.got - 2010.06.03 13:09:07.
