data_PCOD9198304
_publ_section_title
;
Structure prediction by ZEFSAII (Michael W. Deem and Ramdas Pophale) SiO2 
 PCOD9198304
Probable space group: C 2/M
;
_chemical_formula_sum "Si O2"
_cell_formula_units_Z 56
_cell_length_a 19.144636
_cell_length_b 8.570617
_cell_length_c 25.912638
_cell_angle_alpha 90.000000
_cell_angle_beta 40.463136
_cell_angle_gamma 90.000000
_cell_volume 2759.229778
_symmetry_space_group_name_H-M "C 2/M"
_symmetry_group_IT_number 12
_symmetry_cell_setting 'monoclinic'
loop_
_space_group_symop_operation_xyz
x,y,z
-x,y,-z
-x,-y,-z
x,-y,z
1/2+x,1/2+y,z
1/2-x,1/2+y,-z
1/2-x,1/2-y,-z
1/2+x,1/2-y,z
loop_
_atom_site_type_symbol
_atom_site_label
_atom_site_fract_x
_atom_site_fract_y
_atom_site_fract_z
Si Si1 0.161144 0.316787 0.684956
Si Si2 0.677246 0.187080 0.263602
Si Si3 0.038030 0.183300 0.248696
Si Si4 0.210350 0.317334 0.076882
Si Si5 0.918001 0.682751 0.000269
Si Si6 0.618276 0.187695 0.414844
Si Si7 0.089044 0.184436 0.834146
O O1 0.155629 0.500000 0.698806
O O2 0.284557 0.266331 0.608360
O O3 0.121412 0.221752 0.757579
O O4 0.075804 0.271950 0.689116
O O5 0.608922 0.270082 0.258208
O O6 0.634833 0.225445 0.344970
O O7 0.804188 0.226906 0.192950
O O8 0.668967 0.000000 0.261269
O O9 0.108248 0.233327 0.159343
O O10 0.019157 0.000000 0.258070
O O11 0.188874 0.500000 0.084417
O O12 0.250000 0.250000 0.000000
O O13 0.311057 0.284638 0.058255
O O14 0.889404 0.500000 0.019634
O O15 0.987620 0.717763 0.910041
O O16 0.000000 0.722817 0.000000
O O17 0.500000 0.233570 0.500000
O O18 0.628828 0.000000 0.413822
O O19 0.067457 0.000000 0.852219
#
# Coordination Sequence:
#
# PCOD9198304 Si02
#       7
#     8   8   8   8   8   8   8
#     4  11  22  37  59  85 114 148 188 230 275 332
#     4   9  19  36  59  87 117 150 188 231 283 339
#     4  12  24  39  58  82 115 152 194 239 286 338
#     4  12  25  41  59  80 111 150 194 242 294 345
#     4  11  23  37  54  79 110 144 187 238 288 337
#     4   9  19  39  66  93 121 151 184 226 278 337
#     4  10  20  36  57  80 109 146 189 235 284 339
#
# _framework density 20.295518999999999
#
# number of rings (size 3 to 8) (size 9 to 14) (size 15 to 20)
#    0.000    1.429    0.000    7.286    0.000    6.571 
#    0.000    0.714    0.000    0.000    0.000    0.000 
#    0.000    0.000    0.000    0.000    0.000    0.000 
#
# Total GULP energy -156618.246261 kJ/mol
# GULP energy per Si atom -5593.508795 kJ/mol
# Density = 2.024933 g / cm^3
# Si number density = 20.295519 Si / 1000 Ang^3
#
#
#
# Elastic Constant Matrix: (Units=GPa)
#
#
# Indices 1 2 3 4 5 6 
#
# 1 86.7598 22.2925 15.0555 0.0000 -21.1883 -0.0001
# 2 22.2925 40.4943 9.3021 0.0000 -8.5617 -0.0003
# 3 15.0555 9.3021 80.1724 0.0000 -23.6134 0.0000
# 4 0.0000 0.0000 0.0000 25.2097 0.0000 -3.5874
# 5 -21.1883 -8.5617 -23.6134 0.0000 28.2464 0.0000
# 6 -0.0001 -0.0003 0.0000 -3.5874 0.0000 35.5698
#
#
#
# Elastic Compliance Matrix: (Units=1/GPa)
#
#
# Indices 1 2 3 4 5 6 
#
# 1 0.015622 -0.006594 0.000921 0.000000 0.010490 0.000000
# 2 -0.006594 0.029222 -0.001327 0.000000 0.002802 0.000000
# 3 0.000921 -0.001327 0.016635 0.000000 0.014195 0.000000
# 4 0.000000 0.000000 0.000000 0.040245 0.000000 0.004059
# 5 0.010490 0.002802 0.014195 0.000000 0.055988 0.000000
# 6 0.000000 0.000000 0.000000 0.004059 0.000000 0.028523
#
#
# Mechanical properties :
#
#
# Convention : Reuss Voigt Hill
#
# Bulk Modulus (GPa) = 21.06165 33.41408 27.23787
# Shear Modulus (GPa) = 23.14149 28.52358 25.83254
#
# Velocity S-wave (km/s) = 3.38039 3.75295 3.57153
# Velocity P-wave (km/s) = 5.06320 5.93962 5.51883
#
# Compressibility (1/GPa) = 0.04747965
#
# Stress axis : x y z
#
# Youngs Moduli (GPa) = 64.01065 34.22066 60.11371
#
# Poissons Ratio (x) = 0.22565 -0.05537
# Poissons Ratio (y) = 0.42208 0.07978
# Poissons Ratio (z) = -0.05896 0.04541
#
# Static dielectric constant tensor:
#      x y z
#    x 1.772750 0.000000 0.001210 
#    y 0.000000 1.666610 0.000000 
#    z 0.001210 0.000000 1.708590 
# 
# From -- ./inp_files/362925.got.cif
#   From: 2010.05.17/outbox.cif.g08.bks.cpg/sg12_182_cif.got.tgz:362925.got - 2010.06.03 13:09:07.
