data_PCOD9198924
_publ_section_title
;
Structure prediction by ZEFSAII (Michael W. Deem and Ramdas Pophale) SiO2 
 PCOD9198924
Probable space group: C 2/M
;
_chemical_formula_sum "Si O2"
_cell_formula_units_Z 44
_cell_length_a 33.396599
_cell_length_b 10.427938
_cell_length_c 21.096301
_cell_angle_alpha 90.000000
_cell_angle_beta 18.229658
_cell_angle_gamma 90.000000
_cell_volume 2298.320997
_symmetry_space_group_name_H-M "C 2/M"
_symmetry_group_IT_number 12
_symmetry_cell_setting 'monoclinic'
loop_
_space_group_symop_operation_xyz
x,y,z
-x,y,-z
-x,-y,-z
x,-y,z
1/2+x,1/2+y,z
1/2-x,1/2+y,-z
1/2-x,1/2-y,-z
1/2+x,1/2-y,z
loop_
_atom_site_type_symbol
_atom_site_label
_atom_site_fract_x
_atom_site_fract_y
_atom_site_fract_z
Si Si1 0.397042 0.500000 0.352033
Si Si2 0.009570 0.766665 0.702830
Si Si3 0.269649 0.264000 0.255883
Si Si4 0.354615 0.000000 0.195106
Si Si5 0.958023 0.000000 0.990722
Si Si6 0.147321 0.853411 0.176382
Si Si7 0.253610 0.148967 0.145978
O O1 0.460106 0.377050 0.291738
O O2 0.247312 0.500000 0.594078
O O3 0.427756 0.500000 0.231948
O O4 0.143065 0.698496 0.485930
O O5 0.969530 0.831175 0.695663
O O6 0.890908 0.683459 0.907067
O O7 0.322812 0.128981 0.203525
O O8 0.373740 0.374196 0.104862
O O9 0.237171 0.238005 0.231346
O O10 0.500000 0.000000 0.000000
O O11 0.000000 0.000000 0.000000
O O12 0.191632 0.000000 0.100501
O O13 0.250000 0.750000 0.000000
O O14 0.144707 0.834861 0.255920
O O15 0.253126 0.000000 0.165814
#
# Coordination Sequence:
#
# PCOD9198924 Si02
#       7
#     4   8   8   4   4   8   8
#     4  10  20  40  67  85 113 163 191 239 310 364
#     4  10  20  37  61  88 122 162 202 236 300 354
#     4  11  23  40  64  87 121 158 198 253 302 362
#     4  10  22  44  63  91 117 151 197 245 302 378
#     4  12  26  46  62  91 119 151 203 260 319 373
#     4   9  18  32  57  89 126 164 205 247 282 349
#     4  10  20  36  58  90 125 161 203 246 291 345
#
# _framework density 19.144410000000001
#
# number of rings (size 3 to 8) (size 9 to 14) (size 15 to 20)
#    0.000    1.818    3.636    0.545    1.273    0.727 
#    3.273    4.545    0.000    1.091    0.000    0.000 
#    0.000    0.000    0.000    0.000    0.000    0.000 
#
# Total GULP energy -122696.474899 kJ/mol
# GULP energy per Si atom -5577.112495 kJ/mol
# Density = 1.910084 g / cm^3
# Si number density = 19.144410 Si / 1000 Ang^3
#
#
#
# Elastic Constant Matrix: (Units=GPa)
#
#
# Indices 1 2 3 4 5 6 
#
# 1 114.8054 19.3441 32.5000 0.0000 21.1742 0.0000
# 2 19.3441 71.9559 18.4941 0.0000 9.4425 0.0000
# 3 32.5000 18.4941 86.8528 0.0000 10.0624 0.0000
# 4 0.0000 0.0000 0.0000 16.9841 0.0000 5.6625
# 5 21.1742 9.4425 10.0624 0.0000 23.6789 0.0000
# 6 0.0000 0.0000 0.0000 5.6625 0.0000 24.5879
#
#
#
# Elastic Compliance Matrix: (Units=1/GPa)
#
#
# Indices 1 2 3 4 5 6 
#
# 1 0.011302 -0.001167 -0.003012 0.000000 -0.008361 0.000000
# 2 -0.001167 0.015353 -0.002360 0.000000 -0.004076 0.000000
# 3 -0.003012 -0.002360 0.013381 0.000000 -0.002052 0.000000
# 4 0.000000 0.000000 0.000000 0.063776 0.000000 -0.014687
# 5 -0.008361 -0.004076 -0.002052 0.000000 0.052205 0.000000
# 6 0.000000 0.000000 0.000000 -0.014687 0.000000 0.044053
#
#
# Mechanical properties :
#
#
# Convention : Reuss Voigt Hill
#
# Bulk Modulus (GPa) = 37.09596 46.03228 41.56412
# Shear Modulus (GPa) = 22.50902 26.60190 24.55546
#
# Velocity S-wave (km/s) = 3.43264 3.73170 3.58529
# Velocity P-wave (km/s) = 5.92703 6.53180 6.23675
#
# Compressibility (1/GPa) = 0.02695712
#
# Stress axis : x y z
#
# Youngs Moduli (GPa) = 88.48214 65.13558 74.73251
#
# Poissons Ratio (x) = 0.07601 0.22509
# Poissons Ratio (y) = 0.10326 0.17639
# Poissons Ratio (z) = 0.26650 0.15374
#
# Static dielectric constant tensor:
#      x y z
#    x 1.685590 0.000000 -0.002690 
#    y 0.000000 1.619600 0.000000 
#    z -0.002690 0.000000 1.669820 
# 
# From -- ./inp_files/296422.got.cif
#   From: 2010.05.17/outbox.cif.g08.bks.cpg/sg12_149_cif.got.tgz:296422.got - 2010.06.03 13:09:07.
