data_PCOD9198497
_publ_section_title
;
Structure prediction by ZEFSAII (Michael W. Deem and Ramdas Pophale) SiO2 
 PCOD9198497
Probable space group: C 2/M
;
_chemical_formula_sum "Si O2"
_cell_formula_units_Z 64
_cell_length_a 11.794736
_cell_length_b 26.388778
_cell_length_c 15.743856
_cell_angle_alpha 90.000000
_cell_angle_beta 140.996078
_cell_angle_gamma 90.000000
_cell_volume 3084.090586
_symmetry_space_group_name_H-M "C 2/M"
_symmetry_group_IT_number 12
_symmetry_cell_setting 'monoclinic'
loop_
_space_group_symop_operation_xyz
x,y,z
-x,y,-z
-x,-y,-z
x,-y,z
1/2+x,1/2+y,z
1/2-x,1/2+y,-z
1/2-x,1/2-y,-z
1/2+x,1/2-y,z
loop_
_atom_site_type_symbol
_atom_site_label
_atom_site_fract_x
_atom_site_fract_y
_atom_site_fract_z
Si Si1 0.066866 0.349534 0.177639
Si Si2 0.593666 0.673466 0.718590
Si Si3 0.302434 0.057070 0.043927
Si Si4 0.747181 0.442656 0.202386
Si Si5 0.840409 0.263130 0.961613
Si Si6 0.397971 0.099194 0.529374
Si Si7 0.773456 0.304862 0.558717
Si Si8 0.455530 0.594466 0.761411
O O1 0.247576 0.359436 0.229704
O O2 0.128556 0.314941 0.294362
O O3 0.955772 0.400230 0.131367
O O4 0.936865 0.315130 0.045423
O O5 0.434685 0.678322 0.559110
O O6 0.511309 0.648371 0.755170
O O7 0.683934 0.725738 0.802107
O O8 0.206052 0.062016 0.079707
O O9 0.374019 0.000000 0.078888
O O10 0.142794 0.065457 0.883142
O O11 0.705000 0.500000 0.206728
O O12 0.644094 0.405262 0.205656
O O13 0.962254 0.433530 0.335014
O O14 0.750000 0.250000 0.000000
O O15 0.000000 0.234661 0.000000
O O16 0.500000 0.104933 0.500000
O O17 0.369198 0.154157 0.553462
O O18 0.201768 0.075574 0.394301
O O19 0.750000 0.250000 0.500000
#
# Coordination Sequence:
#
# PCOD9198497 Si02
#       8
#     8   8   8   8   8   8   8   8
#     4  11  22  41  64  86 128 168 203 259 316 366
#     4  10  22  40  61  87 124 163 205 256 314 367
#     4  11  22  38  62  90 123 165 215 258 312 377
#     4  10  20  37  60  88 123 161 203 260 320 372
#     4  10  21  41  63  91 126 164 208 257 318 383
#     4   9  20  36  57  88 123 156 195 255 310 376
#     4  11  22  39  64  92 119 157 211 251 314 378
#     4  10  20  36  57  87 122 158 205 251 308 368
#
# _framework density 20.751660999999999
#
# number of rings (size 3 to 8) (size 9 to 14) (size 15 to 20)
#    0.000    1.750    2.500    1.875    0.000    4.750 
#    2.250    4.375    0.000    2.250    0.000    0.000 
#    0.000    0.000    0.000    0.000    0.000    0.000 
#
# Total GULP energy -178157.917662 kJ/mol
# GULP energy per Si atom -5567.434927 kJ/mol
# Density = 2.070443 g / cm^3
# Si number density = 20.751661 Si / 1000 Ang^3
#
#
#
# Elastic Constant Matrix: (Units=GPa)
#
#
# Indices 1 2 3 4 5 6 
#
# 1 92.9977 38.9465 18.2429 0.0000 8.8950 0.0000
# 2 38.9465 63.0392 24.3657 0.0000 -1.6668 0.0000
# 3 18.2429 24.3657 109.6057 0.0000 1.1000 0.0000
# 4 0.0000 0.0000 0.0000 21.1561 0.0000 -0.4349
# 5 8.8950 -1.6668 1.1000 0.0000 32.9788 0.0000
# 6 0.0000 0.0000 0.0000 -0.4349 0.0000 19.1475
#
#
#
# Elastic Compliance Matrix: (Units=1/GPa)
#
#
# Indices 1 2 3 4 5 6 
#
# 1 0.015180 -0.009343 -0.000404 0.000000 -0.004553 0.000000
# 2 -0.009343 0.023138 -0.003627 0.000000 0.003810 0.000000
# 3 -0.000404 -0.003627 0.010001 0.000000 -0.000408 0.000000
# 4 0.000000 0.000000 0.000000 0.047290 0.000000 0.001074
# 5 -0.004553 0.003810 -0.000408 0.000000 0.031757 0.000000
# 6 0.000000 0.000000 0.000000 0.001074 0.000000 0.052250
#
#
# Mechanical properties :
#
#
# Convention : Reuss Voigt Hill
#
# Bulk Modulus (GPa) = 46.35626 47.63921 46.99774
# Shear Modulus (GPa) = 23.41319 26.92898 25.17109
#
# Velocity S-wave (km/s) = 3.36260 3.60624 3.48655
# Velocity P-wave (km/s) = 6.12071 6.35190 6.23738
#
# Compressibility (1/GPa) = 0.02157206
#
# Stress axis : x y z
#
# Youngs Moduli (GPa) = 65.87424 43.21904 99.98793
#
# Poissons Ratio (x) = 0.40379 0.04039
# Poissons Ratio (y) = 0.61546 0.36264
# Poissons Ratio (z) = 0.02661 0.15675
#
# Static dielectric constant tensor:
#      x y z
#    x 1.804330 0.000000 0.013660 
#    y 0.000000 1.730120 0.000000 
#    z 0.013660 0.000000 1.815540 
# 
# From -- ./inp_files/209869.got.cif
#   From: 2010.05.17/outbox.cif.g08.bks.cpg/sg12_105_cif.got.tgz:209869.got - 2010.06.03 13:09:07.
