data_PCOD9198911
_publ_section_title
;
Structure prediction by ZEFSAII (Michael W. Deem and Ramdas Pophale) SiO2 
 PCOD9198911
Probable space group: C 2/M
;
_chemical_formula_sum "Si O2"
_cell_formula_units_Z 56
_cell_length_a 11.372120
_cell_length_b 17.396616
_cell_length_c 15.923613
_cell_angle_alpha 90.000000
_cell_angle_beta 52.817044
_cell_angle_gamma 90.000000
_cell_volume 2509.851054
_symmetry_space_group_name_H-M "C 2/M"
_symmetry_group_IT_number 12
_symmetry_cell_setting 'monoclinic'
loop_
_space_group_symop_operation_xyz
x,y,z
-x,y,-z
-x,-y,-z
x,-y,z
1/2+x,1/2+y,z
1/2-x,1/2+y,-z
1/2-x,1/2-y,-z
1/2+x,1/2-y,z
loop_
_atom_site_type_symbol
_atom_site_label
_atom_site_fract_x
_atom_site_fract_y
_atom_site_fract_z
Si Si1 0.915503 0.352055 0.451001
Si Si2 0.828361 0.633031 0.775308
Si Si3 0.985907 0.086574 0.098757
Si Si4 0.372257 0.817333 0.938705
Si Si5 0.784498 0.091339 0.861376
Si Si6 0.788137 0.706421 0.243419
Si Si7 0.356271 0.322794 0.518846
O O1 0.743774 0.368725 0.504800
O O2 0.912532 0.258013 0.455013
O O3 0.000000 0.374815 0.500000
O O4 0.017567 0.385838 0.333895
O O5 0.686784 0.585930 0.807494
O O6 0.837762 0.632888 0.870993
O O7 0.788989 0.719268 0.762662
O O8 0.075826 0.115195 0.140384
O O9 0.044832 0.000000 0.061731
O O10 0.000000 0.125725 0.000000
O O11 0.538243 0.788026 0.852970
O O12 0.250000 0.750000 0.000000
O O13 0.349248 0.872437 0.027600
O O14 0.779615 0.132986 0.774519
O O15 0.777650 0.000000 0.856267
O O16 0.752573 0.700234 0.357097
O O17 0.500000 0.360016 0.500000
#
# Coordination Sequence:
#
# PCOD9198911 Si02
#       7
#     8   8   8   8   8   8   8
#     4  10  20  36  58  89 125 161 204 260 328 380
#     4  12  22  35  62  94 123 161 210 265 315 377
#     4  10  22  40  61  87 125 173 216 254 310 379
#     4  12  24  37  56  92 133 164 210 261 312 372
#     4  11  25  43  62  88 131 179 214 253 312 388
#     4  12  24  37  61  94 128 166 213 260 319 380
#     4  10  20  37  57  88 128 164 201 264 320 383
#
# _framework density 22.312080999999999
#
# number of rings (size 3 to 8) (size 9 to 14) (size 15 to 20)
#    0.000    1.000    7.143    1.286    0.000    2.286 
#    0.000    0.000    0.000    0.857    0.000    0.000 
#    0.000    0.000    0.000    0.000    0.000    0.000 
#
# Total GULP energy -156323.083670 kJ/mol
# GULP energy per Si atom -5582.967274 kJ/mol
# Density = 2.226130 g / cm^3
# Si number density = 22.312081 Si / 1000 Ang^3
#
#
#
# Elastic Constant Matrix: (Units=GPa)
#
#
# Indices 1 2 3 4 5 6 
#
# 1 146.8323 5.6037 23.6835 0.0000 -16.1873 0.0000
# 2 5.6037 61.3505 0.7686 0.0000 5.5484 0.0000
# 3 23.6835 0.7686 78.7831 -0.0001 -1.2560 0.0001
# 4 0.0000 0.0000 -0.0001 5.7589 0.0000 2.7326
# 5 -16.1873 5.5484 -1.2560 0.0000 44.8924 0.0000
# 6 0.0000 0.0000 0.0001 2.7326 0.0000 15.7086
#
#
#
# Elastic Compliance Matrix: (Units=1/GPa)
#
#
# Indices 1 2 3 4 5 6 
#
# 1 0.007504 -0.000907 -0.002203 0.000000 0.002756 0.000000
# 2 -0.000907 0.016597 0.000073 0.000000 -0.002376 0.000000
# 3 -0.002203 0.000073 0.013348 0.000000 -0.000430 0.000000
# 4 0.000000 0.000000 0.000000 0.189268 0.000000 -0.032925
# 5 0.002756 -0.002376 -0.000430 0.000000 0.023551 0.000000
# 6 0.000000 0.000000 0.000000 -0.032925 0.000000 0.069387
#
#
# Mechanical properties :
#
#
# Convention : Reuss Voigt Hill
#
# Bulk Modulus (GPa) = 31.87344 38.56416 35.21880
# Shear Modulus (GPa) = 14.87266 30.39931 22.63599
#
# Velocity S-wave (km/s) = 2.58461 3.69516 3.18860
# Velocity P-wave (km/s) = 4.81905 5.96046 5.41989
#
# Compressibility (1/GPa) = 0.03137408
#
# Stress axis : x y z
#
# Youngs Moduli (GPa) = 133.25623 60.25316 74.91866
#
# Poissons Ratio (x) = 0.05466 0.16506
# Poissons Ratio (y) = 0.12088 -0.00546
# Poissons Ratio (z) = 0.29358 -0.00439
#
# Static dielectric constant tensor:
#      x y z
#    x 1.926910 0.000000 -0.028610 
#    y 0.000000 1.809260 0.000000 
#    z -0.028610 0.000000 1.830590 
# 
# From -- ./inp_files/264204.got.cif
#   From: 2010.05.17/outbox.cif.g08.bks.cpg/sg12_133_cif.got.tgz:264204.got - 2010.06.03 13:09:07.
