data_PCOD9198215
_publ_section_title
;
Structure prediction by ZEFSAII (Michael W. Deem and Ramdas Pophale) SiO2 
 PCOD9198215
Probable space group: C 2/M
;
_chemical_formula_sum "Si O2"
_cell_formula_units_Z 56
_cell_length_a 11.302654
_cell_length_b 23.843132
_cell_length_c 20.587204
_cell_angle_alpha 90.000000
_cell_angle_beta 148.568457
_cell_angle_gamma 90.000000
_cell_volume 2893.199019
_symmetry_space_group_name_H-M "C 2/M"
_symmetry_group_IT_number 12
_symmetry_cell_setting 'monoclinic'
loop_
_space_group_symop_operation_xyz
x,y,z
-x,y,-z
-x,-y,-z
x,-y,z
1/2+x,1/2+y,z
1/2-x,1/2+y,-z
1/2-x,1/2-y,-z
1/2+x,1/2-y,z
loop_
_atom_site_type_symbol
_atom_site_label
_atom_site_fract_x
_atom_site_fract_y
_atom_site_fract_z
Si Si1 0.056574 0.789681 0.758615
Si Si2 0.656663 0.170501 0.757729
Si Si3 0.086738 0.934865 0.645406
Si Si4 0.644405 0.934019 0.364833
Si Si5 0.076196 0.633216 0.109188
Si Si6 0.619239 0.211144 0.490491
Si Si7 0.351045 0.687648 0.051879
O O1 0.051024 0.721926 0.750791
O O2 0.289969 0.807691 0.833631
O O3 0.070805 0.813044 0.836927
O O4 0.839212 0.818563 0.623842
O O5 0.559340 0.110056 0.730582
O O6 0.566000 0.181705 0.641474
O O7 0.928006 0.175452 0.886928
O O8 0.229833 0.930779 0.645593
O O9 0.237059 0.906034 0.770776
O O10 0.833830 0.915029 0.506890
O O11 0.061696 0.000000 0.650028
O O12 0.587444 0.000000 0.349068
O O13 0.000000 0.617353 0.000000
O O14 0.854691 0.643533 0.049174
O O15 0.500000 0.236055 0.500000
O O16 0.750000 0.250000 0.500000
O O17 0.250000 0.750000 0.000000
#
# Coordination Sequence:
#
# PCOD9198215 Si02
#       7
#     8   8   8   8   8   8   8
#     4  10  21  36  53  82 118 152 199 243 289 361
#     4  11  21  35  59  84 114 161 191 246 305 361
#     4   9  19  40  64  86 115 149 197 259 307 359
#     4   9  20  39  63  90 113 145 200 261 316 356
#     4  10  21  36  56  85 118 158 200 241 291 361
#     4  10  20  36  56  85 121 153 198 251 307 363
#     4  11  22  36  52  78 121 161 193 233 285 363
#
# _framework density 19.355737999999999
#
# number of rings (size 3 to 8) (size 9 to 14) (size 15 to 20)
#    0.000    2.000    2.857    1.714    2.000    0.286 
#   12.857    0.714    0.000    3.000    0.000    0.000 
#    0.000    0.000    0.000    0.000    0.000    0.000 
#
# Total GULP energy -155892.690363 kJ/mol
# GULP energy per Si atom -5567.596084 kJ/mol
# Density = 1.931168 g / cm^3
# Si number density = 19.355738 Si / 1000 Ang^3
#
#
#
# Elastic Constant Matrix: (Units=GPa)
#
#
# Indices 1 2 3 4 5 6 
#
# 1 56.8743 19.8051 14.7685 0.0009 18.5581 0.0004
# 2 19.8051 66.5213 24.8521 0.0163 11.4772 0.0023
# 3 14.7685 24.8521 94.8815 0.0153 9.0953 0.0003
# 4 0.0009 0.0163 0.0153 31.3614 -0.0028 6.1173
# 5 18.5581 11.4772 9.0953 -0.0028 42.0816 -0.0001
# 6 0.0004 0.0023 0.0003 6.1173 -0.0001 16.6440
#
#
#
# Elastic Compliance Matrix: (Units=1/GPa)
#
#
# Indices 1 2 3 4 5 6 
#
# 1 0.022273 -0.004667 -0.001455 0.000002 -0.008235 -0.000001
# 2 -0.004667 0.018218 -0.003846 -0.000008 -0.002079 0.000001
# 3 -0.001455 -0.003846 0.011857 -0.000004 -0.000872 0.000002
# 4 0.000002 -0.000008 -0.000004 0.034349 0.000004 -0.012624
# 5 -0.008235 -0.002079 -0.000872 0.000004 0.028151 -0.000001
# 6 -0.000001 0.000001 0.000002 -0.012624 -0.000001 0.064722
#
#
# Mechanical properties :
#
#
# Convention : Reuss Voigt Hill
#
# Bulk Modulus (GPa) = 30.85297 37.45870 34.15583
# Shear Modulus (GPa) = 23.77465 28.60748 26.19107
#
# Velocity S-wave (km/s) = 3.50851 3.84863 3.68250
# Velocity P-wave (km/s) = 5.69100 6.25652 5.98045
#
# Compressibility (1/GPa) = 0.03241179
#
# Stress axis : x y z
#
# Youngs Moduli (GPa) = 44.89819 54.89138 84.33897
#
# Poissons Ratio (x) = 0.25616 0.12272
# Poissons Ratio (y) = 0.20953 0.32437
# Poissons Ratio (z) = 0.06533 0.21111
#
# Static dielectric constant tensor:
#      x y z
#    x 1.609620 0.000000 0.070110 
#    y 0.000000 1.671030 0.000000 
#    z 0.070110 0.000000 1.726670 
# 
# From -- ./inp_files/307249.got.cif
#   From: 2010.05.17/outbox.cif.g08.bks.cpg/sg12_154_cif.got.tgz:307249.got - 2010.06.03 13:09:07.
