data_PCOD9198979
_publ_section_title
;
Structure prediction by ZEFSAII (Michael W. Deem and Ramdas Pophale) SiO2 
 PCOD9198979
Probable space group: C 2/M
;
_chemical_formula_sum "Si O2"
_cell_formula_units_Z 64
_cell_length_a 24.042020
_cell_length_b 7.684583
_cell_length_c 29.084875
_cell_angle_alpha 90.000000
_cell_angle_beta 148.477943
_cell_angle_gamma 90.000000
_cell_volume 2809.417435
_symmetry_space_group_name_H-M "C 2/M"
_symmetry_group_IT_number 12
_symmetry_cell_setting 'monoclinic'
loop_
_space_group_symop_operation_xyz
x,y,z
-x,y,-z
-x,-y,-z
x,-y,z
1/2+x,1/2+y,z
1/2-x,1/2+y,-z
1/2-x,1/2-y,-z
1/2+x,1/2-y,z
loop_
_atom_site_type_symbol
_atom_site_label
_atom_site_fract_x
_atom_site_fract_y
_atom_site_fract_z
Si Si1 0.332839 0.712244 0.696318
Si Si2 0.919290 0.296255 0.135778
Si Si3 0.456886 0.213991 0.349874
Si Si4 0.699961 0.791126 0.514226
Si Si5 0.278506 0.798076 0.289526
Si Si6 0.829971 0.712743 0.170027
Si Si7 0.578541 0.197734 0.094353
Si Si8 0.607560 0.700951 0.981773
O O1 0.335125 0.500000 0.699653
O O2 0.454384 0.770754 0.779808
O O3 0.272395 0.769848 0.607593
O O4 0.270977 0.775660 0.698428
O O5 0.894186 0.500000 0.116449
O O6 0.882447 0.228295 0.159267
O O7 0.866459 0.212616 0.053726
O O8 0.578730 0.272058 0.434024
O O9 0.386255 0.274766 0.343334
O O10 0.395710 0.268887 0.260490
O O11 0.456376 0.000000 0.350042
O O12 0.750000 0.750000 0.500000
O O13 0.695860 0.000000 0.514795
O O14 0.186614 0.788809 0.185683
O O15 0.300225 0.000000 0.314746
O O16 0.829717 0.500000 0.169885
O O17 0.706807 0.766436 0.081395
O O18 0.500180 0.199494 0.083018
O O19 0.604103 0.000000 0.099446
O O20 0.500000 0.273736 0.000000
O O21 0.587164 0.500000 0.978277
#
# Coordination Sequence:
#
# PCOD9198979 Si02
#       8
#     8   8   8   8   8   8   8   8
#     4  10  21  36  56  86 117 149 191 240 286 340
#     4  11  21  35  56  81 113 153 190 233 289 343
#     4   9  18  35  58  84 112 147 192 237 280 337
#     4  10  21  38  61  88 119 150 190 238 287 344
#     4  10  20  36  59  83 112 151 194 237 286 337
#     4   9  19  33  52  80 111 146 192 238 284 338
#     4  11  23  37  54  80 115 153 195 239 284 339
#     4  11  21  35  55  80 111 147 192 241 284 337
#
# _framework density 22.780524
#
# number of rings (size 3 to 8) (size 9 to 14) (size 15 to 20)
#    0.000    1.875    1.250    3.000    0.000    4.000 
#    0.000    5.000    0.000    6.000    0.000    2.625 
#    0.000    0.000    0.000    0.000    0.000    0.000 
#
# Total GULP energy -178891.583779 kJ/mol
# GULP energy per Si atom -5590.361993 kJ/mol
# Density = 2.272867 g / cm^3
# Si number density = 22.780524 Si / 1000 Ang^3
#
#
#
# Elastic Constant Matrix: (Units=GPa)
#
#
# Indices 1 2 3 4 5 6 
#
# 1 107.9650 2.1781 26.5750 -0.0008 9.1129 0.0010
# 2 2.1781 50.5218 -3.2524 -0.0010 -0.8876 0.0018
# 3 26.5750 -3.2524 108.9122 -0.0004 2.8504 0.0005
# 4 -0.0008 -0.0010 -0.0004 0.1676 -0.0002 -8.7471
# 5 9.1129 -0.8876 2.8504 -0.0002 41.6841 0.0002
# 6 0.0010 0.0018 0.0005 -8.7471 0.0002 16.7540
#
#
#
# Elastic Compliance Matrix: (Units=1/GPa)
#
#
# Indices 1 2 3 4 5 6 
#
# 1 0.010042 -0.000624 -0.002415 0.000000 -0.002043 -0.000001
# 2 -0.000624 0.019876 0.000733 0.000000 0.000510 -0.000002
# 3 -0.002415 0.000733 0.009796 0.000000 -0.000126 0.000000
# 4 0.000000 0.000000 0.000000 -0.227318 0.000000 -0.118681
# 5 -0.002043 0.000510 -0.000126 0.000000 0.024456 0.000000
# 6 -0.000001 -0.000002 0.000000 -0.118681 0.000000 -0.002275
#
#
# Mechanical properties :
#
#
# Convention : Reuss Voigt Hill
#
# Bulk Modulus (GPa) = 28.48983 35.37782 31.93382
# Shear Modulus (GPa) = -33.53282 27.84770 -2.84256
#
# Velocity S-wave (km/s) = -3.84082 3.50013 -1.11826
# Velocity P-wave (km/s) = 2.67130 5.64784 3.51868
#
# Compressibility (1/GPa) = 0.03510025
#
# Stress axis : x y z
#
# Youngs Moduli (GPa) = 99.58295 50.31073 102.07977
#
# Poissons Ratio (x) = 0.03141 0.24657
# Poissons Ratio (y) = 0.06217 -0.07478
# Poissons Ratio (z) = 0.24053 -0.03686
#
# Static dielectric constant tensor:
#      x y z
#    x 1.883100 0.000000 -0.008530 
#    y 0.000000 1.845940 0.000000 
#    z -0.008530 0.000000 1.807230 
# 
# From -- ./inp_files/238602.got.cif
#   From: 2010.05.17/outbox.cif.g08.bks.cpg/sg12_120_cif.got.tgz:238602.got - 2010.06.03 13:09:07.
