data_PCOD9198309
_publ_section_title
;
Structure prediction by ZEFSAII (Michael W. Deem and Ramdas Pophale) SiO2 
 PCOD9198309
Probable space group: C 2/M
;
_chemical_formula_sum "Si O2"
_cell_formula_units_Z 64
_cell_length_a 32.780572
_cell_length_b 8.528890
_cell_length_c 18.627713
_cell_angle_alpha 90.000000
_cell_angle_beta 139.342576
_cell_angle_gamma 90.000000
_cell_volume 3393.174828
_symmetry_space_group_name_H-M "C 2/M"
_symmetry_group_IT_number 12
_symmetry_cell_setting 'monoclinic'
loop_
_space_group_symop_operation_xyz
x,y,z
-x,y,-z
-x,-y,-z
x,-y,z
1/2+x,1/2+y,z
1/2-x,1/2+y,-z
1/2-x,1/2-y,-z
1/2+x,1/2-y,z
loop_
_atom_site_type_symbol
_atom_site_label
_atom_site_fract_x
_atom_site_fract_y
_atom_site_fract_z
Si Si1 0.039014 0.812865 0.482513
Si Si2 0.293314 0.689531 0.659713
Si Si3 0.401088 0.687713 0.086904
Si Si4 0.180449 0.688278 0.891117
Si Si5 0.194532 0.191211 0.162746
Si Si6 0.026037 0.312524 0.309395
Si Si7 0.841986 0.688992 0.577502
Si Si8 0.831972 0.310718 0.290797
O O1 0.014645 0.744418 0.375269
O O2 0.110827 0.762019 0.589482
O O3 0.000000 0.756552 0.500000
O O4 0.034366 0.000000 0.473402
O O5 0.295088 0.500000 0.659784
O O6 0.313794 0.741090 0.766139
O O7 0.221169 0.738505 0.548531
O O8 0.333819 0.754042 0.648095
O O9 0.403130 0.500000 0.087847
O O10 0.365561 0.741133 0.111449
O O11 0.470889 0.752985 0.184705
O O12 0.359286 0.743539 0.963807
O O13 0.180010 0.500000 0.895359
O O14 0.162478 0.731567 0.785741
O O15 0.250000 0.750000 0.000000
O O16 0.263424 0.238363 0.226946
O O17 0.194338 0.000000 0.161416
O O18 0.026186 0.500000 0.309685
O O19 0.094093 0.255486 0.373676
O O20 0.842737 0.500000 0.577833
O O21 0.835555 0.500000 0.302013
#
# Coordination Sequence:
#
# PCOD9198309 Si02
#       8
#     8   8   8   8   8   8   8   8
#     4  11  24  39  55  81 114 146 182 234 286 326
#     4   9  17  33  60  86 109 139 180 227 278 340
#     4  11  22  38  57  80 114 151 191 241 283 330
#     4  11  21  35  56  81 112 152 194 234 280 331
#     4   9  18  35  56  81 111 146 183 227 283 334
#     4  11  23  40  60  81 110 153 194 227 277 345
#     4   9  19  36  58  84 113 142 177 227 282 335
#     4  10  20  36  57  80 109 148 188 228 280 337
#
# _framework density 18.861391999999999
#
# number of rings (size 3 to 8) (size 9 to 14) (size 15 to 20)
#    0.000    1.875    1.250    3.000    0.000    7.000 
#    0.000    5.000    0.000    3.750    0.000    0.000 
#    0.000    0.000    0.000    0.000    0.000    0.000 
#
# Total GULP energy -178765.688105 kJ/mol
# GULP energy per Si atom -5586.427753 kJ/mol
# Density = 1.881846 g / cm^3
# Si number density = 18.861392 Si / 1000 Ang^3
#
#
#
# Elastic Constant Matrix: (Units=GPa)
#
#
# Indices 1 2 3 4 5 6 
#
# 1 103.7353 14.3747 49.8968 0.0000 -6.1602 0.0000
# 2 14.3747 20.2856 18.7702 0.0000 -2.1981 0.0000
# 3 49.8968 18.7702 117.4966 0.0000 -9.8833 0.0000
# 4 0.0000 0.0000 0.0000 30.6542 0.0000 1.5874
# 5 -6.1602 -2.1981 -9.8833 0.0000 33.2483 0.0000
# 6 0.0000 0.0000 0.0000 1.5874 0.0000 26.3360
#
#
#
# Elastic Compliance Matrix: (Units=1/GPa)
#
#
# Indices 1 2 3 4 5 6 
#
# 1 0.012487 -0.004602 -0.004512 0.000000 0.000668 0.000000
# 2 -0.004602 0.059582 -0.007492 0.000000 0.000859 0.000000
# 3 -0.004512 -0.007492 0.011807 0.000000 0.002178 0.000000
# 4 0.000000 0.000000 0.000000 0.032724 0.000000 -0.001972
# 5 0.000668 0.000859 0.002178 0.000000 0.030905 0.000000
# 6 0.000000 0.000000 0.000000 -0.001972 0.000000 0.038090
#
#
# Mechanical properties :
#
#
# Convention : Reuss Voigt Hill
#
# Bulk Modulus (GPa) = 19.73703 45.28897 32.51300
# Shear Modulus (GPa) = 21.21390 28.61275 24.91333
#
# Velocity S-wave (km/s) = 3.35733 3.89909 3.63831
# Velocity P-wave (km/s) = 5.05132 6.65839 5.90974
#
# Compressibility (1/GPa) = 0.05066618
#
# Stress axis : x y z
#
# Youngs Moduli (GPa) = 80.08090 16.78350 84.69641
#
# Poissons Ratio (x) = 0.07723 0.38212
# Poissons Ratio (y) = 0.36852 0.63453
# Poissons Ratio (z) = 0.36129 0.12574
#
# Static dielectric constant tensor:
#      x y z
#    x 1.640330 0.000000 0.000540 
#    y 0.000000 1.650200 0.000000 
#    z 0.000540 0.000000 1.649020 
# 
# From -- ./inp_files/295687.got.cif
#   From: 2010.05.17/outbox.cif.g08.bks.cpg/sg12_148_cif.got.tgz:295687.got - 2010.06.03 13:09:07.
