data_PCOD9198334
_publ_section_title
;
Structure prediction by ZEFSAII (Michael W. Deem and Ramdas Pophale) SiO2 
 PCOD9198334
Probable space group: C 2/M
;
_chemical_formula_sum "Si O2"
_cell_formula_units_Z 30
_cell_length_a 12.801068
_cell_length_b 9.430705
_cell_length_c 13.152263
_cell_angle_alpha 90.000000
_cell_angle_beta 52.117926
_cell_angle_gamma 90.000000
_cell_volume 1253.198529
_symmetry_space_group_name_H-M "C 2/M"
_symmetry_group_IT_number 12
_symmetry_cell_setting 'monoclinic'
loop_
_space_group_symop_operation_xyz
x,y,z
-x,y,-z
-x,-y,-z
x,-y,z
1/2+x,1/2+y,z
1/2-x,1/2+y,-z
1/2-x,1/2-y,-z
1/2+x,1/2-y,z
loop_
_atom_site_type_symbol
_atom_site_label
_atom_site_fract_x
_atom_site_fract_y
_atom_site_fract_z
Si Si1 0.500000 0.000000 0.000000
Si Si2 0.244178 0.279439 0.883334
Si Si3 0.702403 0.500000 0.771904
Si Si4 0.475304 0.500000 0.752496
Si Si5 0.000000 0.752017 0.500000
Si Si6 0.172563 0.000000 0.444101
Si Si7 0.106574 0.500000 0.543196
O O1 0.617943 0.877457 0.933889
O O2 0.380647 0.366815 0.791840
O O3 0.230546 0.137678 0.823864
O O4 0.250000 0.250000 0.000000
O O5 0.554448 0.500000 0.811833
O O6 0.796028 0.500000 0.614313
O O7 0.585139 0.500000 0.598789
O O8 0.125565 0.856770 0.419009
O O9 0.026592 0.644111 0.576165
O O10 0.321117 0.000000 0.392598
#
# Coordination Sequence:
#
# PCOD9198334 Si02
#       7
#     2   8   4   4   4   4   4
#     4  10  22  36  52  76 104 136 178 220 262 314
#     4  11  22  37  56  79 108 144 183 225 271 320
#     4  11  22  37  58  82 110 144 183 227 273 321
#     4  10  22  37  55  81 112 143 184 228 272 322
#     4  10  20  36  58  82 112 144 180 222 272 328
#     4  10  20  36  57  81 110 147 181 221 273 327
#     4  10  21  36  56  84 112 141 181 226 271 324
#
# _framework density 23.938745000000001
#
# number of rings (size 3 to 8) (size 9 to 14) (size 15 to 20)
#    0.000    1.600    0.000    5.600    0.000    1.600 
#    0.000    0.000    0.000   22.400    0.000    0.000 
#    0.000    0.000    0.000    0.000    0.000    0.000 
#
# Total GULP energy -83640.366968 kJ/mol
# GULP energy per Si atom -5576.024465 kJ/mol
# Density = 2.388426 g / cm^3
# Si number density = 23.938745 Si / 1000 Ang^3
#
#
#
# Elastic Constant Matrix: (Units=GPa)
#
#
# Indices 1 2 3 4 5 6 
#
# 1 221.4822 118.0760 34.2379 0.0000 12.2597 0.0000
# 2 118.0760 247.3032 48.0030 0.0000 12.4675 0.0000
# 3 34.2379 48.0030 84.0855 0.0000 16.4578 0.0000
# 4 0.0000 0.0000 0.0000 -16.6512 0.0000 -44.6558
# 5 12.2597 12.4675 16.4578 0.0000 37.2559 0.0000
# 6 0.0000 0.0000 0.0000 -44.6558 0.0000 -38.5566
#
#
#
# Elastic Compliance Matrix: (Units=1/GPa)
#
#
# Indices 1 2 3 4 5 6 
#
# 1 0.006140 -0.002740 -0.000788 0.000000 -0.000755 0.000000
# 2 -0.002740 0.005776 -0.002167 0.000000 -0.000074 0.000000
# 3 -0.000788 -0.002167 0.014513 0.000000 -0.005427 0.000000
# 4 0.000000 0.000000 0.000000 0.028516 0.000000 -0.033026
# 5 -0.000755 -0.000074 -0.005427 0.000000 0.029512 0.000000
# 6 0.000000 0.000000 0.000000 -0.033026 0.000000 0.012315
#
#
# Mechanical properties :
#
#
# Convention : Reuss Voigt Hill
#
# Bulk Modulus (GPa) = 66.49820 105.94496 86.22158
# Shear Modulus (GPa) = 44.17960 19.91322 32.04641
#
# Velocity S-wave (km/s) = 4.30062 2.88729 3.66277
# Velocity P-wave (km/s) = 7.24564 7.44769 7.34736
#
# Compressibility (1/GPa) = 0.01503800
#
# Stress axis : x y z
#
# Youngs Moduli (GPa) = 162.87831 173.11635 68.90467
#
# Poissons Ratio (x) = 0.47441 0.05427
# Poissons Ratio (y) = 0.44635 0.14934
# Poissons Ratio (z) = 0.12829 0.37521
#
# Static dielectric constant tensor:
#      x y z
#    x 1.914480 0.000000 -0.002620 
#    y 0.000000 2.045290 0.000000 
#    z -0.002620 0.000000 1.940210 
# 
# From -- ./inp_files/201959.got.cif
#   From: 2010.05.17/outbox.cif.g08.bks.cpg/sg12_101_cif.got.tgz:201959.got - 2010.06.03 13:09:07.
