data_PCOD9198569
_publ_section_title
;
Structure prediction by ZEFSAII (Michael W. Deem and Ramdas Pophale) SiO2 
 PCOD9198569
Probable space group: C 2/M
;
_chemical_formula_sum "Si O2"
_cell_formula_units_Z 40
_cell_length_a 27.918956
_cell_length_b 8.892976
_cell_length_c 9.688054
_cell_angle_alpha 90.000000
_cell_angle_beta 110.508339
_cell_angle_gamma 90.000000
_cell_volume 2252.925513
_symmetry_space_group_name_H-M "C 2/M"
_symmetry_group_IT_number 12
_symmetry_cell_setting 'monoclinic'
loop_
_space_group_symop_operation_xyz
x,y,z
-x,y,-z
-x,-y,-z
x,-y,z
1/2+x,1/2+y,z
1/2-x,1/2+y,-z
1/2-x,1/2-y,-z
1/2+x,1/2-y,z
loop_
_atom_site_type_symbol
_atom_site_label
_atom_site_fract_x
_atom_site_fract_y
_atom_site_fract_z
Si Si1 0.295938 0.179861 0.632502
Si Si2 0.705656 0.179006 0.045255
Si Si3 0.002565 0.819366 0.663250
Si Si4 0.909978 0.680937 0.060379
Si Si5 0.594874 0.319922 0.246543
O O1 0.250000 0.250000 0.500000
O O2 0.287152 0.212763 0.785638
O O3 0.350920 0.251039 0.652950
O O4 0.298031 0.000000 0.617124
O O5 0.708005 0.000000 0.030815
O O6 0.750000 0.250000 0.000000
O O7 0.647535 0.226399 0.951981
O O8 0.949837 0.785773 0.689954
O O9 0.000000 0.775866 0.500000
O O10 0.048167 0.739493 0.791047
O O11 0.010424 0.000000 0.677740
O O12 0.911416 0.500000 0.050291
O O13 0.918361 0.750440 0.916615
O O14 0.599294 0.500000 0.237782
#
# Coordination Sequence:
#
# PCOD9198569 Si02
#       5
#     8   8   8   8   8
#     4  10  21  37  56  81 111 142 179 221 267 317
#     4   9  20  36  54  79 108 139 177 219 263 315
#     4  10  22  38  55  79 110 142 178 222 271 319
#     4  10  21  37  56  80 109 141 180 222 266 319
#     4  10  20  36  58  81 106 141 183 221 263 318
#
# _framework density 17.754691999999999
#
# number of rings (size 3 to 8) (size 9 to 14) (size 15 to 20)
#    0.000    2.200    0.000    3.600    0.000   10.800 
#    0.000    6.000    0.000    0.000    0.000    0.000 
#    0.000    0.000    0.000    0.000    0.000    0.000 
#
# Total GULP energy -111661.477159 kJ/mol
# GULP energy per Si atom -5583.073858 kJ/mol
# Density = 1.771428 g / cm^3
# Si number density = 17.754692 Si / 1000 Ang^3
#
#
#
# Elastic Constant Matrix: (Units=GPa)
#
#
# Indices 1 2 3 4 5 6 
#
# 1 192.7565 81.9149 117.3511 0.0000 2.3115 0.0000
# 2 81.9149 59.6285 69.0998 0.0000 7.7071 0.0000
# 3 117.3511 69.0998 143.3652 0.0000 27.8821 0.0000
# 4 0.0000 0.0000 0.0000 31.9314 0.0000 6.6583
# 5 2.3115 7.7071 27.8821 0.0000 27.1179 0.0000
# 6 0.0000 0.0000 0.0000 6.6583 0.0000 32.2480
#
#
#
# Elastic Compliance Matrix: (Units=1/GPa)
#
#
# Indices 1 2 3 4 5 6 
#
# 1 0.016316 -0.013110 -0.009363 0.000000 0.011962 0.000000
# 2 -0.013110 0.050842 -0.013975 0.000000 0.001037 0.000000
# 3 -0.009363 -0.013975 0.025558 0.000000 -0.021508 0.000000
# 4 0.000000 0.000000 0.000000 0.032726 0.000000 -0.006757
# 5 0.011962 0.001037 -0.021508 0.000000 0.057676 0.000000
# 6 0.000000 0.000000 0.000000 -0.006757 0.000000 0.032405
#
#
# Mechanical properties :
#
#
# Convention : Reuss Voigt Hill
#
# Bulk Modulus (GPa) = 50.45661 103.60910 77.03285
# Shear Modulus (GPa) = 16.94765 26.75177 21.84971
#
# Velocity S-wave (km/s) = 3.09292 3.88589 3.51186
# Velocity P-wave (km/s) = 6.42147 8.86657 7.74117
#
# Compressibility (1/GPa) = 0.01981901
#
# Stress axis : x y z
#
# Youngs Moduli (GPa) = 61.28936 19.66883 39.12660
#
# Poissons Ratio (x) = 0.25786 0.36634
# Poissons Ratio (y) = 0.80352 0.54681
# Poissons Ratio (z) = 0.57385 0.27488
#
# Static dielectric constant tensor:
#      x y z
#    x 1.597610 0.000000 -0.001270 
#    y 0.000000 1.596420 0.000000 
#    z -0.001270 0.000000 1.580110 
# 
# From -- ./inp_files/92749.got.cif
#   From: 2010.05.17/outbox.cif.g08.bks.cpg/sg12_47_cif.got.tgz:92749.got - 2010.06.03 13:09:07.
