data_PCOD9198597
_publ_section_title
;
Structure prediction by ZEFSAII (Michael W. Deem and Ramdas Pophale) SiO2 
 PCOD9198597
Probable space group: C 2/M
;
_chemical_formula_sum "Si O2"
_cell_formula_units_Z 64
_cell_length_a 27.213255
_cell_length_b 8.792225
_cell_length_c 22.180701
_cell_angle_alpha 90.000000
_cell_angle_beta 33.388561
_cell_angle_gamma 90.000000
_cell_volume 2920.553429
_symmetry_space_group_name_H-M "C 2/M"
_symmetry_group_IT_number 12
_symmetry_cell_setting 'monoclinic'
loop_
_space_group_symop_operation_xyz
x,y,z
-x,y,-z
-x,-y,-z
x,-y,z
1/2+x,1/2+y,z
1/2-x,1/2+y,-z
1/2-x,1/2-y,-z
1/2+x,1/2-y,z
loop_
_atom_site_type_symbol
_atom_site_label
_atom_site_fract_x
_atom_site_fract_y
_atom_site_fract_z
Si Si1 0.462386 0.669745 0.295667
Si Si2 0.817293 0.671055 0.385761
Si Si3 0.083391 0.175693 0.058764
Si Si4 0.256597 0.680425 0.927015
Si Si5 0.900312 0.818322 0.185721
Si Si6 0.074445 0.176073 0.525467
Si Si7 0.116438 0.184187 0.305202
Si Si8 0.269364 0.817846 0.703715
O O1 0.422240 0.500000 0.321399
O O2 0.408907 0.816453 0.328561
O O3 0.548182 0.672249 0.164576
O O4 0.456998 0.674479 0.372809
O O5 0.791263 0.500000 0.396583
O O6 0.750000 0.750000 0.500000
O O7 0.840148 0.769991 0.304235
O O8 0.001243 0.232440 0.100147
O O9 0.102853 0.000000 0.021847
O O10 0.172592 0.272173 0.971490
O O11 0.258989 0.500000 0.931017
O O12 0.344014 0.729789 0.800325
O O13 0.250000 0.750000 0.000000
O O14 0.834451 0.767510 0.199163
O O15 0.907987 0.000000 0.173796
O O16 0.164009 0.266826 0.418802
O O17 0.985877 0.234572 0.582639
O O18 0.091247 0.000000 0.490751
O O19 0.182140 0.247245 0.288375
O O20 0.115758 0.000000 0.308114
O O21 0.268976 0.000000 0.707707
#
# Coordination Sequence:
#
# PCOD9198597 Si02
#       8
#     8   8   8   8   8   8   8   8
#     4   9  18  33  53  78 110 148 187 226 276 338
#     4  11  20  29  45  72 106 144 187 232 278 330
#     4   9  18  36  60  85 117 154 191 236 289 342
#     4  11  23  40  64  92 119 149 188 234 285 341
#     4   9  20  38  56  77 111 152 190 232 285 343
#     4  10  20  36  58  81 111 155 196 230 281 346
#     4  10  23  42  60  81 113 152 191 231 282 346
#     4  11  23  38  58  85 114 147 192 242 286 332
#
# _framework density 21.913653
#
# number of rings (size 3 to 8) (size 9 to 14) (size 15 to 20)
#    0.000    2.000    0.000    4.500    0.000   10.500 
#    0.000    1.875    0.000    3.750    0.000    0.000 
#    0.000    0.000    0.000    0.000    0.000    0.000 
#
# Total GULP energy -178394.148513 kJ/mol
# GULP energy per Si atom -5574.817141 kJ/mol
# Density = 2.186378 g / cm^3
# Si number density = 21.913653 Si / 1000 Ang^3
#
#
#
# Elastic Constant Matrix: (Units=GPa)
#
#
# Indices 1 2 3 4 5 6 
#
# 1 97.7585 6.0196 14.3377 0.0016 -23.1578 -0.0007
# 2 6.0196 13.8339 12.2974 -0.0003 -9.9644 -0.0004
# 3 14.3377 12.2974 53.2355 -0.0003 -22.4015 -0.0003
# 4 0.0016 -0.0003 -0.0003 21.5920 -0.0018 -4.1952
# 5 -23.1578 -9.9644 -22.4015 -0.0018 26.5498 0.0006
# 6 -0.0007 -0.0004 -0.0003 -4.1952 0.0006 28.4304
#
#
#
# Elastic Compliance Matrix: (Units=1/GPa)
#
#
# Indices 1 2 3 4 5 6 
#
# 1 0.013102 0.002826 0.001665 0.000000 0.013894 0.000000
# 2 0.002826 0.104199 -0.011377 0.000004 0.031973 0.000001
# 3 0.001665 -0.011377 0.030667 0.000002 0.023058 0.000000
# 4 0.000000 0.000004 0.000002 0.047680 0.000007 0.007036
# 5 0.013894 0.031973 0.023058 0.000007 0.081239 0.000000
# 6 0.000000 0.000001 0.000000 0.007036 0.000000 0.036212
#
#
# Mechanical properties :
#
#
# Convention : Reuss Voigt Hill
#
# Bulk Modulus (GPa) = 7.45174 25.57079 16.51127
# Shear Modulus (GPa) = 13.45522 24.12597 18.79059
#
# Velocity S-wave (km/s) = 2.48061 3.32167 2.93146
# Velocity P-wave (km/s) = 3.40771 5.13863 4.35993
#
# Compressibility (1/GPa) = 0.13419676
#
# Stress axis : x y z
#
# Youngs Moduli (GPa) = 76.32198 9.59701 32.60853
#
# Poissons Ratio (x) = -0.02712 -0.05429
# Poissons Ratio (y) = -0.21571 0.37099
# Poissons Ratio (z) = -0.12707 0.10919
#
# Static dielectric constant tensor:
#      x y z
#    x 2.026200 0.000000 1.040770 
#    y 0.000000 1.754700 -0.000010 
#    z 1.040770 -0.000010 10.261510 
# 
# From -- ./inp_files/353380.got.cif
#   From: 2010.05.17/outbox.cif.g08.bks.cpg/sg12_177_cif.got.tgz:353380.got - 2010.06.03 13:09:07.
