data_PCOD9198447
_publ_section_title
;
Structure prediction by ZEFSAII (Michael W. Deem and Ramdas Pophale) SiO2 
 PCOD9198447
Probable space group: C 2/M
;
_chemical_formula_sum "Si O2"
_cell_formula_units_Z 48
_cell_length_a 19.121044
_cell_length_b 23.103449
_cell_length_c 9.629686
_cell_angle_alpha 90.000000
_cell_angle_beta 28.502091
_cell_angle_gamma 90.000000
_cell_volume 2029.984102
_symmetry_space_group_name_H-M "C 2/M"
_symmetry_group_IT_number 12
_symmetry_cell_setting 'monoclinic'
loop_
_space_group_symop_operation_xyz
x,y,z
-x,y,-z
-x,-y,-z
x,-y,z
1/2+x,1/2+y,z
1/2-x,1/2+y,-z
1/2-x,1/2-y,-z
1/2+x,1/2-y,z
loop_
_atom_site_type_symbol
_atom_site_label
_atom_site_fract_x
_atom_site_fract_y
_atom_site_fract_z
Si Si1 0.780524 0.737122 0.224668
Si Si2 0.790593 0.435600 0.312977
Si Si3 0.726737 0.154283 0.153747
Si Si4 0.475824 0.564290 0.707691
Si Si5 0.351238 0.335528 0.322872
Si Si6 0.555287 0.863912 0.174520
O O1 0.740900 0.777485 0.163578
O O2 0.658991 0.694763 0.506406
O O3 0.817309 0.784468 0.275756
O O4 0.919212 0.696056 0.952659
O O5 0.816336 0.500000 0.319822
O O6 0.631415 0.433894 0.514308
O O7 0.772081 0.384928 0.456965
O O8 0.907092 0.415679 0.994851
O O9 0.595371 0.133202 0.481505
O O10 0.678896 0.141535 0.079579
O O11 0.870386 0.116680 0.932818
O O12 0.500000 0.568021 0.500000
O O13 0.411115 0.500000 0.849027
O O14 0.500000 0.361009 0.000000
#
# Coordination Sequence:
#
# PCOD9198447 Si02
#       6
#     8   8   8   8   8   8
#     4  10  21  37  55  81 119 152 191 240 291 345
#     4  10  21  39  61  85 117 151 194 246 292 343
#     4  11  21  36  59  86 118 154 195 236 284 353
#     4  10  20  36  57  84 116 152 191 237 290 339
#     4  10  20  36  58  81 108 152 196 236 290 344
#     4  10  22  37  57  89 119 153 194 235 293 345
#
# _framework density 23.645506000000001
#
# number of rings (size 3 to 8) (size 9 to 14) (size 15 to 20)
#    0.000    1.833    1.667    2.500    0.000    2.333 
#    3.000    2.500    0.000    1.000    0.000    0.000 
#    0.000    0.000    0.000    0.000    0.000    0.000 
#
# Total GULP energy -134201.879647 kJ/mol
# GULP energy per Si atom -5591.744985 kJ/mol
# Density = 2.359169 g / cm^3
# Si number density = 23.645506 Si / 1000 Ang^3
#
#
#
# Elastic Constant Matrix: (Units=GPa)
#
#
# Indices 1 2 3 4 5 6 
#
# 1 52.1358 5.4508 0.7253 0.0000 5.4587 0.0007
# 2 5.4508 138.0716 58.3829 0.0012 10.9229 -0.0003
# 3 0.7253 58.3829 108.2727 0.0027 6.8399 0.0028
# 4 0.0000 0.0012 0.0027 -27.8836 0.0010 -24.2245
# 5 5.4587 10.9229 6.8399 0.0010 32.6753 -0.0003
# 6 0.0007 -0.0003 0.0028 -24.2245 -0.0003 14.3268
#
#
#
# Elastic Compliance Matrix: (Units=1/GPa)
#
#
# Indices 1 2 3 4 5 6 
#
# 1 0.019577 -0.000717 0.000453 0.000000 -0.003126 -0.000001
# 2 -0.000717 0.009553 -0.005019 0.000000 -0.002023 0.000000
# 3 0.000453 -0.005019 0.011996 0.000001 -0.000909 0.000000
# 4 0.000000 0.000000 0.000001 -0.014526 0.000000 -0.024561
# 5 -0.003126 -0.002023 -0.000909 0.000000 0.031993 0.000001
# 6 -0.000001 0.000000 0.000000 -0.024561 0.000001 0.028271
#
#
# Mechanical properties :
#
#
# Convention : Reuss Voigt Hill
#
# Bulk Modulus (GPa) = 32.72181 47.51093 40.11637
# Shear Modulus (GPa) = 46.46133 19.41844 32.93988
#
# Velocity S-wave (km/s) = 4.43754 2.86882 3.73644
# Velocity P-wave (km/s) = 6.33437 5.57765 5.96801
#
# Compressibility (1/GPa) = 0.03056066
#
# Stress axis : x y z
#
# Youngs Moduli (GPa) = 51.08142 104.67833 83.35774
#
# Poissons Ratio (x) = 0.07507 -0.03776
# Poissons Ratio (y) = 0.03663 0.41834
# Poissons Ratio (z) = -0.02314 0.52534
#
# Static dielectric constant tensor:
#      x y z
#    x 1.989280 0.000000 -0.018730 
#    y 0.000000 1.895220 0.000000 
#    z -0.018730 0.000000 1.873670 
# 
# From -- ./inp_files/184787.got.cif
#   From: 2010.05.17/outbox.cif.g08.bks.cpg/sg12_93_cif.got.tgz:184787.got - 2010.06.03 13:09:07.
