data_PCOD9198864
_publ_section_title
;
Structure prediction by ZEFSAII (Michael W. Deem and Ramdas Pophale) SiO2 
 PCOD9198864
Probable space group: C 2/M
;
_chemical_formula_sum "Si O2"
_cell_formula_units_Z 56
_cell_length_a 16.361108
_cell_length_b 8.937521
_cell_length_c 23.304479
_cell_angle_alpha 90.000000
_cell_angle_beta 121.794472
_cell_angle_gamma 90.000000
_cell_volume 2896.404793
_symmetry_space_group_name_H-M "C 2/M"
_symmetry_group_IT_number 12
_symmetry_cell_setting 'monoclinic'
loop_
_space_group_symop_operation_xyz
x,y,z
-x,y,-z
-x,-y,-z
x,-y,z
1/2+x,1/2+y,z
1/2-x,1/2+y,-z
1/2-x,1/2-y,-z
1/2+x,1/2-y,z
loop_
_atom_site_type_symbol
_atom_site_label
_atom_site_fract_x
_atom_site_fract_y
_atom_site_fract_z
Si Si1 0.219078 0.819311 0.843471
Si Si2 0.013137 0.676430 0.572431
Si Si3 0.442194 0.817817 0.921918
Si Si4 0.871867 0.674701 0.701450
Si Si5 0.951865 0.680924 0.156140
Si Si6 0.318886 0.325183 0.299490
Si Si7 0.834695 0.176728 0.568200
O O1 0.330709 0.770417 0.884694
O O2 0.151277 0.749409 0.866895
O O3 0.175961 0.779539 0.764930
O O4 0.217508 0.000000 0.847459
O O5 0.998740 0.500000 0.577040
O O6 0.934087 0.769949 0.577172
O O7 0.000000 0.704624 0.500000
O O8 0.115583 0.727473 0.634653
O O9 0.499233 0.770644 0.885695
O O10 0.440214 0.000000 0.919296
O O11 0.500000 0.772344 0.000000
O O12 0.879613 0.500000 0.687209
O O13 0.791468 0.683479 0.721135
O O14 0.836755 0.767056 0.634174
O O15 0.972986 0.723322 0.765681
O O16 0.945460 0.500000 0.153100
O O17 0.347864 0.500000 0.315190
O O18 0.750000 0.250000 0.500000
O O19 0.824413 0.000000 0.562310
#
# Coordination Sequence:
#
# PCOD9198864 Si02
#       7
#     8   8   8   8   8   8   8
#     4  10  20  36  58  87 119 154 199 248 296 353
#     4  11  24  40  57  81 113 148 191 243 295 353
#     4   9  18  36  61  86 118 161 203 243 295 361
#     4  10  20  37  60  84 115 153 194 243 296 354
#     4  10  20  36  59  88 119 156 201 246 296 356
#     4  10  20  36  59  84 113 151 194 241 295 356
#     4  12  25  40  58  82 113 150 193 241 296 356
#
# _framework density 19.334315
#
# number of rings (size 3 to 8) (size 9 to 14) (size 15 to 20)
#    0.000    1.714    1.429    3.429    0.000    8.000 
#    0.000    0.714    0.000    0.857    0.000    0.000 
#    0.000    0.000    0.000    0.000    0.000    0.000 
#
# Total GULP energy -156422.083104 kJ/mol
# GULP energy per Si atom -5586.502968 kJ/mol
# Density = 1.929031 g / cm^3
# Si number density = 19.334315 Si / 1000 Ang^3
#
#
#
# Elastic Constant Matrix: (Units=GPa)
#
#
# Indices 1 2 3 4 5 6 
#
# 1 129.3290 28.6875 55.4719 0.0000 -1.9093 0.0000
# 2 28.6875 38.8426 34.6750 0.0000 -4.3427 0.0000
# 3 55.4719 34.6750 115.2181 0.0000 -0.6256 0.0000
# 4 0.0000 0.0000 0.0000 7.7960 0.0000 -9.8949
# 5 -1.9093 -4.3427 -0.6256 0.0000 23.5227 0.0000
# 6 0.0000 0.0000 0.0000 -9.8949 0.0000 14.2819
#
#
#
# Elastic Compliance Matrix: (Units=1/GPa)
#
#
# Indices 1 2 3 4 5 6 
#
# 1 0.010250 -0.004337 -0.003630 0.000000 -0.000065 0.000000
# 2 -0.004337 0.037971 -0.009304 0.000000 0.006411 0.000000
# 3 -0.003630 -0.009304 0.013218 0.000000 -0.001661 0.000000
# 4 0.000000 0.000000 0.000000 1.063203 0.000000 0.736613
# 5 -0.000065 0.006411 -0.001661 0.000000 0.043646 0.000000
# 6 0.000000 0.000000 0.000000 0.736613 0.000000 0.580362
#
#
# Mechanical properties :
#
#
# Convention : Reuss Voigt Hill
#
# Bulk Modulus (GPa) = 37.18030 57.89539 47.53785
# Shear Modulus (GPa) = 2.78993 20.09048 11.44021
#
# Velocity S-wave (km/s) = 1.20255 3.22702 2.43514
# Velocity P-wave (km/s) = 4.60436 6.62527 5.70501
#
# Compressibility (1/GPa) = 0.02689596
#
# Stress axis : x y z
#
# Youngs Moduli (GPa) = 97.55772 26.33589 75.65389
#
# Poissons Ratio (x) = 0.11422 0.27463
# Poissons Ratio (y) = 0.42312 0.70392
# Poissons Ratio (z) = 0.35415 0.24504
#
# Static dielectric constant tensor:
#      x y z
#    x 1.685860 0.000000 0.015820 
#    y 0.000000 1.651540 0.000000 
#    z 0.015820 0.000000 1.725370 
# 
# From -- ./inp_files/339073.got.cif
#   From: 2010.05.17/outbox.cif.g08.bks.cpg/sg12_170_cif.got.tgz:339073.got - 2010.06.03 13:09:07.
