data_PCOD9198678
_publ_section_title
;
Structure prediction by ZEFSAII (Michael W. Deem and Ramdas Pophale) SiO2 
 PCOD9198678
Probable space group: C 2/M
;
_chemical_formula_sum "Si O2"
_cell_formula_units_Z 64
_cell_length_a 19.425703
_cell_length_b 7.502015
_cell_length_c 30.428541
_cell_angle_alpha 90.000000
_cell_angle_beta 141.293784
_cell_angle_gamma 90.000000
_cell_volume 2772.957451
_symmetry_space_group_name_H-M "C 2/M"
_symmetry_group_IT_number 12
_symmetry_cell_setting 'monoclinic'
loop_
_space_group_symop_operation_xyz
x,y,z
-x,y,-z
-x,-y,-z
x,-y,z
1/2+x,1/2+y,z
1/2-x,1/2+y,-z
1/2-x,1/2-y,-z
1/2+x,1/2-y,z
loop_
_atom_site_type_symbol
_atom_site_label
_atom_site_fract_x
_atom_site_fract_y
_atom_site_fract_z
Si Si1 0.965280 0.715323 0.344053
Si Si2 0.620348 0.212329 0.930620
Si Si3 0.534842 0.782245 0.066577
Si Si4 0.796747 0.797006 0.664748
Si Si5 0.566617 0.781626 0.575567
Si Si6 0.804951 0.288505 0.574074
Si Si7 0.782808 0.206471 0.187706
Si Si8 0.458611 0.292230 0.205858
O O1 0.962484 0.500000 0.341827
O O2 0.984709 0.771197 0.403715
O O3 0.853561 0.782472 0.267204
O O4 0.068858 0.773813 0.367005
O O5 0.548083 0.278229 0.936206
O O6 0.577982 0.283742 0.862867
O O7 0.606730 0.000000 0.922059
O O8 0.750000 0.250000 0.000000
O O9 0.660992 0.719981 0.134573
O O10 0.531956 0.000000 0.066909
O O11 0.500000 0.730734 0.000000
O O12 0.692934 0.717735 0.638089
O O13 0.758314 0.798188 0.594669
O O14 0.918141 0.713675 0.728147
O O15 0.808585 0.000000 0.686728
O O16 0.500000 0.719855 0.500000
O O17 0.568437 0.000000 0.574857
O O18 0.801933 0.500000 0.579309
O O19 0.750000 0.250000 0.500000
O O20 0.862957 0.285375 0.189773
O O21 0.764811 0.000000 0.166029
O O22 0.468194 0.500000 0.224017
#
# Coordination Sequence:
#
# PCOD9198678 Si02
#       8
#     8   8   8   8   8   8   8   8
#     4  10  21  36  56  83 112 149 191 238 289 340
#     4  11  23  39  62  90 119 153 192 234 280 333
#     4   9  19  37  61  86 114 151 191 228 273 333
#     4  10  20  36  58  83 112 152 196 237 287 344
#     4   9  18  34  55  78 109 149 191 235 288 346
#     4  11  22  36  57  83 113 149 193 243 293 344
#     4  10  20  37  60  84 113 152 191 232 282 338
#     4  10  21  37  59  86 117 154 193 236 287 341
#
# _framework density 23.08005
#
# number of rings (size 3 to 8) (size 9 to 14) (size 15 to 20)
#    0.000    2.000    1.250    2.250    1.750    5.500 
#    0.000    1.250    0.000    4.125    0.000    0.000 
#    0.000    0.000    0.000    0.000    0.000    0.000 
#
# Total GULP energy -178792.284229 kJ/mol
# GULP energy per Si atom -5587.258882 kJ/mol
# Density = 2.302752 g / cm^3
# Si number density = 23.080050 Si / 1000 Ang^3
#
#
#
# Elastic Constant Matrix: (Units=GPa)
#
#
# Indices 1 2 3 4 5 6 
#
# 1 125.3411 1.8671 28.5212 0.0002 3.7292 -0.0006
# 2 1.8671 70.3063 -9.4809 0.0002 6.3703 -0.0010
# 3 28.5212 -9.4809 108.2571 0.0001 4.4086 -0.0003
# 4 0.0002 0.0002 0.0001 17.2147 0.0000 -11.6814
# 5 3.7292 6.3703 4.4086 0.0000 44.4674 0.0000
# 6 -0.0006 -0.0010 -0.0003 -11.6814 0.0000 7.1977
#
#
#
# Elastic Compliance Matrix: (Units=1/GPa)
#
#
# Indices 1 2 3 4 5 6 
#
# 1 0.008514 -0.000494 -0.002269 -0.000003 -0.000418 -0.000005
# 2 -0.000494 0.014639 0.001502 -0.000012 -0.002205 -0.000017
# 3 -0.002269 0.001502 0.010008 -0.000003 -0.001017 -0.000004
# 4 -0.000003 -0.000012 -0.000003 -0.573608 0.000003 -0.930925
# 5 -0.000418 -0.002205 -0.001017 0.000003 0.022940 0.000004
# 6 -0.000005 -0.000017 -0.000004 -0.930925 0.000004 -1.371892
#
#
# Mechanical properties :
#
#
# Convention : Reuss Voigt Hill
#
# Bulk Modulus (GPa) = 32.63901 38.41322 35.52612
# Shear Modulus (GPa) = -2.66430 32.64243 14.98906
#
# Velocity S-wave (km/s) = -1.07558 3.76482 2.55117
# Velocity P-wave (km/s) = 3.55385 5.96473 4.90958
#
# Compressibility (1/GPa) = 0.03063818
#
# Stress axis : x y z
#
# Youngs Moduli (GPa) = 117.44744 68.31105 99.91866
#
# Poissons Ratio (x) = 0.03376 0.22676
# Poissons Ratio (y) = 0.05805 -0.15008
# Poissons Ratio (z) = 0.26654 -0.10261
#
# Static dielectric constant tensor:
#      x y z
#    x 1.842960 0.000000 0.025370 
#    y 0.000000 1.893820 0.000000 
#    z 0.025370 0.000000 1.842690 
# 
# From -- ./inp_files/378528.got.cif
#   From: 2010.05.17/outbox.cif.g08.bks.cpg/sg12_190_cif.got.tgz:378528.got - 2010.06.03 13:09:07.
