data_PCOD9198652
_publ_section_title
;
Structure prediction by ZEFSAII (Michael W. Deem and Ramdas Pophale) SiO2 
 PCOD9198652
Probable space group: C 2/M
;
_chemical_formula_sum "Si O2"
_cell_formula_units_Z 48
_cell_length_a 15.441550
_cell_length_b 27.169528
_cell_length_c 12.159893
_cell_angle_alpha 90.000000
_cell_angle_beta 27.814488
_cell_angle_gamma 90.000000
_cell_volume 2380.439037
_symmetry_space_group_name_H-M "C 2/M"
_symmetry_group_IT_number 12
_symmetry_cell_setting 'monoclinic'
loop_
_space_group_symop_operation_xyz
x,y,z
-x,y,-z
-x,-y,-z
x,-y,z
1/2+x,1/2+y,z
1/2-x,1/2+y,-z
1/2-x,1/2-y,-z
1/2+x,1/2-y,z
loop_
_atom_site_type_symbol
_atom_site_label
_atom_site_fract_x
_atom_site_fract_y
_atom_site_fract_z
Si Si1 0.251680 0.336515 0.172050
Si Si2 0.090731 0.814943 0.648562
Si Si3 0.476861 0.583661 0.689705
Si Si4 0.309219 0.056365 0.164469
Si Si5 0.571744 0.795221 0.590874
Si Si6 0.346716 0.445385 0.076025
O O1 0.184176 0.305516 0.351978
O O2 0.232270 0.394731 0.218111
O O3 0.122534 0.321627 0.213966
O O4 0.459261 0.323649 0.902385
O O5 0.302458 0.815973 0.452036
O O6 0.050082 0.762414 0.639987
O O7 0.041711 0.860169 0.626442
O O8 0.644982 0.556836 0.439071
O O9 0.288273 0.580787 0.831146
O O10 0.441058 0.561719 0.850463
O O11 0.350240 0.000000 0.086364
O O12 0.500000 0.077590 0.000000
O O13 0.257411 0.500000 0.179722
O O14 0.500000 0.444328 0.000000
#
# Coordination Sequence:
#
# PCOD9198652 Si02
#       6
#     8   8   8   8   8   8
#     4  10  20  36  58  82 115 150 187 236 286 340
#     4  10  21  37  58  83 112 147 189 235 286 339
#     4  10  20  37  60  86 117 150 191 241 286 341
#     4  10  21  37  58  84 115 152 190 235 292 344
#     4  10  21  37  57  82 111 149 188 230 287 344
#     4  10  20  36  61  88 116 155 196 236 288 344
#
# _framework density 20.164346999999999
#
# number of rings (size 3 to 8) (size 9 to 14) (size 15 to 20)
#    0.000    2.000    0.000    5.000    0.000    5.333 
#    0.000    5.000    0.000    8.000    0.000    0.000 
#    0.000    0.000    0.000    0.000    0.000    0.000 
#
# Total GULP energy -133867.592185 kJ/mol
# GULP energy per Si atom -5577.816341 kJ/mol
# Density = 2.011845 g / cm^3
# Si number density = 20.164347 Si / 1000 Ang^3
#
#
#
# Elastic Constant Matrix: (Units=GPa)
#
#
# Indices 1 2 3 4 5 6 
#
# 1 138.0310 54.4495 21.1694 0.0118 -26.5408 0.0002
# 2 54.4495 147.5917 4.2361 0.0147 -16.0999 0.0007
# 3 21.1694 4.2361 36.2520 -0.0568 -5.4521 -0.0050
# 4 0.0118 0.0147 -0.0568 -358.3543 0.0247 2.7890
# 5 -26.5408 -16.0999 -5.4521 0.0247 44.6021 0.0024
# 6 0.0002 0.0007 -0.0050 2.7890 0.0024 25.6538
#
#
#
# Elastic Compliance Matrix: (Units=1/GPa)
#
#
# Indices 1 2 3 4 5 6 
#
# 1 0.010029 -0.003096 -0.004855 0.000001 0.004257 -0.000001
# 2 -0.003096 0.008016 0.001049 0.000000 0.001179 0.000000
# 3 -0.004855 0.001049 0.030480 -0.000005 0.001216 0.000006
# 4 0.000001 0.000000 -0.000005 -0.002788 0.000002 0.000303
# 5 0.004257 0.001179 0.001216 0.000002 0.025528 -0.000002
# 6 -0.000001 0.000000 0.000006 0.000303 -0.000002 0.038948
#
#
# Mechanical properties :
#
#
# Convention : Reuss Voigt Hill
#
# Bulk Modulus (GPa) = 28.80099 53.50942 41.15521
# Shear Modulus (GPa) = 36.87577 -41.48503 -2.30463
#
# Velocity S-wave (km/s) = 4.28104 -4.54072 -1.07024
# Velocity P-wave (km/s) = 6.22499 0.94687 4.35052
#
# Compressibility (1/GPa) = 0.03472103
#
# Stress axis : x y z
#
# Youngs Moduli (GPa) = 99.70885 124.74620 32.80867
#
# Poissons Ratio (x) = 0.38625 0.15927
# Poissons Ratio (y) = 0.30873 -0.03441
# Poissons Ratio (z) = 0.48404 -0.13083
#
# Static dielectric constant tensor:
#      x y z
#    x 1.733230 0.000000 -0.017840 
#    y 0.000000 1.720140 0.000000 
#    z -0.017840 0.000000 1.715040 
# 
# From -- ./inp_files/149652.got.cif
#   From: 2010.05.17/outbox.cif.g08.bks.cpg/sg12_75_cif.got.tgz:149652.got - 2010.06.03 13:09:07.
