data_PCOD9198129
_publ_section_title
;
Structure prediction by ZEFSAII (Michael W. Deem and Ramdas Pophale) SiO2 
 PCOD9198129
Probable space group: C 2/M
;
_chemical_formula_sum "Si O2"
_cell_formula_units_Z 64
_cell_length_a 27.570216
_cell_length_b 9.495026
_cell_length_c 15.147129
_cell_angle_alpha 90.000000
_cell_angle_beta 51.615448
_cell_angle_gamma 90.000000
_cell_volume 3108.176366
_symmetry_space_group_name_H-M "C 2/M"
_symmetry_group_IT_number 12
_symmetry_cell_setting 'monoclinic'
loop_
_space_group_symop_operation_xyz
x,y,z
-x,y,-z
-x,-y,-z
x,-y,z
1/2+x,1/2+y,z
1/2-x,1/2+y,-z
1/2-x,1/2-y,-z
1/2+x,1/2-y,z
loop_
_atom_site_type_symbol
_atom_site_label
_atom_site_fract_x
_atom_site_fract_y
_atom_site_fract_z
Si Si1 0.762628 0.662144 0.897130
Si Si2 0.405157 0.661120 0.552981
Si Si3 0.037275 0.668474 0.156407
Si Si4 0.822423 0.837697 0.304754
Si Si5 0.081668 0.830495 0.662689
Si Si6 0.244176 0.837840 0.266527
Si Si7 0.568631 0.340634 0.962573
Si Si8 0.588623 0.840452 0.287844
O O1 0.740163 0.500000 0.927891
O O2 0.737805 0.743446 0.838827
O O3 0.836865 0.657022 0.801678
O O4 0.750000 0.750000 0.000000
O O5 0.425593 0.500000 0.537588
O O6 0.420962 0.711487 0.436865
O O7 0.330258 0.662998 0.643221
O O8 0.429456 0.748485 0.607988
O O9 0.033159 0.500000 0.156364
O O10 0.076827 0.729366 0.031196
O O11 0.065218 0.710468 0.219546
O O12 0.970695 0.743046 0.228291
O O13 0.852171 0.804411 0.366072
O O14 0.772500 0.732140 0.321778
O O15 0.800066 0.000000 0.329811
O O16 0.880323 0.829885 0.171197
O O17 0.071032 0.000000 0.682222
O O18 0.264147 0.000000 0.233347
O O19 0.571548 0.500000 0.995664
O O20 0.500000 0.321805 0.000000
O O21 0.566333 0.000000 0.325297
#
# Coordination Sequence:
#
# PCOD9198129 Si02
#       8
#     8   8   8   8   8   8   8   8
#     4  10  20  36  56  80 110 149 191 231 280 336
#     4   9  20  39  62  84 109 147 191 235 280 329
#     4  11  23  37  56  86 117 149 187 231 286 336
#     4  10  21  37  58  84 113 150 191 229 279 339
#     4  10  21  40  61  82 112 149 192 236 277 333
#     4  10  21  37  56  83 116 146 185 236 284 334
#     4  10  20  38  59  80 111 153 191 229 278 334
#     4   9  21  39  56  79 115 149 181 228 285 337
#
# _framework density 20.590852999999999
#
# number of rings (size 3 to 8) (size 9 to 14) (size 15 to 20)
#    0.000    2.125    1.250    1.125    1.750    4.750 
#    0.000    2.500    0.000    0.000    0.000    0.000 
#    0.000    0.000    0.000    0.000    0.000    0.000 
#
# Total GULP energy -178757.357617 kJ/mol
# GULP energy per Si atom -5586.167426 kJ/mol
# Density = 2.054399 g / cm^3
# Si number density = 20.590853 Si / 1000 Ang^3
#
#
#
# Elastic Constant Matrix: (Units=GPa)
#
#
# Indices 1 2 3 4 5 6 
#
# 1 60.6973 29.2967 -6.2988 0.0000 19.0838 0.0000
# 2 29.2967 77.2768 29.1363 0.0000 21.3026 0.0000
# 3 -6.2988 29.1363 67.2602 0.0000 21.5478 0.0000
# 4 0.0000 0.0000 0.0000 14.5986 0.0000 16.6478
# 5 19.0838 21.3026 21.5478 0.0000 32.3210 0.0000
# 6 0.0000 0.0000 0.0000 16.6478 0.0000 16.0862
#
#
#
# Elastic Compliance Matrix: (Units=1/GPa)
#
#
# Indices 1 2 3 4 5 6 
#
# 1 0.029136 -0.010905 0.013557 0.000000 -0.019054 0.000000
# 2 -0.010905 0.021025 -0.009858 0.000000 -0.000847 0.000000
# 3 0.013557 -0.009858 0.026564 0.000000 -0.019217 0.000000
# 4 0.000000 0.000000 0.000000 -0.380173 0.000000 0.393445
# 5 -0.019054 -0.000847 -0.019217 0.000000 0.055560 0.000000
# 6 0.000000 0.000000 0.000000 0.393445 0.000000 -0.345015
#
#
# Mechanical properties :
#
#
# Convention : Reuss Voigt Hill
#
# Bulk Modulus (GPa) = 16.04795 34.38920 25.21857
# Shear Modulus (GPa) = -8.96505 22.80783 6.92139
#
# Velocity S-wave (km/s) = -2.08886 3.33178 1.83540
# Velocity P-wave (km/s) = 1.41168 5.61591 4.09459
#
# Compressibility (1/GPa) = 0.06231327
#
# Stress axis : x y z
#
# Youngs Moduli (GPa) = 34.32159 47.56304 37.64518
#
# Poissons Ratio (x) = 0.51866 -0.51034
# Poissons Ratio (y) = 0.37427 0.37109
# Poissons Ratio (z) = -0.46528 0.46886
#
# Static dielectric constant tensor:
#      x y z
#    x 1.747450 0.000000 -0.003200 
#    y 0.000000 1.708360 0.000000 
#    z -0.003200 0.000000 1.736330 
# 
# From -- ./inp_files/249026.got.cif
#   From: 2010.05.17/outbox.cif.g08.bks.cpg/sg12_125_cif.got.tgz:249026.got - 2010.06.03 13:09:07.
