data_PCOD9198416
_publ_section_title
;
Structure prediction by ZEFSAII (Michael W. Deem and Ramdas Pophale) SiO2 
 PCOD9198416
Probable space group: C 2/M
;
_chemical_formula_sum "Si O2"
_cell_formula_units_Z 40
_cell_length_a 31.510973
_cell_length_b 7.969129
_cell_length_c 11.682850
_cell_angle_alpha 90.000000
_cell_angle_beta 139.046159
_cell_angle_gamma 90.000000
_cell_volume 1922.921568
_symmetry_space_group_name_H-M "C 2/M"
_symmetry_group_IT_number 12
_symmetry_cell_setting 'monoclinic'
loop_
_space_group_symop_operation_xyz
x,y,z
-x,y,-z
-x,-y,-z
x,-y,z
1/2+x,1/2+y,z
1/2-x,1/2+y,-z
1/2-x,1/2-y,-z
1/2+x,1/2-y,z
loop_
_atom_site_type_symbol
_atom_site_label
_atom_site_fract_x
_atom_site_fract_y
_atom_site_fract_z
Si Si1 0.856854 0.297417 0.473910
Si Si2 0.979844 0.300196 0.584289
Si Si3 0.230771 0.201594 0.087732
Si Si4 0.674318 0.699418 0.340534
Si Si5 0.892449 0.796044 0.029707
O O1 0.857091 0.500000 0.468179
O O2 0.787261 0.236579 0.286840
O O3 0.861348 0.250632 0.615593
O O4 0.913922 0.233517 0.507510
O O5 0.970662 0.500000 0.551289
O O6 0.000000 0.231439 0.500000
O O7 0.038150 0.269789 0.791264
O O8 0.160434 0.260150 0.983877
O O9 0.229765 0.000000 0.094100
O O10 0.250000 0.250000 0.000000
O O11 0.674313 0.500000 0.331854
O O12 0.750000 0.750000 0.500000
O O13 0.636441 0.762028 0.150879
O O14 0.895706 0.000000 0.035528
#
# Coordination Sequence:
#
# PCOD9198416 Si02
#       5
#     8   8   8   8   8
#     4  10  21  39  60  85 120 155 195 246 294 346
#     4  10  22  40  62  87 119 159 198 241 291 348
#     4  10  20  36  57  83 114 150 195 245 293 344
#     4  11  22  39  62  88 119 155 197 245 297 351
#     4  10  22  39  59  84 118 155 192 243 297 348
#
# _framework density 20.801680999999999
#
# number of rings (size 3 to 8) (size 9 to 14) (size 15 to 20)
#    0.000    1.800    2.000    1.800    0.000    6.800 
#    0.000    4.000    0.000    0.000    0.000    0.000 
#    0.000    0.000    0.000    0.000    0.000    0.000 
#
# Total GULP energy -111715.864599 kJ/mol
# GULP energy per Si atom -5585.793230 kJ/mol
# Density = 2.075434 g / cm^3
# Si number density = 20.801681 Si / 1000 Ang^3
#
#
#
# Elastic Constant Matrix: (Units=GPa)
#
#
# Indices 1 2 3 4 5 6 
#
# 1 79.3077 1.9863 -15.4095 0.0000 -1.7515 0.0000
# 2 1.9863 12.9681 -9.3680 0.0000 4.0561 0.0000
# 3 -15.4095 -9.3680 39.0930 0.0000 -0.8481 0.0000
# 4 0.0000 0.0000 0.0000 27.0507 0.0000 -3.9209
# 5 -1.7515 4.0561 -0.8481 0.0000 43.4052 0.0000
# 6 0.0000 0.0000 0.0000 -3.9209 0.0000 27.7082
#
#
#
# Elastic Compliance Matrix: (Units=1/GPa)
#
#
# Indices 1 2 3 4 5 6 
#
# 1 0.013715 0.002010 0.005898 0.000000 0.000481 0.000000
# 2 0.002010 0.096624 0.023763 0.000000 -0.008484 0.000000
# 3 0.005898 0.023763 0.033571 0.000000 -0.001327 0.000000
# 4 0.000000 0.000000 0.000000 0.037742 0.000000 0.005341
# 5 0.000481 -0.008484 -0.001327 0.000000 0.023825 0.000000
# 6 0.000000 0.000000 0.000000 0.005341 0.000000 0.036846
#
#
# Mechanical properties :
#
#
# Convention : Reuss Voigt Hill
#
# Bulk Modulus (GPa) = 4.82506 9.53181 7.17843
# Shear Modulus (GPa) = 20.15597 29.91015 25.03306
#
# Velocity S-wave (km/s) = 3.11619 3.79604 3.47279
# Velocity P-wave (km/s) = 3.90795 4.87908 4.42027
#
# Compressibility (1/GPa) = 0.20725122
#
# Stress axis : x y z
#
# Youngs Moduli (GPa) = 72.91045 10.34940 29.78800
#
# Poissons Ratio (x) = -0.02080 -0.17570
# Poissons Ratio (y) = -0.14653 -0.70784
# Poissons Ratio (z) = -0.43005 -0.24593
#
# Static dielectric constant tensor:
#      x y z
#    x 1.750330 0.000000 -0.009780 
#    y 0.000000 1.733740 0.000000 
#    z -0.009780 0.000000 1.724590 
# 
# From -- ./inp_files/151629.got.cif
#   From: 2010.05.17/outbox.cif.g08.bks.cpg/sg12_76_cif.got.tgz:151629.got - 2010.06.03 13:09:07.
