data_PCOD9198112
_publ_section_title
;
Structure prediction by ZEFSAII (Michael W. Deem and Ramdas Pophale) SiO2 
 PCOD9198112
Probable space group: C 2/M
;
_chemical_formula_sum "Si O2"
_cell_formula_units_Z 64
_cell_length_a 30.983146
_cell_length_b 18.346011
_cell_length_c 10.076470
_cell_angle_alpha 90.000000
_cell_angle_beta 141.104634
_cell_angle_gamma 90.000000
_cell_volume 3596.384690
_symmetry_space_group_name_H-M "C 2/M"
_symmetry_group_IT_number 12
_symmetry_cell_setting 'monoclinic'
loop_
_space_group_symop_operation_xyz
x,y,z
-x,y,-z
-x,-y,-z
x,-y,z
1/2+x,1/2+y,z
1/2-x,1/2+y,-z
1/2-x,1/2-y,-z
1/2+x,1/2-y,z
loop_
_atom_site_type_symbol
_atom_site_label
_atom_site_fract_x
_atom_site_fract_y
_atom_site_fract_z
Si Si1 0.165804 0.913230 0.383632
Si Si2 0.919479 0.156174 0.047882
Si Si3 0.133887 0.915835 0.820672
Si Si4 0.301937 0.913515 0.858120
Si Si5 0.731448 0.835759 0.944601
Si Si6 0.575323 0.360006 0.412472
Si Si7 0.569124 0.182950 0.834726
Si Si8 0.583570 0.198073 0.552728
O O1 0.138414 0.876159 0.185371
O O2 0.245723 0.901340 0.609198
O O3 0.122643 0.879979 0.402383
O O4 0.153848 0.000000 0.349653
O O5 0.909496 0.124850 0.171277
O O6 0.916705 0.243579 0.049706
O O7 0.995493 0.132770 0.184283
O O8 0.096847 0.908533 0.589880
O O9 0.142416 0.000000 0.875893
O O10 0.207362 0.876149 0.984032
O O11 0.306102 0.000000 0.894234
O O12 0.274807 0.872461 0.925259
O O13 0.375833 0.879153 0.002968
O O14 0.655810 0.841182 0.698517
O O15 0.750000 0.750000 0.000000
O O16 0.585573 0.277390 0.490045
O O17 0.579482 0.203856 0.703574
O O18 0.489048 0.162372 0.661234
#
# Coordination Sequence:
#
# PCOD9198112 Si02
#       8
#     8   8   8   8   8   8   8   8
#     4  11  23  37  52  77 113 150 183 223 272 327
#     4  11  23  36  53  78 112 146 184 224 270 321
#     4  12  22  33  52  81 107 141 186 224 266 327
#     4  10  20  36  56  79 110 147 184 225 280 333
#     4  11  18  33  56  79 105 143 180 223 271 322
#     4  11  20  36  56  77 106 147 184 221 272 327
#     4   9  18  35  57  82 108 138 181 231 271 325
#     4   9  17  33  57  82 105 136 181 224 276 317
#
# _framework density 17.795649999999998
#
# number of rings (size 3 to 8) (size 9 to 14) (size 15 to 20)
#    0.000    1.500    3.750    2.625    0.000    3.500 
#    0.000    5.625    0.000    0.000    0.000    0.000 
#    0.000   11.000    0.000    0.000    0.000    0.000 
#
# Total GULP energy -178602.826588 kJ/mol
# GULP energy per Si atom -5581.338331 kJ/mol
# Density = 1.775515 g / cm^3
# Si number density = 17.795650 Si / 1000 Ang^3
#
#
#
# Elastic Constant Matrix: (Units=GPa)
#
#
# Indices 1 2 3 4 5 6 
#
# 1 25.8168 7.1127 10.6458 0.0000 15.4307 0.0000
# 2 7.1127 69.4852 32.5461 0.0000 19.5942 0.0000
# 3 10.6458 32.5461 67.9719 0.0000 21.3674 0.0000
# 4 0.0000 0.0000 0.0000 20.0600 0.0000 -3.7864
# 5 15.4307 19.5942 21.3674 0.0000 31.8593 0.0000
# 6 0.0000 0.0000 0.0000 -3.7864 0.0000 7.9558
#
#
#
# Elastic Compliance Matrix: (Units=1/GPa)
#
#
# Indices 1 2 3 4 5 6 
#
# 1 0.054888 0.002705 -0.001282 0.000000 -0.027388 0.000000
# 2 0.002705 0.019969 -0.007239 0.000000 -0.008737 0.000000
# 3 -0.001282 -0.007239 0.021268 0.000000 -0.009191 0.000000
# 4 0.000000 0.000000 0.000000 0.054771 0.000000 0.026067
# 5 -0.027388 -0.008737 -0.009191 0.000000 0.056191 0.000000
# 6 0.000000 0.000000 0.000000 0.026067 0.000000 0.138100
#
#
# Mechanical properties :
#
#
# Convention : Reuss Voigt Hill
#
# Bulk Modulus (GPa) = 11.83523 29.32034 20.57779
# Shear Modulus (GPa) = 12.98762 19.50631 16.24696
#
# Velocity S-wave (km/s) = 2.70445 3.31437 3.02482
# Velocity P-wave (km/s) = 4.05181 5.58199 4.87728
#
# Compressibility (1/GPa) = 0.08449347
#
# Stress axis : x y z
#
# Youngs Moduli (GPa) = 18.21896 50.07802 47.01889
#
# Poissons Ratio (x) = -0.13548 0.06029
# Poissons Ratio (y) = -0.04929 0.34035
# Poissons Ratio (z) = 0.02336 0.36250
#
# Static dielectric constant tensor:
#      x y z
#    x 1.597070 0.000000 0.027800 
#    y 0.000000 1.587180 0.000000 
#    z 0.027800 0.000000 1.626900 
# 
# From -- ./inp_files/112894.got.cif
#   From: 2010.05.17/outbox.cif.g08.bks.cpg/sg12_57_cif.got.tgz:112894.got - 2010.06.03 13:09:07.
