data_PCOD9198726
_publ_section_title
;
Structure prediction by ZEFSAII (Michael W. Deem and Ramdas Pophale) SiO2 
 PCOD9198726
Probable space group: C 2/M
;
_chemical_formula_sum "Si O2"
_cell_formula_units_Z 58
_cell_length_a 28.830754
_cell_length_b 7.504983
_cell_length_c 11.106548
_cell_angle_alpha 90.000000
_cell_angle_beta 90.546436
_cell_angle_gamma 90.000000
_cell_volume 2403.062465
_symmetry_space_group_name_H-M "C 2/M"
_symmetry_group_IT_number 12
_symmetry_cell_setting 'monoclinic'
loop_
_space_group_symop_operation_xyz
x,y,z
-x,y,-z
-x,-y,-z
x,-y,z
1/2+x,1/2+y,z
1/2-x,1/2+y,-z
1/2-x,1/2-y,-z
1/2+x,1/2-y,z
loop_
_atom_site_type_symbol
_atom_site_label
_atom_site_fract_x
_atom_site_fract_y
_atom_site_fract_z
Si Si1 0.942378 0.786692 0.376979
Si Si2 0.116711 0.785953 0.123657
Si Si3 0.892540 0.202397 0.134066
Si Si4 0.521805 0.281889 0.217650
Si Si5 0.702505 0.794764 0.268527
Si Si6 0.853150 0.288702 0.504997
Si Si7 0.192586 0.294664 0.742106
Si Si8 0.000000 0.500000 0.000000
O O1 0.915376 0.722259 0.254972
O O2 0.907941 0.735832 0.483711
O O3 0.994941 0.738534 0.341906
O O4 0.942069 0.000000 0.382294
O O5 0.076798 0.744031 0.218627
O O6 0.166809 0.715263 0.158083
O O7 0.120412 0.000000 0.114535
O O8 0.099356 0.712059 0.994723
O O9 0.837438 0.200661 0.156239
O O10 0.910111 0.000000 0.127792
O O11 0.517024 0.500000 0.196406
O O12 0.502643 0.159365 0.108021
O O13 0.672473 0.714867 0.378069
O O14 0.752399 0.711999 0.248178
O O15 0.713089 0.000000 0.294985
O O16 0.846223 0.500000 0.509760
O O17 0.825574 0.220965 0.386410
O O18 0.178257 0.500000 0.748897
#
# Coordination Sequence:
#
# PCOD9198726 Si02
#       8
#     8   8   8   8   8   8   8   2
#     4   9  18  35  60  86 116 150 187 244 300 343
#     4  10  22  40  58  79 119 160 195 239 286 350
#     4   9  18  34  56  82 112 147 184 232 294 345
#     4  10  22  39  57  90 127 157 204 251 292 353
#     4  11  23  38  57  81 113 152 196 243 291 352
#     4   9  20  37  58  86 115 143 189 251 297 347
#     4  10  20  36  58  84 111 143 188 241 299 352
#     4  12  22  32  64  90 114 168 198 240 308 344
#
# _framework density 24.135870000000001
#
# number of rings (size 3 to 8) (size 9 to 14) (size 15 to 20)
#    0.000    2.207    0.000    2.276    1.931    4.966 
#    4.966    0.690    0.000    4.138    0.000    0.000 
#    0.000    0.000    0.000    0.000    0.000    0.000 
#
# Total GULP energy -161576.712680 kJ/mol
# GULP energy per Si atom -5571.610782 kJ/mol
# Density = 2.408094 g / cm^3
# Si number density = 24.135870 Si / 1000 Ang^3
#
#
#
# Elastic Constant Matrix: (Units=GPa)
#
#
# Indices 1 2 3 4 5 6 
#
# 1 116.5870 -11.9772 7.0340 0.0000 -14.1992 0.0000
# 2 -11.9772 87.3854 -16.1678 0.0000 -1.3677 0.0000
# 3 7.0340 -16.1678 34.1816 0.0000 -12.2495 0.0000
# 4 0.0000 0.0000 0.0000 12.6108 0.0000 -9.4550
# 5 -14.1992 -1.3677 -12.2495 0.0000 30.3128 0.0000
# 6 0.0000 0.0000 0.0000 -9.4550 0.0000 0.9109
#
#
#
# Elastic Compliance Matrix: (Units=1/GPa)
#
#
# Indices 1 2 3 4 5 6 
#
# 1 0.009254 0.001413 0.000398 0.000000 0.004559 0.000000
# 2 0.001413 0.013076 0.007417 0.000000 0.004249 0.000000
# 3 0.000398 0.007417 0.038434 0.000000 0.016053 0.000000
# 4 0.000000 0.000000 0.000000 -0.011691 0.000000 -0.121358
# 5 0.004559 0.004249 0.016053 0.000000 0.041804 0.000000
# 6 0.000000 0.000000 0.000000 -0.121358 0.000000 -0.161863
#
#
# Mechanical properties :
#
#
# Convention : Reuss Voigt Hill
#
# Bulk Modulus (GPa) = 12.62292 21.77020 17.19656
# Shear Modulus (GPa) = -79.31892 26.05123 -26.63384
#
# Velocity S-wave (km/s) = -5.73889 3.28892 -3.32550
# Velocity P-wave (km/s) = 6.21867 4.84377 2.75769
#
# Compressibility (1/GPa) = 0.07922100
#
# Stress axis : x y z
#
# Youngs Moduli (GPa) = 108.06430 76.47580 26.01832
#
# Poissons Ratio (x) = -0.10809 -0.01036
# Poissons Ratio (y) = -0.15273 -0.19297
# Poissons Ratio (z) = -0.04303 -0.56721
#
# Static dielectric constant tensor:
#      x y z
#    x 1.937790 0.000000 -0.016930 
#    y 0.000000 1.939260 0.000000 
#    z -0.016930 0.000000 1.960420 
# 
# From -- ./inp_files/180972.got.cif
#   From: 2010.05.17/outbox.cif.g08.bks.cpg/sg12_91_cif.got.tgz:180972.got - 2010.06.03 13:09:07.
