data_PCOD9198769
_publ_section_title
;
Structure prediction by ZEFSAII (Michael W. Deem and Ramdas Pophale) SiO2 
 PCOD9198769
Probable space group: C 2/M
;
_chemical_formula_sum "Si O2"
_cell_formula_units_Z 56
_cell_length_a 28.369006
_cell_length_b 14.712128
_cell_length_c 11.152034
_cell_angle_alpha 90.000000
_cell_angle_beta 34.726138
_cell_angle_gamma 90.000000
_cell_volume 2651.461025
_symmetry_space_group_name_H-M "C 2/M"
_symmetry_group_IT_number 12
_symmetry_cell_setting 'monoclinic'
loop_
_space_group_symop_operation_xyz
x,y,z
-x,y,-z
-x,-y,-z
x,-y,z
1/2+x,1/2+y,z
1/2-x,1/2+y,-z
1/2-x,1/2-y,-z
1/2+x,1/2-y,z
loop_
_atom_site_type_symbol
_atom_site_label
_atom_site_fract_x
_atom_site_fract_y
_atom_site_fract_z
Si Si1 0.390254 0.602635 0.340317
Si Si2 0.339755 0.259752 0.253544
Si Si3 0.550131 0.651746 0.147985
Si Si4 0.378634 0.599895 0.751916
Si Si5 0.295274 0.892820 0.171855
Si Si6 0.812397 0.605842 0.861493
Si Si7 0.948835 0.278756 0.490821
O O1 0.382602 0.500000 0.300744
O O2 0.392240 0.691984 0.250490
O O3 0.477003 0.603561 0.228947
O O4 0.304703 0.614042 0.595799
O O5 0.250000 0.250000 0.500000
O O6 0.342706 0.164239 0.174950
O O7 0.363784 0.332665 0.100610
O O8 0.571232 0.605843 0.229693
O O9 0.511243 0.752232 0.256212
O O10 0.387393 0.500000 0.678154
O O11 0.409507 0.681597 0.606838
O O12 0.282356 0.614965 0.978303
O O13 0.314857 0.000000 0.137408
O O14 0.315831 0.859620 0.993110
O O15 0.833469 0.500000 0.822235
O O16 0.872625 0.654280 0.642369
O O17 0.000000 0.310778 0.500000
#
# Coordination Sequence:
#
# PCOD9198769 Si02
#       7
#     8   8   8   8   8   8   8
#     4  10  21  37  59  87 115 145 185 235 289 340
#     4  10  22  39  57  79 107 143 191 240 284 333
#     4  11  22  35  55  82 117 152 184 229 285 335
#     4  10  21  35  54  84 120 154 184 219 271 339
#     4   9  18  36  61  84 111 150 190 229 278 335
#     4  10  20  36  58  84 116 155 195 228 266 330
#     4  10  21  34  53  83 118 151 187 231 277 330
#
# _framework density 21.120431
#
# number of rings (size 3 to 8) (size 9 to 14) (size 15 to 20)
#    0.000    2.000    0.000    3.857    0.000    8.571 
#    0.000    0.714    0.000    2.571    0.000    0.000 
#    0.000    0.000    0.000    0.000    0.000    0.000 
#
# Total GULP energy -155944.221107 kJ/mol
# GULP energy per Si atom -5569.436468 kJ/mol
# Density = 2.107236 g / cm^3
# Si number density = 21.120431 Si / 1000 Ang^3
#
#
#
# Elastic Constant Matrix: (Units=GPa)
#
#
# Indices 1 2 3 4 5 6 
#
# 1 77.3669 44.4954 2.9523 0.0000 -10.2190 0.0000
# 2 44.4954 61.1488 36.7724 0.0000 -14.0296 0.0000
# 3 2.9523 36.7724 90.7140 0.0000 -7.6228 0.0000
# 4 0.0000 0.0000 0.0000 -1.7419 0.0000 -8.9498
# 5 -10.2190 -14.0296 -7.6228 0.0000 20.0193 0.0000
# 6 0.0000 0.0000 0.0000 -8.9498 0.0000 17.6107
#
#
#
# Elastic Compliance Matrix: (Units=1/GPa)
#
#
# Indices 1 2 3 4 5 6 
#
# 1 0.027230 -0.025601 0.009454 0.000000 -0.000442 0.000000
# 2 -0.025601 0.049028 -0.017822 0.000000 0.014504 0.000000
# 3 0.009454 -0.017822 0.017868 0.000000 -0.000860 0.000000
# 4 0.000000 0.000000 0.000000 -0.158975 0.000000 -0.080792
# 5 -0.000442 0.014504 -0.000860 0.000000 0.059564 0.000000
# 6 0.000000 0.000000 0.000000 -0.080792 0.000000 0.015725
#
#
# Mechanical properties :
#
#
# Convention : Reuss Voigt Hill
#
# Bulk Modulus (GPa) = 38.18464 44.18553 41.18509
# Shear Modulus (GPa) = 57.40142 16.84493 37.12317
#
# Velocity S-wave (km/s) = 5.21892 2.82718 4.19703
# Velocity P-wave (km/s) = 7.37800 5.62347 6.55966
#
# Compressibility (1/GPa) = 0.02618854
#
# Stress axis : x y z
#
# Youngs Moduli (GPa) = 36.72423 20.39663 55.96529
#
# Poissons Ratio (x) = 0.52217 -0.52912
# Poissons Ratio (y) = 0.94018 0.99742
# Poissons Ratio (z) = -0.34721 0.36351
#
# Static dielectric constant tensor:
#      x y z
#    x 1.798920 0.000000 0.035640 
#    y 0.000000 1.769100 0.000000 
#    z 0.035640 0.000000 1.844270 
# 
# From -- ./inp_files/189633.got.cif
#   From: 2010.05.17/outbox.cif.g08.bks.cpg/sg12_95_cif.got.tgz:189633.got - 2010.06.03 13:09:07.
