data_PCOD9198792
_publ_section_title
;
Structure prediction by ZEFSAII (Michael W. Deem and Ramdas Pophale) SiO2 
 PCOD9198792
Probable space group: C 2/M
;
_chemical_formula_sum "Si O2"
_cell_formula_units_Z 64
_cell_length_a 14.832333
_cell_length_b 8.211642
_cell_length_c 23.533817
_cell_angle_alpha 90.000000
_cell_angle_beta 94.457351
_cell_angle_gamma 90.000000
_cell_volume 2857.697896
_symmetry_space_group_name_H-M "C 2/M"
_symmetry_group_IT_number 12
_symmetry_cell_setting 'monoclinic'
loop_
_space_group_symop_operation_xyz
x,y,z
-x,y,-z
-x,-y,-z
x,-y,z
1/2+x,1/2+y,z
1/2-x,1/2+y,-z
1/2-x,1/2-y,-z
1/2+x,1/2-y,z
loop_
_atom_site_type_symbol
_atom_site_label
_atom_site_fract_x
_atom_site_fract_y
_atom_site_fract_z
Si Si1 0.476503 0.697252 0.396901
Si Si2 0.306965 0.303879 0.449005
Si Si3 0.927841 0.192344 0.149265
Si Si4 0.272121 0.686966 0.877079
Si Si5 0.313088 0.192282 0.758896
Si Si6 0.845447 0.695194 0.640025
Si Si7 0.901522 0.193335 0.272459
Si Si8 0.555559 0.808318 0.056525
O O1 0.476596 0.500000 0.397303
O O2 0.409292 0.752499 0.443338
O O3 0.578629 0.755408 0.401021
O O4 0.438123 0.757356 0.333879
O O5 0.308849 0.500000 0.450245
O O6 0.250000 0.250000 0.500000
O O7 0.249657 0.252145 0.390809
O O8 0.821481 0.213299 0.128377
O O9 0.938937 0.258418 0.214330
O O10 0.991810 0.279996 0.107802
O O11 0.948633 0.000000 0.149576
O O12 0.245764 0.500000 0.880655
O O13 0.321569 0.717377 0.818809
O O14 0.346407 0.731599 0.927532
O O15 0.362873 0.257158 0.704903
O O16 0.206906 0.207093 0.737213
O O17 0.332496 0.000000 0.768962
O O18 0.842845 0.500000 0.644975
O O19 0.920545 0.000000 0.273731
O O20 0.569927 0.000000 0.048750
O O21 0.500000 0.741589 0.000000
#
# Coordination Sequence:
#
# PCOD9198792 Si02
#       8
#     8   8   8   8   8   8   8   8
#     4  10  20  36  58  85 116 152 193 238 292 354
#     4  10  22  41  62  81 113 157 198 241 290 346
#     4  10  21  39  64  92 123 160 201 250 306 359
#     4  11  23  39  61  91 125 162 203 248 302 362
#     4   9  17  35  60  84 117 157 196 240 297 358
#     4  10  21  37  58  86 116 153 194 241 297 350
#     4   8  15  32  58  84 114 151 189 232 289 352
#     4  11  25  44  64  88 121 162 208 254 301 358
#
# _framework density 22.395648000000001
#
# number of rings (size 3 to 8) (size 9 to 14) (size 15 to 20)
#    0.000    2.125    1.250    2.625    1.750    3.500 
#    0.000    5.000    0.000    0.000    0.000    0.000 
#    0.000    0.000    0.000    0.000    0.000    0.000 
#
# Total GULP energy -178737.276035 kJ/mol
# GULP energy per Si atom -5585.539876 kJ/mol
# Density = 2.234467 g / cm^3
# Si number density = 22.395648 Si / 1000 Ang^3
#
#
#
# Elastic Constant Matrix: (Units=GPa)
#
#
# Indices 1 2 3 4 5 6 
#
# 1 59.5323 -9.3877 -4.3443 0.0000 -7.3740 0.0000
# 2 -9.3877 15.5584 -5.5306 0.0000 10.7457 0.0000
# 3 -4.3443 -5.5306 33.2935 0.0000 0.0297 0.0000
# 4 0.0000 0.0000 0.0000 20.7155 0.0000 -5.0390
# 5 -7.3740 10.7457 0.0297 0.0000 25.7679 0.0000
# 6 0.0000 0.0000 0.0000 -5.0390 0.0000 25.1111
#
#
#
# Elastic Compliance Matrix: (Units=1/GPa)
#
#
# Indices 1 2 3 4 5 6 
#
# 1 0.019237 0.013326 0.004724 0.000000 -0.000058 0.000000
# 2 0.013326 0.107712 0.019668 0.000000 -0.041127 0.000000
# 3 0.004724 0.019668 0.033926 0.000000 -0.006889 0.000000
# 4 0.000000 0.000000 0.000000 0.050750 0.000000 0.010184
# 5 -0.000058 -0.041127 -0.006889 0.000000 0.055950 0.000000
# 6 0.000000 0.000000 0.000000 0.010184 0.000000 0.041867
#
#
# Mechanical properties :
#
#
# Convention : Reuss Voigt Hill
#
# Bulk Modulus (GPa) = 4.23172 7.76211 5.99691
# Shear Modulus (GPa) = 15.98596 22.82870 19.40733
#
# Velocity S-wave (km/s) = 2.67460 3.19617 2.94694
# Velocity P-wave (km/s) = 3.38106 4.13450 3.77662
#
# Compressibility (1/GPa) = 0.23631055
#
# Stress axis : x y z
#
# Youngs Moduli (GPa) = 51.98424 9.28404 29.47627
#
# Poissons Ratio (x) = -0.12372 -0.13924
# Poissons Ratio (y) = -0.69276 -0.57975
# Poissons Ratio (z) = -0.24556 -0.18260
#
# Static dielectric constant tensor:
#      x y z
#    x 1.837340 0.000000 0.005850 
#    y 0.000000 1.779760 0.000000 
#    z 0.005850 0.000000 1.868300 
# 
# From -- ./inp_files/338752.got.cif
#   From: 2010.05.17/outbox.cif.g08.bks.cpg/sg12_170_cif.got.tgz:338752.got - 2010.06.03 13:09:07.
