data_PCOD9198117
_publ_section_title
;
Structure prediction by ZEFSAII (Michael W. Deem and Ramdas Pophale) SiO2 
 PCOD9198117
Probable space group: C 2/M
;
_chemical_formula_sum "Si O2"
_cell_formula_units_Z 64
_cell_length_a 25.197821
_cell_length_b 7.533147
_cell_length_c 32.515319
_cell_angle_alpha 90.000000
_cell_angle_beta 152.400552
_cell_angle_gamma 90.000000
_cell_volume 2859.420509
_symmetry_space_group_name_H-M "C 2/M"
_symmetry_group_IT_number 12
_symmetry_cell_setting 'monoclinic'
loop_
_space_group_symop_operation_xyz
x,y,z
-x,y,-z
-x,-y,-z
x,-y,z
1/2+x,1/2+y,z
1/2-x,1/2+y,-z
1/2-x,1/2-y,-z
1/2+x,1/2-y,z
loop_
_atom_site_type_symbol
_atom_site_label
_atom_site_fract_x
_atom_site_fract_y
_atom_site_fract_z
Si Si1 0.508027 0.282949 0.552616
Si Si2 0.079275 0.794804 0.350605
Si Si3 0.756982 0.712575 0.749947
Si Si4 0.335894 0.715856 0.503688
Si Si5 0.130263 0.787125 0.085668
Si Si6 0.684856 0.716351 0.032691
Si Si7 0.046069 0.707163 0.174377
Si Si8 0.073673 0.294764 0.828831
O O1 0.500000 0.226434 0.500000
O O2 0.506460 0.500000 0.551888
O O3 0.628871 0.222736 0.654196
O O4 0.402969 0.227390 0.509224
O O5 0.205882 0.779780 0.417857
O O6 0.096164 0.724751 0.408542
O O7 0.988642 0.708576 0.257911
O O8 0.046171 0.000000 0.331059
O O9 0.753861 0.500000 0.742808
O O10 0.800788 0.745706 0.825929
O O11 0.848621 0.783711 0.779538
O O12 0.331437 0.500000 0.501874
O O13 0.184948 0.726095 0.080394
O O14 0.123472 0.000000 0.078195
O O15 0.000000 0.719066 0.000000
O O16 0.684663 0.500000 0.031427
O O17 0.799071 0.781649 0.088257
O O18 0.567930 0.778894 0.931553
O O19 0.075622 0.500000 0.201601
O O20 0.008582 0.785348 0.192677
O O21 0.090022 0.500000 0.852203
#
# Coordination Sequence:
#
# PCOD9198117 Si02
#       8
#     8   8   8   8   8   8   8   8
#     4   9  19  35  59  86 111 143 183 228 277 330
#     4  10  21  36  56  84 110 140 182 226 273 325
#     4  10  21  35  56  86 111 140 187 233 274 324
#     4   9  19  37  59  80 109 144 179 223 276 327
#     4  10  20  36  56  79 111 151 187 221 273 336
#     4  10  21  37  56  79 110 148 187 222 270 330
#     4  10  21  36  55  81 111 143 184 230 274 321
#     4  10  22  37  56  81 109 144 185 226 273 327
#
# _framework density 22.382158
#
# number of rings (size 3 to 8) (size 9 to 14) (size 15 to 20)
#    0.000    2.250    1.250    0.750    3.500    2.250 
#    0.000    0.625    0.000    0.750    0.000    0.000 
#    0.000    0.000    0.000    0.000    0.000    0.000 
#
# Total GULP energy -178785.571333 kJ/mol
# GULP energy per Si atom -5587.049104 kJ/mol
# Density = 2.233122 g / cm^3
# Si number density = 22.382158 Si / 1000 Ang^3
#
#
#
# Elastic Constant Matrix: (Units=GPa)
#
#
# Indices 1 2 3 4 5 6 
#
# 1 92.5623 -1.1763 -6.1888 0.0023 -11.3090 -0.0026
# 2 -1.1763 55.0521 -16.1733 -0.0032 0.4265 -0.0168
# 3 -6.1888 -16.1733 46.4490 0.0022 -10.3863 0.0002
# 4 0.0023 -0.0032 0.0022 25.1915 0.0003 -6.8101
# 5 -11.3090 0.4265 -10.3863 0.0003 16.3418 0.0008
# 6 -0.0026 -0.0168 0.0002 -6.8101 0.0008 9.9613
#
#
#
# Elastic Compliance Matrix: (Units=1/GPa)
#
#
# Indices 1 2 3 4 5 6 
#
# 1 0.012586 0.001608 0.004867 0.000000 0.011761 0.000005
# 2 0.001608 0.020741 0.008817 0.000013 0.006175 0.000044
# 3 0.004867 0.008817 0.030248 0.000002 0.022362 0.000015
# 4 0.000000 0.000013 0.000002 0.048696 -0.000002 0.033291
# 5 0.011761 0.006175 0.022362 -0.000002 0.083383 0.000005
# 6 0.000005 0.000044 0.000015 0.033291 0.000005 0.123148
#
#
# Mechanical properties :
#
#
# Convention : Reuss Voigt Hill
#
# Bulk Modulus (GPa) = 10.62049 16.33186 13.47617
# Shear Modulus (GPa) = 15.64427 24.80570 20.22499
#
# Velocity S-wave (km/s) = 2.64666 3.33270 3.00929
# Velocity P-wave (km/s) = 3.75434 4.70338 4.25540
#
# Compressibility (1/GPa) = 0.09415766
#
# Stress axis : x y z
#
# Youngs Moduli (GPa) = 79.45142 48.21277 33.06029
#
# Poissons Ratio (x) = -0.07750 -0.16089
# Poissons Ratio (y) = -0.12772 -0.29149
# Poissons Ratio (z) = -0.38666 -0.42509
#
# Static dielectric constant tensor:
#      x y z
#    x 1.839120 0.000000 0.002550 
#    y 0.000000 1.881050 0.000000 
#    z 0.002550 0.000000 1.765820 
# 
# From -- ./inp_files/382478.got.cif
#   From: 2010.05.17/outbox.cif.g08.bks.cpg/sg12_192_cif.got.tgz:382478.got - 2010.06.03 13:09:07.
