data_PCOD9198492
_publ_section_title
;
Structure prediction by ZEFSAII (Michael W. Deem and Ramdas Pophale) SiO2 
 PCOD9198492
Probable space group: C 2/M
;
_chemical_formula_sum "Si O2"
_cell_formula_units_Z 40
_cell_length_a 19.483100
_cell_length_b 13.748914
_cell_length_c 19.109930
_cell_angle_alpha 90.000000
_cell_angle_beta 24.257342
_cell_angle_gamma 90.000000
_cell_volume 2103.069910
_symmetry_space_group_name_H-M "C 2/M"
_symmetry_group_IT_number 12
_symmetry_cell_setting 'monoclinic'
loop_
_space_group_symop_operation_xyz
x,y,z
-x,y,-z
-x,-y,-z
x,-y,z
1/2+x,1/2+y,z
1/2-x,1/2+y,-z
1/2-x,1/2-y,-z
1/2+x,1/2-y,z
loop_
_atom_site_type_symbol
_atom_site_label
_atom_site_fract_x
_atom_site_fract_y
_atom_site_fract_z
Si Si1 0.501903 0.617168 0.788803
Si Si2 0.152066 0.383552 0.038165
Si Si3 0.141448 0.618086 0.582760
Si Si4 0.557693 0.882752 0.368997
Si Si5 0.595550 0.277793 0.983934
O O1 0.506266 0.500000 0.792249
O O2 0.664784 0.647447 0.592780
O O3 0.505491 0.663748 0.862357
O O4 0.325378 0.641104 0.916467
O O5 0.148284 0.500000 0.032521
O O6 0.138749 0.325452 0.978662
O O7 0.993918 0.353237 0.233212
O O8 0.140402 0.500000 0.586052
O O9 0.071499 0.646173 0.571596
O O10 0.500000 0.853872 0.500000
O O11 0.572440 0.000000 0.353686
O O12 0.734645 0.836655 0.186486
O O13 0.500000 0.269328 0.000000
#
# Coordination Sequence:
#
# PCOD9198492 Si02
#       5
#     8   8   8   8   8
#     4  10  20  37  63  91 116 147 189 239 294 349
#     4  10  22  42  61  81 116 155 199 245 281 334
#     4   9  18  35  60  87 113 149 190 231 289 344
#     4  10  20  36  57  86 125 154 180 233 296 354
#     4  12  24  37  56  88 119 156 196 237 289 343
#
# _framework density 19.019815000000001
#
# number of rings (size 3 to 8) (size 9 to 14) (size 15 to 20)
#    0.000    1.800    2.000    2.400    0.000    4.400 
#    3.600    0.000    0.000    0.600    0.000    0.000 
#    0.000    0.000    0.000    0.000    0.000    0.000 
#
# Total GULP energy -111751.867344 kJ/mol
# GULP energy per Si atom -5587.593367 kJ/mol
# Density = 1.897652 g / cm^3
# Si number density = 19.019815 Si / 1000 Ang^3
#
#
#
# Elastic Constant Matrix: (Units=GPa)
#
#
# Indices 1 2 3 4 5 6 
#
# 1 80.6017 27.8959 42.0809 0.0004 -20.8231 -0.0016
# 2 27.8959 50.5082 20.4612 -0.0004 -5.0164 -0.0002
# 3 42.0809 20.4612 143.3667 -0.0007 -7.9205 -0.0001
# 4 0.0004 -0.0004 -0.0007 26.2214 0.0004 6.7020
# 5 -20.8231 -5.0164 -7.9205 0.0004 19.0008 -0.0003
# 6 -0.0016 -0.0002 -0.0001 6.7020 -0.0003 26.5304
#
#
#
# Elastic Compliance Matrix: (Units=1/GPa)
#
#
# Indices 1 2 3 4 5 6 
#
# 1 0.023323 -0.008984 -0.004383 -0.000001 0.021361 0.000002
# 2 -0.008984 0.024840 -0.001115 0.000001 -0.003753 -0.000001
# 3 -0.004383 -0.001115 0.008331 0.000000 -0.001625 0.000000
# 4 -0.000001 0.000001 0.000000 0.040769 -0.000002 -0.010299
# 5 0.021361 -0.003753 -0.001625 -0.000002 0.074370 0.000003
# 6 0.000002 -0.000001 0.000000 -0.010299 0.000003 0.040294
#
#
# Mechanical properties :
#
#
# Convention : Reuss Voigt Hill
#
# Bulk Modulus (GPa) = 36.32660 50.59475 43.46067
# Shear Modulus (GPa) = 19.99443 26.61977 23.30710
#
# Velocity S-wave (km/s) = 3.24580 3.74516 3.50439
# Velocity P-wave (km/s) = 5.76089 6.73501 6.26691
#
# Compressibility (1/GPa) = 0.02752804
#
# Stress axis : x y z
#
# Youngs Moduli (GPa) = 42.87610 40.25790 120.03155
#
# Poissons Ratio (x) = 0.36168 0.52615
# Poissons Ratio (y) = 0.38520 0.13389
# Poissons Ratio (z) = 0.18795 0.04491
#
# Static dielectric constant tensor:
#      x y z
#    x 1.617990 0.000000 -0.008000 
#    y 0.000000 1.686290 0.000000 
#    z -0.008000 0.000000 1.676040 
# 
# From -- ./inp_files/72335.got.cif
#   From: 2010.05.17/outbox.cif.g08.bks.cpg/sg12_37_cif.got.tgz:72335.got - 2010.06.03 13:09:07.
