data_PCOD9198937
_publ_section_title
;
Structure prediction by ZEFSAII (Michael W. Deem and Ramdas Pophale) SiO2 
 PCOD9198937
Probable space group: C 2/M
;
_chemical_formula_sum "Si O2"
_cell_formula_units_Z 60
_cell_length_a 19.655847
_cell_length_b 9.544672
_cell_length_c 18.531441
_cell_angle_alpha 90.000000
_cell_angle_beta 108.192029
_cell_angle_gamma 90.000000
_cell_volume 3302.878906
_symmetry_space_group_name_H-M "C 2/M"
_symmetry_group_IT_number 12
_symmetry_cell_setting 'monoclinic'
loop_
_space_group_symop_operation_xyz
x,y,z
-x,y,-z
-x,-y,-z
x,-y,z
1/2+x,1/2+y,z
1/2-x,1/2+y,-z
1/2-x,1/2-y,-z
1/2+x,1/2-y,z
loop_
_atom_site_type_symbol
_atom_site_label
_atom_site_fract_x
_atom_site_fract_y
_atom_site_fract_z
Si Si1 0.163679 0.336072 0.181192
Si Si2 0.336231 0.267236 0.085275
Si Si3 0.782713 0.833204 0.577872
Si Si4 0.410888 0.834868 0.688464
Si Si5 0.075593 0.667259 0.750503
Si Si6 0.288693 0.836410 0.292207
Si Si7 0.732215 0.000000 0.016433
Si Si8 0.416704 0.661019 0.966022
O O1 0.172760 0.500000 0.168751
O O2 0.114029 0.323520 0.236363
O O3 0.236807 0.258841 0.226848
O O4 0.124380 0.261290 0.102191
O O5 0.388470 0.243024 0.169538
O O6 0.272935 0.376706 0.076970
O O7 0.380353 0.328556 0.031978
O O8 0.303055 0.121887 0.047371
O O9 0.750000 0.750000 0.500000
O O10 0.857934 0.762319 0.625109
O O11 0.731905 0.814470 0.631410
O O12 0.789392 0.000000 0.566596
O O13 0.493688 0.792381 0.709774
O O14 0.403153 0.000000 0.665677
O O15 0.074607 0.500000 0.765462
O O16 0.129281 0.690498 0.701469
O O17 0.273477 0.000000 0.270210
O O18 0.411650 0.500000 0.939017
O O19 0.500000 0.699765 0.000000
#
# Coordination Sequence:
#
# PCOD9198937 Si02
#       8
#     8   8   8   8   8   8   4   8
#     4  10  21  34  55  78 107 139 185 235 283 332
#     4  11  22  38  54  79 106 151 191 241 289 341
#     4  10  20  38  64  90 116 147 180 218 261 324
#     4   9  19  38  58  85 113 148 181 223 281 336
#     4  10  20  36  59  80 113 146 184 233 282 333
#     4   9  20  36  58  87 110 142 182 220 266 326
#     4  10  24  36  54  76 110 142 202 234 290 338
#     4  11  24  38  51  70 101 144 192 240 287 335
#
# _framework density 18.165970999999999
#
# number of rings (size 3 to 8) (size 9 to 14) (size 15 to 20)
#    0.000    2.000    1.333    1.600    4.667    1.333 
#    1.200    0.667    0.000    4.000    0.000    0.000 
#    0.000    0.000    0.000    0.000    0.000    0.000 
#
# Total GULP energy -167035.672580 kJ/mol
# GULP energy per Si atom -5567.855753 kJ/mol
# Density = 1.812462 g / cm^3
# Si number density = 18.165971 Si / 1000 Ang^3
#
#
#
# Elastic Constant Matrix: (Units=GPa)
#
#
# Indices 1 2 3 4 5 6 
#
# 1 127.9807 56.1808 62.1422 0.0000 16.0837 0.0000
# 2 56.1808 93.3208 65.1412 0.0000 11.3731 0.0000
# 3 62.1422 65.1412 121.2425 0.0000 17.4615 0.0000
# 4 0.0000 0.0000 0.0000 -14.7523 0.0000 -185.7189
# 5 16.0837 11.3731 17.4615 0.0000 15.5931 0.0000
# 6 0.0000 0.0000 0.0000 -185.7189 0.0000 -784.5823
#
#
#
# Elastic Compliance Matrix: (Units=1/GPa)
#
#
# Indices 1 2 3 4 5 6 
#
# 1 0.011888 -0.004448 -0.002867 0.000000 -0.005807 0.000000
# 2 -0.004448 0.018900 -0.007810 0.000000 -0.000452 0.000000
# 3 -0.002867 -0.007810 0.015103 0.000000 -0.008259 0.000000
# 4 0.000000 0.000000 0.000000 0.034236 0.000000 -0.008104
# 5 -0.005807 -0.000452 -0.008259 0.000000 0.079699 0.000000
# 6 0.000000 0.000000 0.000000 -0.008104 0.000000 0.000644
#
#
# Mechanical properties :
#
#
# Convention : Reuss Voigt Hill
#
# Bulk Modulus (GPa) = 63.93179 78.83028 71.38104
# Shear Modulus (GPa) = 25.51893 -146.14298 -60.31202
#
# Velocity S-wave (km/s) = 3.75209 -8.97905 -5.76824
# Velocity P-wave (km/s) = 7.35122 8.00057 2.23257
#
# Compressibility (1/GPa) = 0.01564167
#
# Stress axis : x y z
#
# Youngs Moduli (GPa) = 84.11739 52.91013 66.21193
#
# Poissons Ratio (x) = 0.23533 0.18984
# Poissons Ratio (y) = 0.37414 0.51710
# Poissons Ratio (z) = 0.24117 0.41322
#
# Static dielectric constant tensor:
#      x y z
#    x 1.667100 0.000000 -0.037640 
#    y 0.000000 1.610050 0.000000 
#    z -0.037640 0.000000 1.589810 
# 
# From -- ./inp_files/281535.got.cif
#   From: 2010.05.17/outbox.cif.g08.bks.cpg/sg12_141_cif.got.tgz:281535.got - 2010.06.03 13:09:07.
