data_PCOD9198853
_publ_section_title
;
Structure prediction by ZEFSAII (Michael W. Deem and Ramdas Pophale) SiO2 
 PCOD9198853
Probable space group: C 2/M
;
_chemical_formula_sum "Si O2"
_cell_formula_units_Z 52
_cell_length_a 16.737264
_cell_length_b 21.506165
_cell_length_c 7.015925
_cell_angle_alpha 90.000000
_cell_angle_beta 101.458485
_cell_angle_gamma 90.000000
_cell_volume 2475.078557
_symmetry_space_group_name_H-M "C 2/M"
_symmetry_group_IT_number 12
_symmetry_cell_setting 'monoclinic'
loop_
_space_group_symop_operation_xyz
x,y,z
-x,y,-z
-x,-y,-z
x,-y,z
1/2+x,1/2+y,z
1/2-x,1/2+y,-z
1/2-x,1/2-y,-z
1/2+x,1/2-y,z
loop_
_atom_site_type_symbol
_atom_site_label
_atom_site_fract_x
_atom_site_fract_y
_atom_site_fract_z
Si Si1 0.648064 0.704762 0.269000
Si Si2 0.593151 0.892506 0.518192
Si Si3 0.822582 0.729415 0.335231
Si Si4 0.415268 0.397378 0.026300
Si Si5 0.634215 0.000000 0.247922
Si Si6 0.634649 0.000000 0.825267
Si Si7 0.476119 0.275461 0.265615
Si Si8 0.295615 0.500000 0.107963
O O1 0.731327 0.728265 0.214511
O O2 0.668825 0.715404 0.503480
O O3 0.561444 0.740241 0.203008
O O4 0.628936 0.636763 0.174196
O O5 0.500000 0.869765 0.500000
O O6 0.655413 0.835195 0.548136
O O7 0.606362 0.938581 0.346515
O O8 0.609609 0.938700 0.701660
O O9 0.895187 0.734470 0.217719
O O10 0.446719 0.341710 0.175266
O O11 0.353519 0.440847 0.109691
O O12 0.500000 0.428566 0.000000
O O13 0.599251 0.000000 0.019542
O O14 0.732884 0.000000 0.256763
O O15 0.731926 0.000000 0.901799
O O16 0.500000 0.278429 0.500000
#
# Coordination Sequence:
#
# PCOD9198853 Si02
#       8
#     8   8   8   8   4   4   8   4
#     4   9  19  35  56  81 117 155 187 244 301 346
#     4  11  21  38  64  85 119 162 198 244 301 358
#     4  10  20  36  58  87 116 153 199 239 294 367
#     4  10  20  37  59  82 115 158 198 243 309 355
#     4   9  23  38  55  87 115 152 199 249 292 354
#     4   9  21  40  57  84 121 156 196 249 305 341
#     4   9  19  36  55  81 117 151 190 245 301 351
#     4  10  21  38  58  85 116 149 208 254 286 373
#
# _framework density 21.009435
#
# number of rings (size 3 to 8) (size 9 to 14) (size 15 to 20)
#    0.462    1.846    0.000    3.462    0.000    5.538 
#    2.769    1.923    3.385    0.000    0.000    0.000 
#    0.000    0.000    0.000    0.000    0.000    0.000 
#
# Total GULP energy -144788.611243 kJ/mol
# GULP energy per Si atom -5568.792740 kJ/mol
# Density = 2.096162 g / cm^3
# Si number density = 21.009435 Si / 1000 Ang^3
#
#
#
# Elastic Constant Matrix: (Units=GPa)
#
#
# Indices 1 2 3 4 5 6 
#
# 1 187.9903 27.6650 19.9356 0.0000 15.1885 0.0000
# 2 27.6650 63.5215 25.1992 0.0000 -1.1079 0.0000
# 3 19.9356 25.1992 74.9766 0.0000 -5.3266 0.0000
# 4 0.0000 0.0000 0.0000 2.7245 0.0000 0.0405
# 5 15.1885 -1.1079 -5.3266 0.0000 31.6206 0.0000
# 6 0.0000 0.0000 0.0000 0.0405 0.0000 36.6905
#
#
#
# Elastic Compliance Matrix: (Units=1/GPa)
#
#
# Indices 1 2 3 4 5 6 
#
# 1 0.006019 -0.002253 -0.001067 0.000000 -0.003150 0.000000
# 2 -0.002253 0.019013 -0.005735 0.000000 0.000782 0.000000
# 3 -0.001067 -0.005735 0.015760 0.000000 0.002966 0.000000
# 4 0.000000 0.000000 0.000000 0.367042 0.000000 -0.000405
# 5 -0.003150 0.000782 0.002966 0.000000 0.033665 0.000000
# 6 0.000000 0.000000 0.000000 -0.000405 0.000000 0.027255
#
#
# Mechanical properties :
#
#
# Convention : Reuss Voigt Hill
#
# Bulk Modulus (GPa) = 44.09092 52.45423 48.27258
# Shear Modulus (GPa) = 10.11278 31.11971 20.61624
#
# Velocity S-wave (km/s) = 2.19634 3.85284 3.13595
# Velocity P-wave (km/s) = 5.24058 6.69431 6.01155
#
# Compressibility (1/GPa) = 0.02268041
#
# Stress axis : x y z
#
# Youngs Moduli (GPa) = 166.15246 52.59608 63.45356
#
# Poissons Ratio (x) = 0.11849 0.06770
# Poissons Ratio (y) = 0.37433 0.36394
# Poissons Ratio (z) = 0.17726 0.30166
#
# Static dielectric constant tensor:
#      x y z
#    x 1.847700 0.000000 -0.020830 
#    y 0.000000 1.731230 0.000000 
#    z -0.020830 0.000000 1.778340 
# 
# From -- ./inp_files/64838.got.cif
#   From: 2010.05.17/outbox.cif.g08.bks.cpg/sg12_33_cif.got.tgz:64838.got - 2010.06.03 13:09:07.
