data_PCOD9198370
_publ_section_title
;
Structure prediction by ZEFSAII (Michael W. Deem and Ramdas Pophale) SiO2 
 PCOD9198370
Probable space group: C 2/M
;
_chemical_formula_sum "Si O2"
_cell_formula_units_Z 56
_cell_length_a 18.916447
_cell_length_b 8.923419
_cell_length_c 19.865016
_cell_angle_alpha 90.000000
_cell_angle_beta 66.115944
_cell_angle_gamma 90.000000
_cell_volume 3066.056514
_symmetry_space_group_name_H-M "C 2/M"
_symmetry_group_IT_number 12
_symmetry_cell_setting 'monoclinic'
loop_
_space_group_symop_operation_xyz
x,y,z
-x,y,-z
-x,-y,-z
x,-y,z
1/2+x,1/2+y,z
1/2-x,1/2+y,-z
1/2-x,1/2-y,-z
1/2+x,1/2-y,z
loop_
_atom_site_type_symbol
_atom_site_label
_atom_site_fract_x
_atom_site_fract_y
_atom_site_fract_z
Si Si1 0.459924 0.170281 0.314610
Si Si2 0.617881 0.833887 0.802109
Si Si3 0.238735 0.676510 0.301136
Si Si4 0.820506 0.179575 0.930677
Si Si5 0.512457 0.667650 0.074136
Si Si6 0.294526 0.181276 0.419829
Si Si7 0.625323 0.679439 0.240010
O O1 0.421441 0.162501 0.255827
O O2 0.386162 0.222855 0.386829
O O3 0.536040 0.269698 0.279093
O O4 0.481621 0.000000 0.326333
O O5 0.686086 0.714500 0.772996
O O6 0.549989 0.784444 0.876482
O O7 0.649052 0.000000 0.805275
O O8 0.229088 0.500000 0.314358
O O9 0.256557 0.755347 0.365761
O O10 0.168837 0.747509 0.286374
O O11 0.901056 0.210941 0.938241
O O12 0.835737 0.227310 0.846790
O O13 0.809314 0.000000 0.934222
O O14 0.750000 0.250000 0.000000
O O15 0.498744 0.500000 0.109334
O O16 0.500000 0.656972 0.000000
O O17 0.250000 0.250000 0.500000
O O18 0.290949 0.000000 0.420079
O O19 0.630140 0.500000 0.241088
#
# Coordination Sequence:
#
# PCOD9198370 Si02
#       7
#     8   8   8   8   8   8   8
#     4   9  19  36  59  86 115 151 190 232 283 346
#     4  10  20  36  57  82 111 146 193 244 292 347
#     4  11  23  38  60  87 118 156 196 240 293 346
#     4  10  23  39  55  80 115 155 197 246 302 356
#     4  10  21  37  55  79 110 147 195 244 295 355
#     4  10  21  40  65  95 127 156 193 236 285 346
#     4  11  22  38  59  85 118 154 199 249 294 352
#
# _framework density 18.264503000000001
#
# number of rings (size 3 to 8) (size 9 to 14) (size 15 to 20)
#    0.000    1.857    1.429    3.429    2.000    4.857 
#    0.000    0.714    0.000    4.286    0.000    0.000 
#    0.000    0.000    0.000    0.000    0.000    0.000 
#
# Total GULP energy -156169.631949 kJ/mol
# GULP energy per Si atom -5577.486855 kJ/mol
# Density = 1.822293 g / cm^3
# Si number density = 18.264503 Si / 1000 Ang^3
#
#
#
# Elastic Constant Matrix: (Units=GPa)
#
#
# Indices 1 2 3 4 5 6 
#
# 1 82.2505 38.0077 45.4604 0.0000 -1.7728 0.0000
# 2 38.0077 77.7728 42.9325 0.0000 -5.3152 0.0000
# 3 45.4604 42.9325 111.6780 0.0000 -18.8098 0.0000
# 4 0.0000 0.0000 0.0000 29.3960 0.0000 -4.2431
# 5 -1.7728 -5.3152 -18.8098 0.0000 25.7559 0.0000
# 6 0.0000 0.0000 0.0000 -4.2431 0.0000 32.6224
#
#
#
# Elastic Compliance Matrix: (Units=1/GPa)
#
#
# Indices 1 2 3 4 5 6 
#
# 1 0.017971 -0.005891 -0.005755 0.000000 -0.004182 0.000000
# 2 -0.005891 0.018296 -0.004638 0.000000 -0.000017 0.000000
# 3 -0.005755 -0.004638 0.014655 0.000000 0.009349 0.000000
# 4 0.000000 0.000000 0.000000 0.034669 0.000000 0.004509
# 5 -0.004182 -0.000017 0.009349 0.000000 0.045362 0.000000
# 6 0.000000 0.000000 0.000000 0.004509 0.000000 0.031240
#
#
# Mechanical properties :
#
#
# Convention : Reuss Voigt Hill
#
# Bulk Modulus (GPa) = 54.48760 58.27807 56.38283
# Shear Modulus (GPa) = 24.89034 27.24158 26.06596
#
# Velocity S-wave (km/s) = 3.69558 3.86619 3.78185
# Velocity P-wave (km/s) = 6.93592 7.20465 7.07156
#
# Compressibility (1/GPa) = 0.01835280
#
# Stress axis : x y z
#
# Youngs Moduli (GPa) = 55.64509 54.65539 68.23727
#
# Poissons Ratio (x) = 0.32200 0.39270
# Poissons Ratio (y) = 0.32783 0.31651
# Poissons Ratio (z) = 0.32023 0.25351
#
# Static dielectric constant tensor:
#      x y z
#    x 1.621110 0.000000 -0.003860 
#    y 0.000000 1.655160 0.000000 
#    z -0.003860 0.000000 1.672370 
# 
# From -- ./inp_files/275226.got.cif
#   From: 2010.05.17/outbox.cif.g08.bks.cpg/sg12_138_cif.got.tgz:275226.got - 2010.06.03 13:09:07.
