data_PCOD9198711
_publ_section_title
;
Structure prediction by ZEFSAII (Michael W. Deem and Ramdas Pophale) SiO2 
 PCOD9198711
Probable space group: C 2/M
;
_chemical_formula_sum "Si O2"
_cell_formula_units_Z 64
_cell_length_a 25.614810
_cell_length_b 8.553465
_cell_length_c 15.435585
_cell_angle_alpha 90.000000
_cell_angle_beta 71.303331
_cell_angle_gamma 90.000000
_cell_volume 3203.400671
_symmetry_space_group_name_H-M "C 2/M"
_symmetry_group_IT_number 12
_symmetry_cell_setting 'monoclinic'
loop_
_space_group_symop_operation_xyz
x,y,z
-x,y,-z
-x,-y,-z
x,-y,z
1/2+x,1/2+y,z
1/2-x,1/2+y,-z
1/2-x,1/2-y,-z
1/2+x,1/2-y,z
loop_
_atom_site_type_symbol
_atom_site_label
_atom_site_fract_x
_atom_site_fract_y
_atom_site_fract_z
Si Si1 0.812113 0.812469 0.962681
Si Si2 0.323697 0.188319 0.602516
Si Si3 0.971802 0.809571 0.103379
Si Si4 0.008875 0.812509 0.271826
Si Si5 0.893635 0.689165 0.400893
Si Si6 0.651790 0.311368 0.865770
Si Si7 0.871887 0.687143 0.759614
Si Si8 0.705368 0.813741 0.673165
O O1 0.843902 0.751337 0.861662
O O2 0.811635 0.000000 0.959582
O O3 0.750000 0.750000 0.000000
O O4 0.840410 0.765607 0.038561
O O5 0.369182 0.233543 0.507380
O O6 0.340497 0.242228 0.689659
O O7 0.263462 0.249165 0.609757
O O8 0.321357 0.000000 0.604213
O O9 0.908240 0.760961 0.135569
O O10 0.001717 0.760836 0.175200
O O11 0.972587 0.000000 0.102019
O O12 0.000000 0.755545 0.000000
O O13 0.064633 0.739338 0.278452
O O14 0.952888 0.761259 0.349002
O O15 0.013462 0.000000 0.271256
O O16 0.898262 0.500000 0.394248
O O17 0.847104 0.739669 0.355872
O O18 0.655142 0.500000 0.859739
O O19 0.696173 0.242148 0.776530
O O20 0.868935 0.500000 0.763490
O O21 0.706569 0.000000 0.668846
#
# Coordination Sequence:
#
# PCOD9198711 Si02
#       8
#     8   8   8   8   8   8   8   8
#     4  11  23  39  61  88 121 161 203 247 297 353
#     4  10  23  42  63  84 114 163 208 241 296 369
#     4   9  17  32  55  82 110 145 191 233 277 342
#     4  11  22  38  63  90 120 158 199 249 300 354
#     4  10  22  41  62  88 122 157 197 247 304 362
#     4  10  20  36  58  83 116 158 196 232 286 365
#     4  11  24  42  62  86 120 162 207 252 297 353
#     4  11  22  36  60  93 125 151 190 256 310 347
#
# _framework density 19.978770000000001
#
# number of rings (size 3 to 8) (size 9 to 14) (size 15 to 20)
#    0.000    1.625    1.250    3.375    0.000    8.500 
#    0.000    2.500    0.000    1.875    0.000    0.000 
#    0.000    0.000    0.000    0.000    0.000    0.000 
#
# Total GULP energy -178856.239195 kJ/mol
# GULP energy per Si atom -5589.257475 kJ/mol
# Density = 1.993330 g / cm^3
# Si number density = 19.978770 Si / 1000 Ang^3
#
#
#
# Elastic Constant Matrix: (Units=GPa)
#
#
# Indices 1 2 3 4 5 6 
#
# 1 98.7391 13.5708 22.0053 0.0000 -6.6347 0.0000
# 2 13.5708 20.1425 17.7008 0.0000 2.4975 0.0000
# 3 22.0053 17.7008 102.5822 0.0000 -8.8231 0.0000
# 4 0.0000 0.0000 0.0000 27.3966 0.0000 -7.9266
# 5 -6.6347 2.4975 -8.8231 0.0000 36.5073 0.0000
# 6 0.0000 0.0000 0.0000 -7.9266 0.0000 30.7018
#
#
#
# Elastic Compliance Matrix: (Units=1/GPa)
#
#
# Indices 1 2 3 4 5 6 
#
# 1 0.011494 -0.007121 -0.001037 0.000000 0.002325 0.000000
# 2 -0.007121 0.064522 -0.010311 0.000000 -0.008200 0.000000
# 3 -0.001037 -0.010311 0.012045 0.000000 0.003428 0.000000
# 4 0.000000 0.000000 0.000000 0.039448 0.000000 0.010185
# 5 0.002325 -0.008200 0.003428 0.000000 0.029204 0.000000
# 6 0.000000 0.000000 0.000000 0.010185 0.000000 0.035201
#
#
# Mechanical properties :
#
#
# Convention : Reuss Voigt Hill
#
# Bulk Modulus (GPa) = 19.56090 36.44640 28.00365
# Shear Modulus (GPa) = 20.33420 30.13360 25.23390
#
# Velocity S-wave (km/s) = 3.19374 3.88787 3.55778
# Velocity P-wave (km/s) = 4.83860 6.19970 5.56095
#
# Compressibility (1/GPa) = 0.05112240
#
# Stress axis : x y z
#
# Youngs Moduli (GPa) = 87.00395 15.49865 83.02389
#
# Poissons Ratio (x) = 0.11037 0.08608
# Poissons Ratio (y) = 0.61955 0.85607
# Poissons Ratio (z) = 0.09021 0.15981
#
# Static dielectric constant tensor:
#      x y z
#    x 1.695200 0.000000 0.015000 
#    y 0.000000 1.682900 0.000000 
#    z 0.015000 0.000000 1.703270 
# 
# From -- ./inp_files/243898.got.cif
#   From: 2010.05.17/outbox.cif.g08.bks.cpg/sg12_122_cif.got.tgz:243898.got - 2010.06.03 13:09:07.
