data_PCOD9198407
_publ_section_title
;
Structure prediction by ZEFSAII (Michael W. Deem and Ramdas Pophale) SiO2 
 PCOD9198407
Probable space group: C 2/M
;
_chemical_formula_sum "Si O2"
_cell_formula_units_Z 56
_cell_length_a 18.640841
_cell_length_b 11.942052
_cell_length_c 14.113773
_cell_angle_alpha 90.000000
_cell_angle_beta 89.357816
_cell_angle_gamma 90.000000
_cell_volume 3141.668146
_symmetry_space_group_name_H-M "C 2/M"
_symmetry_group_IT_number 12
_symmetry_cell_setting 'monoclinic'
loop_
_space_group_symop_operation_xyz
x,y,z
-x,y,-z
-x,-y,-z
x,-y,z
1/2+x,1/2+y,z
1/2-x,1/2+y,-z
1/2-x,1/2-y,-z
1/2+x,1/2-y,z
loop_
_atom_site_type_symbol
_atom_site_label
_atom_site_fract_x
_atom_site_fract_y
_atom_site_fract_z
Si Si1 0.783060 0.128504 0.468330
Si Si2 0.828562 0.289528 0.102406
Si Si3 0.249947 0.627137 0.248015
Si Si4 0.485945 0.130856 0.110410
Si Si5 0.063764 0.129791 0.432322
Si Si6 0.824345 0.121885 0.932200
Si Si7 0.398333 0.257539 0.765694
O O1 0.750000 0.250000 0.500000
O O2 0.777927 0.130000 0.354961
O O3 0.862919 0.131001 0.508983
O O4 0.754509 0.000000 0.496269
O O5 0.798912 0.204298 0.181426
O O6 0.902086 0.347292 0.130592
O O7 0.761214 0.370099 0.083413
O O8 0.841900 0.219174 0.006287
O O9 0.251094 0.500000 0.212676
O O10 0.168626 0.673080 0.246793
O O11 0.537009 0.200830 0.178244
O O12 0.502657 0.000000 0.121706
O O13 0.500000 0.159876 0.000000
O O14 0.075996 0.196790 0.335513
O O15 0.000000 0.173526 0.500000
O O16 0.046883 0.000000 0.408804
O O17 0.865068 0.146405 0.833707
O O18 0.843681 0.000000 0.969263
#
# Coordination Sequence:
#
# PCOD9198407 Si02
#       7
#     8   8   8   8   8   8   8
#     4  10  20  39  63  89 116 155 202 252 304 359
#     4  10  21  37  56  85 115 150 193 240 289 350
#     4  10  21  37  62  88 115 151 197 246 295 351
#     4  11  23  40  59  82 116 157 196 239 294 356
#     4  10  22  39  61  86 120 161 196 241 303 363
#     4  10  20  36  57  83 113 148 192 243 290 340
#     4  11  21  38  61  84 116 151 201 240 294 348
#
# _framework density 17.824926000000001
#
# number of rings (size 3 to 8) (size 9 to 14) (size 15 to 20)
#    0.000    1.714    2.857    1.714    2.000    0.000 
#    0.000    3.571    0.000    2.143    0.000    0.000 
#    0.000    0.000    0.000    0.000    0.000    0.000 
#
# Total GULP energy -156122.727163 kJ/mol
# GULP energy per Si atom -5575.811684 kJ/mol
# Density = 1.778436 g / cm^3
# Si number density = 17.824926 Si / 1000 Ang^3
#
#
#
# Elastic Constant Matrix: (Units=GPa)
#
#
# Indices 1 2 3 4 5 6 
#
# 1 85.8371 18.8243 35.0982 0.0000 4.0331 0.0000
# 2 18.8243 72.5059 20.4875 0.0000 -3.6549 0.0000
# 3 35.0982 20.4875 75.8815 0.0000 0.9327 0.0000
# 4 0.0000 0.0000 0.0000 -13.1923 0.0000 6.4710
# 5 4.0331 -3.6549 0.9327 0.0000 32.5334 0.0000
# 6 0.0000 0.0000 0.0000 6.4710 0.0000 12.8571
#
#
#
# Elastic Compliance Matrix: (Units=1/GPa)
#
#
# Indices 1 2 3 4 5 6 
#
# 1 0.014757 -0.002170 -0.006216 0.000000 -0.001895 0.000000
# 2 -0.002170 0.015356 -0.003168 0.000000 0.002085 0.000000
# 3 -0.006216 -0.003168 0.016910 0.000000 -0.000070 0.000000
# 4 0.000000 0.000000 0.000000 -0.060793 0.000000 0.030598
# 5 -0.001895 0.002085 -0.000070 0.000000 0.031209 0.000000
# 6 0.000000 0.000000 0.000000 0.030598 0.000000 0.062378
#
#
# Mechanical properties :
#
#
# Convention : Reuss Voigt Hill
#
# Bulk Modulus (GPa) = 41.81715 42.56052 42.18883
# Shear Modulus (GPa) = 45.08752 17.09396 31.09074
#
# Velocity S-wave (km/s) = 5.03483 3.10012 4.18093
# Velocity P-wave (km/s) = 7.57035 6.06161 6.85760
#
# Compressibility (1/GPa) = 0.02391364
#
# Stress axis : x y z
#
# Youngs Moduli (GPa) = 67.76552 65.12282 59.13708
#
# Poissons Ratio (x) = 0.14133 0.36762
# Poissons Ratio (y) = 0.14707 0.18733
# Poissons Ratio (z) = 0.42125 0.20629
#
# Static dielectric constant tensor:
#      x y z
#    x 1.589190 0.000000 -0.008090 
#    y 0.000000 1.616980 0.000000 
#    z -0.008090 0.000000 1.587390 
# 
# From -- ./inp_files/213412.got.cif
#   From: 2010.05.17/outbox.cif.g08.bks.cpg/sg12_107_cif.got.tgz:213412.got - 2010.06.03 13:09:07.
