data_PCOD9198345
_publ_section_title
;
Structure prediction by ZEFSAII (Michael W. Deem and Ramdas Pophale) SiO2 
 PCOD9198345
Probable space group: C 2/M
;
_chemical_formula_sum "Si O2"
_cell_formula_units_Z 64
_cell_length_a 25.172694
_cell_length_b 13.170863
_cell_length_c 12.346949
_cell_angle_alpha 90.000000
_cell_angle_beta 46.927074
_cell_angle_gamma 90.000000
_cell_volume 2990.301116
_symmetry_space_group_name_H-M "C 2/M"
_symmetry_group_IT_number 12
_symmetry_cell_setting 'monoclinic'
loop_
_space_group_symop_operation_xyz
x,y,z
-x,y,-z
-x,-y,-z
x,-y,z
1/2+x,1/2+y,z
1/2-x,1/2+y,-z
1/2-x,1/2-y,-z
1/2+x,1/2-y,z
loop_
_atom_site_type_symbol
_atom_site_label
_atom_site_fract_x
_atom_site_fract_y
_atom_site_fract_z
Si Si1 0.915427 0.389893 0.590581
Si Si2 0.955694 0.618852 0.174069
Si Si3 0.828722 0.117328 0.088019
Si Si4 0.453157 0.267986 0.368076
Si Si5 0.187248 0.119834 0.508233
Si Si6 0.908234 0.116018 0.743825
Si Si7 0.320233 0.239321 0.279987
Si Si8 0.803275 0.726366 0.827588
O O1 0.891237 0.500000 0.588515
O O2 0.908123 0.308424 0.506705
O O3 0.868706 0.352836 0.757728
O O4 0.000000 0.392900 0.500000
O O5 0.956286 0.500000 0.207220
O O6 0.982604 0.696226 0.229946
O O7 0.874968 0.660200 0.259766
O O8 0.000000 0.626008 0.000000
O O9 0.859635 0.199580 0.128816
O O10 0.747937 0.162982 0.181819
O O11 0.827386 0.000000 0.127342
O O12 0.871610 0.117674 0.914710
O O13 0.395218 0.349782 0.406445
O O14 0.517236 0.322011 0.345603
O O15 0.248205 0.175739 0.350314
O O16 0.200314 0.171467 0.607273
O O17 0.196817 0.000000 0.494675
O O18 0.849454 0.170268 0.747610
O O19 0.921135 0.000000 0.694241
O O20 0.750000 0.750000 0.000000
#
# Coordination Sequence:
#
# PCOD9198345 Si02
#       8
#     8   8   8   8   8   8   8   8
#     4  11  22  38  62  89 118 155 204 256 301 353
#     4  10  21  37  58  87 123 159 195 240 296 358
#     4  10  20  36  60  84 110 149 198 247 295 351
#     4  11  21  38  61  87 119 158 200 248 300 358
#     4  10  21  35  55  82 113 150 188 235 295 352
#     4  10  21  38  58  82 115 154 194 244 300 358
#     4  10  20  36  57  81 113 147 190 241 288 351
#     4  10  21  39  59  84 119 154 197 250 306 363
#
# _framework density 21.402526000000002
#
# number of rings (size 3 to 8) (size 9 to 14) (size 15 to 20)
#    0.000    1.750    1.250    3.375    0.000    0.500 
#    0.000    8.125    0.000    8.250    0.000    0.000 
#    0.000    0.000    0.000    0.000    0.000    0.000 
#
# Total GULP energy -178442.991143 kJ/mol
# GULP energy per Si atom -5576.343473 kJ/mol
# Density = 2.135381 g / cm^3
# Si number density = 21.402526 Si / 1000 Ang^3
#
#
#
# Elastic Constant Matrix: (Units=GPa)
#
#
# Indices 1 2 3 4 5 6 
#
# 1 39.7896 31.4515 4.6457 0.0000 -12.5414 0.0000
# 2 31.4515 176.1421 47.9958 0.0000 -6.6101 0.0000
# 3 4.6457 47.9958 78.7028 0.0000 -5.2692 0.0000
# 4 0.0000 0.0000 0.0000 30.5397 0.0000 1.5460
# 5 -12.5414 -6.6101 -5.2692 0.0000 30.4312 0.0000
# 6 0.0000 0.0000 0.0000 1.5460 0.0000 24.5474
#
#
#
# Elastic Compliance Matrix: (Units=1/GPa)
#
#
# Indices 1 2 3 4 5 6 
#
# 1 0.033924 -0.006308 0.002720 0.000000 0.013081 0.000000
# 2 -0.006308 0.007999 -0.004617 0.000000 -0.001661 0.000000
# 3 0.002720 -0.004617 0.015549 0.000000 0.002810 0.000000
# 4 0.000000 0.000000 0.000000 0.032849 0.000000 -0.002069
# 5 0.013081 -0.001661 0.002810 0.000000 0.038378 0.000000
# 6 0.000000 0.000000 0.000000 -0.002069 0.000000 0.040868
#
#
# Mechanical properties :
#
#
# Convention : Reuss Voigt Hill
#
# Bulk Modulus (GPa) = 24.35301 51.42449 37.88875
# Shear Modulus (GPa) = 25.04210 31.13977 28.09093
#
# Velocity S-wave (km/s) = 3.42432 3.81853 3.62678
# Velocity P-wave (km/s) = 5.19979 6.59705 5.93965
#
# Compressibility (1/GPa) = 0.04106268
#
# Stress axis : x y z
#
# Youngs Moduli (GPa) = 29.47804 125.01187 64.31146
#
# Poissons Ratio (x) = 0.78852 -0.17492
# Poissons Ratio (y) = 0.18593 0.29693
# Poissons Ratio (z) = -0.08018 0.57720
#
# Static dielectric constant tensor:
#      x y z
#    x 1.788960 0.000000 0.023300 
#    y 0.000000 1.759610 0.000000 
#    z 0.023300 0.000000 1.858250 
# 
# From -- ./inp_files/245941.got.cif
#   From: 2010.05.17/outbox.cif.g08.bks.cpg/sg12_123_cif.got.tgz:245941.got - 2010.06.03 13:09:07.
