data_PCOD9198368
_publ_section_title
;
Structure prediction by ZEFSAII (Michael W. Deem and Ramdas Pophale) SiO2 
 PCOD9198368
Probable space group: C 2/M
;
_chemical_formula_sum "Si O2"
_cell_formula_units_Z 56
_cell_length_a 15.580499
_cell_length_b 14.548531
_cell_length_c 29.455845
_cell_angle_alpha 90.000000
_cell_angle_beta 156.124482
_cell_angle_gamma 90.000000
_cell_volume 2702.463346
_symmetry_space_group_name_H-M "C 2/M"
_symmetry_group_IT_number 12
_symmetry_cell_setting 'monoclinic'
loop_
_space_group_symop_operation_xyz
x,y,z
-x,y,-z
-x,-y,-z
x,-y,z
1/2+x,1/2+y,z
1/2-x,1/2+y,-z
1/2-x,1/2-y,-z
1/2+x,1/2-y,z
loop_
_atom_site_type_symbol
_atom_site_label
_atom_site_fract_x
_atom_site_fract_y
_atom_site_fract_z
Si Si1 0.890013 0.838680 0.056682
Si Si2 0.437322 0.392144 0.670214
Si Si3 0.959634 0.604916 0.181135
Si Si4 0.871497 0.894370 0.739826
Si Si5 0.466175 0.764147 0.535719
Si Si6 0.881922 0.890621 0.334885
Si Si7 0.188888 0.107514 0.128484
O O1 0.966306 0.880531 0.140710
O O2 0.102656 0.833385 0.128629
O O3 0.750000 0.750000 0.000000
O O4 0.730017 0.894881 0.947111
O O5 0.376045 0.500000 0.636547
O O6 0.484773 0.376800 0.746142
O O7 0.614638 0.376971 0.717605
O O8 0.239348 0.328091 0.562668
O O9 0.005732 0.500000 0.215436
O O10 0.882800 0.646525 0.191922
O O11 0.164835 0.640165 0.254441
O O12 0.668860 0.828017 0.645769
O O13 0.796940 0.000000 0.703722
O O14 0.500000 0.732676 0.500000
O O15 0.449075 0.676189 0.559913
O O16 0.914517 0.000000 0.358680
O O17 0.224213 0.000000 0.159783
O O18 0.000000 0.104632 0.000000
#
# Coordination Sequence:
#
# PCOD9198368 Si02
#       7
#     8   8   8   8   8   8   8
#     4  11  20  32  51  82 117 143 175 223 277 329
#     4   9  19  37  60  83 110 148 191 238 289 336
#     4   9  18  35  56  76 105 145 184 222 266 323
#     4  10  20  36  59  84 110 145 193 240 279 329
#     4  10  20  36  57  82 111 144 188 240 289 336
#     4  10  20  36  58  84 117 153 185 224 285 352
#     4   8  15  31  54  74  98 139 184 222 262 312
#
# _framework density 20.721834000000001
#
# number of rings (size 3 to 8) (size 9 to 14) (size 15 to 20)
#    0.000    2.429    0.000    3.857    0.000    2.000 
#    0.000   16.429    0.000    6.857    0.000    0.000 
#    0.000    0.000    0.000    0.000    0.000    0.000 
#
# Total GULP energy -156035.622387 kJ/mol
# GULP energy per Si atom -5572.700800 kJ/mol
# Density = 2.067467 g / cm^3
# Si number density = 20.721834 Si / 1000 Ang^3
#
#
#
# Elastic Constant Matrix: (Units=GPa)
#
#
# Indices 1 2 3 4 5 6 
#
# 1 188.1082 58.1936 35.6803 -0.0012 -1.4088 -0.0013
# 2 58.1936 73.8334 18.7013 -0.0005 -7.6441 -0.0008
# 3 35.6803 18.7013 35.5711 0.0012 -11.9404 -0.0047
# 4 -0.0012 -0.0005 0.0012 23.9058 -0.0043 -0.3164
# 5 -1.4088 -7.6441 -11.9404 -0.0043 23.2063 -0.0020
# 6 -0.0013 -0.0008 -0.0047 -0.3164 -0.0020 12.0291
#
#
#
# Elastic Compliance Matrix: (Units=1/GPa)
#
#
# Indices 1 2 3 4 5 6 
#
# 1 0.008249 -0.005187 -0.007195 0.000000 -0.004910 -0.000003
# 2 -0.005187 0.018911 -0.003328 0.000001 0.004202 0.000000
# 3 -0.007195 -0.003328 0.044199 0.000001 0.021209 0.000020
# 4 0.000000 0.000001 0.000001 0.041845 0.000009 0.001101
# 5 -0.004910 0.004202 0.021209 0.000009 0.055090 0.000017
# 6 -0.000003 0.000000 0.000020 0.001101 0.000017 0.083160
#
#
# Mechanical properties :
#
#
# Convention : Reuss Voigt Hill
#
# Bulk Modulus (GPa) = 25.03961 58.07370 41.55666
# Shear Modulus (GPa) = 16.88109 24.15741 20.51925
#
# Velocity S-wave (km/s) = 2.85731 3.41808 3.15020
# Velocity P-wave (km/s) = 4.79537 6.60787 5.77319
#
# Compressibility (1/GPa) = 0.03993673
#
# Stress axis : x y z
#
# Youngs Moduli (GPa) = 121.22829 52.88018 22.62483
#
# Poissons Ratio (x) = 0.27431 0.16279
# Poissons Ratio (y) = 0.62887 0.07530
# Poissons Ratio (z) = 0.87226 0.17601
#
# Static dielectric constant tensor:
#      x y z
#    x 1.809330 0.000000 0.034700 
#    y 0.000000 1.762280 0.000000 
#    z 0.034700 0.000000 1.736310 
# 
# From -- ./inp_files/361465.got.cif
#   From: 2010.05.17/outbox.cif.g08.bks.cpg/sg12_181_cif.got.tgz:361465.got - 2010.06.03 13:09:07.
