data_PCOD9198851
_publ_section_title
;
Structure prediction by ZEFSAII (Michael W. Deem and Ramdas Pophale) SiO2 
 PCOD9198851
Probable space group: C 2/M
;
_chemical_formula_sum "Si O2"
_cell_formula_units_Z 36
_cell_length_a 26.994936
_cell_length_b 9.915969
_cell_length_c 8.358331
_cell_angle_alpha 90.000000
_cell_angle_beta 62.222255
_cell_angle_gamma 90.000000
_cell_volume 1979.536533
_symmetry_space_group_name_H-M "C 2/M"
_symmetry_group_IT_number 12
_symmetry_cell_setting 'monoclinic'
loop_
_space_group_symop_operation_xyz
x,y,z
-x,y,-z
-x,-y,-z
x,-y,z
1/2+x,1/2+y,z
1/2-x,1/2+y,-z
1/2-x,1/2-y,-z
1/2+x,1/2-y,z
loop_
_atom_site_type_symbol
_atom_site_label
_atom_site_fract_x
_atom_site_fract_y
_atom_site_fract_z
Si Si1 0.088012 0.500000 0.415730
Si Si2 0.726517 0.500000 0.773322
Si Si3 0.340965 0.773179 0.132175
Si Si4 0.963705 0.160168 0.894758
Si Si5 0.500000 0.233164 0.500000
Si Si6 0.160176 0.500000 0.603595
Si Si7 0.300514 0.000000 0.961237
O O1 0.052593 0.367279 0.432587
O O2 0.106878 0.500000 0.569698
O O3 0.144158 0.500000 0.229784
O O4 0.690667 0.633137 0.794897
O O5 0.782296 0.500000 0.582266
O O6 0.747124 0.500000 0.926796
O O7 0.342191 0.866601 0.286011
O O8 0.404764 0.740009 0.985673
O O9 0.306822 0.865694 0.057853
O O10 0.993688 0.188178 0.678224
O O11 0.952332 0.000000 0.922586
O O12 0.000000 0.196275 0.000000
#
# Coordination Sequence:
#
# PCOD9198851 Si02
#       7
#     4   4   8   8   4   4   4
#     4  10  20  36  58  87 114 153 202 247 297 359
#     4  11  22  39  62  84 119 157 202 248 302 362
#     4  11  21  40  60  87 120 156 200 248 306 361
#     4  11  23  39  62  90 126 163 200 248 304 365
#     4  11  21  38  62  88 123 161 204 246 304 358
#     4  10  23  37  61  87 119 155 198 254 306 356
#     4  10  21  38  60  87 114 154 196 251 299 357
#
# _framework density 18.186076
#
# number of rings (size 3 to 8) (size 9 to 14) (size 15 to 20)
#    0.000    1.333    3.333    3.000    0.000    0.000 
#    0.000    3.333    0.000    0.000    0.000    0.000 
#    0.000    0.000    0.000    0.000    0.000    0.000 
#
# Total GULP energy -100443.212216 kJ/mol
# GULP energy per Si atom -5580.178456 kJ/mol
# Density = 1.814468 g / cm^3
# Si number density = 18.186076 Si / 1000 Ang^3
#
#
#
# Elastic Constant Matrix: (Units=GPa)
#
#
# Indices 1 2 3 4 5 6 
#
# 1 65.7706 34.3296 23.7153 0.0000 17.2093 0.0000
# 2 34.3296 121.6573 32.0907 0.0000 12.5331 0.0000
# 3 23.7153 32.0907 87.5687 0.0000 16.6078 0.0000
# 4 0.0000 0.0000 0.0000 -16.7593 0.0000 -3.5008
# 5 17.2093 12.5331 16.6078 0.0000 34.9564 0.0000
# 6 0.0000 0.0000 0.0000 -3.5008 0.0000 19.2518
#
#
#
# Elastic Compliance Matrix: (Units=1/GPa)
#
#
# Indices 1 2 3 4 5 6 
#
# 1 0.020255 -0.004302 -0.002539 0.000000 -0.007223 0.000000
# 2 -0.004302 0.010123 -0.002481 0.000000 -0.000333 0.000000
# 3 -0.002539 -0.002481 0.013860 0.000000 -0.004445 0.000000
# 4 0.000000 0.000000 0.000000 -0.057485 0.000000 -0.010453
# 5 -0.007223 -0.000333 -0.004445 0.000000 0.034394 0.000000
# 6 0.000000 0.000000 0.000000 -0.010453 0.000000 0.050042
#
#
# Mechanical properties :
#
#
# Convention : Reuss Voigt Hill
#
# Bulk Modulus (GPa) = 39.07382 50.58532 44.82957
# Shear Modulus (GPa) = 50.83118 19.81384 35.32251
#
# Velocity S-wave (km/s) = 5.29257 3.30435 4.41192
# Velocity P-wave (km/s) = 7.67337 6.51414 7.11740
#
# Compressibility (1/GPa) = 0.02559258
#
# Stress axis : x y z
#
# Youngs Moduli (GPa) = 49.36988 98.78965 72.15194
#
# Poissons Ratio (x) = 0.42497 0.18321
# Poissons Ratio (y) = 0.21238 0.17904
# Poissons Ratio (z) = 0.12536 0.24514
#
# Static dielectric constant tensor:
#      x y z
#    x 1.611300 0.000000 0.028030 
#    y 0.000000 1.587110 0.000000 
#    z 0.028030 0.000000 1.632540 
# 
# From -- ./inp_files/92466.got.cif
#   From: 2010.05.17/outbox.cif.g08.bks.cpg/sg12_47_cif.got.tgz:92466.got - 2010.06.03 13:09:07.
