data_PCOD9198142
_publ_section_title
;
Structure prediction by ZEFSAII (Michael W. Deem and Ramdas Pophale) SiO2 
 PCOD9198142
Probable space group: C 2/M
;
_chemical_formula_sum "Si O2"
_cell_formula_units_Z 48
_cell_length_a 19.736168
_cell_length_b 8.790485
_cell_length_c 16.039008
_cell_angle_alpha 90.000000
_cell_angle_beta 102.375015
_cell_angle_gamma 90.000000
_cell_volume 2717.963566
_symmetry_space_group_name_H-M "C 2/M"
_symmetry_group_IT_number 12
_symmetry_cell_setting 'monoclinic'
loop_
_space_group_symop_operation_xyz
x,y,z
-x,y,-z
-x,-y,-z
x,-y,z
1/2+x,1/2+y,z
1/2-x,1/2+y,-z
1/2-x,1/2-y,-z
1/2+x,1/2-y,z
loop_
_atom_site_type_symbol
_atom_site_label
_atom_site_fract_x
_atom_site_fract_y
_atom_site_fract_z
Si Si1 0.205154 0.316772 0.747398
Si Si2 0.164043 0.318405 0.132604
Si Si3 0.428524 0.318527 0.031353
Si Si4 0.089204 0.817555 0.274826
Si Si5 0.274967 0.317846 0.593053
Si Si6 0.943180 0.318159 0.219043
O O1 0.214516 0.500000 0.756731
O O2 0.258880 0.238256 0.824690
O O3 0.227819 0.271712 0.659931
O O4 0.126195 0.280111 0.748129
O O5 0.160921 0.500000 0.129329
O O6 0.116269 0.255617 0.195671
O O7 0.133746 0.248489 0.040060
O O8 0.421364 0.500000 0.038399
O O9 0.433227 0.241722 0.122488
O O10 0.500000 0.288742 0.000000
O O11 0.146439 0.777113 0.359506
O O12 0.012720 0.757773 0.272527
O O13 0.088976 0.000000 0.264295
O O14 0.271679 0.500000 0.586372
O O15 0.250000 0.250000 0.500000
O O16 0.951463 0.500000 0.220302
#
# Coordination Sequence:
#
# PCOD9198142 Si02
#       6
#     8   8   8   8   8   8
#     4   9  21  40  57  79 115 148 177 224 284 329
#     4  11  21  34  56  82 107 144 194 235 265 318
#     4  11  22  35  54  78 111 152 187 227 277 322
#     4  10  20  36  56  80 113 148 179 222 279 329
#     4   9  19  37  61  84 108 140 179 221 270 330
#     4  11  22  36  57  83 110 145 188 232 271 319
#
# _framework density 17.660281000000001
#
# number of rings (size 3 to 8) (size 9 to 14) (size 15 to 20)
#    0.000    1.833    1.667    4.000    0.000    6.000 
#    0.000    0.833    0.000    5.000    0.000    0.000 
#    0.000    0.000    0.000    0.000    0.000    0.000 
#
# Total GULP energy -134045.514757 kJ/mol
# GULP energy per Si atom -5585.229782 kJ/mol
# Density = 1.762009 g / cm^3
# Si number density = 17.660281 Si / 1000 Ang^3
#
#
#
# Elastic Constant Matrix: (Units=GPa)
#
#
# Indices 1 2 3 4 5 6 
#
# 1 145.3355 51.5624 66.1771 0.0000 16.8879 0.0000
# 2 51.5624 49.7163 34.9040 0.0000 6.1062 0.0000
# 3 66.1771 34.9040 129.5827 0.0000 20.7133 0.0000
# 4 0.0000 0.0000 0.0000 32.3986 0.0000 5.5662
# 5 16.8879 6.1062 20.7133 0.0000 17.3877 0.0000
# 6 0.0000 0.0000 0.0000 5.5662 0.0000 28.5222
#
#
#
# Elastic Compliance Matrix: (Units=1/GPa)
#
#
# Indices 1 2 3 4 5 6 
#
# 1 0.012367 -0.010282 -0.002722 0.000000 -0.005159 0.000000
# 2 -0.010282 0.033366 -0.004273 0.000000 0.003360 0.000000
# 3 -0.002722 -0.004273 0.011853 0.000000 -0.009975 0.000000
# 4 0.000000 0.000000 0.000000 0.031936 0.000000 -0.006232
# 5 -0.005159 0.003360 -0.009975 0.000000 0.073226 0.000000
# 6 0.000000 0.000000 0.000000 -0.006232 0.000000 0.036277
#
#
# Mechanical properties :
#
#
# Convention : Reuss Voigt Hill
#
# Bulk Modulus (GPa) = 43.41952 69.99129 56.70541
# Shear Modulus (GPa) = 20.72493 27.12777 23.92635
#
# Velocity S-wave (km/s) = 3.42940 3.92355 3.68477
# Velocity P-wave (km/s) = 6.34984 7.76168 7.09099
#
# Compressibility (1/GPa) = 0.02303112
#
# Stress axis : x y z
#
# Youngs Moduli (GPa) = 80.85843 29.97105 84.36942
#
# Poissons Ratio (x) = 0.30817 0.22963
# Poissons Ratio (y) = 0.83140 0.36054
# Poissons Ratio (z) = 0.22008 0.12808
#
# Static dielectric constant tensor:
#      x y z
#    x 1.610320 0.000000 0.007480 
#    y 0.000000 1.590360 0.000000 
#    z 0.007480 0.000000 1.571580 
# 
# From -- ./inp_files/230449.got.cif
#   From: 2010.05.17/outbox.cif.g08.bks.cpg/sg12_116_cif.got.tgz:230449.got - 2010.06.03 13:09:07.
