data_PCOD9198054
_publ_section_title
;
Structure prediction by ZEFSAII (Michael W. Deem and Ramdas Pophale) SiO2 
 PCOD9198054
Probable space group: C 2/M
;
_chemical_formula_sum "Si O2"
_cell_formula_units_Z 56
_cell_length_a 8.753815
_cell_length_b 11.016687
_cell_length_c 30.185672
_cell_angle_alpha 90.000000
_cell_angle_beta 74.922423
_cell_angle_gamma 90.000000
_cell_volume 2810.832811
_symmetry_space_group_name_H-M "C 2/M"
_symmetry_group_IT_number 12
_symmetry_cell_setting 'monoclinic'
loop_
_space_group_symop_operation_xyz
x,y,z
-x,y,-z
-x,-y,-z
x,-y,z
1/2+x,1/2+y,z
1/2-x,1/2+y,-z
1/2-x,1/2-y,-z
1/2+x,1/2-y,z
loop_
_atom_site_type_symbol
_atom_site_label
_atom_site_fract_x
_atom_site_fract_y
_atom_site_fract_z
Si Si1 0.509665 0.364472 0.737918
Si Si2 0.009090 0.634300 0.591929
Si Si3 0.627106 0.140061 0.302189
Si Si4 0.655326 0.689785 0.466324
Si Si5 0.687672 0.631906 0.980391
Si Si6 0.939331 0.135560 0.160522
Si Si7 0.642846 0.134695 0.125948
O O1 0.442296 0.500000 0.732883
O O2 0.413882 0.248329 0.728337
O O3 0.684985 0.358176 0.703909
O O4 0.535888 0.358773 0.788786
O O5 0.943979 0.500000 0.589192
O O6 0.965173 0.667290 0.645375
O O7 0.924154 0.719005 0.562692
O O8 0.198076 0.630219 0.570451
O O9 0.588720 0.000000 0.290828
O O10 0.500000 0.628050 0.500000
O O11 0.750000 0.750000 0.500000
O O12 0.746591 0.500000 0.993148
O O13 0.742800 0.638625 0.925328
O O14 0.500000 0.632000 0.000000
O O15 0.750000 0.750000 0.000000
O O16 0.028198 0.250604 0.133201
O O17 0.756692 0.143596 0.159939
O O18 0.993847 0.000000 0.141421
O O19 0.565632 0.000000 0.132078
#
# Coordination Sequence:
#
# PCOD9198054 Si02
#       7
#     8   8   8   8   8   8   8
#     4  10  21  37  57  82 111 143 181 226 275 326
#     4  10  20  36  56  77 106 142 178 221 270 319
#     4  10  21  37  58  82 110 146 185 226 274 327
#     4   9  19  34  53  79 107 137 177 218 262 321
#     4  10  21  37  57  81 110 145 184 227 275 325
#     4  10  21  37  57  81 110 144 181 224 275 328
#     4  10  21  37  57  82 111 144 184 228 273 325
#
# _framework density 19.922922
#
# number of rings (size 3 to 8) (size 9 to 14) (size 15 to 20)
#    0.000    2.143    0.000    2.571    0.000    7.714 
#    0.000    2.857    0.000    0.000    0.000    0.000 
#    0.000    0.000    0.000    0.000    0.000    0.000 
#
# Total GULP energy -156019.184981 kJ/mol
# GULP energy per Si atom -5572.113749 kJ/mol
# Density = 1.987758 g / cm^3
# Si number density = 19.922922 Si / 1000 Ang^3
#
#
#
# Elastic Constant Matrix: (Units=GPa)
#
#
# Indices 1 2 3 4 5 6 
#
# 1 50.5798 44.7534 -1.1802 0.0000 -0.8250 0.0000
# 2 44.7534 150.6495 33.4493 0.0000 17.1356 0.0000
# 3 -1.1802 33.4493 46.5769 0.0000 -8.0548 0.0000
# 4 0.0000 0.0000 0.0000 48.1666 0.0000 6.6823
# 5 -0.8250 17.1356 -8.0548 0.0000 33.0872 0.0000
# 6 0.0000 0.0000 0.0000 6.6823 0.0000 27.7835
#
#
#
# Elastic Compliance Matrix: (Units=1/GPa)
#
#
# Indices 1 2 3 4 5 6 
#
# 1 0.032258 -0.013585 0.012453 0.000000 0.010871 0.000000
# 2 -0.013585 0.014807 -0.012906 0.000000 -0.011149 0.000000
# 3 0.012453 -0.012906 0.033682 0.000000 0.015194 0.000000
# 4 0.000000 0.000000 0.000000 0.021478 0.000000 -0.005166
# 5 0.010871 -0.011149 0.015194 0.000000 0.039967 0.000000
# 6 0.000000 0.000000 0.000000 -0.005166 0.000000 0.037235
#
#
# Mechanical properties :
#
#
# Convention : Reuss Voigt Hill
#
# Bulk Modulus (GPa) = 18.98533 44.65013 31.81773
# Shear Modulus (GPa) = 22.21631 33.19304 27.70468
#
# Velocity S-wave (km/s) = 3.34295 4.08618 3.73311
# Velocity P-wave (km/s) = 4.94475 6.68750 5.88104
#
# Compressibility (1/GPa) = 0.05267224
#
# Stress axis : x y z
#
# Youngs Moduli (GPa) = 30.99971 67.53442 29.68974
#
# Poissons Ratio (x) = 0.91743 -0.36973
# Poissons Ratio (y) = 0.42112 0.38318
# Poissons Ratio (z) = -0.38605 0.87161
#
# Static dielectric constant tensor:
#      x y z
#    x 1.669090 0.000000 -0.009940 
#    y 0.000000 1.732710 0.000000 
#    z -0.009940 0.000000 1.739090 
# 
# From -- ./inp_files/355745.got.cif
#   From: 2010.05.17/outbox.cif.g08.bks.cpg/sg12_178_cif.got.tgz:355745.got - 2010.06.03 13:09:07.
