data_PCOD9198823
_publ_section_title
;
Structure prediction by ZEFSAII (Michael W. Deem and Ramdas Pophale) SiO2 
 PCOD9198823
Probable space group: C 2/M
;
_chemical_formula_sum "Si O2"
_cell_formula_units_Z 56
_cell_length_a 20.915179
_cell_length_b 8.864445
_cell_length_c 31.725345
_cell_angle_alpha 90.000000
_cell_angle_beta 32.470388
_cell_angle_gamma 90.000000
_cell_volume 3157.791768
_symmetry_space_group_name_H-M "C 2/M"
_symmetry_group_IT_number 12
_symmetry_cell_setting 'monoclinic'
loop_
_space_group_symop_operation_xyz
x,y,z
-x,y,-z
-x,-y,-z
x,-y,z
1/2+x,1/2+y,z
1/2-x,1/2+y,-z
1/2-x,1/2-y,-z
1/2+x,1/2-y,z
loop_
_atom_site_type_symbol
_atom_site_label
_atom_site_fract_x
_atom_site_fract_y
_atom_site_fract_z
Si Si1 0.521182 0.318856 0.920112
Si Si2 0.080983 0.181723 0.343852
Si Si3 0.337668 0.181270 0.331240
Si Si4 0.582780 0.180467 0.494237
Si Si5 0.656781 0.181282 0.769468
Si Si6 0.692926 0.318039 0.902633
Si Si7 0.058759 0.819505 0.257534
O O1 0.522205 0.500000 0.916344
O O2 0.558604 0.248165 0.855265
O O3 0.619980 0.277819 0.900595
O O4 0.393613 0.274743 0.010582
O O5 0.212464 0.228082 0.286553
O O6 0.065291 0.219823 0.303549
O O7 0.983390 0.258638 0.427630
O O8 0.072285 0.000000 0.353175
O O9 0.211303 0.245444 0.416645
O O10 0.355778 0.226015 0.272196
O O11 0.444483 0.245715 0.299608
O O12 0.335538 0.000000 0.334572
O O13 0.500000 0.219519 0.500000
O O14 0.594342 0.000000 0.489570
O O15 0.651589 0.000000 0.774669
O O16 0.706097 0.500000 0.895754
O O17 0.820294 0.240668 0.830910
O O18 0.052720 0.000000 0.257433
#
# Coordination Sequence:
#
# PCOD9198823 Si02
#       7
#     8   8   8   8   8   8   8
#     4   9  18  32  56  87 117 149 189 237 281 332
#     4  10  21  38  60  85 115 150 189 235 285 339
#     4  11  24  41  61  82 115 157 189 230 288 346
#     4  11  23  38  60  90 117 145 189 240 283 331
#     4  10  20  36  58  86 114 147 193 236 282 338
#     4   9  18  34  55  84 119 153 188 229 285 342
#     4  11  23  39  59  86 118 151 190 237 285 337
#
# _framework density 17.733910999999999
#
# number of rings (size 3 to 8) (size 9 to 14) (size 15 to 20)
#    0.000    1.857    2.857    2.143    0.000    4.571 
#    0.000    2.143    0.000    0.000    0.000    0.000 
#    0.000    0.000    0.000    0.000    0.000    0.000 
#
# Total GULP energy -156374.409959 kJ/mol
# GULP energy per Si atom -5584.800356 kJ/mol
# Density = 1.769355 g / cm^3
# Si number density = 17.733911 Si / 1000 Ang^3
#
#
#
# Elastic Constant Matrix: (Units=GPa)
#
#
# Indices 1 2 3 4 5 6 
#
# 1 118.6305 44.4287 69.7163 -0.0373 -7.5408 0.0016
# 2 44.4287 33.2870 48.1940 -0.1068 -3.2355 -0.0048
# 3 69.7163 48.1940 159.3281 -0.0103 -0.7441 0.0019
# 4 -0.0373 -0.1068 -0.0103 -64.7482 -0.0086 -7.5938
# 5 -7.5408 -3.2355 -0.7441 -0.0086 29.9290 -0.0005
# 6 0.0016 -0.0048 0.0019 -7.5938 -0.0005 27.3098
#
#
#
# Elastic Compliance Matrix: (Units=1/GPa)
#
#
# Indices 1 2 3 4 5 6 
#
# 1 0.017065 -0.020967 -0.001116 0.000024 0.002005 0.000002
# 2 -0.020967 0.080089 -0.015037 -0.000116 0.003002 -0.000016
# 3 -0.001116 -0.015037 0.011305 0.000024 -0.001626 0.000003
# 4 0.000024 -0.000116 0.000024 -0.014957 -0.000010 -0.004159
# 5 0.002005 0.003002 -0.001626 -0.000010 0.034202 -0.000002
# 6 0.000002 -0.000016 0.000003 -0.004159 -0.000002 0.035460
#
#
# Mechanical properties :
#
#
# Convention : Reuss Voigt Hill
#
# Bulk Modulus (GPa) = 29.22228 70.65817 49.94023
# Shear Modulus (GPa) = 20.09556 8.42523 14.26039
#
# Velocity S-wave (km/s) = 3.36991 2.18202 2.83880
# Velocity P-wave (km/s) = 5.62634 6.80282 6.24236
#
# Compressibility (1/GPa) = 0.03422047
#
# Stress axis : x y z
#
# Youngs Moduli (GPa) = 58.59978 12.48607 88.45304
#
# Poissons Ratio (x) = 0.26179 0.09868
# Poissons Ratio (y) = 1.22864 1.33010
# Poissons Ratio (z) = 0.06537 0.18776
#
# Static dielectric constant tensor:
#      x y z
#    x 1.587890 0.000000 0.006680 
#    y 0.000000 1.594070 0.000000 
#    z 0.006680 0.000000 1.581100 
# 
# From -- ./inp_files/281680.got.cif
#   From: 2010.05.17/outbox.cif.g08.bks.cpg/sg12_141_cif.got.tgz:281680.got - 2010.06.03 13:09:07.
