data_PCOD9198401
_publ_section_title
;
Structure prediction by ZEFSAII (Michael W. Deem and Ramdas Pophale) SiO2 
 PCOD9198401
Probable space group: C 2/M
;
_chemical_formula_sum "Si O2"
_cell_formula_units_Z 48
_cell_length_a 29.336508
_cell_length_b 7.959117
_cell_length_c 8.123342
_cell_angle_alpha 90.000000
_cell_angle_beta 101.217512
_cell_angle_gamma 90.000000
_cell_volume 1860.505225
_symmetry_space_group_name_H-M "C 2/M"
_symmetry_group_IT_number 12
_symmetry_cell_setting 'monoclinic'
loop_
_space_group_symop_operation_xyz
x,y,z
-x,y,-z
-x,-y,-z
x,-y,z
1/2+x,1/2+y,z
1/2-x,1/2+y,-z
1/2-x,1/2-y,-z
1/2+x,1/2-y,z
loop_
_atom_site_type_symbol
_atom_site_label
_atom_site_fract_x
_atom_site_fract_y
_atom_site_fract_z
Si Si1 0.634649 0.306658 0.741213
Si Si2 0.615276 0.312412 0.247640
Si Si3 0.443358 0.194009 0.093038
Si Si4 0.193321 0.694632 0.086279
Si Si5 0.028296 0.297843 0.363126
Si Si6 0.276468 0.297494 0.353919
O O1 0.621618 0.500000 0.701346
O O2 0.589625 0.205516 0.767932
O O3 0.670384 0.239305 0.628877
O O4 0.668225 0.298755 0.926536
O O5 0.632949 0.500000 0.285593
O O6 0.658673 0.202378 0.220229
O O7 0.580255 0.264457 0.369151
O O8 0.581412 0.301784 0.063650
O O9 0.494508 0.243339 0.185914
O O10 0.443368 0.000000 0.036156
O O11 0.196047 0.500000 0.036994
O O12 0.242689 0.761285 0.182760
O O13 0.029914 0.500000 0.374185
O O14 0.000000 0.231895 0.500000
O O15 0.278167 0.500000 0.344222
O O16 0.250000 0.250000 0.500000
#
# Coordination Sequence:
#
# PCOD9198401 Si02
#       6
#     8   8   8   8   8   8
#     4  10  20  36  57  83 111 139 179 230 276 317
#     4  11  22  36  57  84 111 141 180 227 275 320
#     4  10  20  36  59  83 107 142 184 223 269 324
#     4  10  20  37  59  82 108 143 186 225 267 322
#     4  10  22  39  57  79 110 146 183 223 268 324
#     4  10  23  38  55  81 113 148 183 222 269 324
#
# _framework density 25.799444000000001
#
# number of rings (size 3 to 8) (size 9 to 14) (size 15 to 20)
#    0.000    1.833    0.000    6.000    0.000    7.667 
#    0.000    5.000    0.000    0.000    0.000    0.000 
#    0.000    0.000    0.000    0.000    0.000    0.000 
#
# Total GULP energy -134368.669006 kJ/mol
# GULP energy per Si atom -5598.694542 kJ/mol
# Density = 2.574072 g / cm^3
# Si number density = 25.799444 Si / 1000 Ang^3
#
#
#
# Elastic Constant Matrix: (Units=GPa)
#
#
# Indices 1 2 3 4 5 6 
#
# 1 157.0292 3.0757 7.3239 0.0000 -17.5618 0.0000
# 2 3.0757 55.1276 -0.0975 0.0000 1.4509 0.0000
# 3 7.3239 -0.0975 73.3617 0.0000 -16.5698 0.0000
# 4 0.0000 0.0000 0.0000 27.1071 0.0000 -8.0018
# 5 -17.5618 1.4509 -16.5698 0.0000 57.5228 0.0000
# 6 0.0000 0.0000 0.0000 -8.0018 0.0000 21.6385
#
#
#
# Elastic Compliance Matrix: (Units=1/GPa)
#
#
# Indices 1 2 3 4 5 6 
#
# 1 0.006606 -0.000421 -0.000216 0.000000 0.001965 0.000000
# 2 -0.000421 0.018179 -0.000071 0.000000 -0.000607 0.000000
# 3 -0.000216 -0.000071 0.014587 0.000000 0.004138 0.000000
# 4 0.000000 0.000000 0.000000 0.041411 0.000000 0.015314
# 5 0.001965 -0.000607 0.004138 0.000000 0.019192 0.000000
# 6 0.000000 0.000000 0.000000 0.015314 0.000000 0.051877
#
#
# Mechanical properties :
#
#
# Convention : Reuss Voigt Hill
#
# Bulk Modulus (GPa) = 26.34579 34.01361 30.17970
# Shear Modulus (GPa) = 30.13496 39.60146 34.86821
#
# Velocity S-wave (km/s) = 3.42138 3.92212 3.68028
# Velocity P-wave (km/s) = 5.08347 5.80717 5.45733
#
# Compressibility (1/GPa) = 0.03795673
#
# Stress axis : x y z
#
# Youngs Moduli (GPa) = 151.36943 55.00831 68.55359
#
# Poissons Ratio (x) = 0.02314 0.01482
# Poissons Ratio (y) = 0.06368 0.00487
# Poissons Ratio (z) = 0.03273 0.00391
#
# Static dielectric constant tensor:
#      x y z
#    x 2.021420 0.000000 -0.048710 
#    y 0.000000 1.921500 0.000000 
#    z -0.048710 0.000000 2.178470 
# 
# From -- ./inp_files/108575.got.cif
#   From: 2010.05.17/outbox.cif.g08.bks.cpg/sg12_55_cif.got.tgz:108575.got - 2010.06.03 13:09:07.
