data_PCOD9198535
_publ_section_title
;
Structure prediction by ZEFSAII (Michael W. Deem and Ramdas Pophale) SiO2 
 PCOD9198535
Probable space group: C 2/M
;
_chemical_formula_sum "Si O2"
_cell_formula_units_Z 64
_cell_length_a 16.727410
_cell_length_b 7.809457
_cell_length_c 19.751999
_cell_angle_alpha 90.000000
_cell_angle_beta 98.348758
_cell_angle_gamma 90.000000
_cell_volume 2552.899015
_symmetry_space_group_name_H-M "C 2/M"
_symmetry_group_IT_number 12
_symmetry_cell_setting 'monoclinic'
loop_
_space_group_symop_operation_xyz
x,y,z
-x,y,-z
-x,-y,-z
x,-y,z
1/2+x,1/2+y,z
1/2-x,1/2+y,-z
1/2-x,1/2-y,-z
1/2+x,1/2-y,z
loop_
_atom_site_type_symbol
_atom_site_label
_atom_site_fract_x
_atom_site_fract_y
_atom_site_fract_z
Si Si1 0.203398 0.710735 0.163103
Si Si2 0.439205 0.208876 0.585748
Si Si3 0.919159 0.301799 0.959831
Si Si4 0.656023 0.303711 0.917188
Si Si5 0.366525 0.207515 0.712346
Si Si6 0.677588 0.203677 0.541541
Si Si7 0.040862 0.304364 0.793674
Si Si8 0.889019 0.193286 0.331825
O O1 0.206023 0.500000 0.163788
O O2 0.276885 0.768676 0.125535
O O3 0.198305 0.766975 0.240407
O O4 0.123371 0.766234 0.112374
O O5 0.374440 0.262907 0.635780
O O6 0.402578 0.261015 0.509610
O O7 0.525331 0.279513 0.619090
O O8 0.446239 0.000000 0.587229
O O9 0.937778 0.500000 0.946985
O O10 0.856360 0.292967 0.014297
O O11 0.000000 0.218789 0.000000
O O12 0.675176 0.500000 0.935880
O O13 0.575739 0.295817 0.861303
O O14 0.454158 0.252678 0.754924
O O15 0.361574 0.000000 0.709534
O O16 0.750000 0.250000 0.500000
O O17 0.676493 0.272995 0.617701
O O18 0.673657 0.000000 0.546950
O O19 0.032248 0.500000 0.814625
O O20 0.100627 0.297330 0.736055
O O21 0.879359 0.000000 0.307029
#
# Coordination Sequence:
#
# PCOD9198535 Si02
#       8
#     8   8   8   8   8   8   8   8
#     4   9  18  32  52  80 111 142 178 221 272 329
#     4   9  19  36  59  84 111 148 191 234 282 338
#     4  10  20  36  58  79 102 142 192 231 266 321
#     4  11  22  34  52  81 115 145 175 223 283 335
#     4   8  15  32  57  80 101 133 181 228 266 314
#     4  11  23  38  56  82 117 154 193 237 287 342
#     4  10  20  37  60  82 107 143 186 229 272 328
#     4  11  22  37  59  85 113 147 189 238 288 338
#
# _framework density 25.069538000000001
#
# number of rings (size 3 to 8) (size 9 to 14) (size 15 to 20)
#    0.000    2.125    0.000    4.500    0.000    5.750 
#    0.000    3.125    0.000    8.250    0.000    0.000 
#    0.000    0.000    0.000    0.000    0.000    0.000 
#
# Total GULP energy -178932.679745 kJ/mol
# GULP energy per Si atom -5591.646242 kJ/mol
# Density = 2.501248 g / cm^3
# Si number density = 25.069538 Si / 1000 Ang^3
#
#
#
# Elastic Constant Matrix: (Units=GPa)
#
#
# Indices 1 2 3 4 5 6 
#
# 1 58.8049 -5.0596 14.0175 0.0000 -19.2843 0.0000
# 2 -5.0596 42.0886 2.3976 0.0000 1.7833 0.0000
# 3 14.0175 2.3976 153.1556 0.0000 -27.9628 0.0000
# 4 0.0000 0.0000 0.0000 15.3274 0.0000 -8.6102
# 5 -19.2843 1.7833 -27.9628 0.0000 49.6585 0.0000
# 6 0.0000 0.0000 0.0000 -8.6102 0.0000 12.6860
#
#
#
# Elastic Compliance Matrix: (Units=1/GPa)
#
#
# Indices 1 2 3 4 5 6 
#
# 1 0.019696 0.002088 -0.000504 0.000000 0.007290 0.000000
# 2 0.002088 0.024065 -0.000644 0.000000 -0.000416 0.000000
# 3 -0.000504 -0.000644 0.007305 0.000000 0.003941 0.000000
# 4 0.000000 0.000000 0.000000 0.105446 0.000000 0.071568
# 5 0.007290 -0.000416 0.003941 0.000000 0.025202 0.000000
# 6 0.000000 0.000000 0.000000 0.071568 0.000000 0.127401
#
#
# Mechanical properties :
#
#
# Convention : Reuss Voigt Hill
#
# Bulk Modulus (GPa) = 18.88777 30.75112 24.81944
# Shear Modulus (GPa) = 15.39009 31.71396 23.55202
#
# Velocity S-wave (km/s) = 2.48038 3.56060 3.06840
# Velocity P-wave (km/s) = 3.96907 5.40340 4.74080
#
# Compressibility (1/GPa) = 0.05294431
#
# Stress axis : x y z
#
# Youngs Moduli (GPa) = 50.77234 41.55475 136.89183
#
# Poissons Ratio (x) = -0.08675 0.06905
# Poissons Ratio (y) = -0.10599 0.08812
# Poissons Ratio (z) = 0.02561 0.02675
#
# Static dielectric constant tensor:
#      x y z
#    x 2.073920 0.000000 -0.002180 
#    y 0.000000 1.951020 0.000000 
#    z -0.002180 0.000000 1.887240 
# 
# From -- ./inp_files/314175.got.cif
#   From: 2010.05.17/outbox.cif.g08.bks.cpg/sg12_158_cif.got.tgz:314175.got - 2010.06.03 13:09:07.
