data_PCOD9198462
_publ_section_title
;
Structure prediction by ZEFSAII (Michael W. Deem and Ramdas Pophale) SiO2 
 PCOD9198462
Probable space group: C 2/M
;
_chemical_formula_sum "Si O2"
_cell_formula_units_Z 58
_cell_length_a 29.912204
_cell_length_b 8.971904
_cell_length_c 12.652429
_cell_angle_alpha 90.000000
_cell_angle_beta 71.707625
_cell_angle_gamma 90.000000
_cell_volume 3223.939867
_symmetry_space_group_name_H-M "C 2/M"
_symmetry_group_IT_number 12
_symmetry_cell_setting 'monoclinic'
loop_
_space_group_symop_operation_xyz
x,y,z
-x,y,-z
-x,-y,-z
x,-y,z
1/2+x,1/2+y,z
1/2-x,1/2+y,-z
1/2-x,1/2-y,-z
1/2+x,1/2-y,z
loop_
_atom_site_type_symbol
_atom_site_label
_atom_site_fract_x
_atom_site_fract_y
_atom_site_fract_z
Si Si1 0.747672 0.177164 0.118087
Si Si2 0.149141 0.823197 0.864631
Si Si3 0.000000 0.500000 0.500000
Si Si4 0.347339 0.677068 0.752562
Si Si5 0.097582 0.676130 0.095156
Si Si6 0.096427 0.336416 0.470885
Si Si7 0.598215 0.676310 0.692309
Si Si8 0.997344 0.824498 0.876772
O O1 0.797143 0.200761 0.140845
O O2 0.704331 0.250702 0.211556
O O3 0.740275 0.000000 0.112257
O O4 0.750000 0.250000 0.000000
O O5 0.136872 0.786790 0.752891
O O6 0.138002 0.000000 0.887374
O O7 0.116478 0.729558 0.967594
O O8 0.958168 0.372163 0.515173
O O9 0.343774 0.500000 0.760522
O O10 0.371950 0.739355 0.839998
O O11 0.379176 0.729833 0.631591
O O12 0.102542 0.500000 0.104942
O O13 0.043397 0.725394 0.143660
O O14 0.120054 0.500000 0.446641
O O15 0.101013 0.270611 0.584300
O O16 0.601910 0.500000 0.665067
O O17 0.547583 0.700612 0.785566
O O18 0.985146 0.000000 0.874428
O O19 0.000000 0.793094 0.000000
#
# Coordination Sequence:
#
# PCOD9198462 Si02
#       8
#     8   8   2   8   8   8   8   8
#     4  11  22  38  64  96 127 166 209 265 326 382
#     4  10  21  40  62  88 125 165 207 251 314 382
#     4   8  24  44  66  88 126 164 202 272 312 372
#     4  12  25  42  64  89 124 166 212 268 318 383
#     4  12  24  35  56  88 126 161 206 259 316 379
#     4  10  23  43  64  90 123 163 206 259 318 369
#     4  10  21  39  63  89 123 167 210 256 307 384
#     4  10  20  36  57  84 122 164 205 247 305 378
#
# _framework density 17.990409
#
# number of rings (size 3 to 8) (size 9 to 14) (size 15 to 20)
#    0.414    0.966    2.759    3.310    1.931    1.931 
#    0.000    1.379    0.000    0.000    0.000    0.000 
#    0.000    0.000    0.000    0.000    0.000    0.000 
#
# Total GULP energy -161711.656956 kJ/mol
# GULP energy per Si atom -5576.264033 kJ/mol
# Density = 1.794946 g / cm^3
# Si number density = 17.990409 Si / 1000 Ang^3
#
#
#
# Elastic Constant Matrix: (Units=GPa)
#
#
# Indices 1 2 3 4 5 6 
#
# 1 109.4173 63.1208 32.9768 0.0000 3.8894 0.0000
# 2 63.1208 100.5930 35.5496 0.0000 3.1489 0.0000
# 3 32.9768 35.5496 69.3220 0.0000 2.1536 0.0000
# 4 0.0000 0.0000 0.0000 21.4556 0.0000 -8.8627
# 5 3.8894 3.1489 2.1536 0.0000 13.3673 0.0000
# 6 0.0000 0.0000 0.0000 -8.8627 0.0000 26.7851
#
#
#
# Elastic Compliance Matrix: (Units=1/GPa)
#
#
# Indices 1 2 3 4 5 6 
#
# 1 0.014797 -0.008254 -0.002746 0.000000 -0.001918 0.000000
# 2 -0.008254 0.016792 -0.004660 0.000000 -0.000803 0.000000
# 3 -0.002746 -0.004660 0.018154 0.000000 -0.001028 0.000000
# 4 0.000000 0.000000 0.000000 0.053987 0.000000 0.017863
# 5 -0.001918 -0.000803 -0.001028 0.000000 0.075722 0.000000
# 6 0.000000 0.000000 0.000000 0.017863 0.000000 0.043245
#
#
# Mechanical properties :
#
#
# Convention : Reuss Voigt Hill
#
# Bulk Modulus (GPa) = 54.28376 60.29184 57.28780
# Shear Modulus (GPa) = 19.21904 22.16728 20.69316
#
# Velocity S-wave (km/s) = 3.27202 3.51404 3.39519
# Velocity P-wave (km/s) = 6.67189 7.07465 6.87622
#
# Compressibility (1/GPa) = 0.01842172
#
# Stress axis : x y z
#
# Youngs Moduli (GPa) = 67.58123 59.55047 55.08558
#
# Poissons Ratio (x) = 0.49155 0.15129
# Poissons Ratio (y) = 0.55783 0.25669
# Poissons Ratio (z) = 0.18561 0.27750
#
# Static dielectric constant tensor:
#      x y z
#    x 1.613070 0.000000 0.001600 
#    y 0.000000 1.607160 0.000000 
#    z 0.001600 0.000000 1.603930 
# 
# From -- ./inp_files/186543.got.cif
#   From: 2010.05.17/outbox.cif.g08.bks.cpg/sg12_94_cif.got.tgz:186543.got - 2010.06.03 13:09:07.
