data_PCOD9198614
_publ_section_title
;
Structure prediction by ZEFSAII (Michael W. Deem and Ramdas Pophale) SiO2 
 PCOD9198614
Probable space group: C 2/M
;
_chemical_formula_sum "Si O2"
_cell_formula_units_Z 64
_cell_length_a 20.777218
_cell_length_b 7.582598
_cell_length_c 33.737213
_cell_angle_alpha 90.000000
_cell_angle_beta 33.575498
_cell_angle_gamma 90.000000
_cell_volume 2939.459567
_symmetry_space_group_name_H-M "C 2/M"
_symmetry_group_IT_number 12
_symmetry_cell_setting 'monoclinic'
loop_
_space_group_symop_operation_xyz
x,y,z
-x,y,-z
-x,-y,-z
x,-y,z
1/2+x,1/2+y,z
1/2-x,1/2+y,-z
1/2-x,1/2-y,-z
1/2+x,1/2-y,z
loop_
_atom_site_type_symbol
_atom_site_label
_atom_site_fract_x
_atom_site_fract_y
_atom_site_fract_z
Si Si1 0.070640 0.285918 0.191280
Si Si2 0.768839 0.289111 0.220644
Si Si3 0.371600 0.789814 0.555623
Si Si4 0.781690 0.788798 0.028636
Si Si5 0.282015 0.287974 0.438418
Si Si6 0.673240 0.787114 0.721218
Si Si7 0.042215 0.207370 0.295858
Si Si8 0.518278 0.712811 0.945453
O O1 0.070094 0.500000 0.191363
O O2 0.178923 0.223212 0.109668
O O3 0.082899 0.225718 0.229904
O O4 0.947642 0.224957 0.236203
O O5 0.757593 0.500000 0.230366
O O6 0.810628 0.222137 0.242031
O O7 0.642736 0.217620 0.272420
O O8 0.862871 0.259099 0.137833
O O9 0.500000 0.718341 0.500000
O O10 0.309655 0.720177 0.547309
O O11 0.281492 0.761183 0.637772
O O12 0.385161 0.000000 0.543141
O O13 0.784870 0.000000 0.031705
O O14 0.750000 0.750000 0.000000
O O15 0.908360 0.722291 0.976251
O O16 0.285507 0.500000 0.431270
O O17 0.250000 0.250000 0.500000
O O18 0.412377 0.216638 0.364643
O O19 0.667128 0.000000 0.725458
O O20 0.031787 0.000000 0.310902
O O21 0.515778 0.500000 0.948057
O O22 0.500000 0.774876 0.000000
#
# Coordination Sequence:
#
# PCOD9198614 Si02
#       8
#     8   8   8   8   8   8   8   8
#     4  10  20  36  58  82 109 144 186 230 276 329
#     4  10  22  38  57  83 114 148 189 233 281 334
#     4  10  22  40  60  84 115 150 186 227 277 332
#     4  10  21  36  56  83 113 146 185 231 281 333
#     4  10  22  39  59  85 116 147 185 230 275 330
#     4  10  21  37  58  84 113 147 187 231 277 330
#     4  10  21  38  58  82 112 147 185 229 279 329
#     4  10  21  38  58  82 113 149 191 235 282 334
#
# _framework density 21.772708999999999
#
# number of rings (size 3 to 8) (size 9 to 14) (size 15 to 20)
#    0.000    2.000    1.250    1.500    1.750    5.500 
#    0.000    0.000    0.000    0.000    0.000    0.000 
#    0.000    0.000    0.000    0.000    0.000    0.000 
#
# Total GULP energy -178811.596437 kJ/mol
# GULP energy per Si atom -5587.862389 kJ/mol
# Density = 2.172315 g / cm^3
# Si number density = 21.772709 Si / 1000 Ang^3
#
#
#
# Elastic Constant Matrix: (Units=GPa)
#
#
# Indices 1 2 3 4 5 6 
#
# 1 137.8712 3.9098 27.1426 0.0512 -9.5291 0.0187
# 2 3.9098 47.1937 -7.7709 0.0545 -10.5417 -0.0793
# 3 27.1426 -7.7709 92.5583 0.0112 -7.1660 0.0005
# 4 0.0512 0.0545 0.0112 9.3696 0.0025 3.0326
# 5 -9.5291 -10.5417 -7.1660 0.0025 45.6367 0.0070
# 6 0.0187 -0.0793 0.0005 3.0326 0.0070 12.0232
#
#
#
# Elastic Compliance Matrix: (Units=1/GPa)
#
#
# Indices 1 2 3 4 5 6 
#
# 1 0.007797 -0.000775 -0.002267 -0.000033 0.001093 -0.000010
# 2 -0.000775 0.022916 0.002580 -0.000198 0.005537 0.000199
# 3 -0.002267 0.002580 0.011839 -0.000026 0.001982 0.000025
# 4 -0.000033 -0.000198 -0.000026 0.116217 -0.000058 -0.029314
# 5 0.001093 0.005537 0.001982 -0.000058 0.023730 0.000036
# 6 -0.000010 0.000199 0.000025 -0.029314 0.000036 0.090568
#
#
# Mechanical properties :
#
#
# Convention : Reuss Voigt Hill
#
# Bulk Modulus (GPa) = 24.02279 36.02069 30.02174
# Shear Modulus (GPa) = 17.36916 30.36201 23.86559
#
# Velocity S-wave (km/s) = 2.82751 3.73835 3.31437
# Velocity P-wave (km/s) = 4.66017 5.93410 5.33529
#
# Compressibility (1/GPa) = 0.04162714
#
# Stress axis : x y z
#
# Youngs Moduli (GPa) = 128.25504 43.63855 84.46817
#
# Poissons Ratio (x) = 0.03382 0.19148
# Poissons Ratio (y) = 0.09940 -0.21792
# Poissons Ratio (z) = 0.29074 -0.11258
#
# Static dielectric constant tensor:
#      x y z
#    x 1.720270 -0.000100 -0.073510 
#    y -0.000100 1.827020 -0.000060 
#    z -0.073510 -0.000060 1.712980 
# 
# From -- ./inp_files/378107.got.cif
#   From: 2010.05.17/outbox.cif.g08.bks.cpg/sg12_190_cif.got.tgz:378107.got - 2010.06.03 13:09:07.
