data_PCOD9198838
_publ_section_title
;
Structure prediction by ZEFSAII (Michael W. Deem and Ramdas Pophale) SiO2 
 PCOD9198838
Probable space group: C 2/M
;
_chemical_formula_sum "Si O2"
_cell_formula_units_Z 64
_cell_length_a 30.159657
_cell_length_b 8.348605
_cell_length_c 12.425908
_cell_angle_alpha 90.000000
_cell_angle_beta 63.733773
_cell_angle_gamma 90.000000
_cell_volume 2805.682947
_symmetry_space_group_name_H-M "C 2/M"
_symmetry_group_IT_number 12
_symmetry_cell_setting 'monoclinic'
loop_
_space_group_symop_operation_xyz
x,y,z
-x,y,-z
-x,-y,-z
x,-y,z
1/2+x,1/2+y,z
1/2-x,1/2+y,-z
1/2-x,1/2-y,-z
1/2+x,1/2-y,z
loop_
_atom_site_type_symbol
_atom_site_label
_atom_site_fract_x
_atom_site_fract_y
_atom_site_fract_z
Si Si1 0.428462 0.806126 0.892853
Si Si2 0.277979 0.811533 0.795925
Si Si3 0.861689 0.310603 0.299752
Si Si4 0.826765 0.308264 0.109590
Si Si5 0.115450 0.693222 0.281172
Si Si6 0.465816 0.308940 0.212435
Si Si7 0.709432 0.312043 0.458196
Si Si8 0.544332 0.692605 0.528902
O O1 0.420441 0.755719 0.777021
O O2 0.479437 0.738057 0.883717
O O3 0.430909 0.000000 0.895479
O O4 0.377685 0.750439 0.002564
O O5 0.225248 0.740531 0.884659
O O6 0.328338 0.749864 0.796705
O O7 0.286112 0.776896 0.660030
O O8 0.275279 0.000000 0.816941
O O9 0.855346 0.500000 0.324200
O O10 0.829110 0.259537 0.232241
O O11 0.918506 0.273971 0.210262
O O12 0.842477 0.218787 0.425270
O O13 0.829072 0.500000 0.103962
O O14 0.116299 0.500000 0.280686
O O15 0.093981 0.752494 0.416721
O O16 0.460022 0.500000 0.211999
O O17 0.462012 0.254417 0.341823
O O18 0.716850 0.500000 0.430471
O O19 0.750000 0.250000 0.500000
O O20 0.500000 0.752583 0.500000
O O21 0.542961 0.500000 0.531090
#
# Coordination Sequence:
#
# PCOD9198838 Si02
#       8
#     8   8   8   8   8   8   8   8
#     4  10  22  42  63  85 117 158 204 251 299 356
#     4  11  23  39  61  91 124 158 197 246 301 359
#     4  11  23  40  62  89 121 158 200 246 299 358
#     4  10  23  42  63  85 115 159 206 250 299 355
#     4  10  22  38  60  90 121 155 197 244 299 358
#     4  11  23  39  61  90 121 156 198 246 303 361
#     4  12  23  38  62  92 124 160 197 243 299 357
#     4  10  20  36  58  86 120 154 190 237 295 358
#
# _framework density 22.810845
#
# number of rings (size 3 to 8) (size 9 to 14) (size 15 to 20)
#    0.000    1.375    2.500    3.000    0.000    6.250 
#    0.000    2.500    0.000    0.000    0.000    0.000 
#    0.000    0.000    0.000    0.000    0.000    0.000 
#
# Total GULP energy -178991.470724 kJ/mol
# GULP energy per Si atom -5593.483460 kJ/mol
# Density = 2.275893 g / cm^3
# Si number density = 22.810845 Si / 1000 Ang^3
#
#
#
# Elastic Constant Matrix: (Units=GPa)
#
#
# Indices 1 2 3 4 5 6 
#
# 1 92.6833 -1.2758 -0.5994 0.0000 -32.8235 0.0000
# 2 -1.2758 5.0218 -4.4372 0.0000 1.3588 0.0000
# 3 -0.5994 -4.4372 76.3866 0.0000 -31.7961 0.0000
# 4 0.0000 0.0000 0.0000 25.6448 0.0000 -14.7033
# 5 -32.8235 1.3588 -31.7961 0.0000 40.0694 0.0000
# 6 0.0000 0.0000 0.0000 -14.7033 0.0000 25.9372
#
#
#
# Elastic Compliance Matrix: (Units=1/GPa)
#
#
# Indices 1 2 3 4 5 6 
#
# 1 0.019551 0.007862 0.010700 0.000000 0.024240 0.000000
# 2 0.007862 0.213460 0.018111 0.000000 0.013573 0.000000
# 3 0.010700 0.018111 0.026311 0.000000 0.029029 0.000000
# 4 0.000000 0.000000 0.000000 0.057771 0.000000 0.032749
# 5 0.024240 0.013573 0.029029 0.000000 0.067388 0.000000
# 6 0.000000 0.000000 0.000000 0.032749 0.000000 0.057120
#
#
# Mechanical properties :
#
#
# Convention : Reuss Voigt Hill
#
# Bulk Modulus (GPa) = 3.00599 17.94077 10.47338
# Shear Modulus (GPa) = 10.43529 30.35722 20.39626
#
# Velocity S-wave (km/s) = 2.14118 3.65200 2.99347
# Velocity P-wave (km/s) = 2.72644 5.06606 4.06807
#
# Compressibility (1/GPa) = 0.33266914
#
# Stress axis : x y z
#
# Youngs Moduli (GPa) = 51.14740 4.68472 38.00727
#
# Poissons Ratio (x) = -0.03683 -0.40668
# Poissons Ratio (y) = -0.40214 -0.68835
# Poissons Ratio (z) = -0.54728 -0.08485
#
# Static dielectric constant tensor:
#      x y z
#    x 1.873390 0.000000 -0.019810 
#    y 0.000000 1.770530 0.000000 
#    z -0.019810 0.000000 1.885200 
# 
# From -- ./inp_files/249698.got.cif
#   From: 2010.05.17/outbox.cif.g08.bks.cpg/sg12_125_cif.got.tgz:249698.got - 2010.06.03 13:09:07.
