data_PCOD9198521
_publ_section_title
;
Structure prediction by ZEFSAII (Michael W. Deem and Ramdas Pophale) SiO2 
 PCOD9198521
Probable space group: C 2/M
;
_chemical_formula_sum "Si O2"
_cell_formula_units_Z 56
_cell_length_a 7.803978
_cell_length_b 24.286825
_cell_length_c 14.323869
_cell_angle_alpha 90.000000
_cell_angle_beta 112.124112
_cell_angle_gamma 90.000000
_cell_volume 2514.963614
_symmetry_space_group_name_H-M "C 2/M"
_symmetry_group_IT_number 12
_symmetry_cell_setting 'monoclinic'
loop_
_space_group_symop_operation_xyz
x,y,z
-x,y,-z
-x,-y,-z
x,-y,z
1/2+x,1/2+y,z
1/2-x,1/2+y,-z
1/2-x,1/2-y,-z
1/2+x,1/2-y,z
loop_
_atom_site_type_symbol
_atom_site_label
_atom_site_fract_x
_atom_site_fract_y
_atom_site_fract_z
Si Si1 0.909997 0.937577 0.197204
Si Si2 0.169669 0.579363 0.970941
Si Si3 0.003616 0.660424 0.604913
Si Si4 0.686658 0.324681 0.760780
Si Si5 0.659737 0.254622 0.336136
Si Si6 0.818809 0.189275 0.023195
Si Si7 0.842118 0.561477 0.250015
O O1 0.842961 0.933220 0.074622
O O2 0.810805 0.891190 0.241137
O O3 0.130770 0.928688 0.241622
O O4 0.868934 0.000000 0.219254
O O5 0.166096 0.645313 0.962022
O O6 0.166579 0.559974 0.864671
O O7 0.000000 0.560802 0.000000
O O8 0.175566 0.702616 0.644299
O O9 0.035217 0.611184 0.684102
O O10 0.000000 0.637320 0.500000
O O11 0.835146 0.703528 0.589372
O O12 0.510556 0.295335 0.677408
O O13 0.851604 0.284847 0.759303
O O14 0.645187 0.318156 0.860948
O O15 0.750000 0.250000 0.000000
O O16 0.000000 0.178732 0.000000
O O17 0.899639 0.500000 0.292857
#
# Coordination Sequence:
#
# PCOD9198521 Si02
#       7
#     8   8   8   8   8   8   8
#     4  10  21  40  61  86 126 170 215 252 300 369
#     4  11  24  38  58  90 129 169 215 260 308 367
#     4  11  24  43  69  96 122 160 207 266 325 384
#     4  10  20  36  57  91 119 165 196 251 304 370
#     4  10  22  39  66  89 127 150 205 257 323 381
#     4  11  22  32  53  85 130 170 208 250 307 375
#     4  11  24  42  65  90 126 173 214 261 315 377
#
# _framework density 22.266724
#
# number of rings (size 3 to 8) (size 9 to 14) (size 15 to 20)
#    0.000    1.429    1.429    4.286    8.000    2.571 
#    0.000    0.000    0.000    0.000    0.000    2.000 
#    0.000    0.000    0.000    0.000    0.000    0.000 
#
# Total GULP energy -156141.722790 kJ/mol
# GULP energy per Si atom -5576.490100 kJ/mol
# Density = 2.221604 g / cm^3
# Si number density = 22.266724 Si / 1000 Ang^3
#
#
#
# Elastic Constant Matrix: (Units=GPa)
#
#
# Indices 1 2 3 4 5 6 
#
# 1 46.8738 31.9834 7.0502 0.0000 -12.4999 0.0000
# 2 31.9834 191.0122 34.1785 0.0000 1.4369 0.0000
# 3 7.0502 34.1785 48.6805 0.0000 -13.7495 0.0000
# 4 0.0000 0.0000 0.0000 -6.2681 0.0000 17.7309
# 5 -12.4999 1.4369 -13.7495 0.0000 20.0467 0.0000
# 6 0.0000 0.0000 0.0000 17.7309 0.0000 3.2546
#
#
#
# Elastic Compliance Matrix: (Units=1/GPa)
#
#
# Indices 1 2 3 4 5 6 
#
# 1 0.031581 -0.006784 0.007304 0.000000 0.025188 0.000000
# 2 -0.006784 0.007731 -0.007189 0.000000 -0.009715 0.000000
# 3 0.007304 -0.007189 0.032202 0.000000 0.027156 0.000000
# 4 0.000000 0.000000 0.000000 -0.009721 0.000000 0.052962
# 5 0.025188 -0.009715 0.027156 0.000000 0.084911 0.000000
# 6 0.000000 0.000000 0.000000 0.052962 0.000000 0.018723
#
#
# Mechanical properties :
#
#
# Convention : Reuss Voigt Hill
#
# Bulk Modulus (GPa) = 17.18975 48.11006 32.64991
# Shear Modulus (GPa) = 25.23244 17.63026 21.43135
#
# Velocity S-wave (km/s) = 3.36994 2.81690 3.10576
# Velocity P-wave (km/s) = 4.78317 5.67742 5.24937
#
# Compressibility (1/GPa) = 0.05817419
#
# Stress axis : x y z
#
# Youngs Moduli (GPa) = 31.66415 129.35373 31.05410
#
# Poissons Ratio (x) = 0.87759 -0.22681
# Poissons Ratio (y) = 0.21482 0.22325
# Poissons Ratio (z) = -0.23127 0.92995
#
# Static dielectric constant tensor:
#      x y z
#    x 1.828460 0.000000 0.032380 
#    y 0.000000 1.870930 0.000000 
#    z 0.032380 0.000000 1.820650 
# 
# From -- ./inp_files/198517.got.cif
#   From: 2010.05.17/outbox.cif.g08.bks.cpg/sg12_100_cif.got.tgz:198517.got - 2010.06.03 13:09:07.
