data_PCOD9198251
_publ_section_title
;
Structure prediction by ZEFSAII (Michael W. Deem and Ramdas Pophale) SiO2 
 PCOD9198251
Probable space group: C 2/M
;
_chemical_formula_sum "Si O2"
_cell_formula_units_Z 64
_cell_length_a 19.880039
_cell_length_b 7.444588
_cell_length_c 23.785253
_cell_angle_alpha 90.000000
_cell_angle_beta 130.879618
_cell_angle_gamma 90.000000
_cell_volume 2661.564920
_symmetry_space_group_name_H-M "C 2/M"
_symmetry_group_IT_number 12
_symmetry_cell_setting 'monoclinic'
loop_
_space_group_symop_operation_xyz
x,y,z
-x,y,-z
-x,-y,-z
x,-y,z
1/2+x,1/2+y,z
1/2-x,1/2+y,-z
1/2-x,1/2-y,-z
1/2+x,1/2-y,z
loop_
_atom_site_type_symbol
_atom_site_label
_atom_site_fract_x
_atom_site_fract_y
_atom_site_fract_z
Si Si1 0.845223 0.793599 0.107772
Si Si2 0.333405 0.788891 0.669199
Si Si3 0.862728 0.284122 0.448455
Si Si4 0.543368 0.713436 0.934509
Si Si5 0.188795 0.716344 0.098111
Si Si6 0.841993 0.294580 0.799018
Si Si7 0.458998 0.781006 0.391050
Si Si8 0.017196 0.281554 0.720386
O O1 0.887497 0.714285 0.074677
O O2 0.760472 0.711555 0.092789
O O3 0.922469 0.787941 0.196388
O O4 0.822184 0.000000 0.081581
O O5 0.236281 0.769910 0.589705
O O6 0.330576 0.710763 0.731127
O O7 0.415917 0.722599 0.677539
O O8 0.351874 0.000000 0.686634
O O9 0.864850 0.500000 0.449406
O O10 0.887955 0.222353 0.398983
O O11 0.943574 0.226422 0.532613
O O12 0.532042 0.500000 0.920082
O O13 0.447177 0.795718 0.870880
O O14 0.591724 0.743783 0.020094
O O15 0.198264 0.500000 0.105971
O O16 0.201137 0.786711 0.168263
O O17 0.809694 0.500000 0.777581
O O18 0.448423 0.720703 0.321568
O O19 0.457391 0.000000 0.390106
O O20 0.021170 0.500000 0.723018
#
# Coordination Sequence:
#
# PCOD9198251 Si02
#       8
#     8   8   8   8   8   8   8   8
#     4  10  22  38  55  80 109 139 177 224 271 316
#     4  10  21  35  53  80 111 142 180 221 262 313
#     4   9  18  35  58  81 110 143 177 218 264 315
#     4  11  22  37  57  81 109 136 175 228 271 314
#     4  10  22  38  57  78 105 143 182 217 267 328
#     4  10  21  38  56  77 108 147 180 214 267 324
#     4   8  17  35  57  82 109 142 180 217 262 314
#     4  10  20  36  57  78 106 145 183 219 261 316
#
# _framework density 24.046002000000001
#
# number of rings (size 3 to 8) (size 9 to 14) (size 15 to 20)
#    0.000    2.250    1.250    1.875    1.750    4.500 
#    0.000    1.875    0.000    0.000    0.000    0.000 
#    0.000    0.000    0.000    0.000    0.000    0.000 
#
# Total GULP energy -178862.972447 kJ/mol
# GULP energy per Si atom -5589.467889 kJ/mol
# Density = 2.399127 g / cm^3
# Si number density = 24.046002 Si / 1000 Ang^3
#
#
#
# Elastic Constant Matrix: (Units=GPa)
#
#
# Indices 1 2 3 4 5 6 
#
# 1 66.5878 -9.0354 25.0172 0.0000 5.8582 0.0000
# 2 -9.0354 71.1227 31.3200 0.0000 -12.0673 -0.0001
# 3 25.0172 31.3200 -113.2374 0.0000 9.1489 0.0001
# 4 0.0000 0.0000 0.0000 7.8699 0.0000 8.1261
# 5 5.8582 -12.0673 9.1489 0.0000 45.0384 0.0000
# 6 0.0000 -0.0001 0.0001 8.1261 0.0000 1.0877
#
#
#
# Elastic Compliance Matrix: (Units=1/GPa)
#
#
# Indices 1 2 3 4 5 6 
#
# 1 0.014133 0.000086 0.002951 0.000000 -0.002415 0.000000
# 2 0.000086 0.012854 0.003790 0.000000 0.002663 0.000000
# 3 0.002951 0.003790 -0.006966 0.000000 0.002046 0.000000
# 4 0.000000 0.000000 0.000000 -0.018925 0.000000 0.141389
# 5 -0.002415 0.002663 0.002046 0.000000 0.022815 0.000000
# 6 0.000000 0.000000 0.000000 0.141389 0.000000 -0.136933
#
#
# Mechanical properties :
#
#
# Convention : Reuss Voigt Hill
#
# Bulk Modulus (GPa) = 29.69517 13.23075 21.46296
# Shear Modulus (GPa) = -43.30896 9.27728 -17.01584
#
# Velocity S-wave (km/s) = -4.24853 1.96635 -2.66303
# Velocity P-wave (km/s) = 3.41914 3.26643 0.71447
#
# Compressibility (1/GPa) = 0.03367551
#
# Stress axis : x y z
#
# Youngs Moduli (GPa) = 70.75571 77.79540 -143.56380
#
# Poissons Ratio (x) = -0.00671 0.42368
# Poissons Ratio (y) = -0.00610 0.54404
# Poissons Ratio (z) = -0.20881 -0.29481
#
# Static dielectric constant tensor:
#      x y z
#    x 1.934350 0.000000 -0.014350 
#    y 0.000000 1.926590 0.000000 
#    z -0.014350 0.000000 1.857570 
# 
# From -- ./inp_files/346114.got.cif
#   From: 2010.05.17/outbox.cif.g08.bks.cpg/sg12_174_cif.got.tgz:346114.got - 2010.06.03 13:09:07.
