data_PCOD9198329
_publ_section_title
;
Structure prediction by ZEFSAII (Michael W. Deem and Ramdas Pophale) SiO2 
 PCOD9198329
Probable space group: C 2/M
;
_chemical_formula_sum "Si O2"
_cell_formula_units_Z 58
_cell_length_a 30.056379
_cell_length_b 7.463561
_cell_length_c 9.945745
_cell_angle_alpha 90.000000
_cell_angle_beta 93.464885
_cell_angle_gamma 90.000000
_cell_volume 2227.026884
_symmetry_space_group_name_H-M "C 2/M"
_symmetry_group_IT_number 12
_symmetry_cell_setting 'monoclinic'
loop_
_space_group_symop_operation_xyz
x,y,z
-x,y,-z
-x,-y,-z
x,-y,z
1/2+x,1/2+y,z
1/2-x,1/2+y,-z
1/2-x,1/2-y,-z
1/2+x,1/2-y,z
loop_
_atom_site_type_symbol
_atom_site_label
_atom_site_fract_x
_atom_site_fract_y
_atom_site_fract_z
Si Si1 0.814495 0.706843 0.547742
Si Si2 0.000917 0.291069 0.756887
Si Si3 0.881788 0.717394 0.918139
Si Si4 0.403842 0.783534 0.206782
Si Si5 0.213024 0.285411 0.165662
Si Si6 0.000000 0.000000 0.000000
Si Si7 0.088201 0.798153 0.375270
Si Si8 0.806188 0.285630 0.260211
O O1 0.801382 0.500000 0.551677
O O2 0.799439 0.786596 0.686804
O O3 0.868692 0.709680 0.547888
O O4 0.795114 0.785949 0.407542
O O5 0.002294 0.500000 0.802283
O O6 0.050354 0.241081 0.710675
O O7 0.961354 0.278907 0.640810
O O8 0.993051 0.157192 0.879684
O O9 0.884325 0.500000 0.908406
O O10 0.829859 0.769913 0.928667
O O11 0.897924 0.791041 0.780222
O O12 0.909287 0.775681 0.052363
O O13 0.355345 0.714531 0.237833
O O14 0.400216 0.000000 0.206857
O O15 0.210821 0.500000 0.164798
O O16 0.264590 0.241930 0.153831
O O17 0.086741 0.000000 0.423589
O O18 0.810405 0.500000 0.270457
#
# Coordination Sequence:
#
# PCOD9198329 Si02
#       8
#     8   8   8   8   8   2   8   8
#     4   9  19  36  58  81 111 148 192 247 302 348
#     4  11  22  38  59  86 125 160 193 251 301 341
#     4   9  18  35  55  78 113 151 187 232 294 358
#     4   9  20  37  57  79 112 159 197 229 290 357
#     4   9  18  32  52  81 111 147 190 241 304 350
#     4  12  22  36  60  94 114 152 214 236 284 364
#     4  11  21  35  57  87 116 144 195 248 293 359
#     4  10  20  36  57  81 109 150 202 242 284 359
#
# _framework density 26.043692
#
# number of rings (size 3 to 8) (size 9 to 14) (size 15 to 20)
#    0.000    2.207    0.690    3.517    0.000    4.414 
#    1.241    0.690    0.000    4.138    0.000    0.000 
#    0.000    0.000    0.000    0.000    0.000    0.000 
#
# Total GULP energy -161772.315236 kJ/mol
# GULP energy per Si atom -5578.355698 kJ/mol
# Density = 2.598442 g / cm^3
# Si number density = 26.043692 Si / 1000 Ang^3
#
#
#
# Elastic Constant Matrix: (Units=GPa)
#
#
# Indices 1 2 3 4 5 6 
#
# 1 197.0987 -4.7928 21.1913 0.0000 25.5661 0.0000
# 2 -4.7928 118.4446 -1.4096 0.0000 0.5013 0.0000
# 3 21.1913 -1.4096 43.3637 0.0000 17.7550 0.0000
# 4 0.0000 0.0000 0.0000 -5.8168 0.0000 3.6067
# 5 25.5661 0.5013 17.7550 0.0000 32.0298 0.0000
# 6 0.0000 0.0000 0.0000 3.6067 0.0000 18.5813
#
#
#
# Elastic Compliance Matrix: (Units=1/GPa)
#
#
# Indices 1 2 3 4 5 6 
#
# 1 0.005713 0.000234 -0.001185 0.000000 -0.003907 0.000000
# 2 0.000234 0.008459 0.000377 0.000000 -0.000528 0.000000
# 3 -0.001185 0.000377 0.030099 0.000000 -0.015745 0.000000
# 4 0.000000 0.000000 0.000000 -0.153447 0.000000 0.029784
# 5 -0.003907 -0.000528 -0.015745 0.000000 0.043076 0.000000
# 6 0.000000 0.000000 0.000000 0.029784 0.000000 0.048036
#
#
# Mechanical properties :
#
#
# Convention : Reuss Voigt Hill
#
# Bulk Modulus (GPa) = 23.18956 43.20942 33.19949
# Shear Modulus (GPa) = -1967.46041 31.88672 -967.78685
#
# Velocity S-wave (km/s) = -27.51520 3.50287 -19.29787
# Velocity P-wave (km/s) = 31.63107 5.74346 21.99474
#
# Compressibility (1/GPa) = 0.04312286
#
# Stress axis : x y z
#
# Youngs Moduli (GPa) = 175.02422 118.21811 33.22414
#
# Poissons Ratio (x) = -0.02762 0.03936
# Poissons Ratio (y) = -0.04089 -0.01252
# Poissons Ratio (z) = 0.20734 -0.04456
#
# Static dielectric constant tensor:
#      x y z
#    x 2.133230 0.000000 -0.047790 
#    y 0.000000 2.024940 0.000000 
#    z -0.047790 0.000000 2.042160 
# 
# From -- ./inp_files/186702.got.cif
#   From: 2010.05.17/outbox.cif.g08.bks.cpg/sg12_94_cif.got.tgz:186702.got - 2010.06.03 13:09:07.
