data_PCOD9198761
_publ_section_title
;
Structure prediction by ZEFSAII (Michael W. Deem and Ramdas Pophale) SiO2 
 PCOD9198761
Probable space group: C 2/M
;
_chemical_formula_sum "Si O2"
_cell_formula_units_Z 44
_cell_length_a 10.685531
_cell_length_b 25.127299
_cell_length_c 12.443013
_cell_angle_alpha 90.000000
_cell_angle_beta 131.607870
_cell_angle_gamma 90.000000
_cell_volume 2498.036919
_symmetry_space_group_name_H-M "C 2/M"
_symmetry_group_IT_number 12
_symmetry_cell_setting 'monoclinic'
loop_
_space_group_symop_operation_xyz
x,y,z
-x,y,-z
-x,-y,-z
x,-y,z
1/2+x,1/2+y,z
1/2-x,1/2+y,-z
1/2-x,1/2-y,-z
1/2+x,1/2-y,z
loop_
_atom_site_type_symbol
_atom_site_label
_atom_site_fract_x
_atom_site_fract_y
_atom_site_fract_z
Si Si1 0.223093 0.792446 0.329963
Si Si2 0.137704 0.500000 0.989077
Si Si3 0.367266 0.000000 0.523715
Si Si4 0.896284 0.105567 0.840934
Si Si5 0.053718 0.585321 0.761335
Si Si6 0.488390 0.795546 0.676426
Si Si7 0.995769 0.000000 0.786931
O O1 0.130025 0.848289 0.259624
O O2 0.352902 0.798792 0.502473
O O3 0.336972 0.782535 0.287377
O O4 0.088324 0.747744 0.285827
O O5 0.109394 0.551640 0.896814
O O6 0.316979 0.500000 0.150406
O O7 0.000000 0.500000 0.000000
O O8 0.500000 0.000000 0.500000
O O9 0.410937 0.948313 0.619630
O O10 0.174306 0.000000 0.378724
O O11 0.714257 0.086592 0.774930
O O12 0.987493 0.053239 0.852410
O O13 0.000000 0.128098 0.000000
O O14 0.005920 0.647180 0.743993
#
# Coordination Sequence:
#
# PCOD9198761 Si02
#       7
#     8   4   4   8   8   8   4
#     4   9  19  34  56  81 113 143 190 230 285 335
#     4  11  24  42  54  76 117 163 187 222 288 355
#     4  11  19  29  60  98 112 133 185 244 293 335
#     4  11  19  32  57  87 112 141 183 240 282 340
#     4  10  20  36  58  84 116 145 185 234 287 339
#     4   9  18  36  57  80 109 150 184 237 283 334
#     4  12  20  34  58  87 113 144 182 234 291 340
#
# _framework density 17.613831000000001
#
# number of rings (size 3 to 8) (size 9 to 14) (size 15 to 20)
#    0.000    1.818    3.636    1.909    2.545    0.000 
#    3.273    6.364    4.000    0.000    0.000    0.000 
#    0.000    0.000    0.000    0.000    0.000    0.000 
#
# Total GULP energy -122595.518099 kJ/mol
# GULP energy per Si atom -5572.523550 kJ/mol
# Density = 1.757374 g / cm^3
# Si number density = 17.613831 Si / 1000 Ang^3
#
#
#
# Elastic Constant Matrix: (Units=GPa)
#
#
# Indices 1 2 3 4 5 6 
#
# 1 77.7307 68.8803 28.2741 0.0000 14.2532 0.0000
# 2 68.8803 127.6239 18.3597 0.0000 -1.6613 0.0000
# 3 28.2741 18.3597 67.9451 0.0000 13.2937 0.0000
# 4 0.0000 0.0000 0.0000 -240.6969 0.0000 32.9434
# 5 14.2532 -1.6613 13.2937 0.0000 19.3439 0.0000
# 6 0.0000 0.0000 0.0000 32.9434 0.0000 25.4833
#
#
#
# Elastic Compliance Matrix: (Units=1/GPa)
#
#
# Indices 1 2 3 4 5 6 
#
# 1 0.036232 -0.019155 -0.005033 0.000000 -0.024884 0.000000
# 2 -0.019155 0.018390 -0.000079 0.000000 0.015748 0.000000
# 3 -0.005033 -0.000079 0.018612 0.000000 -0.009089 0.000000
# 4 0.000000 0.000000 0.000000 -0.003530 0.000000 0.004563
# 5 -0.024884 0.015748 -0.009089 0.000000 0.077630 0.000000
# 6 0.000000 0.000000 0.000000 0.004563 0.000000 0.033342
#
#
# Mechanical properties :
#
#
# Convention : Reuss Voigt Hill
#
# Bulk Modulus (GPa) = 40.48623 56.03642 48.26133
# Shear Modulus (GPa) = 21.05755 -28.65491 -3.79868
#
# Velocity S-wave (km/s) = 3.46137 -4.03779 -1.47015
# Velocity P-wave (km/s) = 6.24581 3.18506 4.95756
#
# Compressibility (1/GPa) = 0.02469976
#
# Stress axis : x y z
#
# Youngs Moduli (GPa) = 27.59955 54.37688 53.72902
#
# Poissons Ratio (x) = 1.04159 0.27041
# Poissons Ratio (y) = 0.52867 0.00427
# Poissons Ratio (z) = 0.13891 0.00432
#
# Static dielectric constant tensor:
#      x y z
#    x 1.591140 0.000000 0.008230 
#    y 0.000000 1.615890 0.000000 
#    z 0.008230 0.000000 1.612730 
# 
# From -- ./inp_files/50562.got.cif
#   From: 2010.05.17/outbox.cif.g08.bks.cpg/sg12_26_cif.got.tgz:50562.got - 2010.06.03 13:09:07.
