data_PCOD9198727
_publ_section_title
;
Structure prediction by ZEFSAII (Michael W. Deem and Ramdas Pophale) SiO2 
 PCOD9198727
Probable space group: C 2/M
;
_chemical_formula_sum "Si O2"
_cell_formula_units_Z 56
_cell_length_a 19.165727
_cell_length_b 8.732179
_cell_length_c 28.045521
_cell_angle_alpha 90.000000
_cell_angle_beta 38.490931
_cell_angle_gamma 90.000000
_cell_volume 2921.289329
_symmetry_space_group_name_H-M "C 2/M"
_symmetry_group_IT_number 12
_symmetry_cell_setting 'monoclinic'
loop_
_space_group_symop_operation_xyz
x,y,z
-x,y,-z
-x,-y,-z
x,-y,z
1/2+x,1/2+y,z
1/2-x,1/2+y,-z
1/2-x,1/2-y,-z
1/2+x,1/2-y,z
loop_
_atom_site_type_symbol
_atom_site_label
_atom_site_fract_x
_atom_site_fract_y
_atom_site_fract_z
Si Si1 0.096689 0.314683 0.985867
Si Si2 0.367100 0.324626 0.563024
Si Si3 0.642353 0.180677 0.532836
Si Si4 0.655931 0.814958 0.153416
Si Si5 0.761122 0.684968 0.272564
Si Si6 0.979943 0.686413 0.867379
Si Si7 0.085137 0.684758 0.294944
O O1 0.101596 0.500000 0.981883
O O2 0.065815 0.266854 0.056387
O O3 0.218783 0.249226 0.909125
O O4 0.000000 0.267597 0.000000
O O5 0.500000 0.327379 0.500000
O O6 0.330082 0.500000 0.572745
O O7 0.348654 0.221531 0.527244
O O8 0.303989 0.271620 0.644247
O O9 0.750000 0.250000 0.500000
O O10 0.526277 0.240697 0.618073
O O11 0.642101 0.000000 0.539862
O O12 0.594686 0.761709 0.137628
O O13 0.588614 0.772194 0.237410
O O14 0.661338 0.000000 0.148809
O O15 0.758032 0.500000 0.270742
O O16 0.693701 0.752076 0.264120
O O17 0.890334 0.733721 0.205959
O O18 0.978778 0.500000 0.867053
O O19 0.087717 0.500000 0.296230
#
# Coordination Sequence:
#
# PCOD9198727 Si02
#       7
#     8   8   8   8   8   8   8
#     4  10  20  36  58  84 112 142 181 228 277 330
#     4  10  20  36  59  87 114 146 190 237 283 339
#     4  11  24  39  58  82 114 153 193 239 288 338
#     4  10  21  37  57  81 111 147 185 224 274 333
#     4  10  20  36  61  84 110 149 190 230 276 338
#     4   9  19  35  57  83 110 146 185 224 276 334
#     4  10  22  38  56  80 112 148 186 234 283 332
#
# _framework density 19.169618
#
# number of rings (size 3 to 8) (size 9 to 14) (size 15 to 20)
#    0.000    2.000    1.429    1.714    2.000    3.429 
#    0.000    1.429    0.000    0.000    0.000    0.000 
#    0.000    0.000    0.000    0.000    0.000    0.000 
#
# Total GULP energy -156330.119568 kJ/mol
# GULP energy per Si atom -5583.218556 kJ/mol
# Density = 1.912599 g / cm^3
# Si number density = 19.169618 Si / 1000 Ang^3
#
#
#
# Elastic Constant Matrix: (Units=GPa)
#
#
# Indices 1 2 3 4 5 6 
#
# 1 140.7226 23.0895 32.6148 0.0001 8.4321 0.0001
# 2 23.0895 9.1590 10.8822 0.0002 3.7507 0.0000
# 3 32.6148 10.8822 71.8316 0.0000 15.7601 0.0000
# 4 0.0001 0.0002 0.0000 16.1907 0.0000 -0.4613
# 5 8.4321 3.7507 15.7601 0.0000 34.4003 0.0001
# 6 0.0001 0.0000 0.0000 -0.4613 0.0001 28.3846
#
#
#
# Elastic Compliance Matrix: (Units=1/GPa)
#
#
# Indices 1 2 3 4 5 6 
#
# 1 0.012206 -0.029641 -0.001228 0.000000 0.000802 0.000000
# 2 -0.029641 0.206203 -0.016056 -0.000002 -0.007861 0.000000
# 3 -0.001228 -0.016056 0.018301 0.000000 -0.006333 0.000000
# 4 0.000000 -0.000002 0.000000 0.061793 0.000000 0.001004
# 5 0.000802 -0.007861 -0.006333 0.000000 0.032631 0.000000
# 6 0.000000 0.000000 0.000000 0.001004 0.000000 0.035247
#
#
# Mechanical properties :
#
#
# Convention : Reuss Voigt Hill
#
# Bulk Modulus (GPa) = 6.99983 39.43181 23.21582
# Shear Modulus (GPa) = 9.84543 26.13689 17.99116
#
# Velocity S-wave (km/s) = 2.26872 3.69650 3.06686
# Velocity P-wave (km/s) = 3.24380 6.23165 4.96768
#
# Compressibility (1/GPa) = 0.14286066
#
# Stress axis : x y z
#
# Youngs Moduli (GPa) = 81.92631 4.84959 54.64288
#
# Poissons Ratio (x) = 0.14375 0.06708
# Poissons Ratio (y) = 2.42839 0.87733
# Poissons Ratio (z) = 0.10057 0.07786
#
# Static dielectric constant tensor:
#      x y z
#    x 1.591550 0.000000 -0.012380 
#    y 0.000000 1.659540 0.000000 
#    z -0.012380 0.000000 1.650790 
# 
# From -- ./inp_files/363001.got.cif
#   From: 2010.05.17/outbox.cif.g08.bks.cpg/sg12_182_cif.got.tgz:363001.got - 2010.06.03 13:09:07.
