data_PCOD9198947
_publ_section_title
;
Structure prediction by ZEFSAII (Michael W. Deem and Ramdas Pophale) SiO2 
 PCOD9198947
Probable space group: C 2/M
;
_chemical_formula_sum "Si O2"
_cell_formula_units_Z 56
_cell_length_a 18.552891
_cell_length_b 7.604573
_cell_length_c 19.030557
_cell_angle_alpha 90.000000
_cell_angle_beta 74.980766
_cell_angle_gamma 90.000000
_cell_volume 2593.239411
_symmetry_space_group_name_H-M "C 2/M"
_symmetry_group_IT_number 12
_symmetry_cell_setting 'monoclinic'
loop_
_space_group_symop_operation_xyz
x,y,z
-x,y,-z
-x,-y,-z
x,-y,z
1/2+x,1/2+y,z
1/2-x,1/2+y,-z
1/2-x,1/2-y,-z
1/2+x,1/2-y,z
loop_
_atom_site_type_symbol
_atom_site_label
_atom_site_fract_x
_atom_site_fract_y
_atom_site_fract_z
Si Si1 0.873885 0.292440 0.850716
Si Si2 0.082426 0.787568 0.000984
Si Si3 0.437552 0.715268 0.571977
Si Si4 0.771793 0.790339 0.574439
Si Si5 0.848792 0.794332 0.278741
Si Si6 0.707038 0.715578 0.857966
Si Si7 0.995278 0.795886 0.706751
O O1 0.874530 0.500000 0.835985
O O2 0.896570 0.263547 0.925432
O O3 0.790234 0.225953 0.857070
O O4 0.934185 0.210863 0.783202
O O5 0.918869 0.000000 0.001436
O O6 0.145634 0.727890 0.930344
O O7 0.000000 0.725091 0.000000
O O8 0.500000 0.767723 0.500000
O O9 0.435125 0.500000 0.572534
O O10 0.354966 0.774828 0.571317
O O11 0.461652 0.777816 0.643150
O O12 0.750000 0.750000 0.500000
O O13 0.711722 0.717966 0.644481
O O14 0.771414 0.000000 0.583144
O O15 0.816746 0.722973 0.213620
O O16 0.927130 0.716069 0.285418
O O17 0.863553 0.000000 0.259886
O O18 0.708329 0.500000 0.858430
O O19 0.011995 0.000000 0.685732
#
# Coordination Sequence:
#
# PCOD9198947 Si02
#       7
#     8   8   8   8   8   8   8
#     4  11  22  35  53  80 115 146 174 220 275 322
#     4  10  20  37  60  81 104 141 188 228 264 318
#     4   9  18  34  56  81 107 138 181 227 265 308
#     4  11  22  36  56  82 112 145 181 223 270 321
#     4  10  20  37  60  82 107 141 181 225 270 318
#     4   9  19  35  55  81 111 143 179 220 270 324
#     4  10  20  36  59  82 106 143 186 223 265 321
#
# _framework density 21.594612000000001
#
# number of rings (size 3 to 8) (size 9 to 14) (size 15 to 20)
#    0.000    2.000    0.000    3.857    0.000    5.429 
#    0.000    2.857    0.000    3.000    0.000    0.000 
#    0.000    0.000    0.000    0.000    0.000    0.000 
#
# Total GULP energy -156528.465050 kJ/mol
# GULP energy per Si atom -5590.302323 kJ/mol
# Density = 2.154546 g / cm^3
# Si number density = 21.594612 Si / 1000 Ang^3
#
#
#
# Elastic Constant Matrix: (Units=GPa)
#
#
# Indices 1 2 3 4 5 6 
#
# 1 242.5488 -4.0844 106.8080 0.0000 11.3499 0.0000
# 2 -4.0844 43.2263 -23.8539 0.0004 4.5118 0.0004
# 3 106.8080 -23.8539 169.8591 0.0000 16.4677 0.0000
# 4 0.0000 0.0004 0.0000 -353.3296 0.0000 -399.1311
# 5 11.3499 4.5118 16.4677 0.0000 46.4093 0.0000
# 6 0.0000 0.0004 0.0000 -399.1311 0.0000 -442.8575
#
#
#
# Elastic Compliance Matrix: (Units=1/GPa)
#
#
# Indices 1 2 3 4 5 6 
#
# 1 0.005801 -0.001608 -0.003885 0.000000 0.000116 0.000000
# 2 -0.001608 0.026194 0.005073 0.000000 -0.003953 0.000000
# 3 -0.003885 0.005073 0.009319 0.000000 -0.002850 0.000000
# 4 0.000000 0.000000 0.000000 0.156434 0.000000 -0.140988
# 5 0.000116 -0.003953 -0.002850 0.000000 0.022915 0.000000
# 6 0.000000 0.000000 0.000000 -0.140988 0.000000 0.124809
#
#
# Mechanical properties :
#
#
# Convention : Reuss Voigt Hill
#
# Bulk Modulus (GPa) = 24.70700 68.15262 46.42981
# Shear Modulus (GPa) = 13.89652 -124.83792 -55.47070
#
# Velocity S-wave (km/s) = 2.53952 -7.61152 -5.07376
# Velocity P-wave (km/s) = 4.47940 6.75415 3.57446
#
# Compressibility (1/GPa) = 0.04047437
#
# Stress axis : x y z
#
# Youngs Moduli (GPa) = 172.38239 38.17650 107.31172
#
# Poissons Ratio (x) = 0.06138 0.41688
# Poissons Ratio (y) = 0.27715 -0.54437
# Poissons Ratio (z) = 0.66966 -0.19366
#
# Static dielectric constant tensor:
#      x y z
#    x 1.765730 0.000000 0.015880 
#    y 0.000000 1.826120 0.000000 
#    z 0.015880 0.000000 1.692900 
# 
# From -- ./inp_files/275186.got.cif
#   From: 2010.05.17/outbox.cif.g08.bks.cpg/sg12_138_cif.got.tgz:275186.got - 2010.06.03 13:09:07.
