data_PCOD9198177
_publ_section_title
;
Structure prediction by ZEFSAII (Michael W. Deem and Ramdas Pophale) SiO2 
 PCOD9198177
Probable space group: C 2/M
;
_chemical_formula_sum "Si O2"
_cell_formula_units_Z 56
_cell_length_a 13.115597
_cell_length_b 12.731330
_cell_length_c 14.066549
_cell_angle_alpha 90.000000
_cell_angle_beta 98.219801
_cell_angle_gamma 90.000000
_cell_volume 2324.688504
_symmetry_space_group_name_H-M "C 2/M"
_symmetry_group_IT_number 12
_symmetry_cell_setting 'monoclinic'
loop_
_space_group_symop_operation_xyz
x,y,z
-x,y,-z
-x,-y,-z
x,-y,z
1/2+x,1/2+y,z
1/2-x,1/2+y,-z
1/2-x,1/2-y,-z
1/2+x,1/2-y,z
loop_
_atom_site_type_symbol
_atom_site_label
_atom_site_fract_x
_atom_site_fract_y
_atom_site_fract_z
Si Si1 0.126092 0.388503 0.585378
Si Si2 0.063606 0.159665 0.600734
Si Si3 0.194949 0.616038 0.376934
Si Si4 0.727249 0.310699 0.899513
Si Si5 0.545770 0.884375 0.111948
Si Si6 0.701931 0.679899 0.256686
Si Si7 0.513303 0.663718 0.809174
O O1 0.073692 0.500000 0.595833
O O2 0.062410 0.286480 0.602822
O O3 0.155783 0.378057 0.479172
O O4 0.230866 0.384536 0.660434
O O5 0.181192 0.125195 0.603396
O O6 0.029695 0.130407 0.701826
O O7 0.000000 0.124769 0.500000
O O8 0.168623 0.500000 0.334732
O O9 0.163443 0.718294 0.312859
O O10 0.830270 0.374615 0.885423
O O11 0.723072 0.226143 0.813299
O O12 0.616633 0.368062 0.880073
O O13 0.750000 0.250000 0.000000
O O14 0.499803 0.787309 0.164566
O O15 0.517836 0.000000 0.144727
O O16 0.500000 0.874204 0.000000
O O17 0.604955 0.627701 0.191333
#
# Coordination Sequence:
#
# PCOD9198177 Si02
#       7
#     8   8   8   8   8   8   8
#     4  10  20  36  56  82 117 157 199 248 301 358
#     4  11  21  37  57  85 120 158 200 243 297 368
#     4  10  20  36  58  85 119 157 199 252 301 353
#     4  11  21  39  61  89 119 157 202 247 305 365
#     4  10  22  39  63  95 124 153 201 259 306 357
#     4  10  21  38  59  83 121 157 199 247 306 359
#     4  11  21  38  61  88 116 162 196 241 310 359
#
# _framework density 24.089248000000001
#
# number of rings (size 3 to 8) (size 9 to 14) (size 15 to 20)
#    0.000    1.571    4.286    3.429    0.000    3.429 
#    0.000    2.143    0.000    0.000    0.000    3.000 
#    0.000    0.000    0.000    0.000    0.000    0.000 
#
# Total GULP energy -156408.744520 kJ/mol
# GULP energy per Si atom -5586.026590 kJ/mol
# Density = 2.403442 g / cm^3
# Si number density = 24.089248 Si / 1000 Ang^3
#
#
#
# Elastic Constant Matrix: (Units=GPa)
#
#
# Indices 1 2 3 4 5 6 
#
# 1 118.9926 -0.9705 13.3127 0.0000 38.9497 0.0000
# 2 -0.9705 112.0170 19.5247 0.0000 -2.4127 0.0000
# 3 13.3127 19.5247 123.8498 0.0000 25.2196 0.0000
# 4 0.0000 0.0000 0.0000 0.3710 0.0000 -8.5107
# 5 38.9497 -2.4127 25.2196 0.0000 48.7789 0.0000
# 6 0.0000 0.0000 0.0000 -8.5107 0.0000 -2.9081
#
#
#
# Elastic Compliance Matrix: (Units=1/GPa)
#
#
# Indices 1 2 3 4 5 6 
#
# 1 0.011438 -0.000237 0.000749 0.000000 -0.009532 0.000000
# 2 -0.000237 0.009264 -0.001751 0.000000 0.001553 0.000000
# 3 0.000749 -0.001751 0.009399 0.000000 -0.005544 0.000000
# 4 0.000000 0.000000 0.000000 0.039560 0.000000 -0.115774
# 5 -0.009532 0.001553 -0.005544 0.000000 0.031055 0.000000
# 6 0.000000 0.000000 0.000000 -0.115774 0.000000 -0.005047
#
#
# Mechanical properties :
#
#
# Convention : Reuss Voigt Hill
#
# Bulk Modulus (GPa) = 36.20171 46.51036 41.35604
# Shear Modulus (GPa) = 46.57406 30.78117 38.67762
#
# Velocity S-wave (km/s) = 4.40181 3.57851 4.01134
# Velocity P-wave (km/s) = 6.39495 6.03521 6.21768
#
# Compressibility (1/GPa) = 0.02762300
#
# Stress axis : x y z
#
# Youngs Moduli (GPa) = 87.42489 107.94669 106.39678
#
# Poissons Ratio (x) = 0.02556 -0.07968
# Poissons Ratio (y) = 0.02070 0.18632
# Poissons Ratio (z) = -0.06547 0.18903
#
# Static dielectric constant tensor:
#      x y z
#    x 1.914880 0.000000 0.042360 
#    y 0.000000 1.969750 0.000000 
#    z 0.042360 0.000000 1.902940 
# 
# From -- ./inp_files/214324.got.cif
#   From: 2010.05.17/outbox.cif.g08.bks.cpg/sg12_108_cif.got.tgz:214324.got - 2010.06.03 13:09:07.
