data_PCOD9198342
_publ_section_title
;
Structure prediction by ZEFSAII (Michael W. Deem and Ramdas Pophale) SiO2 
 PCOD9198342
Probable space group: C 2/M
;
_chemical_formula_sum "Si O2"
_cell_formula_units_Z 48
_cell_length_a 18.365699
_cell_length_b 8.464280
_cell_length_c 15.923070
_cell_angle_alpha 90.000000
_cell_angle_beta 89.962954
_cell_angle_gamma 90.000000
_cell_volume 2475.279228
_symmetry_space_group_name_H-M "C 2/M"
_symmetry_group_IT_number 12
_symmetry_cell_setting 'monoclinic'
loop_
_space_group_symop_operation_xyz
x,y,z
-x,y,-z
-x,-y,-z
x,-y,z
1/2+x,1/2+y,z
1/2-x,1/2+y,-z
1/2-x,1/2-y,-z
1/2+x,1/2-y,z
loop_
_atom_site_type_symbol
_atom_site_label
_atom_site_fract_x
_atom_site_fract_y
_atom_site_fract_z
Si Si1 0.207799 0.810455 0.081748
Si Si2 0.290310 0.691058 0.582972
Si Si3 0.458386 0.307154 0.584106
Si Si4 0.542935 0.189476 0.083483
Si Si5 0.793896 0.691227 0.248862
Si Si6 0.541161 0.689590 0.752895
O O1 0.125210 0.751025 0.082321
O O2 0.249803 0.758126 0.166063
O O3 0.207492 0.000000 0.080875
O O4 0.250000 0.750000 0.000000
O O5 0.290383 0.500000 0.582239
O O6 0.250000 0.750000 0.500000
O O7 0.374370 0.743871 0.584503
O O8 0.247826 0.742807 0.666758
O O9 0.500000 0.255228 0.500000
O O10 0.458452 0.500000 0.583851
O O11 0.500564 0.256605 0.667862
O O12 0.501067 0.247894 0.165881
O O13 0.544090 0.000000 0.083430
O O14 0.500000 0.242904 0.000000
O O15 0.796066 0.500000 0.248780
O O16 0.875813 0.753563 0.247078
O O17 0.539654 0.500000 0.754380
#
# Coordination Sequence:
#
# PCOD9198342 Si02
#       6
#     8   8   8   8   8   8
#     4  11  23  40  62  87 116 152 193 235 283 339
#     4  10  20  36  57  81 112 149 188 233 285 339
#     4   9  18  34  56  82 113 148 186 231 284 340
#     4  11  24  41  60  84 117 154 189 232 289 343
#     4  10  22  39  57  81 118 156 187 231 291 343
#     4  11  22  37  61  88 112 147 195 239 282 338
#
# _framework density 19.391750999999999
#
# number of rings (size 3 to 8) (size 9 to 14) (size 15 to 20)
#    0.000    1.667    0.000    4.500    0.000   11.333 
#    0.000    3.333    0.000    4.500    0.000    0.000 
#    0.000    0.000    0.000    0.000    0.000    0.000 
#
# Total GULP energy -134192.270330 kJ/mol
# GULP energy per Si atom -5591.344597 kJ/mol
# Density = 1.934761 g / cm^3
# Si number density = 19.391751 Si / 1000 Ang^3
#
#
#
# Elastic Constant Matrix: (Units=GPa)
#
#
# Indices 1 2 3 4 5 6 
#
# 1 245.1796 35.7269 152.0250 0.0000 -0.3746 0.0000
# 2 35.7269 23.3081 38.1155 0.0000 0.9190 0.0000
# 3 152.0250 38.1155 246.4869 0.0000 0.1152 0.0000
# 4 0.0000 0.0000 0.0000 24.0274 0.0000 3.7088
# 5 -0.3746 0.9190 0.1152 0.0000 47.2621 0.0000
# 6 0.0000 0.0000 0.0000 3.7088 0.0000 34.0071
#
#
#
# Elastic Compliance Matrix: (Units=1/GPa)
#
#
# Indices 1 2 3 4 5 6 
#
# 1 0.007002 -0.004921 -0.003558 0.000000 0.000160 0.000000
# 2 -0.004921 0.060940 -0.006388 0.000000 -0.001208 0.000000
# 3 -0.003558 -0.006388 0.007239 0.000000 0.000078 0.000000
# 4 0.000000 0.000000 0.000000 0.042332 0.000000 -0.004617
# 5 0.000160 -0.001208 0.000078 0.000000 0.021183 0.000000
# 6 0.000000 0.000000 0.000000 -0.004617 0.000000 0.029909
#
#
# Mechanical properties :
#
#
# Convention : Reuss Voigt Hill
#
# Bulk Modulus (GPa) = 22.00315 107.41216 64.70765
# Shear Modulus (GPa) = 23.42057 40.33312 31.87684
#
# Velocity S-wave (km/s) = 3.47905 4.56555 4.05882
# Velocity P-wave (km/s) = 5.24497 9.12706 7.44355
#
# Compressibility (1/GPa) = 0.04544804
#
# Stress axis : x y z
#
# Youngs Moduli (GPa) = 142.81785 16.40954 138.14098
#
# Poissons Ratio (x) = 0.08075 0.49146
# Poissons Ratio (y) = 0.70283 0.88240
# Poissons Ratio (z) = 0.50810 0.10482
#
# Static dielectric constant tensor:
#      x y z
#    x 1.495040 0.000000 0.097920 
#    y 0.000000 1.675180 0.000000 
#    z 0.097920 0.000000 1.591590 
# 
# From -- ./inp_files/221689.got.cif
#   From: 2010.05.17/outbox.cif.g08.bks.cpg/sg12_111_cif.got.tgz:221689.got - 2010.06.03 13:09:07.
