data_PCOD9198356
_publ_section_title
;
Structure prediction by ZEFSAII (Michael W. Deem and Ramdas Pophale) SiO2 
 PCOD9198356
Probable space group: C 2/M
;
_chemical_formula_sum "Si O2"
_cell_formula_units_Z 64
_cell_length_a 24.906094
_cell_length_b 13.796346
_cell_length_c 8.735761
_cell_angle_alpha 90.000000
_cell_angle_beta 85.427124
_cell_angle_gamma 90.000000
_cell_volume 2992.166552
_symmetry_space_group_name_H-M "C 2/M"
_symmetry_group_IT_number 12
_symmetry_cell_setting 'monoclinic'
loop_
_space_group_symop_operation_xyz
x,y,z
-x,y,-z
-x,-y,-z
x,-y,z
1/2+x,1/2+y,z
1/2-x,1/2+y,-z
1/2-x,1/2-y,-z
1/2+x,1/2-y,z
loop_
_atom_site_type_symbol
_atom_site_label
_atom_site_fract_x
_atom_site_fract_y
_atom_site_fract_z
Si Si1 0.027256 0.391984 0.340253
Si Si2 0.810780 0.272674 0.806871
Si Si3 0.071009 0.729168 0.069602
Si Si4 0.231082 0.616946 0.903254
Si Si5 0.144857 0.394641 0.450446
Si Si6 0.462066 0.612759 0.726366
Si Si7 0.084670 0.884683 0.583413
Si Si8 0.629234 0.210337 0.754903
O O1 0.003885 0.500000 0.327134
O O2 0.030579 0.335812 0.179786
O O3 0.090185 0.400670 0.366487
O O4 0.000000 0.347640 0.500000
O O5 0.869586 0.274082 0.869095
O O6 0.785450 0.166234 0.827858
O O7 0.817139 0.314809 0.635545
O O8 0.776137 0.347646 0.919185
O O9 0.050759 0.836062 0.112370
O O10 0.082724 0.704990 0.892533
O O11 0.227264 0.500000 0.889624
O O12 0.184395 0.676469 0.823735
O O13 0.171444 0.500000 0.444713
O O14 0.124225 0.366223 0.621080
O O15 0.451867 0.500000 0.738846
O O16 0.424408 0.648102 0.592186
O O17 0.524366 0.625765 0.666176
O O18 0.123646 0.814780 0.671816
O O19 0.098222 0.000000 0.584163
#
# Coordination Sequence:
#
# PCOD9198356 Si02
#       8
#     8   8   8   8   8   8   8   8
#     4   9  19  35  55  78 107 153 205 241 276 331
#     4   9  20  39  62  89 112 157 210 243 290 356
#     4  10  21  34  57  85 117 151 188 247 293 350
#     4  10  21  40  64  89 121 153 194 251 303 354
#     4  10  20  36  57  81 116 157 196 242 290 349
#     4   9  19  36  60  83 108 155 205 240 289 349
#     4   9  19  37  58  82 115 154 199 247 290 352
#     4  11  23  36  53  88 123 156 191 237 308 362
#
# _framework density 21.389185000000001
#
# number of rings (size 3 to 8) (size 9 to 14) (size 15 to 20)
#    0.000    2.375    0.000    3.000    3.500    5.500 
#    0.000    7.500    0.000    2.250    0.000    0.000 
#    0.000    0.000    0.000    0.000    0.000    0.000 
#
# Total GULP energy -178391.648592 kJ/mol
# GULP energy per Si atom -5574.739018 kJ/mol
# Density = 2.134050 g / cm^3
# Si number density = 21.389185 Si / 1000 Ang^3
#
#
#
# Elastic Constant Matrix: (Units=GPa)
#
#
# Indices 1 2 3 4 5 6 
#
# 1 52.4178 34.0872 29.9283 0.0000 -4.1486 0.0000
# 2 34.0872 116.1235 46.1653 0.0000 -9.2205 0.0000
# 3 29.9283 46.1653 113.7701 0.0000 -14.0417 0.0000
# 4 0.0000 0.0000 0.0000 13.9952 0.0000 -9.5579
# 5 -4.1486 -9.2205 -14.0417 0.0000 25.9304 0.0000
# 6 0.0000 0.0000 0.0000 -9.5579 0.0000 26.4458
#
#
#
# Elastic Compliance Matrix: (Units=1/GPa)
#
#
# Indices 1 2 3 4 5 6 
#
# 1 0.025255 -0.005703 -0.004373 0.000000 -0.000356 0.000000
# 2 -0.005703 0.011610 -0.003016 0.000000 0.001583 0.000000
# 3 -0.004373 -0.003016 0.011729 0.000000 0.004579 0.000000
# 4 0.000000 0.000000 0.000000 0.094870 0.000000 0.034287
# 5 -0.000356 0.001583 0.004579 0.000000 0.041551 0.000000
# 6 0.000000 0.000000 0.000000 0.034287 0.000000 0.050205
#
#
# Mechanical properties :
#
#
# Convention : Reuss Voigt Hill
#
# Bulk Modulus (GPa) = 44.62220 55.85254 50.23737
# Shear Modulus (GPa) = 18.59615 24.74966 21.67291
#
# Velocity S-wave (km/s) = 2.95179 3.40532 3.18664
# Velocity P-wave (km/s) = 5.70305 6.45220 6.08915
#
# Compressibility (1/GPa) = 0.02241037
#
# Stress axis : x y z
#
# Youngs Moduli (GPa) = 39.59621 86.13173 85.25938
#
# Poissons Ratio (x) = 0.49121 0.37286
# Poissons Ratio (y) = 0.22582 0.25710
# Poissons Ratio (z) = 0.17317 0.25973
#
# Static dielectric constant tensor:
#      x y z
#    x 1.819270 0.000000 0.033330 
#    y 0.000000 1.799880 0.000000 
#    z 0.033330 0.000000 1.815840 
# 
# From -- ./inp_files/104570.got.cif
#   From: 2010.05.17/outbox.cif.g08.bks.cpg/sg12_53_cif.got.tgz:104570.got - 2010.06.03 13:09:07.
