data_PCOD9198000
_publ_section_title
;
Structure prediction by ZEFSAII (Michael W. Deem and Ramdas Pophale) SiO2 
 PCOD9198000
Probable space group: C 2/M
;
_chemical_formula_sum "Si O2"
_cell_formula_units_Z 60
_cell_length_a 7.697355
_cell_length_b 21.046902
_cell_length_c 23.019055
_cell_angle_alpha 90.000000
_cell_angle_beta 47.668037
_cell_angle_gamma 90.000000
_cell_volume 2756.841324
_symmetry_space_group_name_H-M "C 2/M"
_symmetry_group_IT_number 12
_symmetry_cell_setting 'monoclinic'
loop_
_space_group_symop_operation_xyz
x,y,z
-x,y,-z
-x,-y,-z
x,-y,z
1/2+x,1/2+y,z
1/2-x,1/2+y,-z
1/2-x,1/2-y,-z
1/2+x,1/2-y,z
loop_
_atom_site_type_symbol
_atom_site_label
_atom_site_fract_x
_atom_site_fract_y
_atom_site_fract_z
Si Si1 0.442112 0.879548 0.250897
Si Si2 0.165096 0.775438 0.844869
Si Si3 0.649306 0.351829 0.172951
Si Si4 0.569238 0.926389 0.094208
Si Si5 0.000000 0.168011 0.000000
Si Si6 0.948666 0.811419 0.602732
Si Si7 0.191753 0.426680 0.310526
Si Si8 0.609956 0.173559 0.567986
O O1 0.597005 0.815139 0.217446
O O2 0.492335 0.915779 0.179396
O O3 0.174994 0.857160 0.322963
O O4 0.549667 0.918625 0.281263
O O5 0.212182 0.701921 0.821699
O O6 0.973585 0.808680 0.847694
O O7 0.073672 0.788006 0.930142
O O8 0.438839 0.390726 0.248753
O O9 0.844610 0.401841 0.108834
O O10 0.785062 0.879241 0.033973
O O11 0.624893 0.000000 0.071853
O O12 0.789827 0.823529 0.581630
O O13 0.222650 0.823440 0.526016
O O14 0.945810 0.735526 0.613226
O O15 0.225682 0.500000 0.315612
O O16 0.039422 0.389533 0.392290
#
# Coordination Sequence:
#
# PCOD9198000 Si02
#       8
#     8   8   8   8   4   8   8   8
#     4   9  19  35  58  81 111 148 193 239 282 335
#     4  10  21  38  60  88 112 144 185 237 292 331
#     4  11  23  38  60  85 115 147 187 234 281 336
#     4  11  23  40  59  84 114 153 190 226 277 342
#     4  10  23  42  66  88 117 144 180 234 284 336
#     4   9  17  32  51  83 111 145 192 241 290 327
#     4  10  20  36  55  82 116 154 190 231 281 341
#     4   9  18  31  53  79 114 148 188 239 287 334
#
# _framework density 21.764037999999999
#
# number of rings (size 3 to 8) (size 9 to 14) (size 15 to 20)
#    0.000    2.133    0.000    3.400    0.000    5.867 
#    0.000    8.667    0.000    0.000    0.000    9.333 
#    0.000    0.000    0.000    0.000    0.000    0.000 
#
# Total GULP energy -167663.683086 kJ/mol
# GULP energy per Si atom -5588.789436 kJ/mol
# Density = 2.171450 g / cm^3
# Si number density = 21.764038 Si / 1000 Ang^3
#
#
#
# Elastic Constant Matrix: (Units=GPa)
#
#
# Indices 1 2 3 4 5 6 
#
# 1 58.6125 25.4110 16.6122 0.0000 -19.2751 0.0000
# 2 25.4110 143.3587 53.4726 0.0000 -10.4908 0.0000
# 3 16.6122 53.4726 78.3048 0.0000 -21.8972 0.0000
# 4 0.0000 0.0000 0.0000 23.3098 0.0000 -0.5948
# 5 -19.2751 -10.4908 -21.8972 0.0000 26.5408 0.0000
# 6 0.0000 0.0000 0.0000 -0.5948 0.0000 13.4929
#
#
#
# Elastic Compliance Matrix: (Units=1/GPa)
#
#
# Indices 1 2 3 4 5 6 
#
# 1 0.023929 -0.003902 0.002621 0.000000 0.017999 0.000000
# 2 -0.003902 0.010082 -0.007455 0.000000 -0.004999 0.000000
# 3 0.002621 -0.007455 0.022116 0.000000 0.017204 0.000000
# 4 0.000000 0.000000 0.000000 0.042949 0.000000 0.001893
# 5 0.017999 -0.004999 0.017204 0.000000 0.062967 0.000000
# 6 0.000000 0.000000 0.000000 0.001893 0.000000 0.074196
#
#
# Mechanical properties :
#
#
# Convention : Reuss Voigt Hill
#
# Bulk Modulus (GPa) = 25.86945 52.36308 39.11626
# Shear Modulus (GPa) = 18.75496 24.98739 21.87117
#
# Velocity S-wave (km/s) = 2.93873 3.39204 3.17349
# Velocity P-wave (km/s) = 4.84014 6.28116 5.60713
#
# Compressibility (1/GPa) = 0.03865563
#
# Stress axis : x y z
#
# Youngs Moduli (GPa) = 41.79031 99.18614 45.21566
#
# Poissons Ratio (x) = 0.38704 -0.11853
# Poissons Ratio (y) = 0.16307 0.33708
# Poissons Ratio (z) = -0.10955 0.73944
#
# Static dielectric constant tensor:
#      x y z
#    x 1.875890 0.000000 0.026330 
#    y 0.000000 1.732000 0.000000 
#    z 0.026330 0.000000 1.815640 
# 
# From -- ./inp_files/356907.got.cif
#   From: 2010.05.17/outbox.cif.g08.bks.cpg/sg12_179_cif.got.tgz:356907.got - 2010.06.03 13:09:07.
