data_PCOD9198348
_publ_section_title
;
Structure prediction by ZEFSAII (Michael W. Deem and Ramdas Pophale) SiO2 
 PCOD9198348
Probable space group: C 2/M
;
_chemical_formula_sum "Si O2"
_cell_formula_units_Z 56
_cell_length_a 18.336511
_cell_length_b 8.556207
_cell_length_c 29.475565
_cell_angle_alpha 90.000000
_cell_angle_beta 38.983853
_cell_angle_gamma 90.000000
_cell_volume 2909.247993
_symmetry_space_group_name_H-M "C 2/M"
_symmetry_group_IT_number 12
_symmetry_cell_setting 'monoclinic'
loop_
_space_group_symop_operation_xyz
x,y,z
-x,y,-z
-x,-y,-z
x,-y,z
1/2+x,1/2+y,z
1/2-x,1/2+y,-z
1/2-x,1/2-y,-z
1/2+x,1/2-y,z
loop_
_atom_site_type_symbol
_atom_site_label
_atom_site_fract_x
_atom_site_fract_y
_atom_site_fract_z
Si Si1 0.741561 0.812366 0.140644
Si Si2 0.903178 0.312488 0.142799
Si Si3 0.548861 0.190656 0.427721
Si Si4 0.621266 0.811006 0.570906
Si Si5 0.313199 0.312347 0.282277
Si Si6 0.330236 0.187650 0.001562
Si Si7 0.974702 0.310915 0.284502
O O1 0.823272 0.751384 0.141189
O O2 0.785103 0.749530 0.071434
O O3 0.608493 0.763775 0.213653
O O4 0.745145 0.000000 0.138472
O O5 0.899637 0.500000 0.143969
O O6 0.857485 0.252467 0.213061
O O7 0.036547 0.263227 0.070783
O O8 0.500000 0.242491 0.500000
O O9 0.465282 0.240926 0.427247
O O10 0.681149 0.239897 0.355701
O O11 0.548487 0.000000 0.428120
O O12 0.750000 0.750000 0.500000
O O13 0.573724 0.761478 0.643033
O O14 0.623373 0.000000 0.569331
O O15 0.314013 0.500000 0.280045
O O16 0.396136 0.256058 0.282463
O O17 0.326386 0.000000 0.003530
O O18 0.250000 0.250000 0.000000
O O19 0.970248 0.500000 0.284614
#
# Coordination Sequence:
#
# PCOD9198348 Si02
#       7
#     8   8   8   8   8   8   8
#     4  11  23  40  63  88 115 152 196 238 285 342
#     4  11  24  41  60  85 120 155 187 233 292 344
#     4   9  18  34  56  82 113 148 187 235 288 339
#     4  10  20  36  57  81 113 150 188 234 287 342
#     4  11  22  37  61  88 112 148 198 240 281 342
#     4  11  24  41  61  87 119 155 193 236 289 343
#     4  10  22  39  57  82 119 155 187 235 295 342
#
# _framework density 19.24896
#
# number of rings (size 3 to 8) (size 9 to 14) (size 15 to 20)
#    0.000    1.571    0.000    4.714    0.000   12.571 
#    0.000    2.857    0.000    3.857    0.000    0.000 
#    0.000    0.000    0.000    0.000    0.000    0.000 
#
# Total GULP energy -156582.192429 kJ/mol
# GULP energy per Si atom -5592.221158 kJ/mol
# Density = 1.920515 g / cm^3
# Si number density = 19.248960 Si / 1000 Ang^3
#
#
#
# Elastic Constant Matrix: (Units=GPa)
#
#
# Indices 1 2 3 4 5 6 
#
# 1 241.7199 44.3516 149.0540 0.0000 0.0803 0.0003
# 2 44.3516 28.9622 46.8356 -0.0002 -2.5682 -0.0009
# 3 149.0540 46.8356 243.5255 0.0000 -0.0565 0.0000
# 4 0.0000 -0.0002 0.0000 27.2258 0.0000 -3.0542
# 5 0.0803 -2.5682 -0.0565 0.0000 46.8668 0.0000
# 6 0.0003 -0.0009 0.0000 -3.0542 0.0000 35.5655
#
#
#
# Elastic Compliance Matrix: (Units=1/GPa)
#
#
# Indices 1 2 3 4 5 6 
#
# 1 0.007243 -0.005736 -0.003330 0.000000 -0.000331 0.000000
# 2 -0.005736 0.055009 -0.007068 0.000001 0.003016 0.000002
# 3 -0.003330 -0.007068 0.007504 0.000000 -0.000373 0.000000
# 4 0.000000 0.000001 0.000000 0.037087 0.000000 0.003185
# 5 -0.000331 0.003016 -0.000373 0.000000 0.021502 0.000000
# 6 0.000000 0.000002 0.000000 0.003185 0.000000 0.028391
#
#
# Mechanical properties :
#
#
# Convention : Reuss Voigt Hill
#
# Bulk Modulus (GPa) = 26.67547 110.52112 68.59829
# Shear Modulus (GPa) = 24.81390 40.19603 32.50497
#
# Velocity S-wave (km/s) = 3.59430 4.57466 4.11379
# Velocity P-wave (km/s) = 5.57795 9.24363 7.63408
#
# Compressibility (1/GPa) = 0.03748763
#
# Stress axis : x y z
#
# Youngs Moduli (GPa) = 138.06281 18.17895 133.26326
#
# Poissons Ratio (x) = 0.10427 0.44380
# Poissons Ratio (y) = 0.79189 0.94192
# Poissons Ratio (z) = 0.45978 0.12849
#
# Static dielectric constant tensor:
#      x y z
#    x 1.626130 0.000000 -0.008860 
#    y 0.000000 1.667000 0.000000 
#    z -0.008860 0.000000 1.643970 
# 
# From -- ./inp_files/275542.got.cif
#   From: 2010.05.17/outbox.cif.g08.bks.cpg/sg12_138_cif.got.tgz:275542.got - 2010.06.03 13:09:07.
