data_PCOD9198173
_publ_section_title
;
Structure prediction by ZEFSAII (Michael W. Deem and Ramdas Pophale) SiO2 
 PCOD9198173
Probable space group: C 2/M
;
_chemical_formula_sum "Si O2"
_cell_formula_units_Z 64
_cell_length_a 31.477459
_cell_length_b 7.666448
_cell_length_c 11.963189
_cell_angle_alpha 90.000000
_cell_angle_beta 92.458520
_cell_angle_gamma 90.000000
_cell_volume 2884.303054
_symmetry_space_group_name_H-M "C 2/M"
_symmetry_group_IT_number 12
_symmetry_cell_setting 'monoclinic'
loop_
_space_group_symop_operation_xyz
x,y,z
-x,y,-z
-x,-y,-z
x,-y,z
1/2+x,1/2+y,z
1/2-x,1/2+y,-z
1/2-x,1/2-y,-z
1/2+x,1/2-y,z
loop_
_atom_site_type_symbol
_atom_site_label
_atom_site_fract_x
_atom_site_fract_y
_atom_site_fract_z
Si Si1 0.561967 0.210614 0.563981
Si Si2 0.458951 0.293892 0.928325
Si Si3 0.689964 0.800272 0.845501
Si Si4 0.975216 0.288953 0.672879
Si Si5 0.365894 0.701147 0.972118
Si Si6 0.156121 0.203695 0.611068
Si Si7 0.217027 0.214883 0.168189
Si Si8 0.790680 0.208381 0.579834
O O1 0.554842 0.267186 0.434108
O O2 0.522068 0.265085 0.635469
O O3 0.606135 0.273965 0.617169
O O4 0.561917 0.000000 0.563416
O O5 0.457779 0.500000 0.955588
O O6 0.464580 0.274656 0.795505
O O7 0.500000 0.221218 0.000000
O O8 0.412619 0.220580 0.958810
O O9 0.651269 0.707194 0.903455
O O10 0.681649 0.795109 0.712487
O O11 0.737036 0.725735 0.872484
O O12 0.688904 0.000000 0.882486
O O13 0.974194 0.500000 0.676743
O O14 0.369193 0.500000 0.935472
O O15 0.325283 0.774044 0.900155
O O16 0.169923 0.270565 0.490597
O O17 0.167277 0.000000 0.619628
O O18 0.213314 0.275656 0.295717
O O19 0.218606 0.000000 0.164698
O O20 0.750000 0.250000 0.500000
O O21 0.794164 0.000000 0.592206
#
# Coordination Sequence:
#
# PCOD9198173 Si02
#       8
#     8   8   8   8   8   8   8   8
#     4   9  20  39  61  87 119 152 188 236 292 342
#     4  10  23  40  59  86 120 156 193 241 294 346
#     4  11  22  38  60  84 116 154 199 245 291 345
#     4   9  20  40  63  86 115 152 192 237 290 347
#     4  10  22  40  61  83 115 154 196 246 296 343
#     4  11  23  35  57  89 119 153 193 234 286 349
#     4   9  19  37  60  83 113 154 192 240 295 342
#     4  10  20  36  56  82 116 151 189 229 284 343
#
# _framework density 22.189069
#
# number of rings (size 3 to 8) (size 9 to 14) (size 15 to 20)
#    0.000    2.125    1.250    1.875    3.500    2.250 
#    0.000    2.500    0.000    0.000    0.000    0.000 
#    0.000    0.000    0.000    0.000    0.000    0.000 
#
# Total GULP energy -178668.823011 kJ/mol
# GULP energy per Si atom -5583.400719 kJ/mol
# Density = 2.213857 g / cm^3
# Si number density = 22.189069 Si / 1000 Ang^3
#
#
#
# Elastic Constant Matrix: (Units=GPa)
#
#
# Indices 1 2 3 4 5 6 
#
# 1 163.3092 9.7236 52.2450 0.0000 -2.6511 0.0000
# 2 9.7236 39.7385 0.7895 0.0000 2.4054 0.0000
# 3 52.2450 0.7895 95.9488 0.0000 -13.2536 0.0000
# 4 0.0000 0.0000 0.0000 14.5230 0.0000 -3.1455
# 5 -2.6511 2.4054 -13.2536 0.0000 28.1498 0.0000
# 6 0.0000 0.0000 0.0000 -3.1455 0.0000 3.7495
#
#
#
# Elastic Compliance Matrix: (Units=1/GPa)
#
#
# Indices 1 2 3 4 5 6 
#
# 1 0.007571 -0.001698 -0.004268 0.000000 -0.001151 0.000000
# 2 -0.001698 0.025703 0.000415 0.000000 -0.002161 0.000000
# 3 -0.004268 0.000415 0.013564 0.000000 0.005949 0.000000
# 4 0.000000 0.000000 0.000000 0.084145 0.000000 0.070590
# 5 -0.001151 -0.002161 0.005949 0.000000 0.038401 0.000000
# 6 0.000000 0.000000 0.000000 0.070590 0.000000 0.325921
#
#
# Mechanical properties :
#
#
# Convention : Reuss Voigt Hill
#
# Bulk Modulus (GPa) = 27.98307 47.16809 37.57558
# Shear Modulus (GPa) = 9.64656 25.03369 17.34013
#
# Velocity S-wave (km/s) = 2.08731 3.36251 2.79851
# Velocity P-wave (km/s) = 4.29508 6.03149 5.23577
#
# Compressibility (1/GPa) = 0.03573590
#
# Stress axis : x y z
#
# Youngs Moduli (GPa) = 132.08271 38.90659 73.72312
#
# Poissons Ratio (x) = 0.06607 0.31461
# Poissons Ratio (y) = 0.22429 -0.03057
# Poissons Ratio (z) = 0.56367 -0.01613
#
# Static dielectric constant tensor:
#      x y z
#    x 1.821620 0.000000 -0.018410 
#    y 0.000000 1.839920 0.000000 
#    z -0.018410 0.000000 1.802500 
# 
# From -- ./inp_files/187419.got.cif
#   From: 2010.05.17/outbox.cif.g08.bks.cpg/sg12_94_cif.got.tgz:187419.got - 2010.06.03 13:09:07.
