data_PCOD9198328
_publ_section_title
;
Structure prediction by ZEFSAII (Michael W. Deem and Ramdas Pophale) SiO2 
 PCOD9198328
Probable space group: C 2/M
;
_chemical_formula_sum "Si O2"
_cell_formula_units_Z 56
_cell_length_a 18.997315
_cell_length_b 8.805701
_cell_length_c 16.211262
_cell_angle_alpha 90.000000
_cell_angle_beta 89.816114
_cell_angle_gamma 90.000000
_cell_volume 2711.881740
_symmetry_space_group_name_H-M "C 2/M"
_symmetry_group_IT_number 12
_symmetry_cell_setting 'monoclinic'
loop_
_space_group_symop_operation_xyz
x,y,z
-x,y,-z
-x,-y,-z
x,-y,z
1/2+x,1/2+y,z
1/2-x,1/2+y,-z
1/2-x,1/2-y,-z
1/2+x,1/2-y,z
loop_
_atom_site_type_symbol
_atom_site_label
_atom_site_fract_x
_atom_site_fract_y
_atom_site_fract_z
Si Si1 0.043723 0.319281 0.417447
Si Si2 0.207888 0.176254 0.925397
Si Si3 0.297919 0.822969 0.756668
Si Si4 0.171179 0.324294 0.668178
Si Si5 0.327455 0.679383 0.498449
Si Si6 0.580850 0.823074 0.836392
Si Si7 0.451962 0.319943 0.755254
O O1 0.039413 0.500000 0.404192
O O2 0.122484 0.265491 0.437936
O O3 0.021060 0.235078 0.334678
O O4 0.000000 0.281977 0.500000
O O5 0.257218 0.185738 0.844086
O O6 0.134362 0.257308 0.903787
O O7 0.194348 0.000000 0.942688
O O8 0.250000 0.250000 0.000000
O O9 0.249486 0.725953 0.694858
O O10 0.376113 0.758886 0.765568
O O11 0.299589 0.000000 0.730807
O O12 0.169742 0.500000 0.640707
O O13 0.146229 0.218428 0.594029
O O14 0.123531 0.310674 0.749608
O O15 0.327252 0.500000 0.513564
O O16 0.250000 0.750000 0.500000
O O17 0.508357 0.734696 0.822552
O O18 0.566812 0.000000 0.851654
O O19 0.444334 0.500000 0.756696
#
# Coordination Sequence:
#
# PCOD9198328 Si02
#       7
#     8   8   8   8   8   8   8
#     4  11  24  41  59  80 111 152 196 243 295 347
#     4  10  21  39  65  94 122 152 187 230 279 337
#     4  10  21  38  60  86 117 154 193 233 283 341
#     4  10  20  36  57  81 109 144 189 237 286 340
#     4  12  24  37  54  77 108 145 189 241 292 341
#     4  10  21  38  61  86 115 151 188 229 278 337
#     4  12  24  38  58  85 118 153 193 241 289 340
#
# _framework density 20.649868999999999
#
# number of rings (size 3 to 8) (size 9 to 14) (size 15 to 20)
#    0.000    1.286    0.000    6.429    0.000    8.000 
#    0.000    0.714    0.000    4.286    0.000    0.000 
#    0.000    0.000    0.000    0.000    0.000    0.000 
#
# Total GULP energy -156683.966299 kJ/mol
# GULP energy per Si atom -5595.855939 kJ/mol
# Density = 2.060287 g / cm^3
# Si number density = 20.649869 Si / 1000 Ang^3
#
#
#
# Elastic Constant Matrix: (Units=GPa)
#
#
# Indices 1 2 3 4 5 6 
#
# 1 85.3857 19.1068 -3.0031 0.0000 29.9185 0.0000
# 2 19.1068 86.3722 7.7396 0.0000 5.8696 0.0000
# 3 -3.0031 7.7396 59.0051 0.0000 30.9430 0.0000
# 4 0.0000 0.0000 0.0000 36.4362 0.0000 5.9926
# 5 29.9185 5.8696 30.9430 0.0000 31.5973 0.0000
# 6 0.0000 0.0000 0.0000 5.9926 0.0000 26.2834
#
#
#
# Elastic Compliance Matrix: (Units=1/GPa)
#
#
# Indices 1 2 3 4 5 6 
#
# 1 0.056257 -0.010433 0.064035 0.000000 -0.114039 0.000000
# 2 -0.010433 0.013680 -0.012691 0.000000 0.019765 0.000000
# 3 0.064035 -0.012691 0.107785 0.000000 -0.163828 0.000000
# 4 0.000000 0.000000 0.000000 0.028514 0.000000 -0.006501
# 5 -0.114039 0.019765 -0.163828 0.000000 0.296392 0.000000
# 6 0.000000 0.000000 0.000000 -0.006501 0.000000 0.039529
#
#
# Mechanical properties :
#
#
# Convention : Reuss Voigt Hill
#
# Bulk Modulus (GPa) = 3.85291 30.93886 17.39588
# Shear Modulus (GPa) = 9.14329 32.65803 20.90066
#
# Velocity S-wave (km/s) = 2.10651 3.98114 3.18487
# Velocity P-wave (km/s) = 2.79041 6.01230 4.68690
#
# Compressibility (1/GPa) = 0.25954403
#
# Stress axis : x y z
#
# Youngs Moduli (GPa) = 17.77568 73.10081 9.27772
#
# Poissons Ratio (x) = 0.76267 -0.59410
# Poissons Ratio (y) = 0.18546 0.11774
# Poissons Ratio (z) = -1.13826 0.92769
#
# Static dielectric constant tensor:
#      x y z
#    x 1.779890 0.000000 -0.024350 
#    y 0.000000 1.688300 0.000000 
#    z -0.024350 0.000000 1.741390 
# 
# From -- ./inp_files/275527.got.cif
#   From: 2010.05.17/outbox.cif.g08.bks.cpg/sg12_138_cif.got.tgz:275527.got - 2010.06.03 13:09:07.
