data_PCOD9198093
_publ_section_title
;
Structure prediction by ZEFSAII (Michael W. Deem and Ramdas Pophale) SiO2 
 PCOD9198093
Probable space group: C 2/M
;
_chemical_formula_sum "Si O2"
_cell_formula_units_Z 64
_cell_length_a 15.131509
_cell_length_b 7.476343
_cell_length_c 22.354188
_cell_angle_alpha 90.000000
_cell_angle_beta 75.807019
_cell_angle_gamma 90.000000
_cell_volume 2451.698990
_symmetry_space_group_name_H-M "C 2/M"
_symmetry_group_IT_number 12
_symmetry_cell_setting 'monoclinic'
loop_
_space_group_symop_operation_xyz
x,y,z
-x,y,-z
-x,-y,-z
x,-y,z
1/2+x,1/2+y,z
1/2-x,1/2+y,-z
1/2-x,1/2-y,-z
1/2+x,1/2-y,z
loop_
_atom_site_type_symbol
_atom_site_label
_atom_site_fract_x
_atom_site_fract_y
_atom_site_fract_z
Si Si1 0.811941 0.296168 0.856002
Si Si2 0.342830 0.214627 0.419207
Si Si3 0.458464 0.212194 0.279145
Si Si4 0.209959 0.705553 0.755348
Si Si5 0.966461 0.281943 0.910987
Si Si6 0.390174 0.206095 0.667224
Si Si7 0.630820 0.793472 0.457003
Si Si8 0.358971 0.216272 0.049431
O O1 0.827232 0.500000 0.833683
O O2 0.753001 0.208512 0.813677
O O3 0.908306 0.221642 0.863225
O O4 0.740604 0.293486 0.922917
O O5 0.399721 0.243006 0.349758
O O6 0.388283 0.280370 0.473732
O O7 0.240994 0.290070 0.433446
O O8 0.332916 0.000000 0.426527
O O9 0.391689 0.279124 0.238013
O O10 0.555655 0.284893 0.285028
O O11 0.471770 0.000000 0.263745
O O12 0.206967 0.500000 0.735643
O O13 0.284423 0.795403 0.700938
O O14 0.968111 0.500000 0.907186
O O15 0.068905 0.227380 0.910695
O O16 0.906472 0.233916 0.979287
O O17 0.403429 0.288742 0.599604
O O18 0.421377 0.000000 0.657207
O O19 0.600915 0.000000 0.462249
O O20 0.352586 0.000000 0.051829
#
# Coordination Sequence:
#
# PCOD9198093 Si02
#       8
#     8   8   8   8   8   8   8   8
#     4  11  22  36  55  82 112 143 177 223 270 308
#     4   9  16  30  51  76 105 137 168 205 257 324
#     4   9  19  35  56  76 101 138 178 216 264 321
#     4  11  23  40  56  74 102 143 186 223 262 315
#     4   8  17  34  58  84 114 147 178 211 260 316
#     4  10  20  36  56  79 103 133 174 224 273 316
#     4   9  17  28  50  80 106 130 164 213 267 314
#     4   9  17  35  60  85 111 145 182 214 252 316
#
# _framework density 26.104346
#
# number of rings (size 3 to 8) (size 9 to 14) (size 15 to 20)
#    0.000    2.500    1.250    1.875    0.000    1.500 
#    0.000   12.500    0.000    0.000    0.000    4.375 
#    0.000    0.000    0.000    0.000    0.000    0.000 
#
# Total GULP energy -178791.234561 kJ/mol
# GULP energy per Si atom -5587.226080 kJ/mol
# Density = 2.604493 g / cm^3
# Si number density = 26.104346 Si / 1000 Ang^3
#
#
#
# Elastic Constant Matrix: (Units=GPa)
#
#
# Indices 1 2 3 4 5 6 
#
# 1 157.7740 3.2822 31.6629 0.0000 35.2558 0.0000
# 2 3.2822 73.3969 -0.3516 0.0000 7.1734 0.0000
# 3 31.6629 -0.3516 97.5365 0.0000 35.5043 0.0000
# 4 0.0000 0.0000 0.0000 5.6464 0.0000 -1.9942
# 5 35.2558 7.1734 35.5043 0.0000 62.9757 0.0000
# 6 0.0000 0.0000 0.0000 -1.9942 0.0000 3.1816
#
#
#
# Elastic Compliance Matrix: (Units=1/GPa)
#
#
# Indices 1 2 3 4 5 6 
#
# 1 0.007340 0.000007 -0.001116 0.000000 -0.003481 0.000000
# 2 0.000007 0.013825 0.000783 0.000000 -0.002020 0.000000
# 3 -0.001116 0.000783 0.013114 0.000000 -0.006858 0.000000
# 4 0.000000 0.000000 0.000000 0.227453 0.000000 0.142564
# 5 -0.003481 -0.002020 -0.006858 0.000000 0.021924 0.000000
# 6 0.000000 0.000000 0.000000 0.142564 0.000000 0.403667
#
#
# Mechanical properties :
#
#
# Convention : Reuss Voigt Hill
#
# Bulk Modulus (GPa) = 29.73790 44.21050 36.97420
# Shear Modulus (GPa) = 7.15119 33.96833 20.55976
#
# Velocity S-wave (km/s) = 1.65693 3.61120 2.80946
# Velocity P-wave (km/s) = 3.88294 5.86179 4.97181
#
# Compressibility (1/GPa) = 0.03362713
#
# Stress axis : x y z
#
# Youngs Moduli (GPa) = 136.24448 72.33049 76.25479
#
# Poissons Ratio (x) = -0.00048 0.08507
# Poissons Ratio (y) = -0.00090 -0.05970
# Poissons Ratio (z) = 0.15199 -0.05663
#
# Static dielectric constant tensor:
#      x y z
#    x 2.040330 0.000000 0.048760 
#    y 0.000000 2.127260 0.000000 
#    z 0.048760 0.000000 2.108620 
# 
# From -- ./inp_files/338811.got.cif
#   From: 2010.05.17/outbox.cif.g08.bks.cpg/sg12_170_cif.got.tgz:338811.got - 2010.06.03 13:09:07.
