data_PCOD9198134
_publ_section_title
;
Structure prediction by ZEFSAII (Michael W. Deem and Ramdas Pophale) SiO2 
 PCOD9198134
Probable space group: C 2/M
;
_chemical_formula_sum "Si O2"
_cell_formula_units_Z 56
_cell_length_a 19.190612
_cell_length_b 13.755171
_cell_length_c 12.174037
_cell_angle_alpha 90.000000
_cell_angle_beta 109.017558
_cell_angle_gamma 90.000000
_cell_volume 3038.181066
_symmetry_space_group_name_H-M "C 2/M"
_symmetry_group_IT_number 12
_symmetry_cell_setting 'monoclinic'
loop_
_space_group_symop_operation_xyz
x,y,z
-x,y,-z
-x,-y,-z
x,-y,z
1/2+x,1/2+y,z
1/2-x,1/2+y,-z
1/2-x,1/2-y,-z
1/2+x,1/2-y,z
loop_
_atom_site_type_symbol
_atom_site_label
_atom_site_fract_x
_atom_site_fract_y
_atom_site_fract_z
Si Si1 0.577147 0.615919 0.092663
Si Si2 0.408407 0.708400 0.661502
Si Si3 0.817905 0.614154 0.975834
Si Si4 0.654255 0.886876 0.263652
Si Si5 0.846510 0.814843 0.074420
Si Si6 0.318415 0.615331 0.432197
Si Si7 0.945168 0.113947 0.317601
O O1 0.575479 0.500000 0.090471
O O2 0.588579 0.650790 0.221948
O O3 0.500000 0.652095 0.000000
O O4 0.640821 0.652202 0.044087
O O5 0.399221 0.818883 0.694390
O O6 0.340787 0.674628 0.551215
O O7 0.482542 0.679251 0.635493
O O8 0.825101 0.500000 0.010053
O O9 0.851558 0.626475 0.870974
O O10 0.731528 0.643421 0.925137
O O11 0.849262 0.697277 0.073018
O O12 0.738277 0.862268 0.341829
O O13 0.642229 0.000000 0.280354
O O14 0.908981 0.862409 0.181423
O O15 0.320112 0.500000 0.458240
O O16 0.381402 0.632730 0.373246
O O17 0.966075 0.000000 0.334835
#
# Coordination Sequence:
#
# PCOD9198134 Si02
#       7
#     8   8   8   8   8   8   8
#     4  11  21  32  50  80 116 143 167 220 291 343
#     4  12  22  35  55  87 117 145 184 234 287 337
#     4  10  20  36  56  80 111 150 194 231 269 334
#     4  10  21  39  58  79 112 155 196 229 274 336
#     4  11  20  34  57  81 110 147 187 227 281 341
#     4  10  21  38  60  84 110 146 191 235 279 336
#     4  11  21  36  60  87 117 149 184 233 292 342
#
# _framework density 18.432081
#
# number of rings (size 3 to 8) (size 9 to 14) (size 15 to 20)
#    0.000    1.286    4.286    3.429    0.000    1.143 
#    0.000    0.714    0.000    5.143    0.000    0.000 
#    0.000    0.000    0.000    0.000    0.000    0.000 
#
# Total GULP energy -156319.905460 kJ/mol
# GULP energy per Si atom -5582.853766 kJ/mol
# Density = 1.839013 g / cm^3
# Si number density = 18.432081 Si / 1000 Ang^3
#
#
#
# Elastic Constant Matrix: (Units=GPa)
#
#
# Indices 1 2 3 4 5 6 
#
# 1 49.0105 37.2986 -1.8499 0.0000 -5.9557 0.0000
# 2 37.2986 90.9524 19.7563 0.0000 -11.3570 0.0000
# 3 -1.8499 19.7563 44.2009 0.0000 -11.9812 0.0000
# 4 0.0000 0.0000 0.0000 20.5753 0.0000 -4.1923
# 5 -5.9557 -11.3570 -11.9812 0.0000 17.0615 0.0000
# 6 0.0000 0.0000 0.0000 -4.1923 0.0000 24.5279
#
#
#
# Elastic Compliance Matrix: (Units=1/GPa)
#
#
# Indices 1 2 3 4 5 6 
#
# 1 0.033084 -0.014696 0.010414 0.000000 0.009080 0.000000
# 2 -0.014696 0.019104 -0.008766 0.000000 0.001431 0.000000
# 3 0.010414 -0.008766 0.032584 0.000000 0.020682 0.000000
# 4 0.000000 0.000000 0.000000 0.050356 0.000000 0.008607
# 5 0.009080 0.001431 0.020682 0.000000 0.077257 0.000000
# 6 0.000000 0.000000 0.000000 0.008607 0.000000 0.042241
#
#
# Mechanical properties :
#
#
# Convention : Reuss Voigt Hill
#
# Bulk Modulus (GPa) = 17.04235 32.73045 24.88640
# Shear Modulus (GPa) = 16.65108 21.03019 18.84063
#
# Velocity S-wave (km/s) = 3.00888 3.38147 3.20060
# Velocity P-wave (km/s) = 4.61923 5.74819 5.21435
#
# Compressibility (1/GPa) = 0.05867735
#
# Stress axis : x y z
#
# Youngs Moduli (GPa) = 30.22585 52.34452 30.68981
#
# Poissons Ratio (x) = 0.76925 -0.31962
# Poissons Ratio (y) = 0.44420 0.26903
# Poissons Ratio (z) = -0.31478 0.45886
#
# Static dielectric constant tensor:
#      x y z
#    x 1.655970 0.000000 0.005130 
#    y 0.000000 1.629570 0.000000 
#    z 0.005130 0.000000 1.640400 
# 
# From -- ./inp_files/156181.got.cif
#   From: 2010.05.17/outbox.cif.g08.bks.cpg/sg12_79_cif.got.tgz:156181.got - 2010.06.03 13:09:07.
