data_PCOD9198890
_publ_section_title
;
Structure prediction by ZEFSAII (Michael W. Deem and Ramdas Pophale) SiO2 
 PCOD9198890
Probable space group: C 2/M
;
_chemical_formula_sum "Si O2"
_cell_formula_units_Z 56
_cell_length_a 9.813424
_cell_length_b 26.718008
_cell_length_c 12.266532
_cell_angle_alpha 90.000000
_cell_angle_beta 124.210743
_cell_angle_gamma 90.000000
_cell_volume 2659.738284
_symmetry_space_group_name_H-M "C 2/M"
_symmetry_group_IT_number 12
_symmetry_cell_setting 'monoclinic'
loop_
_space_group_symop_operation_xyz
x,y,z
-x,y,-z
-x,-y,-z
x,-y,z
1/2+x,1/2+y,z
1/2-x,1/2+y,-z
1/2-x,1/2-y,-z
1/2+x,1/2-y,z
loop_
_atom_site_type_symbol
_atom_site_label
_atom_site_fract_x
_atom_site_fract_y
_atom_site_fract_z
Si Si1 0.708106 0.314046 0.293982
Si Si2 0.145427 0.151140 0.915355
Si Si3 0.409501 0.146676 0.207607
Si Si4 0.145873 0.057249 0.790459
Si Si5 0.362088 0.790770 0.843688
Si Si6 0.612360 0.057462 0.301532
Si Si7 0.880896 0.124766 0.543364
O O1 0.547298 0.339810 0.165936
O O2 0.873268 0.334763 0.312507
O O3 0.691684 0.256654 0.251021
O O4 0.686658 0.331509 0.408993
O O5 0.183118 0.093292 0.907460
O O6 0.214544 0.183491 0.844352
O O7 0.252889 0.165154 0.067286
O O8 0.559471 0.170759 0.207387
O O9 0.442656 0.087686 0.222639
O O10 0.300275 0.057222 0.777481
O O11 0.996652 0.085956 0.662508
O O12 0.105213 0.000000 0.797741
O O13 0.500000 0.778926 0.000000
O O14 0.733689 0.091036 0.430072
O O15 0.600395 0.000000 0.332445
O O16 0.000000 0.143832 0.500000
#
# Coordination Sequence:
#
# PCOD9198890 Si02
#       7
#     8   8   8   8   8   8   8
#     4  11  22  37  61  84 115 155 195 238 292 339
#     4  10  20  36  58  88 122 153 189 233 280 349
#     4  11  22  36  57  91 123 148 191 238 286 346
#     4   9  17  33  61  88 111 149 196 238 282 340
#     4  10  20  37  61  87 117 156 194 230 280 347
#     4  10  20  37  61  84 115 154 194 240 288 337
#     4   9  20  39  61  84 112 147 201 243 282 341
#
# _framework density 21.054704000000001
#
# number of rings (size 3 to 8) (size 9 to 14) (size 15 to 20)
#    0.000    2.000    1.429    2.571    0.000    5.143 
#    0.000    6.429    0.000    4.286    0.000    0.000 
#    0.000    0.000    0.000    0.000    0.000    0.000 
#
# Total GULP energy -156290.043903 kJ/mol
# GULP energy per Si atom -5581.787282 kJ/mol
# Density = 2.100678 g / cm^3
# Si number density = 21.054704 Si / 1000 Ang^3
#
#
#
# Elastic Constant Matrix: (Units=GPa)
#
#
# Indices 1 2 3 4 5 6 
#
# 1 76.9981 44.8674 22.7676 0.0000 -29.9804 0.0000
# 2 44.8674 123.6073 29.3980 0.0000 -26.7667 0.0000
# 3 22.7676 29.3980 37.3023 0.0000 -18.3266 0.0000
# 4 0.0000 0.0000 0.0000 57.7479 0.0000 -44.9891
# 5 -29.9804 -26.7667 -18.3266 0.0000 30.1854 0.0000
# 6 0.0000 0.0000 0.0000 -44.9891 0.0000 70.0521
#
#
#
# Elastic Compliance Matrix: (Units=1/GPa)
#
#
# Indices 1 2 3 4 5 6 
#
# 1 0.022892 -0.003924 -0.002022 0.000000 0.018029 0.000000
# 2 -0.003924 0.011394 -0.005039 0.000000 0.003147 0.000000
# 3 -0.002022 -0.005039 0.041087 0.000000 0.018470 0.000000
# 4 0.000000 0.000000 0.000000 0.034656 0.000000 0.022257
# 5 0.018029 0.003147 0.018470 0.000000 0.065039 0.000000
# 6 0.000000 0.000000 0.000000 0.022257 0.000000 0.028569
#
#
# Mechanical properties :
#
#
# Convention : Reuss Voigt Hill
#
# Bulk Modulus (GPa) = 18.72520 47.99709 33.36114
# Shear Modulus (GPa) = 20.54164 40.98873 30.76519
#
# Velocity S-wave (km/s) = 3.12690 4.41701 3.82671
# Velocity P-wave (km/s) = 4.68504 6.98993 5.95016
#
# Compressibility (1/GPa) = 0.05340397
#
# Stress axis : x y z
#
# Youngs Moduli (GPa) = 43.68394 87.76191 24.33867
#
# Poissons Ratio (x) = 0.34442 0.04920
# Poissons Ratio (y) = 0.17143 0.12263
# Poissons Ratio (z) = 0.08831 0.44219
#
# Static dielectric constant tensor:
#      x y z
#    x 1.749890 0.000000 0.015280 
#    y 0.000000 1.741700 0.000000 
#    z 0.015280 0.000000 1.816480 
# 
# From -- ./inp_files/124351.got.cif
#   From: 2010.05.17/outbox.cif.g08.bks.cpg/sg12_63_cif.got.tgz:124351.got - 2010.06.03 13:09:07.
