data_PCOD9198630
_publ_section_title
;
Structure prediction by ZEFSAII (Michael W. Deem and Ramdas Pophale) SiO2 
 PCOD9198630
Probable space group: C 2/M
;
_chemical_formula_sum "Si O2"
_cell_formula_units_Z 40
_cell_length_a 16.993695
_cell_length_b 9.637426
_cell_length_c 24.956537
_cell_angle_alpha 90.000000
_cell_angle_beta 30.038587
_cell_angle_gamma 90.000000
_cell_volume 2046.017793
_symmetry_space_group_name_H-M "C 2/M"
_symmetry_group_IT_number 12
_symmetry_cell_setting 'monoclinic'
loop_
_space_group_symop_operation_xyz
x,y,z
-x,y,-z
-x,-y,-z
x,-y,z
1/2+x,1/2+y,z
1/2-x,1/2+y,-z
1/2-x,1/2-y,-z
1/2+x,1/2-y,z
loop_
_atom_site_type_symbol
_atom_site_label
_atom_site_fract_x
_atom_site_fract_y
_atom_site_fract_z
Si Si1 0.336220 0.661937 0.903558
Si Si2 0.600682 0.157969 0.235193
Si Si3 0.244944 0.217301 0.440254
Si Si4 0.210090 0.149180 0.692077
Si Si5 0.894510 0.156299 0.660447
O O1 0.284408 0.500000 0.930308
O O2 0.321963 0.747251 0.856462
O O3 0.522333 0.657571 0.807037
O O4 0.250000 0.750000 0.000000
O O5 0.414148 0.147849 0.330806
O O6 0.613284 0.242237 0.283436
O O7 0.661706 0.000000 0.202360
O O8 0.250000 0.250000 0.500000
O O9 0.247794 0.340748 0.395602
O O10 0.075012 0.149382 0.533992
O O11 0.290496 0.274449 0.675720
O O12 0.264708 0.000000 0.681377
O O13 0.844337 0.000000 0.703754
#
# Coordination Sequence:
#
# PCOD9198630 Si02
#       5
#     8   8   8   8   8
#     4  10  21  39  62  85 109 139 180 229 279 331
#     4  10  20  36  58  82 111 148 188 227 271 325
#     4   9  20  34  54  81 112 149 189 226 267 319
#     4  10  22  38  56  81 112 146 184 226 274 329
#     4  11  22  35  53  81 117 151 185 227 271 319
#
# _framework density 19.550173000000001
#
# number of rings (size 3 to 8) (size 9 to 14) (size 15 to 20)
#    0.000    2.000    0.000    3.000    0.000   15.200 
#    0.000    1.000    0.000    6.000    0.000    0.000 
#    0.000    0.000    0.000    0.000    0.000    0.000 
#
# Total GULP energy -111432.341138 kJ/mol
# GULP energy per Si atom -5571.617057 kJ/mol
# Density = 1.950568 g / cm^3
# Si number density = 19.550173 Si / 1000 Ang^3
#
#
#
# Elastic Constant Matrix: (Units=GPa)
#
#
# Indices 1 2 3 4 5 6 
#
# 1 71.9341 51.5825 25.6118 0.0001 11.8585 0.0000
# 2 51.5825 191.7336 46.8281 0.0001 18.5318 0.0000
# 3 25.6118 46.8281 78.6086 0.0003 33.4228 -0.0001
# 4 0.0001 0.0001 0.0003 -3.5932 0.0000 11.1311
# 5 11.8585 18.5318 33.4228 0.0000 27.8388 0.0000
# 6 0.0000 0.0000 -0.0001 11.1311 0.0000 22.1404
#
#
#
# Elastic Compliance Matrix: (Units=1/GPa)
#
#
# Indices 1 2 3 4 5 6 
#
# 1 0.018045 -0.004015 -0.002769 0.000000 -0.001689 0.000000
# 2 -0.004015 0.007002 -0.003286 0.000000 0.000994 0.000000
# 3 -0.002769 -0.003286 0.028904 0.000001 -0.031334 0.000000
# 4 0.000000 0.000000 0.000001 -0.108821 -0.000001 0.054710
# 5 -0.001689 0.000994 -0.031334 -0.000001 0.073599 0.000000
# 6 0.000000 0.000000 0.000000 0.054710 0.000000 0.017661
#
#
# Mechanical properties :
#
#
# Convention : Reuss Voigt Hill
#
# Bulk Modulus (GPa) = 29.57633 65.59121 47.58377
# Shear Modulus (GPa) = 73.74657 23.82747 48.78702
#
# Velocity S-wave (km/s) = 6.14846 3.49490 5.00090
# Velocity P-wave (km/s) = 8.09729 7.06461 7.59851
#
# Compressibility (1/GPa) = 0.03381082
#
# Stress axis : x y z
#
# Youngs Moduli (GPa) = 55.41627 142.81264 34.59777
#
# Poissons Ratio (x) = 0.57341 0.09581
# Poissons Ratio (y) = 0.22250 0.11368
# Poissons Ratio (z) = 0.15347 0.46923
#
# Static dielectric constant tensor:
#      x y z
#    x 1.707560 0.000000 0.001830 
#    y 0.000000 1.697730 0.000000 
#    z 0.001830 0.000000 1.673110 
# 
# From -- ./inp_files/220268.got.cif
#   From: 2010.05.17/outbox.cif.g08.bks.cpg/sg12_111_cif.got.tgz:220268.got - 2010.06.03 13:09:07.
