data_PCOD9198196
_publ_section_title
;
Structure prediction by ZEFSAII (Michael W. Deem and Ramdas Pophale) SiO2 
 PCOD9198196
Probable space group: C 2/M
;
_chemical_formula_sum "Si O2"
_cell_formula_units_Z 50
_cell_length_a 13.629103
_cell_length_b 25.805694
_cell_length_c 8.411568
_cell_angle_alpha 90.000000
_cell_angle_beta 114.368664
_cell_angle_gamma 90.000000
_cell_volume 2694.852431
_symmetry_space_group_name_H-M "C 2/M"
_symmetry_group_IT_number 12
_symmetry_cell_setting 'monoclinic'
loop_
_space_group_symop_operation_xyz
x,y,z
-x,y,-z
-x,-y,-z
x,-y,z
1/2+x,1/2+y,z
1/2-x,1/2+y,-z
1/2-x,1/2-y,-z
1/2+x,1/2-y,z
loop_
_atom_site_type_symbol
_atom_site_label
_atom_site_fract_x
_atom_site_fract_y
_atom_site_fract_z
Si Si1 0.547797 0.405340 0.772203
Si Si2 0.253303 0.938916 0.117125
Si Si3 0.608992 0.858874 0.977058
Si Si4 0.821605 0.138212 0.700083
Si Si5 0.500000 0.500000 0.500000
Si Si6 0.191252 0.172730 0.668378
Si Si7 0.695985 0.221156 0.815423
O O1 0.446335 0.377850 0.785993
O O2 0.509617 0.454322 0.643985
O O3 0.602680 0.363203 0.693299
O O4 0.640801 0.424450 0.954292
O O5 0.345304 0.910637 0.075360
O O6 0.244758 0.911743 0.283264
O O7 0.266707 0.000000 0.133965
O O8 0.605877 0.815777 0.834097
O O9 0.500000 0.865665 0.000000
O O10 0.699065 0.839528 0.162632
O O11 0.797146 0.156402 0.505763
O O12 0.783975 0.183640 0.793394
O O13 0.162514 0.233156 0.674019
O O14 0.750000 0.250000 0.000000
#
# Coordination Sequence:
#
# PCOD9198196 Si02
#       7
#     8   8   8   8   2   8   8
#     4  11  22  36  58  87 121 151 186 224 285 348
#     4  10  22  36  56  82 116 152 188 229 279 337
#     4   9  20  39  59  78 104 145 192 236 284 332
#     4  11  21  35  54  85 114 146 183 228 279 343
#     4  12  20  36  58  88 122 150 190 224 284 340
#     4  10  20  36  56  84 111 144 185 234 278 338
#     4   9  20  37  56  79 111 145 187 233 283 334
#
# _framework density 18.553891
#
# number of rings (size 3 to 8) (size 9 to 14) (size 15 to 20)
#    0.000    1.920    2.400    1.920    1.120    3.520 
#    0.000    4.800    0.000    0.960    0.000    0.000 
#    0.000    0.000    0.000    0.000    0.000    0.000 
#
# Total GULP energy -139205.352979 kJ/mol
# GULP energy per Si atom -5568.214119 kJ/mol
# Density = 1.851166 g / cm^3
# Si number density = 18.553891 Si / 1000 Ang^3
#
#
#
# Elastic Constant Matrix: (Units=GPa)
#
#
# Indices 1 2 3 4 5 6 
#
# 1 152.5114 78.6569 38.8785 0.0000 -28.0886 0.0000
# 2 78.6569 182.5957 51.7030 0.0000 -23.3218 0.0000
# 3 38.8785 51.7030 68.5267 0.0000 -28.2876 0.0000
# 4 0.0000 0.0000 0.0000 28.3082 0.0000 -5.0438
# 5 -28.0886 -23.3218 -28.2876 0.0000 26.4412 0.0000
# 6 0.0000 0.0000 0.0000 -5.0438 0.0000 5.6954
#
#
#
# Elastic Compliance Matrix: (Units=1/GPa)
#
#
# Indices 1 2 3 4 5 6 
#
# 1 0.009546 -0.003178 0.000019 0.000000 0.007359 0.000000
# 2 -0.003178 0.008035 -0.004885 0.000000 -0.001514 0.000000
# 3 0.000019 -0.004885 0.029545 0.000000 0.027320 0.000000
# 4 0.000000 0.000000 0.000000 0.041943 0.000000 0.037144
# 5 0.007359 -0.001514 0.027320 0.000000 0.073529 0.000000
# 6 0.000000 0.000000 0.000000 0.037144 0.000000 0.208473
#
#
# Mechanical properties :
#
#
# Convention : Reuss Voigt Hill
#
# Bulk Modulus (GPa) = 32.21665 82.45676 57.33670
# Shear Modulus (GPa) = 12.57846 27.71534 20.14690
#
# Velocity S-wave (km/s) = 2.60656 3.86913 3.29881
# Velocity P-wave (km/s) = 5.14396 8.03109 6.74384
#
# Compressibility (1/GPa) = 0.03103985
#
# Stress axis : x y z
#
# Youngs Moduli (GPa) = 104.75406 124.45257 33.84665
#
# Poissons Ratio (x) = 0.39548 -0.00065
# Poissons Ratio (y) = 0.33289 0.16533
# Poissons Ratio (z) = -0.00201 0.60791
#
# Static dielectric constant tensor:
#      x y z
#    x 1.634850 0.000000 0.001370 
#    y 0.000000 1.643790 0.000000 
#    z 0.001370 0.000000 1.668970 
# 
# From -- ./inp_files/52707.got.cif
#   From: 2010.05.17/outbox.cif.g08.bks.cpg/sg12_27_cif.got.tgz:52707.got - 2010.06.03 13:09:07.
