data_PCOD9198197
_publ_section_title
;
Structure prediction by ZEFSAII (Michael W. Deem and Ramdas Pophale) SiO2 
 PCOD9198197
Probable space group: C 2/M
;
_chemical_formula_sum "Si O2"
_cell_formula_units_Z 40
_cell_length_a 27.979098
_cell_length_b 15.600548
_cell_length_c 5.348934
_cell_angle_alpha 90.000000
_cell_angle_beta 54.753362
_cell_angle_gamma 90.000000
_cell_volume 1906.734774
_symmetry_space_group_name_H-M "C 2/M"
_symmetry_group_IT_number 12
_symmetry_cell_setting 'monoclinic'
loop_
_space_group_symop_operation_xyz
x,y,z
-x,y,-z
-x,-y,-z
x,-y,z
1/2+x,1/2+y,z
1/2-x,1/2+y,-z
1/2-x,1/2-y,-z
1/2+x,1/2-y,z
loop_
_atom_site_type_symbol
_atom_site_label
_atom_site_fract_x
_atom_site_fract_y
_atom_site_fract_z
Si Si1 0.820894 0.500000 0.726016
Si Si2 0.429675 0.404007 0.221676
Si Si3 0.658902 0.816341 0.264524
Si Si4 0.069590 0.201140 0.280470
Si Si5 0.221584 0.185505 0.389705
Si Si6 0.256983 0.500000 0.535255
O O1 0.856328 0.410909 0.591803
O O2 0.773276 0.500000 0.645919
O O3 0.791791 0.500000 0.092855
O O4 0.405313 0.500000 0.275144
O O5 0.418005 0.364663 0.529708
O O6 0.500000 0.410692 0.000000
O O7 0.416959 0.345414 0.019719
O O8 0.612229 0.781364 0.206080
O O9 0.669280 0.739630 0.428414
O O10 0.725246 0.827895 0.964949
O O11 0.000000 0.223155 0.500000
O O12 0.250000 0.250000 0.500000
O O13 0.209791 0.090724 0.531741
#
# Coordination Sequence:
#
# PCOD9198197 Si02
#       6
#     4   8   8   8   8   4
#     4  10  20  36  59  80 108 150 188 223 287 340
#     4   9  18  35  57  79 111 155 193 226 276 336
#     4  10  22  37  58  84 112 152 188 235 285 336
#     4  10  21  36  57  84 115 150 191 236 280 331
#     4  10  20  37  59  82 114 148 189 234 283 343
#     4  10  20  36  56  84 112 143 185 230 281 336
#
# _framework density 20.978269999999998
#
# number of rings (size 3 to 8) (size 9 to 14) (size 15 to 20)
#    0.000    2.200    2.000    0.600    2.800    2.400 
#    3.600    0.500    0.000    0.000    0.000    7.000 
#    0.000    0.000    0.000    0.000    0.000    0.000 
#
# Total GULP energy -111495.269601 kJ/mol
# GULP energy per Si atom -5574.763480 kJ/mol
# Density = 2.093052 g / cm^3
# Si number density = 20.978270 Si / 1000 Ang^3
#
#
#
# Elastic Constant Matrix: (Units=GPa)
#
#
# Indices 1 2 3 4 5 6 
#
# 1 119.3678 79.4280 23.5806 0.0000 17.6519 0.0000
# 2 79.4280 193.4084 11.7967 0.0000 10.6791 0.0000
# 3 23.5806 11.7967 67.4675 0.0000 13.8527 0.0000
# 4 0.0000 0.0000 0.0000 -126.1505 0.0000 -8.1410
# 5 17.6519 10.6791 13.8527 0.0000 30.9609 0.0000
# 6 0.0000 0.0000 0.0000 -8.1410 0.0000 32.1234
#
#
#
# Elastic Compliance Matrix: (Units=1/GPa)
#
#
# Indices 1 2 3 4 5 6 
#
# 1 0.012788 -0.004843 -0.002719 0.000000 -0.004404 0.000000
# 2 -0.004843 0.007127 0.000423 0.000000 0.000113 0.000000
# 3 -0.002719 0.000423 0.016969 0.000000 -0.006188 0.000000
# 4 0.000000 0.000000 0.000000 -0.007799 0.000000 -0.001977
# 5 -0.004404 0.000113 -0.006188 0.000000 0.037540 0.000000
# 6 0.000000 0.000000 0.000000 -0.001977 0.000000 0.030629
#
#
# Mechanical properties :
#
#
# Convention : Reuss Voigt Hill
#
# Bulk Modulus (GPa) = 44.23277 67.76157 55.99717
# Shear Modulus (GPa) = 41.99372 5.08267 23.53820
#
# Velocity S-wave (km/s) = 4.47897 1.55823 3.35330
# Velocity P-wave (km/s) = 6.91947 5.96728 6.46094
#
# Compressibility (1/GPa) = 0.02260767
#
# Stress axis : x y z
#
# Youngs Moduli (GPa) = 78.19690 140.30847 58.93201
#
# Poissons Ratio (x) = 0.67949 0.16021
# Poissons Ratio (y) = 0.37869 -0.02494
# Poissons Ratio (z) = 0.21258 -0.05937
#
# Static dielectric constant tensor:
#      x y z
#    x 1.823770 0.000000 -0.130040 
#    y 0.000000 1.874180 0.000000 
#    z -0.130040 0.000000 2.093780 
# 
# From -- ./inp_files/24098.got.cif
#   From: 2010.05.17/outbox.cif.g08.bks.cpg/sg12_13_cif.got.tgz:24098.got - 2010.06.03 13:09:07.
