data_PCOD9198267
_publ_section_title
;
Structure prediction by ZEFSAII (Michael W. Deem and Ramdas Pophale) SiO2 
 PCOD9198267
Probable space group: C 2/M
;
_chemical_formula_sum "Si O2"
_cell_formula_units_Z 64
_cell_length_a 9.768641
_cell_length_b 26.299170
_cell_length_c 14.934891
_cell_angle_alpha 90.000000
_cell_angle_beta 108.233226
_cell_angle_gamma 90.000000
_cell_volume 3644.233474
_symmetry_space_group_name_H-M "C 2/M"
_symmetry_group_IT_number 12
_symmetry_cell_setting 'monoclinic'
loop_
_space_group_symop_operation_xyz
x,y,z
-x,y,-z
-x,-y,-z
x,-y,z
1/2+x,1/2+y,z
1/2-x,1/2+y,-z
1/2-x,1/2-y,-z
1/2+x,1/2-y,z
loop_
_atom_site_type_symbol
_atom_site_label
_atom_site_fract_x
_atom_site_fract_y
_atom_site_fract_z
Si Si1 0.911380 0.942450 0.064630
Si Si2 0.113601 0.650123 0.802015
Si Si3 0.194697 0.815552 0.304593
Si Si4 0.833835 0.197527 0.498186
Si Si5 0.085161 0.558285 0.928753
Si Si6 0.392054 0.354175 0.177846
Si Si7 0.196495 0.694185 0.289107
Si Si8 0.168435 0.800100 0.013890
O O1 0.920169 0.912878 0.159964
O O2 0.965939 0.000000 0.087519
O O3 0.749582 0.944384 0.995064
O O4 0.000000 0.917900 0.000000
O O5 0.183895 0.650342 0.717895
O O6 0.074994 0.597367 0.844054
O O7 0.238805 0.675942 0.887390
O O8 0.970565 0.684312 0.765630
O O9 0.173636 0.827541 0.405487
O O10 0.228132 0.755167 0.295914
O O11 0.042640 0.826902 0.227243
O O12 0.750000 0.250000 0.500000
O O13 0.746374 0.174404 0.396963
O O14 0.000000 0.204509 0.500000
O O15 0.037903 0.500000 0.898179
O O16 0.000000 0.576372 0.000000
O O17 0.287226 0.336576 0.234596
O O18 0.326270 0.336178 0.070732
O O19 0.250000 0.750000 0.000000
O O20 0.000000 0.790674 0.000000
#
# Coordination Sequence:
#
# PCOD9198267 Si02
#       8
#     8   8   8   8   8   8   8   8
#     4  10  20  36  57  79 106 146 196 242 282 328
#     4  12  24  36  55  86 115 154 195 234 287 342
#     4  11  22  38  57  80 118 151 190 236 281 342
#     4  10  22  39  60  83 111 151 194 243 288 331
#     4  10  21  39  58  79 112 153 197 247 286 330
#     4  12  21  36  55  78 113 152 186 231 283 337
#     4  11  24  37  56  84 114 151 194 233 283 345
#     4  12  25  36  50  76 119 161 191 219 271 344
#
# _framework density 17.561992
#
# number of rings (size 3 to 8) (size 9 to 14) (size 15 to 20)
#    0.000    1.000    3.750    4.125    7.000    0.000 
#    0.000    0.000    0.000    0.000    0.000    5.250 
#    0.000    0.000    0.000    0.000    0.000    0.000 
#
# Total GULP energy -178496.309754 kJ/mol
# GULP energy per Si atom -5578.009680 kJ/mol
# Density = 1.752202 g / cm^3
# Si number density = 17.561992 Si / 1000 Ang^3
#
#
#
# Elastic Constant Matrix: (Units=GPa)
#
#
# Indices 1 2 3 4 5 6 
#
# 1 111.5060 23.5786 46.2462 0.0000 -23.7604 0.0000
# 2 23.5786 67.6070 36.5732 0.0000 -12.2812 0.0000
# 3 46.2462 36.5732 112.8995 0.0000 -19.3911 0.0000
# 4 0.0000 0.0000 0.0000 16.8135 0.0000 -4.1664
# 5 -23.7604 -12.2812 -19.3911 0.0000 37.3174 0.0000
# 6 0.0000 0.0000 0.0000 -4.1664 0.0000 23.9372
#
#
#
# Elastic Compliance Matrix: (Units=1/GPa)
#
#
# Indices 1 2 3 4 5 6 
#
# 1 0.011822 -0.001255 -0.003529 0.000000 0.005281 0.000000
# 2 -0.001255 0.018415 -0.004993 0.000000 0.002667 0.000000
# 3 -0.003529 -0.004993 0.012355 0.000000 0.002530 0.000000
# 4 0.000000 0.000000 0.000000 0.062157 0.000000 0.010819
# 5 0.005281 0.002667 0.002530 0.000000 0.032351 0.000000
# 6 0.000000 0.000000 0.000000 0.010819 0.000000 0.043659
#
#
# Mechanical properties :
#
#
# Convention : Reuss Voigt Hill
#
# Bulk Modulus (GPa) = 43.40746 56.08983 49.74864
# Shear Modulus (GPa) = 24.03924 27.98794 26.01359
#
# Velocity S-wave (km/s) = 3.70377 3.99640 3.85287
# Velocity P-wave (km/s) = 6.56208 7.30086 6.94131
#
# Compressibility (1/GPa) = 0.02303752
#
# Stress axis : x y z
#
# Youngs Moduli (GPa) = 84.58507 54.30465 80.93780
#
# Poissons Ratio (x) = 0.06813 0.28566
# Poissons Ratio (y) = 0.10613 0.40415
# Poissons Ratio (z) = 0.29853 0.27116
#
# Static dielectric constant tensor:
#      x y z
#    x 1.702740 0.000000 -0.046540 
#    y 0.000000 1.440430 0.000000 
#    z -0.046540 0.000000 1.629680 
# 
# From -- ./inp_files/199850.got.cif
#   From: 2010.05.17/outbox.cif.g08.bks.cpg/sg12_100_cif.got.tgz:199850.got - 2010.06.03 13:09:07.
