data_PCOD9198254
_publ_section_title
;
Structure prediction by ZEFSAII (Michael W. Deem and Ramdas Pophale) SiO2 
 PCOD9198254
Probable space group: C 2/M
;
_chemical_formula_sum "Si O2"
_cell_formula_units_Z 56
_cell_length_a 13.511578
_cell_length_b 14.669082
_cell_length_c 16.607340
_cell_angle_alpha 90.000000
_cell_angle_beta 100.882610
_cell_angle_gamma 90.000000
_cell_volume 3232.419191
_symmetry_space_group_name_H-M "C 2/M"
_symmetry_group_IT_number 12
_symmetry_cell_setting 'monoclinic'
loop_
_space_group_symop_operation_xyz
x,y,z
-x,y,-z
-x,-y,-z
x,-y,z
1/2+x,1/2+y,z
1/2-x,1/2+y,-z
1/2-x,1/2-y,-z
1/2+x,1/2-y,z
loop_
_atom_site_type_symbol
_atom_site_label
_atom_site_fract_x
_atom_site_fract_y
_atom_site_fract_z
Si Si1 0.661256 0.309921 0.524320
Si Si2 0.662522 0.897128 0.361516
Si Si3 0.100917 0.392220 0.170712
Si Si4 0.055265 0.761073 0.807864
Si Si5 0.989927 0.761288 0.615919
Si Si6 0.224970 0.253103 0.090784
Si Si7 0.558034 0.395379 0.093915
O O1 0.750000 0.250000 0.500000
O O2 0.726229 0.382279 0.584628
O O3 0.588006 0.255749 0.574315
O O4 0.585065 0.333842 0.439411
O O5 0.661487 0.882483 0.264756
O O6 0.580186 0.828505 0.386825
O O7 0.629383 0.000000 0.371410
O O8 0.083576 0.500000 0.154132
O O9 0.161622 0.342134 0.108739
O O10 0.001187 0.331325 0.171002
O O11 0.172710 0.752050 0.842898
O O12 0.026887 0.779847 0.711299
O O13 0.012203 0.844382 0.853150
O O14 0.157519 0.165554 0.101358
O O15 0.250000 0.250000 0.000000
O O16 0.578530 0.500000 0.118099
O O17 0.500000 0.392998 0.000000
#
# Coordination Sequence:
#
# PCOD9198254 Si02
#       7
#     8   8   8   8   8   8   8
#     4   9  17  32  53  76 107 140 177 210 258 318
#     4   9  17  33  55  80 107 139 179 223 266 314
#     4   9  20  35  54  80 111 143 179 226 277 323
#     4  10  20  36  57  78 109 143 183 228 275 324
#     4   9  18  33  54  78 105 146 180 216 269 328
#     4  11  21  34  55  80 106 139 185 224 271 328
#     4  10  21  38  56  77 108 141 178 227 276 326
#
# _framework density 17.324486
#
# number of rings (size 3 to 8) (size 9 to 14) (size 15 to 20)
#    0.000    2.429    1.429    0.857    0.000    2.857 
#    0.000    9.286    0.000    0.000    0.000    0.000 
#    0.000    0.000    0.000    0.000    0.000    0.000 
#
# Total GULP energy -155887.420188 kJ/mol
# GULP energy per Si atom -5567.407864 kJ/mol
# Density = 1.728505 g / cm^3
# Si number density = 17.324486 Si / 1000 Ang^3
#
#
#
# Elastic Constant Matrix: (Units=GPa)
#
#
# Indices 1 2 3 4 5 6 
#
# 1 97.2902 31.3662 32.4010 0.0000 -2.7281 0.0000
# 2 31.3662 103.2643 30.0669 0.0000 -6.3286 0.0000
# 3 32.4010 30.0669 77.4131 0.0000 -5.1306 0.0000
# 4 0.0000 0.0000 0.0000 18.3807 0.0000 4.4048
# 5 -2.7281 -6.3286 -5.1306 0.0000 25.5663 0.0000
# 6 0.0000 0.0000 0.0000 4.4048 0.0000 10.1347
#
#
#
# Elastic Compliance Matrix: (Units=1/GPa)
#
#
# Indices 1 2 3 4 5 6 
#
# 1 0.012520 -0.002575 -0.004250 0.000000 -0.000154 0.000000
# 2 -0.002575 0.011538 -0.003276 0.000000 0.001924 0.000000
# 3 -0.004250 -0.003276 0.016099 0.000000 0.001966 0.000000
# 4 0.000000 0.000000 0.000000 0.060730 0.000000 -0.026395
# 5 -0.000154 0.001924 0.001966 0.000000 0.039968 0.000000
# 6 0.000000 0.000000 0.000000 -0.026395 0.000000 0.110143
#
#
# Mechanical properties :
#
#
# Convention : Reuss Voigt Hill
#
# Bulk Modulus (GPa) = 50.11362 51.73733 50.92548
# Shear Modulus (GPa) = 17.99518 23.09190 20.54354
#
# Velocity S-wave (km/s) = 3.22640 3.65486 3.44729
# Velocity P-wave (km/s) = 6.54743 6.90936 6.73083
#
# Compressibility (1/GPa) = 0.01995465
#
# Stress axis : x y z
#
# Youngs Moduli (GPa) = 79.87347 86.67207 62.11412
#
# Poissons Ratio (x) = 0.22316 0.26401
# Poissons Ratio (y) = 0.20566 0.20349
# Poissons Ratio (z) = 0.33949 0.28394
#
# Static dielectric constant tensor:
#      x y z
#    x 1.579510 0.000000 0.013180 
#    y 0.000000 1.575890 0.000000 
#    z 0.013180 0.000000 1.617070 
# 
# From -- ./inp_files/204993.got.cif
#   From: 2010.05.17/outbox.cif.g08.bks.cpg/sg12_103_cif.got.tgz:204993.got - 2010.06.03 13:09:07.
