data_PCOD9198661
_publ_section_title
;
Structure prediction by ZEFSAII (Michael W. Deem and Ramdas Pophale) SiO2 
 PCOD9198661
Probable space group: C 2/M
;
_chemical_formula_sum "Si O2"
_cell_formula_units_Z 56
_cell_length_a 11.246076
_cell_length_b 15.278044
_cell_length_c 19.618273
_cell_angle_alpha 90.000000
_cell_angle_beta 120.987334
_cell_angle_gamma 90.000000
_cell_volume 2889.700357
_symmetry_space_group_name_H-M "C 2/M"
_symmetry_group_IT_number 12
_symmetry_cell_setting 'monoclinic'
loop_
_space_group_symop_operation_xyz
x,y,z
-x,y,-z
-x,-y,-z
x,-y,z
1/2+x,1/2+y,z
1/2-x,1/2+y,-z
1/2-x,1/2-y,-z
1/2+x,1/2-y,z
loop_
_atom_site_type_symbol
_atom_site_label
_atom_site_fract_x
_atom_site_fract_y
_atom_site_fract_z
Si Si1 0.861497 0.900805 0.703740
Si Si2 0.700051 0.324114 0.038728
Si Si3 0.220341 0.299187 0.162119
Si Si4 0.517011 0.232549 0.697478
Si Si5 0.012548 0.602438 0.825142
Si Si6 0.031751 0.598840 0.588828
Si Si7 0.930716 0.900242 0.123832
O O1 0.929085 0.821064 0.681980
O O2 0.697145 0.899548 0.649313
O O3 0.918014 0.889282 0.797812
O O4 0.907022 0.000000 0.696054
O O5 0.654836 0.274414 0.093915
O O6 0.834996 0.380759 0.098551
O O7 0.750000 0.250000 0.000000
O O8 0.592859 0.377513 0.961459
O O9 0.320392 0.260821 0.250524
O O10 0.103859 0.362626 0.156987
O O11 0.329385 0.346245 0.143628
O O12 0.500214 0.165999 0.756179
O O13 0.476634 0.176894 0.619496
O O14 0.994718 0.500000 0.804170
O O15 0.983049 0.500000 0.593314
O O16 0.000000 0.611552 0.500000
O O17 0.890007 0.000000 0.120372
#
# Coordination Sequence:
#
# PCOD9198661 Si02
#       7
#     8   8   8   8   8   8   8
#     4   9  19  36  58  81 108 145 181 216 268 329
#     4   9  19  32  46  71 105 142 182 226 266 309
#     4   9  19  33  50  75 108 143 178 220 272 320
#     4  10  20  36  58  83 111 143 179 223 268 321
#     4  11  21  34  54  80 109 143 185 231 276 317
#     4  10  21  38  60  85 111 140 176 218 269 329
#     4   9  16  30  51  74 101 136 181 224 263 312
#
# _framework density 19.379172000000001
#
# number of rings (size 3 to 8) (size 9 to 14) (size 15 to 20)
#    0.000    2.429    0.000    3.000    0.000    3.429 
#    0.000    6.429    0.000    1.286    0.000   24.000 
#    0.000    0.000    0.000    0.000    0.000    0.000 
#
# Total GULP energy -156199.239707 kJ/mol
# GULP energy per Si atom -5578.544275 kJ/mol
# Density = 1.933506 g / cm^3
# Si number density = 19.379172 Si / 1000 Ang^3
#
#
#
# Elastic Constant Matrix: (Units=GPa)
#
#
# Indices 1 2 3 4 5 6 
#
# 1 30.4660 23.2615 -0.6476 0.0000 4.7705 0.0000
# 2 23.2615 127.3537 21.3665 0.0000 -13.0005 0.0000
# 3 -0.6476 21.3665 63.2580 0.0000 -3.5423 0.0000
# 4 0.0000 0.0000 0.0000 30.4161 0.0000 -5.2521
# 5 4.7705 -13.0005 -3.5423 0.0000 16.1124 0.0000
# 6 0.0000 0.0000 0.0000 -5.2521 0.0000 23.1692
#
#
#
# Elastic Compliance Matrix: (Units=1/GPa)
#
#
# Indices 1 2 3 4 5 6 
#
# 1 0.044425 -0.010766 0.002904 0.000000 -0.021201 0.000000
# 2 -0.010766 0.011587 -0.003363 0.000000 0.011797 0.000000
# 3 0.002904 -0.003363 0.016983 0.000000 0.000160 0.000000
# 4 0.000000 0.000000 0.000000 0.034217 0.000000 0.007756
# 5 -0.021201 0.011797 0.000160 0.000000 0.077895 0.000000
# 6 0.000000 0.000000 0.000000 0.007756 0.000000 0.044919
#
#
# Mechanical properties :
#
#
# Convention : Reuss Voigt Hill
#
# Bulk Modulus (GPa) = 19.78452 34.33761 27.06107
# Shear Modulus (GPa) = 18.56494 25.74603 22.15548
#
# Velocity S-wave (km/s) = 3.09849 3.64887 3.38488
# Velocity P-wave (km/s) = 4.79919 5.95900 5.41026
#
# Compressibility (1/GPa) = 0.05054458
#
# Stress axis : x y z
#
# Youngs Moduli (GPa) = 22.50985 86.30270 58.88246
#
# Poissons Ratio (x) = 0.92912 -0.17099
# Poissons Ratio (y) = 0.24234 0.19804
# Poissons Ratio (z) = -0.06537 0.29026
#
# Static dielectric constant tensor:
#      x y z
#    x 1.711880 0.000000 0.003990 
#    y 0.000000 1.718970 0.000000 
#    z 0.003990 0.000000 1.679390 
# 
# From -- ./inp_files/262850.got.cif
#   From: 2010.05.17/outbox.cif.g08.bks.cpg/sg12_132_cif.got.tgz:262850.got - 2010.06.03 13:09:07.
