data_PCOD9198255
_publ_section_title
;
Structure prediction by ZEFSAII (Michael W. Deem and Ramdas Pophale) SiO2 
 PCOD9198255
Probable space group: C 2/M
;
_chemical_formula_sum "Si O2"
_cell_formula_units_Z 50
_cell_length_a 19.451291
_cell_length_b 8.836918
_cell_length_c 17.708324
_cell_angle_alpha 90.000000
_cell_angle_beta 99.017967
_cell_angle_gamma 90.000000
_cell_volume 3006.249703
_symmetry_space_group_name_H-M "C 2/M"
_symmetry_group_IT_number 12
_symmetry_cell_setting 'monoclinic'
loop_
_space_group_symop_operation_xyz
x,y,z
-x,y,-z
-x,-y,-z
x,-y,z
1/2+x,1/2+y,z
1/2-x,1/2+y,-z
1/2-x,1/2-y,-z
1/2+x,1/2-y,z
loop_
_atom_site_type_symbol
_atom_site_label
_atom_site_fract_x
_atom_site_fract_y
_atom_site_fract_z
Si Si1 0.083788 0.821185 0.885205
Si Si2 0.679927 0.180999 0.024348
Si Si3 0.179263 0.822984 0.753517
Si Si4 0.040997 0.679189 0.228369
Si Si5 0.500000 0.500000 0.500000
Si Si6 0.177879 0.179024 0.190373
Si Si7 0.039305 0.832769 0.656648
O O1 0.140507 0.802671 0.827401
O O2 0.013316 0.746796 0.842065
O O3 0.074773 0.000000 0.897374
O O4 0.115493 0.739971 0.963486
O O5 0.674157 0.239832 0.108489
O O6 0.684041 0.000000 0.023476
O O7 0.750000 0.250000 0.000000
O O8 0.247435 0.722182 0.762119
O O9 0.119797 0.788042 0.681539
O O10 0.199084 0.000000 0.750489
O O11 0.046456 0.500000 0.220127
O O12 0.114981 0.757656 0.229333
O O13 0.008986 0.721853 0.304372
O O14 0.517679 0.370111 0.568080
O O15 0.171779 0.000000 0.179616
O O16 0.034553 0.000000 0.696018
#
# Coordination Sequence:
#
# PCOD9198255 Si02
#       7
#     8   8   8   8   2   8   8
#     4  10  20  36  57  78 111 150 197 247 292 337
#     4  12  23  36  53  78 111 152 199 253 298 332
#     4   9  17  32  54  82 111 142 185 234 276 335
#     4  11  22  37  56  84 117 151 191 239 289 344
#     4   8  16  36  70  96 112 150 178 220 276 356
#     4  12  24  36  54  79 112 156 203 240 290 343
#     4   8  17  35  62  90 113 145 179 220 275 341
#
# _framework density 16.632019
#
# number of rings (size 3 to 8) (size 9 to 14) (size 15 to 20)
#    0.480    1.280    1.600    5.760    0.000    3.200 
#    0.000    3.600    0.000    0.960    0.000    0.000 
#    0.000    0.000    0.000    0.000    0.000    0.000 
#
# Total GULP energy -139227.800200 kJ/mol
# GULP energy per Si atom -5569.112008 kJ/mol
# Density = 1.659416 g / cm^3
# Si number density = 16.632019 Si / 1000 Ang^3
#
#
#
# Elastic Constant Matrix: (Units=GPa)
#
#
# Indices 1 2 3 4 5 6 
#
# 1 78.4872 47.5422 33.2168 0.0000 11.2991 0.0000
# 2 47.5422 130.2881 36.6734 0.0000 7.3960 0.0000
# 3 33.2168 36.6734 108.7457 0.0000 12.0716 0.0000
# 4 0.0000 0.0000 0.0000 27.8249 0.0000 2.6842
# 5 11.2991 7.3960 12.0716 0.0000 6.3354 0.0000
# 6 0.0000 0.0000 0.0000 2.6842 0.0000 26.9784
#
#
#
# Elastic Compliance Matrix: (Units=1/GPa)
#
#
# Indices 1 2 3 4 5 6 
#
# 1 0.020708 -0.005597 -0.001349 0.000000 -0.027829 0.000000
# 2 -0.005597 0.010155 -0.001912 0.000000 0.001769 0.000000
# 3 -0.001349 -0.001912 0.012350 0.000000 -0.018895 0.000000
# 4 0.000000 0.000000 0.000000 0.036287 0.000000 -0.003610
# 5 -0.027829 0.001769 -0.018895 0.000000 0.241414 0.000000
# 6 0.000000 0.000000 0.000000 -0.003610 0.000000 0.037426
#
#
# Mechanical properties :
#
#
# Convention : Reuss Voigt Hill
#
# Bulk Modulus (GPa) = 39.21724 61.37620 50.29672
# Shear Modulus (GPa) = 13.00206 25.56697 19.28451
#
# Velocity S-wave (km/s) = 2.79901 3.92499 3.40881
# Velocity P-wave (km/s) = 5.83751 7.58441 6.76756
#
# Compressibility (1/GPa) = 0.02549899
#
# Stress axis : x y z
#
# Youngs Moduli (GPa) = 48.28969 98.47063 80.97274
#
# Poissons Ratio (x) = 0.55115 0.10920
# Poissons Ratio (y) = 0.27028 0.15478
# Poissons Ratio (z) = 0.06513 0.18823
#
# Static dielectric constant tensor:
#      x y z
#    x 1.570890 0.000000 0.013750 
#    y 0.000000 1.564040 0.000000 
#    z 0.013750 0.000000 1.544560 
# 
# From -- ./inp_files/274503.got.cif
#   From: 2010.05.17/outbox.cif.g08.bks.cpg/sg12_138_cif.got.tgz:274503.got - 2010.06.03 13:09:07.
