data_PCOD9198548
_publ_section_title
;
Structure prediction by ZEFSAII (Michael W. Deem and Ramdas Pophale) SiO2 
 PCOD9198548
Probable space group: C 2/M
;
_chemical_formula_sum "Si O2"
_cell_formula_units_Z 56
_cell_length_a 19.530766
_cell_length_b 7.948766
_cell_length_c 21.703914
_cell_angle_alpha 90.000000
_cell_angle_beta 57.085426
_cell_angle_gamma 90.000000
_cell_volume 2828.578710
_symmetry_space_group_name_H-M "C 2/M"
_symmetry_group_IT_number 12
_symmetry_cell_setting 'monoclinic'
loop_
_space_group_symop_operation_xyz
x,y,z
-x,y,-z
-x,-y,-z
x,-y,z
1/2+x,1/2+y,z
1/2-x,1/2+y,-z
1/2-x,1/2-y,-z
1/2+x,1/2-y,z
loop_
_atom_site_type_symbol
_atom_site_label
_atom_site_fract_x
_atom_site_fract_y
_atom_site_fract_z
Si Si1 0.409641 0.807947 0.051964
Si Si2 0.861851 0.700557 0.761512
Si Si3 0.753631 0.692054 0.927570
Si Si4 0.102379 0.191990 0.809587
Si Si5 0.711949 0.807548 0.328095
Si Si6 0.540106 0.704017 0.712087
Si Si7 0.219396 0.796596 0.582215
O O1 0.337287 0.709609 0.054873
O O2 0.395836 0.804120 0.131501
O O3 0.408618 0.000000 0.028880
O O4 0.500000 0.736535 0.000000
O O5 0.842788 0.500000 0.768149
O O6 0.812609 0.770712 0.845515
O O7 0.833627 0.770531 0.708607
O O8 0.957685 0.726914 0.723644
O O9 0.779924 0.500000 0.918508
O O10 0.750000 0.750000 0.000000
O O11 0.193550 0.184118 0.738464
O O12 0.045625 0.251189 0.781634
O O13 0.079673 0.000000 0.838008
O O14 0.720721 0.731729 0.392349
O O15 0.680572 0.000000 0.350439
O O16 0.537973 0.500000 0.710855
O O17 0.625701 0.759444 0.639641
O O18 0.250000 0.750000 0.500000
O O19 0.218634 0.000000 0.588460
#
# Coordination Sequence:
#
# PCOD9198548 Si02
#       7
#     8   8   8   8   8   8   8
#     4  11  24  38  53  78 111 142 183 236 284 330
#     4  10  20  36  58  80 108 144 185 230 273 327
#     4  11  24  41  59  80 111 150 191 235 286 337
#     4   9  17  35  57  75  99 139 187 227 270 326
#     4   8  15  33  57  78 102 139 181 221 264 318
#     4   9  20  35  55  83 112 144 181 223 274 329
#     4   9  18  35  59  83 112 143 179 223 267 323
#
# _framework density 19.797929
#
# number of rings (size 3 to 8) (size 9 to 14) (size 15 to 20)
#    0.000    2.429    1.429    2.571    2.000    3.429 
#    0.000    3.571    0.000    4.286    0.000    0.000 
#    0.000    0.000    0.000    0.000    0.000    0.000 
#
# Total GULP energy -155999.234321 kJ/mol
# GULP energy per Si atom -5571.401226 kJ/mol
# Density = 1.975287 g / cm^3
# Si number density = 19.797929 Si / 1000 Ang^3
#
#
#
# Elastic Constant Matrix: (Units=GPa)
#
#
# Indices 1 2 3 4 5 6 
#
# 1 141.3965 -0.8254 66.5972 -0.0001 30.8577 0.0004
# 2 -0.8254 14.6800 9.6848 -0.0002 7.2940 -0.0002
# 3 66.5972 9.6848 116.5415 -0.0001 33.1903 0.0001
# 4 -0.0001 -0.0002 -0.0001 22.4558 0.0000 9.9262
# 5 30.8577 7.2940 33.1903 0.0000 32.7675 0.0001
# 6 0.0004 -0.0002 0.0001 9.9262 0.0001 -29.3239
#
#
#
# Elastic Compliance Matrix: (Units=1/GPa)
#
#
# Indices 1 2 3 4 5 6 
#
# 1 0.010931 0.007297 -0.004861 0.000000 -0.006994 0.000000
# 2 0.007297 0.081837 -0.005376 0.000001 -0.019642 0.000000
# 3 -0.004861 -0.005376 0.014280 0.000000 -0.008690 0.000000
# 4 0.000000 0.000001 0.000000 0.038736 0.000000 0.013112
# 5 -0.006994 -0.019642 -0.008690 0.000000 0.050279 0.000000
# 6 0.000000 0.000000 0.000000 0.013112 0.000000 -0.029663
#
#
# Mechanical properties :
#
#
# Convention : Reuss Voigt Hill
#
# Bulk Modulus (GPa) = 9.88469 47.05903 28.47186
# Shear Modulus (GPa) = 24.27155 18.32398 21.29777
#
# Velocity S-wave (km/s) = 3.50518 3.04559 3.28343
# Velocity P-wave (km/s) = 4.62442 6.01571 5.36535
#
# Compressibility (1/GPa) = 0.10116659
#
# Stress axis : x y z
#
# Youngs Moduli (GPa) = 91.48539 12.21941 70.02845
#
# Poissons Ratio (x) = -0.08916 0.34039
# Poissons Ratio (y) = -0.66754 0.37650
# Poissons Ratio (z) = 0.44468 0.06570
#
# Static dielectric constant tensor:
#      x y z
#    x 1.688540 0.000000 0.027510 
#    y 0.000000 1.735010 0.000000 
#    z 0.027510 0.000000 1.732550 
# 
# From -- ./inp_files/313691.got.cif
#   From: 2010.05.17/outbox.cif.g08.bks.cpg/sg12_157_cif.got.tgz:313691.got - 2010.06.03 13:09:07.
