data_PCOD9198919
_publ_section_title
;
Structure prediction by ZEFSAII (Michael W. Deem and Ramdas Pophale) SiO2 
 PCOD9198919
Probable space group: C 2/M
;
_chemical_formula_sum "Si O2"
_cell_formula_units_Z 38
_cell_length_a 18.861121
_cell_length_b 14.123905
_cell_length_c 8.202001
_cell_angle_alpha 90.000000
_cell_angle_beta 133.231426
_cell_angle_gamma 90.000000
_cell_volume 1591.941603
_symmetry_space_group_name_H-M "C 2/M"
_symmetry_group_IT_number 12
_symmetry_cell_setting 'monoclinic'
loop_
_space_group_symop_operation_xyz
x,y,z
-x,y,-z
-x,-y,-z
x,-y,z
1/2+x,1/2+y,z
1/2-x,1/2+y,-z
1/2-x,1/2-y,-z
1/2+x,1/2-y,z
loop_
_atom_site_type_symbol
_atom_site_label
_atom_site_fract_x
_atom_site_fract_y
_atom_site_fract_z
Si Si1 0.615480 0.000000 0.710395
Si Si2 0.889316 0.000000 0.889811
Si Si3 0.317899 0.000000 0.557361
Si Si4 0.000000 0.000000 0.500000
Si Si5 0.853063 0.710056 0.602282
Si Si6 0.482592 0.659410 0.220475
Si Si7 0.650968 0.202122 0.796300
O O1 0.500000 0.000000 0.500000
O O2 0.646574 0.905539 0.848183
O O3 0.664617 0.000000 0.610451
O O4 0.894181 0.904484 0.005638
O O5 0.000000 0.000000 0.000000
O O6 0.800465 0.000000 0.624645
O O7 0.361004 0.101579 0.681974
O O8 0.031669 0.083319 0.418405
O O9 0.750000 0.750000 0.500000
O O10 0.855894 0.702661 0.409969
O O11 0.937200 0.788160 0.765055
O O12 0.432949 0.741552 0.245548
O O13 0.750000 0.250000 0.000000
#
# Coordination Sequence:
#
# PCOD9198919 Si02
#       7
#     4   4   4   2   8   8   8
#     4  10  20  37  62  84 114 162 202 237 302 384
#     4  11  23  39  61  90 124 164 205 257 320 375
#     4  10  21  39  57  88 122 158 204 248 311 378
#     4  10  20  36  58  90 110 154 204 254 312 340
#     4  11  22  39  61  91 124 165 207 255 313 377
#     4  11  21  38  62  87 121 157 207 258 302 372
#     4  11  22  39  61  90 121 158 204 262 309 363
#
# _framework density 23.870222999999999
#
# number of rings (size 3 to 8) (size 9 to 14) (size 15 to 20)
#    0.000    1.263    2.105    6.316    0.000    1.684 
#    0.000    0.000    0.000    0.000    0.000   11.789 
#    0.000    0.000    0.000    0.000    0.000    0.000 
#
# Total GULP energy -105901.737367 kJ/mol
# GULP energy per Si atom -5573.775651 kJ/mol
# Density = 2.381589 g / cm^3
# Si number density = 23.870223 Si / 1000 Ang^3
#
#
#
# Elastic Constant Matrix: (Units=GPa)
#
#
# Indices 1 2 3 4 5 6 
#
# 1 100.3538 45.7384 11.0548 0.0000 31.9198 0.0000
# 2 45.7384 264.5121 40.5901 0.0000 21.9844 0.0000
# 3 11.0548 40.5901 75.9231 0.0000 21.9054 0.0000
# 4 0.0000 0.0000 0.0000 26.5707 0.0000 11.4271
# 5 31.9198 21.9844 21.9054 0.0000 36.7746 0.0000
# 6 0.0000 0.0000 0.0000 11.4271 0.0000 31.5190
#
#
#
# Elastic Compliance Matrix: (Units=1/GPa)
#
#
# Indices 1 2 3 4 5 6 
#
# 1 0.014739 -0.001856 0.002677 0.000000 -0.013279 0.000000
# 2 -0.001856 0.004412 -0.002164 0.000000 0.000263 0.000000
# 3 0.002677 -0.002164 0.017190 0.000000 -0.011270 0.000000
# 4 0.000000 0.000000 0.000000 0.044587 0.000000 -0.016165
# 5 -0.013279 0.000263 -0.011270 0.000000 0.045275 0.000000
# 6 0.000000 0.000000 0.000000 -0.016165 0.000000 0.037587
#
#
# Mechanical properties :
#
#
# Convention : Reuss Voigt Hill
#
# Bulk Modulus (GPa) = 29.71281 70.61730 50.16505
# Shear Modulus (GPa) = 28.13823 41.86656 35.00240
#
# Velocity S-wave (km/s) = 3.43709 4.19253 3.83347
# Velocity P-wave (km/s) = 5.31283 7.28591 6.37615
#
# Compressibility (1/GPa) = 0.03365552
#
# Stress axis : x y z
#
# Youngs Moduli (GPa) = 67.84574 226.66885 58.17372
#
# Poissons Ratio (x) = 0.42067 -0.15575
# Poissons Ratio (y) = 0.12591 0.12590
# Poissons Ratio (z) = -0.18164 0.49054
#
# Static dielectric constant tensor:
#      x y z
#    x 1.935800 0.000000 -0.071950 
#    y 0.000000 1.976050 0.000000 
#    z -0.071950 0.000000 1.887900 
# 
# From -- ./inp_files/59040.got.cif
#   From: 2010.05.17/outbox.cif.g08.bks.cpg/sg12_30_cif.got.tgz:59040.got - 2010.06.03 13:09:07.
