data_PCOD9198223
_publ_section_title
;
Structure prediction by ZEFSAII (Michael W. Deem and Ramdas Pophale) SiO2 
 PCOD9198223
Probable space group: C 2/M
;
_chemical_formula_sum "Si O2"
_cell_formula_units_Z 48
_cell_length_a 26.347830
_cell_length_b 11.311723
_cell_length_c 13.752143
_cell_angle_alpha 90.000000
_cell_angle_beta 150.415478
_cell_angle_gamma 90.000000
_cell_volume 2023.546762
_symmetry_space_group_name_H-M "C 2/M"
_symmetry_group_IT_number 12
_symmetry_cell_setting 'monoclinic'
loop_
_space_group_symop_operation_xyz
x,y,z
-x,y,-z
-x,-y,-z
x,-y,z
1/2+x,1/2+y,z
1/2-x,1/2+y,-z
1/2-x,1/2-y,-z
1/2+x,1/2-y,z
loop_
_atom_site_type_symbol
_atom_site_label
_atom_site_fract_x
_atom_site_fract_y
_atom_site_fract_z
Si Si1 0.758447 0.632722 0.155460
Si Si2 0.370595 0.623211 0.665449
Si Si3 0.057077 0.638288 0.993503
Si Si4 0.237949 0.801734 0.334280
Si Si5 0.476947 0.689855 0.215382
Si Si6 0.893463 0.863798 0.381518
O O1 0.786594 0.500000 0.164884
O O2 0.772506 0.632251 0.295946
O O3 0.820442 0.752978 0.229150
O O4 0.635452 0.651602 0.935644
O O5 0.326278 0.500000 0.551426
O O6 0.325263 0.744016 0.546049
O O7 0.336600 0.626468 0.719509
O O8 0.488362 0.625874 0.827253
O O9 0.053036 0.500000 0.990471
O O10 0.171012 0.690351 0.188491
O O11 0.024580 0.678573 0.830398
O O12 0.000000 0.677816 0.000000
O O13 0.564293 0.658980 0.438660
O O14 0.000000 0.858644 0.500000
O O15 0.852717 0.000000 0.305489
#
# Coordination Sequence:
#
# PCOD9198223 Si02
#       6
#     8   8   8   8   8   8
#     4  11  24  41  67  99 136 169 214 276 335 397
#     4  11  20  34  57  85 127 179 226 267 314 386
#     4  10  20  36  56  87 133 177 219 269 322 383
#     4  10  21  35  54  90 128 176 224 263 321 389
#     4  11  23  42  65  98 132 177 225 266 330 396
#     4  11  26  50  76  98 128 172 224 281 343 406
#
# _framework density 23.720728000000001
#
# number of rings (size 3 to 8) (size 9 to 14) (size 15 to 20)
#    0.000    1.333    3.333    2.500    0.000    4.333 
#    0.000    2.500    0.000    0.000    0.000    0.000 
#    0.000    0.000    0.000    0.000    0.000    0.000 
#
# Total GULP energy -133697.658312 kJ/mol
# GULP energy per Si atom -5570.735763 kJ/mol
# Density = 2.366674 g / cm^3
# Si number density = 23.720728 Si / 1000 Ang^3
#
#
#
# Elastic Constant Matrix: (Units=GPa)
#
#
# Indices 1 2 3 4 5 6 
#
# 1 69.4420 21.7521 -6.5073 0.0000 8.9409 0.0000
# 2 21.7521 173.6481 28.7579 0.0000 21.5695 0.0000
# 3 -6.5073 28.7579 68.3392 0.0000 12.8824 0.0000
# 4 0.0000 0.0000 0.0000 10.1259 0.0000 1.6275
# 5 8.9409 21.5695 12.8824 0.0000 29.3666 0.0000
# 6 0.0000 0.0000 0.0000 1.6275 0.0000 20.2763
#
#
#
# Elastic Compliance Matrix: (Units=1/GPa)
#
#
# Indices 1 2 3 4 5 6 
#
# 1 0.015935 -0.001930 0.003245 0.000000 -0.004857 0.000000
# 2 -0.001930 0.006819 -0.002420 0.000000 -0.003359 0.000000
# 3 0.003245 -0.002420 0.017237 0.000000 -0.006772 0.000000
# 4 0.000000 0.000000 0.000000 0.100047 0.000000 -0.008030
# 5 -0.004857 -0.003359 -0.006772 0.000000 0.040969 0.000000
# 6 0.000000 0.000000 0.000000 -0.008030 0.000000 0.049963
#
#
# Mechanical properties :
#
#
# Convention : Reuss Voigt Hill
#
# Bulk Modulus (GPa) = 26.46892 44.38163 35.42528
# Shear Modulus (GPa) = 20.34400 29.78219 25.06310
#
# Velocity S-wave (km/s) = 2.93174 3.54720 3.25405
# Velocity P-wave (km/s) = 4.75846 5.96049 5.39307
#
# Compressibility (1/GPa) = 0.03778016
#
# Stress axis : x y z
#
# Youngs Moduli (GPa) = 62.75653 146.65882 58.01537
#
# Poissons Ratio (x) = 0.28307 -0.18827
# Poissons Ratio (y) = 0.12113 0.14039
# Poissons Ratio (z) = -0.20366 0.35490
#
# Static dielectric constant tensor:
#      x y z
#    x 1.997530 0.000000 -0.020940 
#    y 0.000000 1.996600 0.000000 
#    z -0.020940 0.000000 2.004930 
# 
# From -- ./inp_files/246020.got.cif
#   From: 2010.05.17/outbox.cif.g08.bks.cpg/sg12_124_cif.got.tgz:246020.got - 2010.06.03 13:09:07.
