data_PCOD9198590
_publ_section_title
;
Structure prediction by ZEFSAII (Michael W. Deem and Ramdas Pophale) SiO2 
 PCOD9198590
Probable space group: C 2/M
;
_chemical_formula_sum "Si O2"
_cell_formula_units_Z 64
_cell_length_a 15.007107
_cell_length_b 9.005064
_cell_length_c 26.105877
_cell_angle_alpha 90.000000
_cell_angle_beta 89.608248
_cell_angle_gamma 90.000000
_cell_volume 3527.864683
_symmetry_space_group_name_H-M "C 2/M"
_symmetry_group_IT_number 12
_symmetry_cell_setting 'monoclinic'
loop_
_space_group_symop_operation_xyz
x,y,z
-x,y,-z
-x,-y,-z
x,-y,z
1/2+x,1/2+y,z
1/2-x,1/2+y,-z
1/2-x,1/2-y,-z
1/2+x,1/2-y,z
loop_
_atom_site_type_symbol
_atom_site_label
_atom_site_fract_x
_atom_site_fract_y
_atom_site_fract_z
Si Si1 0.057981 0.178168 0.381911
Si Si2 0.348243 0.321054 0.998762
Si Si3 0.219461 0.822831 0.447466
Si Si4 0.144280 0.177394 0.630266
Si Si5 0.034870 0.677617 0.809657
Si Si6 0.812562 0.822826 0.251976
Si Si7 0.501446 0.321061 0.918912
Si Si8 0.111075 0.678511 0.274390
O O1 0.120273 0.220136 0.429254
O O2 0.093579 0.250333 0.329565
O O3 0.954532 0.215911 0.388287
O O4 0.063333 0.000000 0.375901
O O5 0.338669 0.500000 0.998482
O O6 0.411030 0.279665 0.949963
O O7 0.250000 0.250000 0.000000
O O8 0.411712 0.281918 0.046956
O O9 0.250000 0.750000 0.500000
O O10 0.283846 0.767158 0.402048
O O11 0.223315 0.000000 0.452311
O O12 0.151494 0.208445 0.690783
O O13 0.159378 0.000000 0.623531
O O14 0.035320 0.500000 0.813003
O O15 0.129564 0.737360 0.789733
O O16 0.008556 0.746467 0.863941
O O17 0.963843 0.722425 0.766136
O O18 0.708754 0.781848 0.253310
O O19 0.820557 0.000000 0.243366
O O20 0.501212 0.500000 0.914222
O O21 0.108989 0.500000 0.280404
#
# Coordination Sequence:
#
# PCOD9198590 Si02
#       8
#     8   8   8   8   8   8   8   8
#     4  10  21  37  59  84 109 142 184 228 275 332
#     4   9  19  37  62  87 112 149 195 238 285 339
#     4  11  24  40  59  84 114 145 183 234 284 334
#     4  10  20  37  61  84 109 144 185 226 277 338
#     4  11  23  36  54  85 120 149 188 239 281 324
#     4  10  20  36  58  81 110 152 189 223 279 343
#     4   9  20  39  58  80 116 157 191 229 283 344
#     4  10  21  36  55  81 112 147 185 228 277 331
#
# _framework density 18.141285
#
# number of rings (size 3 to 8) (size 9 to 14) (size 15 to 20)
#    0.000    2.000    2.500    1.500    0.000    5.000 
#    0.000    7.500    0.000    0.000    0.000    0.000 
#    0.000    0.000    0.000    0.000    0.000    0.000 
#
# Total GULP energy -178639.304604 kJ/mol
# GULP energy per Si atom -5582.478269 kJ/mol
# Density = 1.809999 g / cm^3
# Si number density = 18.141285 Si / 1000 Ang^3
#
#
#
# Elastic Constant Matrix: (Units=GPa)
#
#
# Indices 1 2 3 4 5 6 
#
# 1 77.0492 11.4805 -16.2480 0.0000 4.3286 0.0000
# 2 11.4805 14.8130 10.7212 0.0000 -0.0517 0.0000
# 3 -16.2480 10.7212 36.1136 0.0000 3.4904 0.0000
# 4 0.0000 0.0000 0.0000 34.6074 0.0000 -3.5037
# 5 4.3286 -0.0517 3.4904 0.0000 15.3152 0.0000
# 6 0.0000 0.0000 0.0000 -3.5037 0.0000 30.6864
#
#
#
# Elastic Compliance Matrix: (Units=1/GPa)
#
#
# Indices 1 2 3 4 5 6 
#
# 1 0.023160 -0.033549 0.021497 0.000000 -0.011558 0.000000
# 2 -0.033549 0.135171 -0.057449 0.000000 0.023031 0.000000
# 3 0.021497 -0.057449 0.056263 0.000000 -0.019092 0.000000
# 4 0.000000 0.000000 0.000000 0.029234 0.000000 0.003338
# 5 -0.011558 0.023031 -0.019092 0.000000 0.072990 0.000000
# 6 0.000000 0.000000 0.000000 0.003338 0.000000 0.032969
#
#
# Mechanical properties :
#
#
# Convention : Reuss Voigt Hill
#
# Bulk Modulus (GPa) = 13.22904 15.54257 14.38581
# Shear Modulus (GPa) = 9.72788 24.25659 16.99223
#
# Velocity S-wave (km/s) = 2.31817 3.66060 3.06381
# Velocity P-wave (km/s) = 3.80438 5.14322 4.52361
#
# Compressibility (1/GPa) = 0.07559126
#
# Stress axis : x y z
#
# Youngs Moduli (GPa) = 43.17725 7.39804 17.77370
#
# Poissons Ratio (x) = 0.24820 -0.38209
# Poissons Ratio (y) = 1.44857 1.02109
# Poissons Ratio (z) = -0.92819 0.42501
#
# Static dielectric constant tensor:
#      x y z
#    x 1.627330 0.000000 0.018390 
#    y 0.000000 1.605280 0.000000 
#    z 0.018390 0.000000 1.594030 
# 
# From -- ./inp_files/338748.got.cif
#   From: 2010.05.17/outbox.cif.g08.bks.cpg/sg12_170_cif.got.tgz:338748.got - 2010.06.03 13:09:07.
