data_PCOD9198482
_publ_section_title
;
Structure prediction by ZEFSAII (Michael W. Deem and Ramdas Pophale) SiO2 
 PCOD9198482
Probable space group: C 2/M
;
_chemical_formula_sum "Si O2"
_cell_formula_units_Z 64
_cell_length_a 13.973727
_cell_length_b 27.676360
_cell_length_c 9.814389
_cell_angle_alpha 90.000000
_cell_angle_beta 126.223466
_cell_angle_gamma 90.000000
_cell_volume 3062.008784
_symmetry_space_group_name_H-M "C 2/M"
_symmetry_group_IT_number 12
_symmetry_cell_setting 'monoclinic'
loop_
_space_group_symop_operation_xyz
x,y,z
-x,y,-z
-x,-y,-z
x,-y,z
1/2+x,1/2+y,z
1/2-x,1/2+y,-z
1/2-x,1/2-y,-z
1/2+x,1/2-y,z
loop_
_atom_site_type_symbol
_atom_site_label
_atom_site_fract_x
_atom_site_fract_y
_atom_site_fract_z
Si Si1 0.606686 0.641064 0.736317
Si Si2 0.867155 0.849419 0.924348
Si Si3 0.363656 0.698266 0.481508
Si Si4 0.772018 0.942044 0.298547
Si Si5 0.899336 0.554168 0.095352
Si Si6 0.758816 0.052436 0.770433
Si Si7 0.875865 0.405374 0.578669
Si Si8 0.817002 0.305165 0.420525
O O1 0.477161 0.665937 0.617981
O O2 0.682899 0.674580 0.697639
O O3 0.621989 0.587619 0.685565
O O4 0.643806 0.643404 0.923606
O O5 0.844194 0.901359 0.832176
O O6 0.765070 0.814788 0.779944
O O7 0.000000 0.832687 0.000000
O O8 0.273096 0.696690 0.528138
O O9 0.385492 0.754894 0.474437
O O10 0.731746 0.916673 0.405503
O O11 0.791758 0.000000 0.331016
O O12 0.663704 0.935292 0.100040
O O13 0.949853 0.500000 0.129336
O O14 0.800259 0.554225 0.130307
O O15 0.005555 0.586549 0.236855
O O16 0.654372 0.059007 0.571820
O O17 0.816138 0.000000 0.799369
O O18 0.886867 0.353520 0.515928
#
# Coordination Sequence:
#
# PCOD9198482 Si02
#       8
#     8   8   8   8   8   8   8   8
#     4  11  22  42  67  91 126 165 204 257 318 370
#     4  11  22  39  65  92 122 160 207 259 316 374
#     4  10  22  43  67  86 119 162 205 256 319 366
#     4  11  22  38  62  95 130 167 209 257 310 373
#     4  10  20  36  57  85 126 169 206 253 307 366
#     4  10  21  36  56  87 124 164 207 255 309 369
#     4  11  21  37  62  89 125 165 212 256 311 372
#     4  10  22  42  65  89 120 159 205 262 311 370
#
# _framework density 20.901312999999998
#
# number of rings (size 3 to 8) (size 9 to 14) (size 15 to 20)
#    0.000    1.500    3.750    1.875    0.000    2.750 
#    9.000    2.500    2.750    0.000    0.000    0.000 
#    0.000    0.000    0.000    0.000    0.000    0.000 
#
# Total GULP energy -178524.893507 kJ/mol
# GULP energy per Si atom -5578.902922 kJ/mol
# Density = 2.085374 g / cm^3
# Si number density = 20.901313 Si / 1000 Ang^3
#
#
#
# Elastic Constant Matrix: (Units=GPa)
#
#
# Indices 1 2 3 4 5 6 
#
# 1 47.5515 16.1044 19.1894 0.0000 -7.0984 0.0000
# 2 16.1044 116.9315 42.0337 0.0000 9.2556 0.0000
# 3 19.1894 42.0337 93.8225 0.0000 -11.5967 0.0000
# 4 0.0000 0.0000 0.0000 17.6216 0.0000 -3.7497
# 5 -7.0984 9.2556 -11.5967 0.0000 39.3925 0.0000
# 6 0.0000 0.0000 0.0000 -3.7497 0.0000 19.8667
#
#
#
# Elastic Compliance Matrix: (Units=1/GPa)
#
#
# Indices 1 2 3 4 5 6 
#
# 1 0.023751 -0.002387 -0.003310 0.000000 0.003866 0.000000
# 2 -0.002387 0.011039 -0.005014 0.000000 -0.004500 0.000000
# 3 -0.003310 -0.005014 0.014169 0.000000 0.004753 0.000000
# 4 0.000000 0.000000 0.000000 0.059123 0.000000 0.011159
# 5 0.003866 -0.004500 0.004753 0.000000 0.028539 0.000000
# 6 0.000000 0.000000 0.000000 0.011159 0.000000 0.052442
#
#
# Mechanical properties :
#
#
# Convention : Reuss Voigt Hill
#
# Bulk Modulus (GPa) = 36.31460 45.88449 41.09955
# Shear Modulus (GPa) = 22.76192 27.44136 25.10164
#
# Velocity S-wave (km/s) = 3.30361 3.62733 3.46925
# Velocity P-wave (km/s) = 5.65365 6.28840 5.97945
#
# Compressibility (1/GPa) = 0.02753713
#
# Stress axis : x y z
#
# Youngs Moduli (GPa) = 42.10286 90.58586 70.57586
#
# Poissons Ratio (x) = 0.21624 0.23364
# Poissons Ratio (y) = 0.10051 0.35384
# Poissons Ratio (z) = 0.13938 0.45417
#
# Static dielectric constant tensor:
#      x y z
#    x 1.808590 0.000000 0.013390 
#    y 0.000000 1.781700 0.000000 
#    z 0.013390 0.000000 1.752880 
# 
# From -- ./inp_files/68638.got.cif
#   From: 2010.05.17/outbox.cif.g08.bks.cpg/sg12_35_cif.got.tgz:68638.got - 2010.06.03 13:09:07.
