data_PCOD9198917
_publ_section_title
;
Structure prediction by ZEFSAII (Michael W. Deem and Ramdas Pophale) SiO2 
 PCOD9198917
Probable space group: C 2/M
;
_chemical_formula_sum "Si O2"
_cell_formula_units_Z 48
_cell_length_a 19.326736
_cell_length_b 15.163004
_cell_length_c 18.522323
_cell_angle_alpha 90.000000
_cell_angle_beta 152.536075
_cell_angle_gamma 90.000000
_cell_volume 2503.335927
_symmetry_space_group_name_H-M "C 2/M"
_symmetry_group_IT_number 12
_symmetry_cell_setting 'monoclinic'
loop_
_space_group_symop_operation_xyz
x,y,z
-x,y,-z
-x,-y,-z
x,-y,z
1/2+x,1/2+y,z
1/2-x,1/2+y,-z
1/2-x,1/2-y,-z
1/2+x,1/2-y,z
loop_
_atom_site_type_symbol
_atom_site_label
_atom_site_fract_x
_atom_site_fract_y
_atom_site_fract_z
Si Si1 0.874858 0.825567 0.686989
Si Si2 0.335223 0.317657 0.816920
Si Si3 0.529797 0.500000 0.776091
Si Si4 0.900439 0.199923 0.335134
Si Si5 0.030944 0.677781 0.327586
Si Si6 0.054376 0.000000 0.636037
Si Si7 0.679331 0.500000 0.147187
Si Si8 0.170476 0.500000 0.869688
O O1 0.845205 0.803101 0.742010
O O2 0.966935 0.745009 0.737544
O O3 0.708446 0.841713 0.500765
O O4 0.967908 0.913876 0.759121
O O5 0.254322 0.242882 0.786137
O O6 0.255872 0.411409 0.758038
O O7 0.500000 0.324975 0.000000
O O8 0.470656 0.500000 0.637837
O O9 0.711007 0.500000 0.954079
O O10 0.000000 0.204019 0.500000
O O11 0.975077 0.260854 0.342611
O O12 0.876327 0.097662 0.293510
O O13 0.932253 0.588920 0.227853
O O14 0.000000 0.000000 0.500000
O O15 0.724129 0.500000 0.104715
O O16 0.500000 0.500000 0.000000
#
# Coordination Sequence:
#
# PCOD9198917 Si02
#       8
#     8   8   4   8   8   4   4   4
#     4  11  24  42  64  93 130 174 215 268 326 384
#     4  11  22  38  63  93 128 167 210 267 324 383
#     4  12  23  41  65  97 136 167 211 265 330 375
#     4  11  21  43  65  92 123 168 222 261 318 386
#     4  11  24  42  64  94 133 170 220 263 323 390
#     4  10  24  41  69  92 118 168 223 264 306 379
#     4  10  20  36  58  89 131 167 201 253 320 386
#     4  12  25  40  65 103 135 170 212 268 323 403
#
# _framework density 19.174413999999999
#
# number of rings (size 3 to 8) (size 9 to 14) (size 15 to 20)
#    0.000    1.000    5.000    3.000    0.000    2.000 
#    0.000    2.917    0.000    0.000    0.000    0.000 
#    0.000    0.000    0.000    0.000    0.000    0.000 
#
# Total GULP energy -133695.893754 kJ/mol
# GULP energy per Si atom -5570.662240 kJ/mol
# Density = 1.913077 g / cm^3
# Si number density = 19.174414 Si / 1000 Ang^3
#
#
#
# Elastic Constant Matrix: (Units=GPa)
#
#
# Indices 1 2 3 4 5 6 
#
# 1 95.6444 47.2764 4.1186 0.0003 3.3955 0.0024
# 2 47.2764 183.6737 37.3178 0.0002 24.5296 0.0035
# 3 4.1186 37.3178 40.6193 0.0000 14.7692 0.0089
# 4 0.0003 0.0002 0.0000 4.8360 0.0005 39.1040
# 5 3.3955 24.5296 14.7692 0.0005 21.1175 0.0059
# 6 0.0024 0.0035 0.0089 39.1040 0.0059 213.0900
#
#
#
# Elastic Compliance Matrix: (Units=1/GPa)
#
#
# Indices 1 2 3 4 5 6 
#
# 1 0.012128 -0.003608 0.001703 -0.000001 0.001049 0.000000
# 2 -0.003608 0.008127 -0.005202 0.000004 -0.005222 0.000000
# 3 0.001703 -0.005202 0.036379 -0.000020 -0.019674 0.000003
# 4 -0.000001 0.000004 -0.000020 -0.427352 -0.000002 0.078423
# 5 0.001049 -0.005222 -0.019674 -0.000002 0.067011 0.000000
# 6 0.000000 0.000000 0.000003 0.078423 0.000000 -0.009699
#
#
# Mechanical properties :
#
#
# Convention : Reuss Voigt Hill
#
# Bulk Modulus (GPa) = 23.57321 55.26256 39.41788
# Shear Modulus (GPa) = -17.54074 63.22367 22.84146
#
# Velocity S-wave (km/s) = -3.02785 5.74844 3.45519
# Velocity P-wave (km/s) = 0.31142 8.54066 6.04317
#
# Compressibility (1/GPa) = 0.04242104
#
# Stress axis : x y z
#
# Youngs Moduli (GPa) = 82.45258 123.03917 27.48830
#
# Poissons Ratio (x) = 0.44392 -0.04682
# Poissons Ratio (y) = 0.29749 0.14300
# Poissons Ratio (z) = -0.14045 0.64009
#
# Static dielectric constant tensor:
#      x y z
#    x 1.655220 0.000000 -0.014140 
#    y 0.000000 1.712910 0.000000 
#    z -0.014140 0.000000 1.693860 
# 
# From -- ./inp_files/278282.got.cif
#   From: 2010.05.17/outbox.cif.g08.bks.cpg/sg12_140_cif.got.tgz:278282.got - 2010.06.03 13:09:07.
