data_PCOD9198204
_publ_section_title
;
Structure prediction by ZEFSAII (Michael W. Deem and Ramdas Pophale) SiO2 
 PCOD9198204
Probable space group: C 2/M
;
_chemical_formula_sum "Si O2"
_cell_formula_units_Z 44
_cell_length_a 16.887010
_cell_length_b 7.437480
_cell_length_c 14.053555
_cell_angle_alpha 90.000000
_cell_angle_beta 80.755653
_cell_angle_gamma 90.000000
_cell_volume 1742.157036
_symmetry_space_group_name_H-M "C 2/M"
_symmetry_group_IT_number 12
_symmetry_cell_setting 'monoclinic'
loop_
_space_group_symop_operation_xyz
x,y,z
-x,y,-z
-x,-y,-z
x,-y,z
1/2+x,1/2+y,z
1/2-x,1/2+y,-z
1/2-x,1/2-y,-z
1/2+x,1/2-y,z
loop_
_atom_site_type_symbol
_atom_site_label
_atom_site_fract_x
_atom_site_fract_y
_atom_site_fract_z
Si Si1 0.124998 0.000000 0.428055
Si Si2 0.347144 0.795817 0.418743
Si Si3 0.792655 0.279602 0.227065
Si Si4 0.082598 0.291193 0.945822
Si Si5 0.140709 0.781667 0.133468
Si Si6 0.013392 0.800484 0.301025
O O1 0.154067 0.157138 0.495989
O O2 0.081519 0.153555 0.366510
O O3 0.296227 0.733190 0.336626
O O4 0.439000 0.798642 0.361381
O O5 0.325160 0.000000 0.447322
O O6 0.790874 0.500000 0.227391
O O7 0.715514 0.221657 0.182377
O O8 0.871188 0.218730 0.154328
O O9 0.066553 0.500000 0.927810
O O10 0.141791 0.280666 0.025034
O O11 0.000000 0.207422 0.000000
O O12 0.059019 0.720786 0.201735
O O13 0.139777 0.000000 0.134676
O O14 0.981930 0.000000 0.281364
#
# Coordination Sequence:
#
# PCOD9198204 Si02
#       6
#     4   8   8   8   8   8
#     4  10  21  40  58  90 120 150 199 256 301 344
#     4  11  20  36  63  87 116 157 200 245 302 354
#     4   9  20  36  55  82 119 158 195 239 298 351
#     4  10  20  36  56  84 119 150 196 249 286 346
#     4  10  20  37  58  78 118 158 192 239 297 353
#     4   9  19  36  56  81 116 151 189 254 301 333
#
# _framework density 25.256046999999999
#
# number of rings (size 3 to 8) (size 9 to 14) (size 15 to 20)
#    0.545    1.636    0.909    2.727    0.000    4.000 
#    3.273    0.909    0.000    0.000    0.000    0.000 
#    0.000    0.000    0.000    0.000    0.000    0.000 
#
# Total GULP energy -122559.873292 kJ/mol
# GULP energy per Si atom -5570.903331 kJ/mol
# Density = 2.519856 g / cm^3
# Si number density = 25.256047 Si / 1000 Ang^3
#
#
#
# Elastic Constant Matrix: (Units=GPa)
#
#
# Indices 1 2 3 4 5 6 
#
# 1 63.7850 9.0371 38.7022 0.0000 -6.3025 0.0000
# 2 9.0371 99.3865 27.3064 0.0000 0.3867 0.0000
# 3 38.7022 27.3064 123.5889 0.0000 24.0457 0.0000
# 4 0.0000 0.0000 0.0000 26.1613 0.0000 9.7668
# 5 -6.3025 0.3867 24.0457 0.0000 52.8934 0.0000
# 6 0.0000 0.0000 0.0000 9.7668 0.0000 18.2464
#
#
#
# Elastic Compliance Matrix: (Units=1/GPa)
#
#
# Indices 1 2 3 4 5 6 
#
# 1 0.020970 0.000209 -0.007788 0.000000 0.006037 0.000000
# 2 0.000209 0.010772 -0.002671 0.000000 0.001161 0.000000
# 3 -0.007788 -0.002671 0.012393 0.000000 -0.006542 0.000000
# 4 0.000000 0.000000 0.000000 0.047771 0.000000 -0.025570
# 5 0.006037 0.001161 -0.006542 0.000000 0.022591 0.000000
# 6 0.000000 0.000000 0.000000 -0.025570 0.000000 0.068493
#
#
# Mechanical properties :
#
#
# Convention : Reuss Voigt Hill
#
# Bulk Modulus (GPa) = 42.30877 48.53907 45.42392
# Shear Modulus (GPa) = 23.65549 33.57454 28.61502
#
# Velocity S-wave (km/s) = 3.06376 3.65000 3.36965
# Velocity P-wave (km/s) = 5.41330 6.08472 5.75880
#
# Compressibility (1/GPa) = 0.02363576
#
# Stress axis : x y z
#
# Youngs Moduli (GPa) = 47.68761 92.83198 80.68923
#
# Poissons Ratio (x) = -0.01944 0.62838
# Poissons Ratio (y) = -0.00999 0.21556
# Poissons Ratio (z) = 0.37138 0.24800
#
# Static dielectric constant tensor:
#      x y z
#    x 2.075610 0.000000 -0.029180 
#    y 0.000000 1.928130 0.000000 
#    z -0.029180 0.000000 1.940710 
# 
# From -- ./inp_files/220944.got.cif
#   From: 2010.05.17/outbox.cif.g08.bks.cpg/sg12_111_cif.got.tgz:220944.got - 2010.06.03 13:09:07.
