data_PCOD9198069
_publ_section_title
;
Structure prediction by ZEFSAII (Michael W. Deem and Ramdas Pophale) SiO2 
 PCOD9198069
Probable space group: C 2/M
;
_chemical_formula_sum "Si O2"
_cell_formula_units_Z 44
_cell_length_a 8.498620
_cell_length_b 22.976754
_cell_length_c 16.321466
_cell_angle_alpha 90.000000
_cell_angle_beta 129.248196
_cell_angle_gamma 90.000000
_cell_volume 2468.133467
_symmetry_space_group_name_H-M "C 2/M"
_symmetry_group_IT_number 12
_symmetry_cell_setting 'monoclinic'
loop_
_space_group_symop_operation_xyz
x,y,z
-x,y,-z
-x,-y,-z
x,-y,z
1/2+x,1/2+y,z
1/2-x,1/2+y,-z
1/2-x,1/2-y,-z
1/2+x,1/2-y,z
loop_
_atom_site_type_symbol
_atom_site_label
_atom_site_fract_x
_atom_site_fract_y
_atom_site_fract_z
Si Si1 0.271258 0.282994 0.892951
Si Si2 0.316100 0.881780 0.002736
Si Si3 0.533797 0.674356 0.202859
Si Si4 0.623761 0.000000 0.697534
Si Si5 0.729440 0.901827 0.606102
Si Si6 0.167175 0.000000 0.485701
Si Si7 0.756115 0.000000 0.927198
O O1 0.190341 0.330627 0.931136
O O2 0.303664 0.309480 0.813650
O O3 0.119491 0.228842 0.838723
O O4 0.500000 0.267244 0.000000
O O5 0.316570 0.942857 0.049070
O O6 0.500000 0.875904 0.000000
O O7 0.108636 0.875536 0.882779
O O8 0.640885 0.652837 0.320636
O O9 0.708238 0.056495 0.678454
O O10 0.671604 0.000000 0.807860
O O11 0.385163 0.000000 0.600932
O O12 0.500000 0.888221 0.500000
O O13 0.834669 0.942671 0.572488
O O14 0.000000 0.000000 0.500000
O O15 0.000000 0.000000 0.000000
#
# Coordination Sequence:
#
# PCOD9198069 Si02
#       7
#     8   8   8   4   8   4   4
#     4  10  20  36  56  78 106 145 185 217 264 329
#     4  11  22  35  52  81 114 143 178 219 266 328
#     4  11  20  36  58  77 105 145 183 225 266 314
#     4   9  18  36  55  75 107 143 173 209 264 330
#     4   9  19  36  57  78 104 141 180 216 265 322
#     4   9  19  36  58  83 107 137 180 221 264 320
#     4  12  22  34  54  84 113 142 175 220 274 322
#
# _framework density 17.827238000000001
#
# number of rings (size 3 to 8) (size 9 to 14) (size 15 to 20)
#    0.000    1.818    0.000    9.000    0.000    2.182 
#    0.000    4.545    0.000    0.000    0.000    0.000 
#    0.000    0.000    0.000    0.000    0.000    0.000 
#
# Total GULP energy -122839.709278 kJ/mol
# GULP energy per Si atom -5583.623149 kJ/mol
# Density = 1.778666 g / cm^3
# Si number density = 17.827238 Si / 1000 Ang^3
#
#
#
# Elastic Constant Matrix: (Units=GPa)
#
#
# Indices 1 2 3 4 5 6 
#
# 1 140.6463 67.3209 53.6481 0.0000 -25.1252 0.0000
# 2 67.3209 119.0692 73.9242 0.0000 1.3222 0.0000
# 3 53.6481 73.9242 119.3411 0.0000 -11.9020 0.0000
# 4 0.0000 0.0000 0.0000 28.4742 0.0000 3.1398
# 5 -25.1252 1.3222 -11.9020 0.0000 18.8893 0.0000
# 6 0.0000 0.0000 0.0000 3.1398 0.0000 15.9775
#
#
#
# Elastic Compliance Matrix: (Units=1/GPa)
#
#
# Indices 1 2 3 4 5 6 
#
# 1 0.015007 -0.009525 0.001293 0.000000 0.021442 0.000000
# 2 -0.009525 0.020537 -0.010507 0.000000 -0.020728 0.000000
# 3 0.001293 -0.010507 0.015527 0.000000 0.012238 0.000000
# 4 0.000000 0.000000 0.000000 0.035897 0.000000 -0.007054
# 5 0.021442 -0.020728 0.012238 0.000000 0.090623 0.000000
# 6 0.000000 0.000000 0.000000 -0.007054 0.000000 0.063974
#
#
# Mechanical properties :
#
#
# Convention : Reuss Voigt Hill
#
# Bulk Modulus (GPa) = 73.57110 85.42701 79.49905
# Shear Modulus (GPa) = 17.63197 24.94576 21.28887
#
# Velocity S-wave (km/s) = 3.14832 3.74479 3.45943
# Velocity P-wave (km/s) = 7.38745 8.16831 7.78767
#
# Compressibility (1/GPa) = 0.01359229
#
# Stress axis : x y z
#
# Youngs Moduli (GPa) = 66.63658 48.69165 64.40387
#
# Poissons Ratio (x) = 0.46381 -0.08326
# Poissons Ratio (y) = 0.63474 0.67668
# Poissons Ratio (z) = -0.08615 0.51159
#
# Static dielectric constant tensor:
#      x y z
#    x 1.784260 0.000000 0.005960 
#    y 0.000000 1.638830 0.000000 
#    z 0.005960 0.000000 1.592800 
# 
# From -- ./inp_files/197285.got.cif
#   From: 2010.05.17/outbox.cif.g08.bks.cpg/sg12_99_cif.got.tgz:197285.got - 2010.06.03 13:09:07.
