data_PCOD9198446
_publ_section_title
;
Structure prediction by ZEFSAII (Michael W. Deem and Ramdas Pophale) SiO2 
 PCOD9198446
Probable space group: C 2/M
;
_chemical_formula_sum "Si O2"
_cell_formula_units_Z 48
_cell_length_a 29.117496
_cell_length_b 8.326349
_cell_length_c 17.874731
_cell_angle_alpha 90.000000
_cell_angle_beta 144.335099
_cell_angle_gamma 90.000000
_cell_volume 2526.673939
_symmetry_space_group_name_H-M "C 2/M"
_symmetry_group_IT_number 12
_symmetry_cell_setting 'monoclinic'
loop_
_space_group_symop_operation_xyz
x,y,z
-x,y,-z
-x,-y,-z
x,-y,z
1/2+x,1/2+y,z
1/2-x,1/2+y,-z
1/2-x,1/2-y,-z
1/2+x,1/2-y,z
loop_
_atom_site_type_symbol
_atom_site_label
_atom_site_fract_x
_atom_site_fract_y
_atom_site_fract_z
Si Si1 0.339489 0.307248 0.126535
Si Si2 0.016145 0.307570 0.781396
Si Si3 0.960963 0.194542 0.870176
Si Si4 0.867284 0.306465 0.482624
Si Si5 0.590229 0.306225 0.622538
Si Si6 0.281038 0.693884 0.620673
O O1 0.340672 0.500000 0.126913
O O2 0.401775 0.248686 0.146627
O O3 0.370667 0.250217 0.248875
O O4 0.250000 0.250000 0.000000
O O5 0.014804 0.500000 0.778957
O O6 0.002152 0.251009 0.848003
O O7 0.942648 0.249447 0.631697
O O8 0.870126 0.250343 0.749803
O O9 0.962191 0.000000 0.870667
O O10 0.000000 0.246882 0.000000
O O11 0.869098 0.500000 0.488170
O O12 0.871649 0.252806 0.403202
O O13 0.784899 0.250008 0.408370
O O14 0.500000 0.251518 0.500000
O O15 0.591276 0.500000 0.624360
O O16 0.282661 0.500000 0.625086
O O17 0.250000 0.750000 0.500000
#
# Coordination Sequence:
#
# PCOD9198446 Si02
#       6
#     8   8   8   8   8   8
#     4  11  24  42  63  89 123 159 199 246 300 359
#     4  11  22  38  61  89 121 157 200 246 303 361
#     4  10  22  39  60  87 121 160 201 246 301 359
#     4  10  21  35  57  89 121 155 200 249 297 351
#     4  10  21  38  60  87 117 152 198 245 292 348
#     4  10  20  36  57  84 116 151 195 243 290 346
#
# _framework density 18.997306999999999
#
# number of rings (size 3 to 8) (size 9 to 14) (size 15 to 20)
#    0.000    1.667    3.333    1.000    0.000    4.667 
#    0.000    1.667    0.000    0.000    0.000    0.000 
#    0.000    0.000    0.000    0.000    0.000    0.000 
#
# Total GULP energy -134010.109000 kJ/mol
# GULP energy per Si atom -5583.754542 kJ/mol
# Density = 1.895407 g / cm^3
# Si number density = 18.997307 Si / 1000 Ang^3
#
#
#
# Elastic Constant Matrix: (Units=GPa)
#
#
# Indices 1 2 3 4 5 6 
#
# 1 229.9707 24.7818 115.5440 0.0000 7.4647 0.0000
# 2 24.7818 18.3223 26.4036 0.0000 2.4326 0.0000
# 3 115.5440 26.4036 184.0533 0.0000 4.2855 0.0000
# 4 0.0000 0.0000 0.0000 21.9918 0.0000 -4.0100
# 5 7.4647 2.4326 4.2855 0.0000 32.8568 0.0000
# 6 0.0000 0.0000 0.0000 -4.0100 0.0000 33.1262
#
#
#
# Elastic Compliance Matrix: (Units=1/GPa)
#
#
# Indices 1 2 3 4 5 6 
#
# 1 0.006563 -0.003611 -0.003584 0.000000 -0.000756 0.000000
# 2 -0.003611 0.071269 -0.007877 0.000000 -0.003429 0.000000
# 3 -0.003584 -0.007877 0.008808 0.000000 0.000249 0.000000
# 4 0.000000 0.000000 0.000000 0.046498 0.000000 0.005629
# 5 -0.000756 -0.003429 0.000249 0.000000 0.030828 0.000000
# 6 0.000000 0.000000 0.000000 0.005629 0.000000 0.030869
#
#
# Mechanical properties :
#
#
# Convention : Reuss Voigt Hill
#
# Bulk Modulus (GPa) = 17.70080 85.08946 51.39513
# Shear Modulus (GPa) = 20.50758 35.30275 27.90517
#
# Velocity S-wave (km/s) = 3.28914 4.31548 3.83678
# Velocity P-wave (km/s) = 4.87466 8.34977 6.83670
#
# Compressibility (1/GPa) = 0.05649461
#
# Stress axis : x y z
#
# Youngs Moduli (GPa) = 152.36993 14.03126 113.53700
#
# Poissons Ratio (x) = 0.05067 0.40697
# Poissons Ratio (y) = 0.55020 0.89437
# Poissons Ratio (z) = 0.54616 0.11053
#
# Static dielectric constant tensor:
#      x y z
#    x 1.565320 0.000000 0.010440 
#    y 0.000000 1.667670 0.000000 
#    z 0.010440 0.000000 1.650590 
# 
# From -- ./inp_files/244740.got.cif
#   From: 2010.05.17/outbox.cif.g08.bks.cpg/sg12_123_cif.got.tgz:244740.got - 2010.06.03 13:09:07.
