data_PCOD9198487
_publ_section_title
;
Structure prediction by ZEFSAII (Michael W. Deem and Ramdas Pophale) SiO2 
 PCOD9198487
Probable space group: C 2/M
;
_chemical_formula_sum "Si O2"
_cell_formula_units_Z 52
_cell_length_a 9.101950
_cell_length_b 16.846870
_cell_length_c 18.238629
_cell_angle_alpha 90.000000
_cell_angle_beta 54.155810
_cell_angle_gamma 90.000000
_cell_volume 2267.039642
_symmetry_space_group_name_H-M "C 2/M"
_symmetry_group_IT_number 12
_symmetry_cell_setting 'monoclinic'
loop_
_space_group_symop_operation_xyz
x,y,z
-x,y,-z
-x,-y,-z
x,-y,z
1/2+x,1/2+y,z
1/2-x,1/2+y,-z
1/2-x,1/2-y,-z
1/2+x,1/2-y,z
loop_
_atom_site_type_symbol
_atom_site_label
_atom_site_fract_x
_atom_site_fract_y
_atom_site_fract_z
Si Si1 0.594392 0.770857 0.623619
Si Si2 0.924210 0.359297 0.220746
Si Si3 0.976942 0.087342 0.657836
Si Si4 0.329294 0.796080 0.092769
Si Si5 0.018390 0.084934 0.171641
Si Si6 0.812124 0.888197 0.093872
Si Si7 0.500000 0.772497 0.500000
O O1 0.531430 0.805842 0.720073
O O2 0.546840 0.677474 0.621662
O O3 0.518380 0.815559 0.573644
O O4 0.811841 0.774764 0.561209
O O5 0.740798 0.408187 0.289649
O O6 0.864050 0.305735 0.169043
O O7 0.101204 0.408918 0.144040
O O8 0.022458 0.084206 0.730949
O O9 0.038071 0.000000 0.609172
O O10 0.155509 0.844230 0.118534
O O11 0.308228 0.705130 0.078728
O O12 0.500000 0.829881 0.000000
O O13 0.850065 0.094986 0.167904
O O14 0.107908 0.000000 0.128310
O O15 0.000000 0.916602 0.000000
#
# Coordination Sequence:
#
# PCOD9198487 Si02
#       7
#     8   8   8   8   8   8   4
#     4  11  21  42  66  99 123 161 202 250 305 377
#     4  11  21  36  65  87 120 171 207 247 309 369
#     4  10  22  40  62  90 123 162 205 248 299 372
#     4  10  20  36  57  86 117 156 210 256 296 355
#     4  10  22  37  54  81 118 159 201 247 304 357
#     4  11  22  35  57  89 121 157 214 268 303 345
#     4  10  24  38  70 100 128 148 204 254 300 370
#
# _framework density 22.937403
#
# number of rings (size 3 to 8) (size 9 to 14) (size 15 to 20)
#    0.000    1.538    1.538    4.615    2.154    3.692 
#    0.000    3.846    0.000    0.000    0.000    0.000 
#    0.000    0.000    0.000    0.000    0.000    0.000 
#
# Total GULP energy -144895.147245 kJ/mol
# GULP energy per Si atom -5572.890279 kJ/mol
# Density = 2.288520 g / cm^3
# Si number density = 22.937403 Si / 1000 Ang^3
#
#
#
# Elastic Constant Matrix: (Units=GPa)
#
#
# Indices 1 2 3 4 5 6 
#
# 1 117.4158 13.6696 23.2789 0.0000 2.3390 -0.0002
# 2 13.6696 118.7749 13.9409 0.0000 -4.7060 0.0000
# 3 23.2789 13.9409 72.5778 0.0000 -2.3422 0.0000
# 4 0.0000 0.0000 0.0000 -4.6931 0.0000 -3.7416
# 5 2.3390 -4.7060 -2.3422 0.0000 42.8148 0.0001
# 6 -0.0002 0.0000 0.0000 -3.7416 0.0001 39.2342
#
#
#
# Elastic Compliance Matrix: (Units=1/GPa)
#
#
# Indices 1 2 3 4 5 6 
#
# 1 0.009179 -0.000754 -0.002823 0.000000 -0.000739 0.000000
# 2 -0.000754 0.008707 -0.001401 0.000000 0.000922 0.000000
# 3 -0.002823 -0.001401 0.014979 0.000000 0.000820 0.000000
# 4 0.000000 0.000000 0.000000 -0.198022 0.000000 -0.018885
# 5 -0.000739 0.000922 0.000820 0.000000 0.023543 0.000000
# 6 0.000000 0.000000 0.000000 -0.018885 0.000000 0.023687
#
#
# Mechanical properties :
#
#
# Convention : Reuss Voigt Hill
#
# Bulk Modulus (GPa) = 43.65092 45.61636 44.63364
# Shear Modulus (GPa) = -49.83372 32.66311 -8.58531
#
# Velocity S-wave (km/s) = -4.66617 3.77770 -1.93676
# Velocity P-wave (km/s) = 3.15580 6.24168 3.80785
#
# Compressibility (1/GPa) = 0.02290903
#
# Stress axis : x y z
#
# Youngs Moduli (GPa) = 108.94459 114.84975 66.75874
#
# Poissons Ratio (x) = 0.08663 0.18846
# Poissons Ratio (y) = 0.08218 0.09351
# Poissons Ratio (z) = 0.30756 0.16088
#
# Static dielectric constant tensor:
#      x y z
#    x 1.857120 0.000000 -0.001030 
#    y 0.000000 1.918760 0.000000 
#    z -0.001030 0.000000 1.929440 
# 
# From -- ./inp_files/197056.got.cif
#   From: 2010.05.17/outbox.cif.g08.bks.cpg/sg12_99_cif.got.tgz:197056.got - 2010.06.03 13:09:07.
