data_PCOD9198626
_publ_section_title
;
Structure prediction by ZEFSAII (Michael W. Deem and Ramdas Pophale) SiO2 
 PCOD9198626
Probable space group: C 2/M
;
_chemical_formula_sum "Si O2"
_cell_formula_units_Z 48
_cell_length_a 11.568850
_cell_length_b 27.463197
_cell_length_c 15.303534
_cell_angle_alpha 90.000000
_cell_angle_beta 151.572031
_cell_angle_gamma 90.000000
_cell_volume 2314.668635
_symmetry_space_group_name_H-M "C 2/M"
_symmetry_group_IT_number 12
_symmetry_cell_setting 'monoclinic'
loop_
_space_group_symop_operation_xyz
x,y,z
-x,y,-z
-x,-y,-z
x,-y,z
1/2+x,1/2+y,z
1/2-x,1/2+y,-z
1/2-x,1/2-y,-z
1/2+x,1/2-y,z
loop_
_atom_site_type_symbol
_atom_site_label
_atom_site_fract_x
_atom_site_fract_y
_atom_site_fract_z
Si Si1 0.087688 0.771294 0.769337
Si Si2 0.973853 0.865147 0.198880
Si Si3 0.199868 0.944886 0.055023
Si Si4 0.273947 0.681194 0.791603
Si Si5 0.736191 0.301036 0.600303
Si Si6 0.863133 0.612060 0.594787
O O1 0.228925 0.736056 0.796311
O O2 0.199453 0.821672 0.879262
O O3 0.969520 0.734200 0.761828
O O4 0.865028 0.792583 0.564944
O O5 0.155379 0.831906 0.259701
O O6 0.128138 0.892489 0.376751
O O7 0.857316 0.904733 0.057180
O O8 0.467717 0.933652 0.271543
O O9 0.187100 0.000000 0.012309
O O10 0.000000 0.941489 0.000000
O O11 0.047588 0.648546 0.667613
O O12 0.500000 0.664747 0.000000
O O13 0.500000 0.290017 0.500000
O O14 0.800429 0.357901 0.641570
#
# Coordination Sequence:
#
# PCOD9198626 Si02
#       6
#     8   8   8   8   8   8
#     4   9  20  30  50  82 113 158 191 218 271 331
#     4  11  20  36  59  77 121 154 185 227 280 329
#     4  11  23  40  59  86 114 140 189 243 291 342
#     4  11  19  33  51  81 119 154 187 219 267 331
#     4   9  17  33  51  79 114 149 193 229 264 325
#     4  10  20  36  58  82 110 154 188 225 286 334
#
# _framework density 20.737310999999998
#
# number of rings (size 3 to 8) (size 9 to 14) (size 15 to 20)
#    0.000    1.833    3.333    2.500    0.000    1.333 
#    3.000    1.667    0.000    0.500    0.000    4.667 
#    0.000    0.000    0.000    0.000    0.000    0.000 
#
# Total GULP energy -133632.826068 kJ/mol
# GULP energy per Si atom -5568.034419 kJ/mol
# Density = 2.069011 g / cm^3
# Si number density = 20.737311 Si / 1000 Ang^3
#
#
#
# Elastic Constant Matrix: (Units=GPa)
#
#
# Indices 1 2 3 4 5 6 
#
# 1 44.5821 23.9670 1.8367 0.0000 -5.1779 0.0000
# 2 23.9670 130.6485 26.2775 0.0000 -14.6971 0.0000
# 3 1.8367 26.2775 77.0761 0.0001 -12.4729 0.0001
# 4 0.0000 0.0000 0.0001 22.0156 0.0001 0.0488
# 5 -5.1779 -14.6971 -12.4729 0.0001 14.1919 0.0000
# 6 0.0000 0.0000 0.0001 0.0488 0.0000 19.2445
#
#
#
# Elastic Compliance Matrix: (Units=1/GPa)
#
#
# Indices 1 2 3 4 5 6 
#
# 1 0.025428 -0.004320 0.001917 0.000000 0.006488 0.000000
# 2 -0.004320 0.009605 -0.002118 0.000000 0.006509 0.000000
# 3 0.001917 -0.002118 0.015632 0.000000 0.012244 0.000000
# 4 0.000000 0.000000 0.000000 0.045423 0.000000 -0.000115
# 5 0.006488 0.006509 0.012244 0.000000 0.090331 0.000000
# 6 0.000000 0.000000 0.000000 -0.000115 0.000000 0.051963
#
#
# Mechanical properties :
#
#
# Convention : Reuss Voigt Hill
#
# Bulk Modulus (GPa) = 24.02623 39.60767 31.81695
# Shear Modulus (GPa) = 19.13516 24.43878 21.78697
#
# Velocity S-wave (km/s) = 3.04096 3.43664 3.24484
# Velocity P-wave (km/s) = 4.89296 5.90665 5.42354
#
# Compressibility (1/GPa) = 0.04162118
#
# Stress axis : x y z
#
# Youngs Moduli (GPa) = 39.32728 104.11309 63.97068
#
# Poissons Ratio (x) = 0.44980 -0.12262
# Poissons Ratio (y) = 0.16991 0.13551
# Poissons Ratio (z) = -0.07539 0.22055
#
# Static dielectric constant tensor:
#      x y z
#    x 1.801170 0.000000 -0.012450 
#    y 0.000000 1.806110 0.000000 
#    z -0.012450 0.000000 1.787360 
# 
# From -- ./inp_files/209447.got.cif
#   From: 2010.05.17/outbox.cif.g08.bks.cpg/sg12_105_cif.got.tgz:209447.got - 2010.06.03 13:09:07.
