data_PCOD9198408
_publ_section_title
;
Structure prediction by ZEFSAII (Michael W. Deem and Ramdas Pophale) SiO2 
 PCOD9198408
Probable space group: C 2/M
;
_chemical_formula_sum "Si O2"
_cell_formula_units_Z 40
_cell_length_a 20.343613
_cell_length_b 7.680091
_cell_length_c 11.492599
_cell_angle_alpha 90.000000
_cell_angle_beta 92.945588
_cell_angle_gamma 90.000000
_cell_volume 1793.240463
_symmetry_space_group_name_H-M "C 2/M"
_symmetry_group_IT_number 12
_symmetry_cell_setting 'monoclinic'
loop_
_space_group_symop_operation_xyz
x,y,z
-x,y,-z
-x,-y,-z
x,-y,z
1/2+x,1/2+y,z
1/2-x,1/2+y,-z
1/2-x,1/2-y,-z
1/2+x,1/2-y,z
loop_
_atom_site_type_symbol
_atom_site_label
_atom_site_fract_x
_atom_site_fract_y
_atom_site_fract_z
Si Si1 0.645351 0.713621 0.234499
Si Si2 0.672210 0.292109 0.983298
Si Si3 0.725779 0.208410 0.625710
Si Si4 0.971869 0.799866 0.618078
Si Si5 0.100719 0.702954 0.739473
O O1 0.643686 0.500000 0.235863
O O2 0.717724 0.770353 0.281765
O O3 0.591458 0.777112 0.322341
O O4 0.637545 0.766921 0.100059
O O5 0.666679 0.500000 0.975054
O O6 0.636601 0.217483 0.866740
O O7 0.750000 0.250000 0.000000
O O8 0.750000 0.250000 0.500000
O O9 0.653947 0.275657 0.652011
O O10 0.722044 0.000000 0.638422
O O11 0.000000 0.721628 0.500000
O O12 0.031606 0.795821 0.715417
O O13 0.954232 0.000000 0.588542
O O14 0.087864 0.500000 0.714688
#
# Coordination Sequence:
#
# PCOD9198408 Si02
#       5
#     8   8   8   8   8
#     4   9  19  37  59  83 115 153 193 242 291 341
#     4  11  21  38  62  87 119 155 198 246 296 349
#     4  10  20  36  57  83 113 149 194 243 291 344
#     4  10  21  39  63  87 116 156 201 241 288 356
#     4  11  23  39  59  86 122 156 193 244 299 349
#
# _framework density 22.305987999999999
#
# number of rings (size 3 to 8) (size 9 to 14) (size 15 to 20)
#    0.000    1.800    2.000    2.400    0.000    4.400 
#    0.000    7.000    0.000    0.000    0.000    0.000 
#    0.000    0.000    0.000    0.000    0.000    0.000 
#
# Total GULP energy -111748.097601 kJ/mol
# GULP energy per Si atom -5587.404880 kJ/mol
# Density = 2.225522 g / cm^3
# Si number density = 22.305988 Si / 1000 Ang^3
#
#
#
# Elastic Constant Matrix: (Units=GPa)
#
#
# Indices 1 2 3 4 5 6 
#
# 1 67.0239 2.5805 -13.5288 0.0000 -9.8851 0.0000
# 2 2.5805 51.1228 -2.6638 0.0000 -5.1346 0.0000
# 3 -13.5288 -2.6638 78.0392 0.0000 -9.4125 0.0000
# 4 0.0000 0.0000 0.0000 22.5107 0.0000 4.4062
# 5 -9.8851 -5.1346 -9.4125 0.0000 42.9272 0.0000
# 6 0.0000 0.0000 0.0000 4.4062 0.0000 16.8114
#
#
#
# Elastic Compliance Matrix: (Units=1/GPa)
#
#
# Indices 1 2 3 4 5 6 
#
# 1 0.016261 -0.000199 0.003350 0.000000 0.004455 0.000000
# 2 -0.000199 0.019875 0.000950 0.000000 0.002540 0.000000
# 3 0.003350 0.000950 0.013902 0.000000 0.003933 0.000000
# 4 0.000000 0.000000 0.000000 0.046825 0.000000 -0.012273
# 5 0.004455 0.002540 0.003933 0.000000 0.025487 0.000000
# 6 0.000000 0.000000 0.000000 -0.012273 0.000000 0.062700
#
#
# Mechanical properties :
#
#
# Convention : Reuss Voigt Hill
#
# Bulk Modulus (GPa) = 17.17034 18.77351 17.97193
# Shear Modulus (GPa) = 25.47613 30.43640 27.95626
#
# Velocity S-wave (km/s) = 3.38319 3.69791 3.54405
# Velocity P-wave (km/s) = 4.79330 5.16405 4.98212
#
# Compressibility (1/GPa) = 0.05823995
#
# Stress axis : x y z
#
# Youngs Moduli (GPa) = 61.49728 50.31343 71.93435
#
# Poissons Ratio (x) = 0.01000 -0.24095
# Poissons Ratio (y) = 0.01223 -0.06836
# Poissons Ratio (z) = -0.20599 -0.04781
#
# Static dielectric constant tensor:
#      x y z
#    x 1.856730 0.000000 -0.035220 
#    y 0.000000 1.625990 0.000000 
#    z -0.035220 0.000000 1.850200 
# 
# From -- ./inp_files/151627.got.cif
#   From: 2010.05.17/outbox.cif.g08.bks.cpg/sg12_76_cif.got.tgz:151627.got - 2010.06.03 13:09:07.
