data_PCOD9198124
_publ_section_title
;
Structure prediction by ZEFSAII (Michael W. Deem and Ramdas Pophale) SiO2 
 PCOD9198124
Probable space group: C 2/M
;
_chemical_formula_sum "Si O2"
_cell_formula_units_Z 64
_cell_length_a 14.759607
_cell_length_b 8.810429
_cell_length_c 26.583911
_cell_angle_alpha 90.000000
_cell_angle_beta 86.707268
_cell_angle_gamma 90.000000
_cell_volume 3451.224090
_symmetry_space_group_name_H-M "C 2/M"
_symmetry_group_IT_number 12
_symmetry_cell_setting 'monoclinic'
loop_
_space_group_symop_operation_xyz
x,y,z
-x,y,-z
-x,-y,-z
x,-y,z
1/2+x,1/2+y,z
1/2-x,1/2+y,-z
1/2-x,1/2-y,-z
1/2+x,1/2-y,z
loop_
_atom_site_type_symbol
_atom_site_label
_atom_site_fract_x
_atom_site_fract_y
_atom_site_fract_z
Si Si1 0.881723 0.681586 0.227732
Si Si2 0.271986 0.317701 0.688155
Si Si3 0.759295 0.181322 0.420149
Si Si4 0.910078 0.681600 0.756085
Si Si5 0.270669 0.681928 0.053560
Si Si6 0.578499 0.681779 0.878128
Si Si7 0.604238 0.182625 0.506135
Si Si8 0.628560 0.317498 0.136541
O O1 0.875707 0.500000 0.222837
O O2 0.806977 0.730500 0.270255
O O3 0.872936 0.751855 0.172761
O O4 0.983067 0.718630 0.243787
O O5 0.276666 0.500000 0.687617
O O6 0.250502 0.257116 0.633660
O O7 0.363651 0.248206 0.708126
O O8 0.670477 0.218068 0.456989
O O9 0.846866 0.241597 0.447671
O O10 0.764299 0.000000 0.415122
O O11 0.899819 0.500000 0.758290
O O12 0.864460 0.756119 0.806862
O O13 0.266248 0.500000 0.050964
O O14 0.368866 0.726608 0.073140
O O15 0.199392 0.743143 0.096618
O O16 0.250000 0.750000 0.000000
O O17 0.582305 0.500000 0.874280
O O18 0.473089 0.725036 0.878628
O O19 0.500000 0.229290 0.500000
O O20 0.605065 0.000000 0.512959
O O21 0.637686 0.500000 0.136211
#
# Coordination Sequence:
#
# PCOD9198124 Si02
#       8
#     8   8   8   8   8   8   8   8
#     4   9  20  36  55  78 106 141 179 215 258 314
#     4  11  22  36  54  79 113 149 180 218 267 317
#     4  10  21  36  55  82 111 140 179 225 270 317
#     4  10  20  36  56  80 108 140 179 220 261 312
#     4  11  23  38  55  79 107 139 177 221 270 320
#     4   9  20  37  57  78 105 139 175 216 265 317
#     4   9  19  38  61  80 104 142 183 223 270 323
#     4  10  20  37  58  80 106 139 176 217 265 320
#
# _framework density 18.544146000000001
#
# number of rings (size 3 to 8) (size 9 to 14) (size 15 to 20)
#    0.000    2.125    0.000    2.625    0.000    7.250 
#    0.000    7.500    0.000    0.000    0.000    0.000 
#    0.000    0.000    0.000    0.000    0.000    0.000 
#
# Total GULP energy -178710.627159 kJ/mol
# GULP energy per Si atom -5584.707099 kJ/mol
# Density = 1.850194 g / cm^3
# Si number density = 18.544146 Si / 1000 Ang^3
#
#
#
# Elastic Constant Matrix: (Units=GPa)
#
#
# Indices 1 2 3 4 5 6 
#
# 1 87.4492 27.9119 40.8642 0.0000 23.8029 0.0000
# 2 27.9119 36.1008 29.1498 0.0000 12.0522 0.0000
# 3 40.8642 29.1498 93.1240 0.0000 34.2216 0.0000
# 4 0.0000 0.0000 0.0000 37.3751 0.0000 3.2546
# 5 23.8029 12.0522 34.2216 0.0000 25.3175 0.0000
# 6 0.0000 0.0000 0.0000 3.2546 0.0000 25.6292
#
#
#
# Elastic Compliance Matrix: (Units=1/GPa)
#
#
# Indices 1 2 3 4 5 6 
#
# 1 0.017873 -0.009455 -0.000720 0.000000 -0.011330 0.000000
# 2 -0.009455 0.042267 -0.009844 0.000000 0.002075 0.000000
# 3 -0.000720 -0.009844 0.024171 0.000000 -0.027310 0.000000
# 4 0.000000 0.000000 0.000000 0.027055 0.000000 -0.003436
# 5 -0.011330 0.002075 -0.027310 0.000000 0.086078 0.000000
# 6 0.000000 0.000000 0.000000 -0.003436 0.000000 0.039454
#
#
# Mechanical properties :
#
#
# Convention : Reuss Voigt Hill
#
# Bulk Modulus (GPa) = 22.58667 45.83620 34.21144
# Shear Modulus (GPa) = 17.14126 25.58090 21.36108
#
# Velocity S-wave (km/s) = 3.04361 3.71814 3.39765
# Velocity P-wave (km/s) = 4.95558 6.57295 5.82072
#
# Compressibility (1/GPa) = 0.04427391
#
# Stress axis : x y z
#
# Youngs Moduli (GPa) = 55.94882 23.65938 41.37124
#
# Poissons Ratio (x) = 0.22371 0.02977
# Poissons Ratio (y) = 0.52902 0.40724
# Poissons Ratio (z) = 0.04027 0.23289
#
# Static dielectric constant tensor:
#      x y z
#    x 1.660460 0.000000 0.010140 
#    y 0.000000 1.619260 0.000000 
#    z 0.010140 0.000000 1.603460 
# 
# From -- ./inp_files/338724.got.cif
#   From: 2010.05.17/outbox.cif.g08.bks.cpg/sg12_170_cif.got.tgz:338724.got - 2010.06.03 13:09:07.
