data_PCOD9198034
_publ_section_title
;
Structure prediction by ZEFSAII (Michael W. Deem and Ramdas Pophale) SiO2 
 PCOD9198034
Probable space group: C 2/M
;
_chemical_formula_sum "Si O2"
_cell_formula_units_Z 64
_cell_length_a 19.908793
_cell_length_b 7.445895
_cell_length_c 32.940875
_cell_angle_alpha 90.000000
_cell_angle_beta 35.208045
_cell_angle_gamma 90.000000
_cell_volume 2815.345648
_symmetry_space_group_name_H-M "C 2/M"
_symmetry_group_IT_number 12
_symmetry_cell_setting 'monoclinic'
loop_
_space_group_symop_operation_xyz
x,y,z
-x,y,-z
-x,-y,-z
x,-y,z
1/2+x,1/2+y,z
1/2-x,1/2+y,-z
1/2-x,1/2-y,-z
1/2+x,1/2-y,z
loop_
_atom_site_type_symbol
_atom_site_label
_atom_site_fract_x
_atom_site_fract_y
_atom_site_fract_z
Si Si1 0.889646 0.213442 0.706403
Si Si2 0.794310 0.286609 0.932632
Si Si3 0.824016 0.216603 0.564666
Si Si4 0.943141 0.219450 0.985967
Si Si5 0.130774 0.784168 0.828111
Si Si6 0.553534 0.295043 0.782011
Si Si7 0.930822 0.218885 0.595136
Si Si8 0.433373 0.708943 0.314164
O O1 0.756117 0.242388 0.784755
O O2 0.903904 0.284878 0.653504
O O3 0.980768 0.286337 0.694315
O O4 0.910620 0.000000 0.693064
O O5 0.808751 0.500000 0.920694
O O6 0.918677 0.202450 0.862120
O O7 0.750000 0.250000 0.000000
O O8 0.689657 0.223906 0.955232
O O9 0.844742 0.275549 0.601221
O O10 0.702123 0.281926 0.607328
O O11 0.938896 0.270718 0.483129
O O12 0.821027 0.000000 0.565925
O O13 0.024972 0.279459 0.908414
O O14 0.942661 0.000000 0.985684
O O15 0.000000 0.276522 0.000000
O O16 0.121113 0.712032 0.786904
O O17 0.119614 0.000000 0.831250
O O18 0.596154 0.500000 0.756872
O O19 0.560051 0.209759 0.734325
O O20 0.927071 0.000000 0.597076
O O21 0.468235 0.500000 0.292548
#
# Coordination Sequence:
#
# PCOD9198034 Si02
#       8
#     8   8   8   8   8   8   8   8
#     4  10  21  36  52  75 109 143 173 211 268 322
#     4  11  21  36  59  83 106 137 176 219 267 315
#     4   9  17  33  58  81 101 135 183 222 254 305
#     4   9  19  35  54  77 105 137 172 215 265 309
#     4  10  20  36  56  75 101 137 176 219 261 303
#     4  10  21  38  55  75 107 142 176 216 263 313
#     4   8  16  33  56  79 105 137 174 221 264 303
#     4  10  22  36  51  76 113 145 168 213 273 315
#
# _framework density 22.732554
#
# number of rings (size 3 to 8) (size 9 to 14) (size 15 to 20)
#    0.000    2.375    1.250    1.875    1.750    2.000 
#    0.000    1.875    0.000    1.875    0.000    0.000 
#    0.000    0.000    0.000    0.000    0.000    0.000 
#
# Total GULP energy -178793.354577 kJ/mol
# GULP energy per Si atom -5587.292331 kJ/mol
# Density = 2.268081 g / cm^3
# Si number density = 22.732554 Si / 1000 Ang^3
#
#
#
# Elastic Constant Matrix: (Units=GPa)
#
#
# Indices 1 2 3 4 5 6 
#
# 1 141.0588 2.7719 23.9047 0.0344 -25.8801 0.0403
# 2 2.7719 75.7921 -5.4822 0.0681 7.4297 -0.1093
# 3 23.9047 -5.4822 57.9505 -0.0330 -14.3692 -0.0121
# 4 0.0344 0.0681 -0.0330 13.6814 0.0038 -14.9649
# 5 -25.8801 7.4297 -14.3692 0.0038 37.2624 0.0152
# 6 0.0403 -0.1093 -0.0121 -14.9649 0.0152 -8.1316
#
#
#
# Elastic Compliance Matrix: (Units=1/GPa)
#
#
# Indices 1 2 3 4 5 6 
#
# 1 0.008447 -0.000982 -0.002293 0.000017 0.005178 0.000037
# 2 -0.000982 0.013595 0.000940 -0.000091 -0.003031 -0.000027
# 3 -0.002293 0.000940 0.019737 0.000000 0.005831 -0.000043
# 4 0.000017 -0.000091 0.000000 0.024260 0.000046 -0.044645
# 5 0.005178 -0.003031 0.005831 0.000046 0.033286 0.000036
# 6 0.000037 -0.000027 -0.000043 -0.044645 0.000036 -0.040816
#
#
# Mechanical properties :
#
#
# Convention : Reuss Voigt Hill
#
# Bulk Modulus (GPa) = 26.94898 35.24334 31.09616
# Shear Modulus (GPa) = 66.18126 25.46958 45.82542
#
# Velocity S-wave (km/s) = 5.40150 3.35087 4.49469
# Velocity P-wave (km/s) = 7.12616 5.52343 6.37536
#
# Compressibility (1/GPa) = 0.03710716
#
# Stress axis : x y z
#
# Youngs Moduli (GPa) = 118.38135 73.55632 50.66678
#
# Poissons Ratio (x) = 0.07226 0.11620
# Poissons Ratio (y) = 0.11630 -0.04762
# Poissons Ratio (z) = 0.27150 -0.06913
#
# Static dielectric constant tensor:
#      x y z
#    x 1.844860 -0.000090 0.020610 
#    y -0.000090 1.849080 0.000070 
#    z 0.020610 0.000070 1.807810 
# 
# From -- ./inp_files/377991.got.cif
#   From: 2010.05.17/outbox.cif.g08.bks.cpg/sg12_189_cif.got.tgz:377991.got - 2010.06.03 13:09:07.
