data_PCOD9198071
_publ_section_title
;
Structure prediction by ZEFSAII (Michael W. Deem and Ramdas Pophale) SiO2 
 PCOD9198071
Probable space group: C 2/M
;
_chemical_formula_sum "Si O2"
_cell_formula_units_Z 64
_cell_length_a 32.444733
_cell_length_b 8.896488
_cell_length_c 18.532867
_cell_angle_alpha 90.000000
_cell_angle_beta 40.800137
_cell_angle_gamma 90.000000
_cell_volume 3495.420578
_symmetry_space_group_name_H-M "C 2/M"
_symmetry_group_IT_number 12
_symmetry_cell_setting 'monoclinic'
loop_
_space_group_symop_operation_xyz
x,y,z
-x,y,-z
-x,-y,-z
x,-y,z
1/2+x,1/2+y,z
1/2-x,1/2+y,-z
1/2-x,1/2-y,-z
1/2+x,1/2-y,z
loop_
_atom_site_type_symbol
_atom_site_label
_atom_site_fract_x
_atom_site_fract_y
_atom_site_fract_z
Si Si1 0.275706 0.319723 0.694419
Si Si2 0.423111 0.319045 0.276089
Si Si3 0.041275 0.319599 0.337822
Si Si4 0.211119 0.819768 0.485998
Si Si5 0.151027 0.180078 0.912734
Si Si6 0.057745 0.818996 0.163846
Si Si7 0.905292 0.681262 0.577144
Si Si8 0.574366 0.824625 0.883791
O O1 0.273884 0.500000 0.699375
O O2 0.266395 0.271743 0.623044
O O3 0.219989 0.250978 0.815840
O O4 0.343378 0.261286 0.630493
O O5 0.425134 0.500000 0.263984
O O6 0.362726 0.282362 0.405168
O O7 0.489349 0.271228 0.223352
O O8 0.414643 0.243209 0.209675
O O9 0.042779 0.500000 0.329386
O O10 0.065986 0.246377 0.232319
O O11 0.079731 0.280472 0.359249
O O12 0.968271 0.276305 0.449240
O O13 0.250000 0.750000 0.500000
O O14 0.217091 0.000000 0.482092
O O15 0.112430 0.236288 0.894237
O O16 0.155053 0.000000 0.906460
O O17 0.111485 0.226659 0.035808
O O18 0.057402 0.000000 0.167921
O O19 0.898369 0.500000 0.581678
O O20 0.592789 0.000000 0.860873
O O21 0.500000 0.813399 0.000000
#
# Coordination Sequence:
#
# PCOD9198071 Si02
#       8
#     8   8   8   8   8   8   8   8
#     4  11  23  39  59  84 115 149 190 237 280 330
#     4  10  20  36  56  78 107 146 188 229 279 339
#     4   9  19  36  61  89 118 146 180 230 280 333
#     4  10  22  37  54  78 110 144 182 228 276 327
#     4  11  23  39  58  79 110 153 194 234 281 339
#     4  10  21  36  56  83 112 143 187 236 283 335
#     4   9  19  38  61  88 117 149 185 222 277 343
#     4  11  22  35  53  80 112 145 187 237 280 325
#
# _framework density 18.309670000000001
#
# number of rings (size 3 to 8) (size 9 to 14) (size 15 to 20)
#    0.000    1.875    1.250    3.375    0.000    7.500 
#    0.000    1.875    0.000    0.000    0.000    0.000 
#    0.000    0.000    0.000    0.000    0.000    0.000 
#
# Total GULP energy -178781.020983 kJ/mol
# GULP energy per Si atom -5586.906906 kJ/mol
# Density = 1.826800 g / cm^3
# Si number density = 18.309670 Si / 1000 Ang^3
#
#
#
# Elastic Constant Matrix: (Units=GPa)
#
#
# Indices 1 2 3 4 5 6 
#
# 1 88.9395 26.0872 52.4490 0.0027 2.0783 0.0018
# 2 26.0872 31.0765 35.8864 0.0213 -0.7631 -0.0100
# 3 52.4490 35.8864 121.4270 0.0104 10.0895 -0.0057
# 4 0.0027 0.0213 0.0104 29.3759 -0.0081 1.6298
# 5 2.0783 -0.7631 10.0895 -0.0081 31.6782 0.0022
# 6 0.0018 -0.0100 -0.0057 1.6298 0.0022 33.2732
#
#
#
# Elastic Compliance Matrix: (Units=1/GPa)
#
#
# Indices 1 2 3 4 5 6 
#
# 1 0.016446 -0.008471 -0.004616 0.000007 0.000187 -0.000005
# 2 -0.008471 0.054323 -0.012892 -0.000033 0.005970 0.000016
# 3 -0.004616 -0.012892 0.014421 0.000003 -0.004601 -0.000001
# 4 0.000007 -0.000033 0.000003 0.034134 0.000007 -0.001672
# 5 0.000187 0.005970 -0.004601 0.000007 0.033164 -0.000002
# 6 -0.000005 0.000016 -0.000001 -0.001672 -0.000002 0.030136
#
#
# Mechanical properties :
#
#
# Convention : Reuss Voigt Hill
#
# Bulk Modulus (GPa) = 30.08978 52.25425 41.17201
# Shear Modulus (GPa) = 20.35333 27.33349 23.84341
#
# Velocity S-wave (km/s) = 3.33771 3.86793 3.61256
# Velocity P-wave (km/s) = 5.59672 6.96770 6.31950
#
# Compressibility (1/GPa) = 0.03323388
#
# Stress axis : x y z
#
# Youngs Moduli (GPa) = 60.80597 18.40828 69.34123
#
# Poissons Ratio (x) = 0.15593 0.32005
# Poissons Ratio (y) = 0.51507 0.89394
# Poissons Ratio (z) = 0.28066 0.23732
#
# Static dielectric constant tensor:
#      x y z
#    x 1.601590 0.000000 -0.008910 
#    y 0.000000 1.611510 0.000000 
#    z -0.008910 0.000000 1.629110 
# 
# From -- ./inp_files/295577.got.cif
#   From: 2010.05.17/outbox.cif.g08.bks.cpg/sg12_148_cif.got.tgz:295577.got - 2010.06.03 13:09:07.
