data_PCOD9198609
_publ_section_title
;
Structure prediction by ZEFSAII (Michael W. Deem and Ramdas Pophale) SiO2 
 PCOD9198609
Probable space group: C 2/M
;
_chemical_formula_sum "Si O2"
_cell_formula_units_Z 64
_cell_length_a 8.504320
_cell_length_b 30.104695
_cell_length_c 15.396974
_cell_angle_alpha 90.000000
_cell_angle_beta 123.527358
_cell_angle_gamma 90.000000
_cell_volume 3286.082517
_symmetry_space_group_name_H-M "C 2/M"
_symmetry_group_IT_number 12
_symmetry_cell_setting 'monoclinic'
loop_
_space_group_symop_operation_xyz
x,y,z
-x,y,-z
-x,-y,-z
x,-y,z
1/2+x,1/2+y,z
1/2-x,1/2+y,-z
1/2-x,1/2-y,-z
1/2+x,1/2-y,z
loop_
_atom_site_type_symbol
_atom_site_label
_atom_site_fract_x
_atom_site_fract_y
_atom_site_fract_z
Si Si1 0.966941 0.550860 0.777723
Si Si2 0.416603 0.800441 0.227637
Si Si3 0.588509 0.550860 0.777725
Si Si4 0.189435 0.199339 0.000000
Si Si5 0.190492 0.625810 0.380670
Si Si6 0.429153 0.625810 0.619331
Si Si7 0.821011 0.945917 0.999999
Si Si8 0.538670 0.699560 0.227637
O O1 0.009102 0.500000 0.763819
O O2 0.775673 0.549984 0.775672
O O3 0.931866 0.583515 0.687030
O O4 0.132689 0.567125 0.891993
O O5 0.573680 0.830845 0.318860
O O6 0.486273 0.750000 0.236273
O O7 0.231380 0.800186 0.231380
O O8 0.352407 0.818847 0.112815
O O9 0.518540 0.500000 0.763821
O O10 0.442197 0.583515 0.687032
O O11 0.651302 0.567125 0.891995
O O12 0.126778 0.181154 0.887185
O O13 0.250000 0.250000 0.000000
O O14 0.000000 0.199323 0.000000
O O15 0.255182 0.624762 0.500001
O O16 0.381659 0.625183 0.381659
O O17 0.435961 0.669155 0.681140
O O18 0.819207 0.000000 0.999999
O O19 0.000000 0.930060 0.000000
#
# Coordination Sequence:
#
# PCOD9198609 Si02
#       8
#     8   8   8   8   8   8   8   8
#     4   9  18  34  56  80 107 140 177 219 267 317
#     4  10  20  36  58  82 109 140 174 215 265 318
#     4   9  18  34  56  80 107 140 177 219 267 317
#     4   8  16  31  52  79 106 131 163 206 256 312
#     4  10  22  38  54  76 106 140 182 226 265 311
#     4  10  22  38  54  76 106 140 182 226 265 311
#     4   9  17  30  51  80 111 140 172 214 265 320
#     4  10  20  36  58  82 109 140 174 215 265 318
#
# _framework density 19.476078000000001
#
# number of rings (size 3 to 8) (size 9 to 14) (size 15 to 20)
#    0.000    2.625    0.000    1.125    0.000    6.000 
#    0.000    5.000    0.000    0.000    0.000    5.250 
#    0.000    0.000    0.000    0.000    0.000    0.000 
#
# Total GULP energy -178496.842580 kJ/mol
# GULP energy per Si atom -5578.026331 kJ/mol
# Density = 1.943175 g / cm^3
# Si number density = 19.476078 Si / 1000 Ang^3
#
#
#
# Elastic Constant Matrix: (Units=GPa)
#
#
# Indices 1 2 3 4 5 6 
#
# 1 10.1248 14.3550 27.2984 0.0000 3.0120 0.0000
# 2 14.3550 103.9426 90.9904 0.0000 4.3404 0.0000
# 3 27.2984 90.9904 227.7709 0.0000 9.3151 0.0000
# 4 0.0000 0.0000 0.0000 35.6661 0.0000 1.0485
# 5 3.0120 4.3404 9.3151 0.0000 18.3566 0.0000
# 6 0.0000 0.0000 0.0000 1.0485 0.0000 17.1524
#
#
#
# Elastic Compliance Matrix: (Units=1/GPa)
#
#
# Indices 1 2 3 4 5 6 
#
# 1 0.154233 -0.007725 -0.014745 0.000000 -0.015999 0.000000
# 2 -0.007725 0.015186 -0.005153 0.000000 0.000292 0.000000
# 3 -0.014745 -0.005153 0.008238 0.000000 -0.000543 0.000000
# 4 0.000000 0.000000 0.000000 0.028088 0.000000 -0.001717
# 5 -0.015999 0.000292 -0.000543 0.000000 0.057308 0.000000
# 6 0.000000 0.000000 0.000000 -0.001717 0.000000 0.058406
#
#
# Mechanical properties :
#
#
# Convention : Reuss Voigt Hill
#
# Bulk Modulus (GPa) = 8.16907 67.45844 37.81376
# Shear Modulus (GPa) = 11.97581 28.18132 20.07856
#
# Velocity S-wave (km/s) = 2.48240 3.80803 3.21430
# Velocity P-wave (km/s) = 3.52420 7.35164 5.76483
#
# Compressibility (1/GPa) = 0.12241290
#
# Stress axis : x y z
#
# Youngs Moduli (GPa) = 6.48368 65.85046 121.38758
#
# Poissons Ratio (x) = 0.50870 1.78981
# Poissons Ratio (y) = 0.05009 0.62546
# Poissons Ratio (z) = 0.09560 0.33930
#
# Static dielectric constant tensor:
#      x y z
#    x 1.673590 0.000000 0.000550 
#    y 0.000000 1.684450 0.000000 
#    z 0.000550 0.000000 1.683370 
# 
# From -- ./inp_files/200930.got.cif
#   From: 2010.05.17/outbox.cif.g08.bks.cpg/sg12_101_cif.got.tgz:200930.got - 2010.06.03 13:09:07.
