data_PCOD9198907
_publ_section_title
;
Structure prediction by ZEFSAII (Michael W. Deem and Ramdas Pophale) SiO2 
 PCOD9198907
Probable space group: C 2/M
;
_chemical_formula_sum "Si O2"
_cell_formula_units_Z 64
_cell_length_a 25.582333
_cell_length_b 14.422006
_cell_length_c 19.056479
_cell_angle_alpha 90.000000
_cell_angle_beta 25.232776
_cell_angle_gamma 90.000000
_cell_volume 2997.233519
_symmetry_space_group_name_H-M "C 2/M"
_symmetry_group_IT_number 12
_symmetry_cell_setting 'monoclinic'
loop_
_space_group_symop_operation_xyz
x,y,z
-x,y,-z
-x,-y,-z
x,-y,z
1/2+x,1/2+y,z
1/2-x,1/2+y,-z
1/2-x,1/2-y,-z
1/2+x,1/2-y,z
loop_
_atom_site_type_symbol
_atom_site_label
_atom_site_fract_x
_atom_site_fract_y
_atom_site_fract_z
Si Si1 0.235119 0.107470 0.039697
Si Si2 0.197649 0.610854 0.385845
Si Si3 0.750402 0.233623 0.841608
Si Si4 0.066408 0.172503 0.985864
Si Si5 0.578276 0.891427 0.310002
Si Si6 0.106909 0.108348 0.428792
Si Si7 0.027782 0.112464 0.682748
Si Si8 0.341796 0.394170 0.339759
O O1 0.240199 0.170411 0.101425
O O2 0.116618 0.136519 0.137387
O O3 0.215268 0.000000 0.084986
O O4 0.355664 0.112114 0.845993
O O5 0.188198 0.500000 0.404454
O O6 0.309167 0.629324 0.196888
O O7 0.241153 0.648717 0.409272
O O8 0.062416 0.639563 0.525727
O O9 0.613025 0.264153 0.991905
O O10 0.842122 0.320160 0.741356
O O11 0.789478 0.174700 0.726352
O O12 0.000000 0.219097 0.000000
O O13 0.965962 0.105104 0.141582
O O14 0.585794 0.000000 0.324674
O O15 0.000000 0.116921 0.500000
O O16 0.065873 0.134929 0.556846
O O17 0.142425 0.000000 0.387176
O O18 0.116199 0.148221 0.636987
O O19 0.031507 0.000000 0.684584
O O20 0.302849 0.500000 0.400879
#
# Coordination Sequence:
#
# PCOD9198907 Si02
#       8
#     8   8   8   8   8   8   8   8
#     4  10  20  37  59  85 116 148 189 243 289 339
#     4   9  19  36  56  80 115 156 195 233 282 345
#     4  12  23  36  61  84 115 156 195 233 294 350
#     4  10  22  37  54  80 113 150 196 243 281 335
#     4  10  23  38  55  88 125 153 188 233 288 351
#     4  10  20  36  58  89 118 145 190 245 293 337
#     4   9  17  31  56  87 112 137 186 245 291 333
#     4   9  17  34  59  82 109 152 198 240 284 332
#
# _framework density 21.353024000000001
#
# number of rings (size 3 to 8) (size 9 to 14) (size 15 to 20)
#    0.000    2.125    1.250    1.875    1.750    3.500 
#    0.000    2.500    0.000    6.750    0.000    0.000 
#    0.000    0.000    0.000    0.000    0.000    0.000 
#
# Total GULP energy -178625.718186 kJ/mol
# GULP energy per Si atom -5582.053693 kJ/mol
# Density = 2.130442 g / cm^3
# Si number density = 21.353024 Si / 1000 Ang^3
#
#
#
# Elastic Constant Matrix: (Units=GPa)
#
#
# Indices 1 2 3 4 5 6 
#
# 1 140.9448 32.0447 24.1148 0.0000 2.9375 0.0000
# 2 32.0447 62.4273 19.5906 0.0000 -4.0649 0.0000
# 3 24.1148 19.5906 64.8330 0.0000 4.3615 0.0000
# 4 0.0000 0.0000 0.0000 16.9999 0.0000 4.2040
# 5 2.9375 -4.0649 4.3615 0.0000 31.9869 0.0000
# 6 0.0000 0.0000 0.0000 4.2040 0.0000 16.2607
#
#
#
# Elastic Compliance Matrix: (Units=1/GPa)
#
#
# Indices 1 2 3 4 5 6 
#
# 1 0.008285 -0.003723 -0.001891 0.000000 -0.000976 0.000000
# 2 -0.003723 0.019661 -0.004791 0.000000 0.003494 0.000000
# 3 -0.001891 -0.004791 0.017768 0.000000 -0.002858 0.000000
# 4 0.000000 0.000000 0.000000 0.062842 0.000000 -0.016247
# 5 -0.000976 0.003494 -0.002858 0.000000 0.032186 0.000000
# 6 0.000000 0.000000 0.000000 -0.016247 0.000000 0.065698
#
#
# Mechanical properties :
#
#
# Convention : Reuss Voigt Hill
#
# Bulk Modulus (GPa) = 40.15553 46.63390 43.39471
# Shear Modulus (GPa) = 21.22680 25.87983 23.55332
#
# Velocity S-wave (km/s) = 3.15634 3.48515 3.32481
# Velocity P-wave (km/s) = 5.66830 6.17106 5.92502
#
# Compressibility (1/GPa) = 0.02490317
#
# Stress axis : x y z
#
# Youngs Moduli (GPa) = 120.69509 50.86277 56.28215
#
# Poissons Ratio (x) = 0.18937 0.10643
# Poissons Ratio (y) = 0.44936 0.26965
# Poissons Ratio (z) = 0.22824 0.24369
#
# Static dielectric constant tensor:
#      x y z
#    x 1.810600 0.000000 0.006170 
#    y 0.000000 1.794000 0.000000 
#    z 0.006170 0.000000 1.789830 
# 
# From -- ./inp_files/290097.got.cif
#   From: 2010.05.17/outbox.cif.g08.bks.cpg/sg12_146_cif.got.tgz:290097.got - 2010.06.03 13:09:07.
