data_PCOD9198644
_publ_section_title
;
Structure prediction by ZEFSAII (Michael W. Deem and Ramdas Pophale) SiO2 
 PCOD9198644
Probable space group: C 2/M
;
_chemical_formula_sum "Si O2"
_cell_formula_units_Z 28
_cell_length_a 18.354507
_cell_length_b 14.889130
_cell_length_c 8.270147
_cell_angle_alpha 90.000000
_cell_angle_beta 29.272270
_cell_angle_gamma 90.000000
_cell_volume 1105.093186
_symmetry_space_group_name_H-M "C 2/M"
_symmetry_group_IT_number 12
_symmetry_cell_setting 'monoclinic'
loop_
_space_group_symop_operation_xyz
x,y,z
-x,y,-z
-x,-y,-z
x,-y,z
1/2+x,1/2+y,z
1/2-x,1/2+y,-z
1/2-x,1/2-y,-z
1/2+x,1/2-y,z
loop_
_atom_site_type_symbol
_atom_site_label
_atom_site_fract_x
_atom_site_fract_y
_atom_site_fract_z
Si Si1 0.393283 0.203427 0.051801
Si Si2 0.337165 0.597426 0.670635
Si Si3 0.000000 0.246047 0.500000
Si Si4 0.120873 0.904824 0.908701
O O1 0.477269 0.202582 0.714017
O O2 0.318622 0.303234 0.210108
O O3 0.500000 0.191685 0.000000
O O4 0.269369 0.127147 0.269921
O O5 0.290462 0.500000 0.824345
O O6 0.354780 0.682517 0.751435
O O7 0.506128 0.590527 0.280618
O O8 0.208080 0.000000 0.736697
O O9 0.000000 0.906996 0.000000
#
# Coordination Sequence:
#
# PCOD9198644 Si02
#       4
#     8   8   4   8
#     4  10  21  36  59  86 115 146 184 233 285 334
#     4  10  20  36  58  82 113 152 188 228 280 334
#     4  10  21  38  59  82 110 148 193 236 273 324
#     4   8  16  31  52  79 107 139 183 226 266 320
#
# _framework density 25.337230999999999
#
# number of rings (size 3 to 8) (size 9 to 14) (size 15 to 20)
#    0.000    2.571    0.000    1.286    0.000   12.000 
#    0.000    0.714    0.000   13.714    0.000    0.000 
#    0.000    0.000    0.000    0.000    0.000    0.000 
#
# Total GULP energy -78020.741794 kJ/mol
# GULP energy per Si atom -5572.910128 kJ/mol
# Density = 2.527956 g / cm^3
# Si number density = 25.337231 Si / 1000 Ang^3
#
#
#
# Elastic Constant Matrix: (Units=GPa)
#
#
# Indices 1 2 3 4 5 6 
#
# 1 142.7972 7.2904 37.2938 0.0000 2.7511 0.0000
# 2 7.2904 105.2385 37.2377 0.0000 -13.3622 0.0000
# 3 37.2938 37.2377 51.0417 0.0000 0.1960 0.0000
# 4 0.0000 0.0000 0.0000 21.9348 0.0000 -8.0239
# 5 2.7511 -13.3622 0.1960 0.0000 39.0582 0.0000
# 6 0.0000 0.0000 0.0000 -8.0239 0.0000 15.5334
#
#
#
# Elastic Compliance Matrix: (Units=1/GPa)
#
#
# Indices 1 2 3 4 5 6 
#
# 1 0.009054 0.002346 -0.008327 0.000000 0.000207 0.000000
# 2 0.002346 0.014231 -0.012115 0.000000 0.004764 0.000000
# 3 -0.008327 -0.012115 0.034529 0.000000 -0.003731 0.000000
# 4 0.000000 0.000000 0.000000 0.056211 0.000000 0.029036
# 5 0.000207 0.004764 -0.003731 0.000000 0.027237 0.000000
# 6 0.000000 0.000000 0.000000 0.029036 0.000000 0.079376
#
#
# Mechanical properties :
#
#
# Convention : Reuss Voigt Hill
#
# Bulk Modulus (GPa) = 46.25057 51.41347 48.83202
# Shear Modulus (GPa) = 18.93663 29.78898 24.36281
#
# Velocity S-wave (km/s) = 2.73680 3.43257 3.10424
# Velocity P-wave (km/s) = 5.31793 6.00381 5.67125
#
# Compressibility (1/GPa) = 0.02162136
#
# Stress axis : x y z
#
# Youngs Moduli (GPa) = 110.44799 70.26757 28.96126
#
# Poissons Ratio (x) = -0.16482 0.24117
# Poissons Ratio (y) = -0.25906 0.35086
# Poissons Ratio (z) = 0.91974 0.85127
#
# Static dielectric constant tensor:
#      x y z
#    x 2.128140 0.000000 0.120460 
#    y 0.000000 2.123230 0.000000 
#    z 0.120460 0.000000 2.096930 
# 
# From -- ./inp_files/44766.got.cif
#   From: 2010.05.17/outbox.cif.g08.bks.cpg/sg12_23_cif.got.tgz:44766.got - 2010.06.03 13:09:07.
