data_PCOD9198176
_publ_section_title
;
Structure prediction by ZEFSAII (Michael W. Deem and Ramdas Pophale) SiO2 
 PCOD9198176
Probable space group: C 2/M
;
_chemical_formula_sum "Si O2"
_cell_formula_units_Z 52
_cell_length_a 20.728711
_cell_length_b 12.941994
_cell_length_c 20.934482
_cell_angle_alpha 90.000000
_cell_angle_beta 150.691669
_cell_angle_gamma 90.000000
_cell_volume 2749.138447
_symmetry_space_group_name_H-M "C 2/M"
_symmetry_group_IT_number 12
_symmetry_cell_setting 'monoclinic'
loop_
_space_group_symop_operation_xyz
x,y,z
-x,y,-z
-x,-y,-z
x,-y,z
1/2+x,1/2+y,z
1/2-x,1/2+y,-z
1/2-x,1/2-y,-z
1/2+x,1/2-y,z
loop_
_atom_site_type_symbol
_atom_site_label
_atom_site_fract_x
_atom_site_fract_y
_atom_site_fract_z
Si Si1 0.500000 0.196519 0.000000
Si Si2 0.745288 0.698280 0.151150
Si Si3 0.430257 0.120580 0.800599
Si Si4 0.921499 0.114422 0.249781
Si Si5 0.121906 0.800384 0.919416
Si Si6 0.688302 0.717090 0.516047
Si Si7 0.512175 0.880036 0.437724
O O1 0.628927 0.266174 0.097300
O O2 0.539831 0.132858 0.097862
O O3 0.819068 0.802374 0.189541
O O4 0.865762 0.632516 0.282067
O O5 0.669361 0.647972 0.025720
O O6 0.529168 0.203351 0.854565
O O7 0.291727 0.162596 0.653060
O O8 0.448297 0.000000 0.798523
O O9 0.932748 0.127689 0.183066
O O10 0.066217 0.139965 0.400146
O O11 0.877208 0.000000 0.228156
O O12 0.250000 0.750000 0.000000
O O13 0.750000 0.750000 0.500000
O O14 0.619005 0.815665 0.489854
O O15 0.500000 0.840825 0.500000
O O16 0.549727 0.000000 0.471389
#
# Coordination Sequence:
#
# PCOD9198176 Si02
#       7
#     4   8   8   8   8   8   8
#     4  10  21  38  61  86 120 158 199 250 295 356
#     4   9  20  37  58  84 117 153 196 244 294 349
#     4  11  22  37  59  86 118 156 197 243 299 362
#     4  10  20  36  56  82 117 152 191 241 300 360
#     4   9  19  35  51  79 113 149 190 236 290 348
#     4  11  22  40  60  90 123 155 203 258 310 361
#     4  10  22  41  64  88 120 164 207 249 306 370
#
# _framework density 18.915018
#
# number of rings (size 3 to 8) (size 9 to 14) (size 15 to 20)
#    0.000    2.000    1.538    1.615    0.000    8.000 
#    0.000    0.385    0.000    5.077    0.000    0.000 
#    0.000    0.000    0.000    0.000    0.000    0.000 
#
# Total GULP energy -144875.061884 kJ/mol
# GULP energy per Si atom -5572.117765 kJ/mol
# Density = 1.887197 g / cm^3
# Si number density = 18.915018 Si / 1000 Ang^3
#
#
#
# Elastic Constant Matrix: (Units=GPa)
#
#
# Indices 1 2 3 4 5 6 
#
# 1 88.6719 23.1111 25.1143 0.0000 6.8364 0.0000
# 2 23.1111 45.3982 12.9321 0.0000 -8.3855 0.0000
# 3 25.1143 12.9321 116.8330 0.0000 1.1906 0.0000
# 4 0.0000 0.0000 0.0000 1.1076 0.0000 -7.8195
# 5 6.8364 -8.3855 1.1906 0.0000 22.7025 0.0000
# 6 0.0000 0.0000 0.0000 -7.8195 0.0000 14.0911
#
#
#
# Elastic Compliance Matrix: (Units=1/GPa)
#
#
# Indices 1 2 3 4 5 6 
#
# 1 0.014575 -0.008151 -0.002156 0.000000 -0.007287 0.000000
# 2 -0.008151 0.029087 -0.001603 0.000000 0.013282 0.000000
# 3 -0.002156 -0.001603 0.009205 0.000000 -0.000425 0.000000
# 4 0.000000 0.000000 0.000000 -0.309438 0.000000 -0.171715
# 5 -0.007287 0.013282 -0.000425 0.000000 0.051171 0.000000
# 6 0.000000 0.000000 0.000000 -0.171715 0.000000 -0.024322
#
#
# Mechanical properties :
#
#
# Convention : Reuss Voigt Hill
#
# Bulk Modulus (GPa) = 34.42918 41.46868 37.94893
# Shear Modulus (GPa) = -25.48141 20.22995 -2.62573
#
# Velocity S-wave (km/s) = -3.67434 3.27390 -1.17949
# Velocity P-wave (km/s) = 0.49044 6.02183 4.27218
#
# Compressibility (1/GPa) = 0.02904513
#
# Stress axis : x y z
#
# Youngs Moduli (GPa) = 68.61267 34.37989 108.64238
#
# Poissons Ratio (x) = 0.28024 0.23428
# Poissons Ratio (y) = 0.55927 0.17413
# Poissons Ratio (z) = 0.14796 0.05510
#
# Static dielectric constant tensor:
#      x y z
#    x 1.673800 0.000000 -0.034540 
#    y 0.000000 1.631710 0.000000 
#    z -0.034540 0.000000 1.652020 
# 
# From -- ./inp_files/321572.got.cif
#   From: 2010.05.17/outbox.cif.g08.bks.cpg/sg12_161_cif.got.tgz:321572.got - 2010.06.03 13:09:07.
