data_PCOD9198184
_publ_section_title
;
Structure prediction by ZEFSAII (Michael W. Deem and Ramdas Pophale) SiO2 
 PCOD9198184
Probable space group: C 2/M
;
_chemical_formula_sum "Si O2"
_cell_formula_units_Z 48
_cell_length_a 24.487293
_cell_length_b 12.726881
_cell_length_c 28.281935
_cell_angle_alpha 90.000000
_cell_angle_beta 162.989401
_cell_angle_gamma 90.000000
_cell_volume 2578.516478
_symmetry_space_group_name_H-M "C 2/M"
_symmetry_group_IT_number 12
_symmetry_cell_setting 'monoclinic'
loop_
_space_group_symop_operation_xyz
x,y,z
-x,y,-z
-x,-y,-z
x,-y,z
1/2+x,1/2+y,z
1/2-x,1/2+y,-z
1/2-x,1/2-y,-z
1/2+x,1/2-y,z
loop_
_atom_site_type_symbol
_atom_site_label
_atom_site_fract_x
_atom_site_fract_y
_atom_site_fract_z
Si Si1 0.443851 0.500000 0.008997
Si Si2 0.659712 0.681714 0.312045
Si Si3 0.417458 0.381686 0.545588
Si Si4 0.059302 0.190934 0.331723
Si Si5 0.174013 0.623364 0.110982
Si Si6 0.685529 0.701943 0.044288
Si Si7 0.681785 0.000000 0.617583
O O1 0.637930 0.500000 0.198790
O O2 0.500000 0.500000 0.000000
O O3 0.330417 0.602335 0.933526
O O4 0.767990 0.792480 0.408798
O O5 0.589795 0.641916 0.305492
O O6 0.796188 0.601011 0.398236
O O7 0.474535 0.691637 0.127177
O O8 0.363195 0.500000 0.486530
O O9 0.456854 0.380138 0.634958
O O10 0.624923 0.354313 0.698326
O O11 0.250000 0.250000 0.500000
O O12 0.888851 0.274451 0.190605
O O13 0.173492 0.500000 0.099147
O O14 0.148966 0.695106 0.044915
O O15 0.000000 0.646003 0.000000
O O16 0.500000 0.000000 0.500000
#
# Coordination Sequence:
#
# PCOD9198184 Si02
#       7
#     4   8   8   8   8   8   4
#     4  10  22  38  58  86 118 154 195 236 283 342
#     4  10  21  37  57  82 115 150 187 235 289 341
#     4   9  19  35  55  83 112 144 192 232 277 340
#     4   9  19  36  55  80 109 147 187 230 280 336
#     4   9  18  34  55  78 107 145 186 232 283 336
#     4  10  20  36  56  83 115 146 191 234 286 342
#     4  10  24  40  58  86 118 154 191 234 291 344
#
# _framework density 18.615355000000001
#
# number of rings (size 3 to 8) (size 9 to 14) (size 15 to 20)
#    0.000    2.500    0.000    1.000    1.167    7.333 
#    6.000    0.000    0.000    3.500    0.000    0.000 
#    0.000    0.000    0.000    0.000    0.000    0.000 
#
# Total GULP energy -133659.900977 kJ/mol
# GULP energy per Si atom -5569.162541 kJ/mol
# Density = 1.857299 g / cm^3
# Si number density = 18.615355 Si / 1000 Ang^3
#
#
#
# Elastic Constant Matrix: (Units=GPa)
#
#
# Indices 1 2 3 4 5 6 
#
# 1 114.5120 42.8257 48.2000 0.0123 15.4034 0.0053
# 2 42.8257 42.0893 42.6522 -0.0511 3.1907 0.0162
# 3 48.2000 42.6522 82.5422 0.0003 16.1349 0.0223
# 4 0.0123 -0.0511 0.0003 21.8409 -0.0025 -1.4398
# 5 15.4034 3.1907 16.1349 -0.0025 38.2350 0.0033
# 6 0.0053 0.0162 0.0223 -1.4398 0.0033 21.9929
#
#
#
# Elastic Compliance Matrix: (Units=1/GPa)
#
#
# Indices 1 2 3 4 5 6 
#
# 1 0.014918 -0.014533 -0.000287 -0.000043 -0.004676 0.000005
# 2 -0.014533 0.065987 -0.027988 0.000164 0.012159 -0.000008
# 3 -0.000287 -0.027988 0.028627 -0.000068 -0.009629 -0.000011
# 4 -0.000043 0.000164 -0.000068 0.045984 0.000035 0.003010
# 5 -0.004676 0.012159 -0.009629 0.000035 0.031087 0.000000
# 6 0.000005 -0.000008 -0.000011 0.003010 0.000000 0.045666
#
#
# Mechanical properties :
#
#
# Convention : Reuss Voigt Hill
#
# Bulk Modulus (GPa) = 41.81418 56.27771 49.04595
# Shear Modulus (GPa) = 15.34412 23.44481 19.39446
#
# Velocity S-wave (km/s) = 2.87413 3.55270 3.23128
# Velocity P-wave (km/s) = 5.79009 6.86487 6.35026
#
# Compressibility (1/GPa) = 0.02391533
#
# Stress axis : x y z
#
# Youngs Moduli (GPa) = 67.03401 15.15453 34.93167
#
# Poissons Ratio (x) = 0.22024 0.01004
# Poissons Ratio (y) = 0.97421 0.97766
# Poissons Ratio (z) = 0.01927 0.42414
#
# Static dielectric constant tensor:
#      x y z
#    x 1.704690 0.000000 0.012720 
#    y 0.000000 1.637880 -0.000010 
#    z 0.012720 -0.000010 1.643440 
# 
# From -- ./inp_files/367962.got.cif
#   From: 2010.05.17/outbox.cif.g08.bks.cpg/sg12_184_cif.got.tgz:367962.got - 2010.06.03 13:09:07.
