data_PCOD9198426
_publ_section_title
;
Structure prediction by ZEFSAII (Michael W. Deem and Ramdas Pophale) SiO2 
 PCOD9198426
Probable space group: C 2/M
;
_chemical_formula_sum "Si O2"
_cell_formula_units_Z 56
_cell_length_a 30.605718
_cell_length_b 8.650288
_cell_length_c 18.375502
_cell_angle_alpha 90.000000
_cell_angle_beta 141.368151
_cell_angle_gamma 90.000000
_cell_volume 3037.213858
_symmetry_space_group_name_H-M "C 2/M"
_symmetry_group_IT_number 12
_symmetry_cell_setting 'monoclinic'
loop_
_space_group_symop_operation_xyz
x,y,z
-x,y,-z
-x,-y,-z
x,-y,z
1/2+x,1/2+y,z
1/2-x,1/2+y,-z
1/2-x,1/2-y,-z
1/2+x,1/2-y,z
loop_
_atom_site_type_symbol
_atom_site_label
_atom_site_fract_x
_atom_site_fract_y
_atom_site_fract_z
Si Si1 0.700252 0.316159 0.212441
Si Si2 0.545677 0.815164 0.987395
Si Si3 0.559346 0.178219 0.640468
Si Si4 0.704852 0.816402 0.374992
Si Si5 0.938673 0.313378 0.586057
Si Si6 0.066246 0.816732 0.259266
Si Si7 0.164365 0.817261 0.672071
O O1 0.694529 0.500000 0.203392
O O2 0.724168 0.261592 0.323908
O O3 0.759326 0.257469 0.234016
O O4 0.624817 0.240812 0.100228
O O5 0.507813 0.731817 0.870999
O O6 0.543902 0.000000 0.975352
O O7 0.500000 0.777488 0.000000
O O8 0.500000 0.180628 0.500000
O O9 0.515751 0.227576 0.654600
O O10 0.622922 0.277229 0.692235
O O11 0.581748 0.000000 0.677863
O O12 0.750000 0.750000 0.500000
O O13 0.625021 0.772375 0.289287
O O14 0.713336 0.000000 0.380771
O O15 0.934291 0.500000 0.584488
O O16 0.927238 0.238114 0.649262
O O17 0.882107 0.254393 0.453986
O O18 0.077513 0.000000 0.268058
O O19 0.168940 0.000000 0.668105
#
# Coordination Sequence:
#
# PCOD9198426 Si02
#       7
#     8   8   8   8   8   8   8
#     4  12  24  39  59  82 111 147 189 234 278 332
#     4  11  23  41  63  83 108 145 190 237 280 330
#     4   8  16  32  54  80 112 150 188 227 276 334
#     4  12  24  39  56  80 113 148 184 227 281 335
#     4  10  20  36  57  83 117 153 189 231 281 335
#     4  12  24  38  58  84 113 147 188 232 278 333
#     4  11  21  34  55  85 119 151 187 231 282 338
#
# _framework density 18.437951000000002
#
# number of rings (size 3 to 8) (size 9 to 14) (size 15 to 20)
#    0.000    1.143    1.429    7.714    0.000    3.714 
#    0.000    0.000    0.000    0.857    0.000    0.000 
#    0.000    0.000    0.000    0.000    0.000    0.000 
#
# Total GULP energy -156523.507950 kJ/mol
# GULP energy per Si atom -5590.125284 kJ/mol
# Density = 1.839599 g / cm^3
# Si number density = 18.437951 Si / 1000 Ang^3
#
#
#
# Elastic Constant Matrix: (Units=GPa)
#
#
# Indices 1 2 3 4 5 6 
#
# 1 65.9770 13.0089 -4.7492 0.0000 22.9434 0.0000
# 2 13.0089 77.1449 2.4615 0.0000 8.1316 0.0000
# 3 -4.7492 2.4615 51.1310 0.0000 18.0948 0.0000
# 4 0.0000 0.0000 0.0000 30.0347 0.0000 2.8858
# 5 22.9434 8.1316 18.0948 0.0000 24.1289 0.0000
# 6 0.0000 0.0000 0.0000 2.8858 0.0000 28.8788
#
#
#
# Elastic Compliance Matrix: (Units=1/GPa)
#
#
# Indices 1 2 3 4 5 6 
#
# 1 0.032058 -0.001364 0.018606 0.000000 -0.043976 0.000000
# 2 -0.001364 0.013562 0.000516 0.000000 -0.003660 0.000000
# 3 0.018606 0.000516 0.037548 0.000000 -0.046024 0.000000
# 4 0.000000 0.000000 0.000000 0.033618 0.000000 -0.003359
# 5 -0.043976 -0.003660 -0.046024 0.000000 0.119007 0.000000
# 6 0.000000 0.000000 0.000000 -0.003359 0.000000 0.034963
#
#
# Mechanical properties :
#
#
# Convention : Reuss Voigt Hill
#
# Bulk Modulus (GPa) = 8.42583 23.96617 16.19600
# Shear Modulus (GPa) = 18.19492 28.84392 23.51942
#
# Velocity S-wave (km/s) = 3.14478 3.95951 3.57543
# Velocity P-wave (km/s) = 4.21496 5.82496 5.08410
#
# Compressibility (1/GPa) = 0.11868271
#
# Stress axis : x y z
#
# Youngs Moduli (GPa) = 31.19387 73.73548 26.63227
#
# Poissons Ratio (x) = 0.10059 -0.49552
# Poissons Ratio (y) = 0.04255 -0.01373
# Poissons Ratio (z) = -0.58039 -0.03802
#
# Static dielectric constant tensor:
#      x y z
#    x 1.654120 0.000000 0.016170 
#    y 0.000000 1.608780 0.000000 
#    z 0.016170 0.000000 1.636870 
# 
# From -- ./inp_files/292591.got.cif
#   From: 2010.05.17/outbox.cif.g08.bks.cpg/sg12_147_cif.got.tgz:292591.got - 2010.06.03 13:09:07.
