data_PCOD9198312
_publ_section_title
;
Structure prediction by ZEFSAII (Michael W. Deem and Ramdas Pophale) SiO2 
 PCOD9198312
Probable space group: C 2/M
;
_chemical_formula_sum "Si O2"
_cell_formula_units_Z 64
_cell_length_a 18.722387
_cell_length_b 8.013154
_cell_length_c 31.519525
_cell_angle_alpha 90.000000
_cell_angle_beta 41.445779
_cell_angle_gamma 90.000000
_cell_volume 3129.997296
_symmetry_space_group_name_H-M "C 2/M"
_symmetry_group_IT_number 12
_symmetry_cell_setting 'monoclinic'
loop_
_space_group_symop_operation_xyz
x,y,z
-x,y,-z
-x,-y,-z
x,-y,z
1/2+x,1/2+y,z
1/2-x,1/2+y,-z
1/2-x,1/2-y,-z
1/2+x,1/2-y,z
loop_
_atom_site_type_symbol
_atom_site_label
_atom_site_fract_x
_atom_site_fract_y
_atom_site_fract_z
Si Si1 0.312819 0.297823 0.814199
Si Si2 0.941848 0.204159 0.310858
Si Si3 0.259693 0.198438 0.931516
Si Si4 0.833101 0.305578 0.199126
Si Si5 0.429700 0.304292 0.923210
Si Si6 0.026201 0.197542 0.441785
Si Si7 0.232639 0.194931 0.679999
Si Si8 0.372295 0.298333 0.435549
O O1 0.310951 0.500000 0.815598
O O2 0.436967 0.242847 0.754478
O O3 0.264069 0.236683 0.880123
O O4 0.243483 0.242339 0.804534
O O5 0.854564 0.260403 0.315051
O O6 0.908658 0.259488 0.372740
O O7 0.942215 0.000000 0.310172
O O8 0.360113 0.280809 0.911319
O O9 0.267838 0.000000 0.934902
O O10 0.150059 0.255198 0.003775
O O11 0.807042 0.500000 0.217785
O O12 0.812746 0.215012 0.252512
O O13 0.957187 0.287592 0.130366
O O14 0.452178 0.500000 0.919327
O O15 0.151581 0.219828 0.375673
O O16 0.000000 0.268827 0.500000
O O17 0.951444 0.265941 0.437325
O O18 0.002454 0.000000 0.454185
O O19 0.249460 0.000000 0.663366
O O20 0.379215 0.500000 0.431639
O O21 0.250000 0.250000 0.500000
#
# Coordination Sequence:
#
# PCOD9198312 Si02
#       8
#     8   8   8   8   8   8   8   8
#     4  10  21  38  59  81 111 151 189 230 285 346
#     4   9  19  36  56  78 106 143 183 224 277 335
#     4  10  21  37  59  86 114 147 189 236 284 338
#     4  11  23  38  58  84 114 150 192 236 286 344
#     4  10  21  38  59  83 115 152 189 233 285 339
#     4  10  21  37  57  82 114 150 186 229 283 340
#     4  11  22  36  58  84 110 145 189 237 287 340
#     4  10  20  36  57  80 110 145 182 226 275 329
#
# _framework density 20.447302000000001
#
# number of rings (size 3 to 8) (size 9 to 14) (size 15 to 20)
#    0.000    1.875    0.000    3.750    0.000    6.750 
#    0.000    4.375    0.000    0.000    0.000    0.000 
#    0.000    0.000    0.000    0.000    0.000    0.000 
#
# Total GULP energy -178847.447001 kJ/mol
# GULP energy per Si atom -5588.982719 kJ/mol
# Density = 2.040076 g / cm^3
# Si number density = 20.447302 Si / 1000 Ang^3
#
#
#
# Elastic Constant Matrix: (Units=GPa)
#
#
# Indices 1 2 3 4 5 6 
#
# 1 177.5617 -3.1725 84.8643 0.0027 10.3904 0.0152
# 2 -3.1725 12.2023 -9.5222 0.0072 5.5886 0.0338
# 3 84.8643 -9.5222 113.3794 0.0020 8.3847 0.0140
# 4 0.0027 0.0072 0.0020 27.2123 0.0010 -6.9843
# 5 10.3904 5.5886 8.3847 0.0010 38.2680 0.0080
# 6 0.0152 0.0338 0.0140 -6.9843 0.0080 -19.1932
#
#
#
# Elastic Compliance Matrix: (Units=1/GPa)
#
#
# Indices 1 2 3 4 5 6 
#
# 1 0.008884 -0.002804 -0.006848 0.000000 -0.000502 -0.000003
# 2 -0.002804 0.097496 0.011470 0.000017 -0.015990 0.000165
# 3 -0.006848 0.011470 0.015141 0.000003 -0.003133 0.000024
# 4 0.000000 0.000017 0.000003 0.033609 -0.000001 -0.012230
# 5 -0.000502 -0.015990 -0.003133 -0.000001 0.029289 -0.000018
# 6 -0.000003 0.000165 0.000024 -0.012230 -0.000018 -0.047651
#
#
# Mechanical properties :
#
#
# Convention : Reuss Voigt Hill
#
# Bulk Modulus (GPa) = 7.99005 49.72028 28.85517
# Shear Modulus (GPa) = 28.59555 24.65568 26.62562
#
# Velocity S-wave (km/s) = 3.74371 3.47625 3.61246
# Velocity P-wave (km/s) = 4.75429 6.36251 5.61626
#
# Compressibility (1/GPa) = 0.12515560
#
# Stress axis : x y z
#
# Youngs Moduli (GPa) = 112.56001 10.25682 66.04695
#
# Poissons Ratio (x) = 0.02876 0.45230
# Poissons Ratio (y) = 0.31564 -0.75754
# Poissons Ratio (z) = 0.77083 -0.11764
#
# Static dielectric constant tensor:
#      x y z
#    x 1.703780 0.000000 0.010460 
#    y 0.000000 1.745020 0.000000 
#    z 0.010460 0.000000 1.686720 
# 
# From -- ./inp_files/378119.got.cif
#   From: 2010.05.17/outbox.cif.g08.bks.cpg/sg12_190_cif.got.tgz:378119.got - 2010.06.03 13:09:07.
