data_PCOD9198335
_publ_section_title
;
Structure prediction by ZEFSAII (Michael W. Deem and Ramdas Pophale) SiO2 
 PCOD9198335
Probable space group: C 2/M
;
_chemical_formula_sum "Si O2"
_cell_formula_units_Z 64
_cell_length_a 24.082051
_cell_length_b 7.560167
_cell_length_c 15.190697
_cell_angle_alpha 90.000000
_cell_angle_beta 88.543791
_cell_angle_gamma 90.000000
_cell_volume 2764.790825
_symmetry_space_group_name_H-M "C 2/M"
_symmetry_group_IT_number 12
_symmetry_cell_setting 'monoclinic'
loop_
_space_group_symop_operation_xyz
x,y,z
-x,y,-z
-x,-y,-z
x,-y,z
1/2+x,1/2+y,z
1/2-x,1/2+y,-z
1/2-x,1/2-y,-z
1/2+x,1/2-y,z
loop_
_atom_site_type_symbol
_atom_site_label
_atom_site_fract_x
_atom_site_fract_y
_atom_site_fract_z
Si Si1 0.563732 0.785917 0.009759
Si Si2 0.384886 0.290867 0.803003
Si Si3 0.144725 0.282346 0.849895
Si Si4 0.773734 0.709931 0.595812
Si Si5 0.760869 0.205259 0.789475
Si Si6 0.899483 0.701976 0.333681
Si Si7 0.974867 0.793481 0.661415
Si Si8 0.610511 0.785393 0.473921
O O1 0.604902 0.725356 0.930433
O O2 0.562509 0.000000 0.007498
O O3 0.500000 0.725076 0.000000
O O4 0.589301 0.731392 0.101802
O O5 0.380510 0.500000 0.782835
O O6 0.322344 0.215566 0.799763
O O7 0.429508 0.218197 0.731563
O O8 0.144219 0.500000 0.850934
O O9 0.208888 0.222674 0.846671
O O10 0.120044 0.220563 0.757467
O O11 0.772496 0.500000 0.606661
O O12 0.750000 0.750000 0.500000
O O13 0.747036 0.786151 0.685385
O O14 0.837689 0.772106 0.587648
O O15 0.765133 0.000000 0.814510
O O16 0.879013 0.500000 0.335290
O O17 0.881063 0.782691 0.427302
O O18 0.966129 0.701963 0.334175
O O19 0.946101 0.775500 0.567893
O O20 0.984619 0.000000 0.680178
O O21 0.609963 0.000000 0.476615
#
# Coordination Sequence:
#
# PCOD9198335 Si02
#       8
#     8   8   8   8   8   8   8   8
#     4  10  21  38  62  90 115 146 192 242 288 342
#     4  10  22  38  58  84 116 154 189 234 297 350
#     4   9  19  37  61  85 112 149 192 236 287 343
#     4  11  22  36  57  84 115 154 199 243 288 338
#     4  10  20  39  61  82 115 155 194 236 288 348
#     4  10  20  36  57  81 110 148 191 236 285 338
#     4  11  22  36  54  81 115 151 189 232 288 344
#     4  10  21  36  55  81 111 148 194 236 280 339
#
# _framework density 23.148225
#
# number of rings (size 3 to 8) (size 9 to 14) (size 15 to 20)
#    0.000    1.875    1.250    2.625    0.000    7.750 
#    0.000    3.125    0.000    0.000    0.000    0.000 
#    0.000    0.000    0.000    0.000    0.000    0.000 
#
# Total GULP energy -178879.689431 kJ/mol
# GULP energy per Si atom -5589.990295 kJ/mol
# Density = 2.309554 g / cm^3
# Si number density = 23.148225 Si / 1000 Ang^3
#
#
#
# Elastic Constant Matrix: (Units=GPa)
#
#
# Indices 1 2 3 4 5 6 
#
# 1 103.4403 0.6119 25.9485 0.0000 -20.3148 0.0000
# 2 0.6119 63.6859 -8.3311 0.0000 -5.6113 0.0000
# 3 25.9485 -8.3311 106.0558 0.0000 -14.9103 0.0000
# 4 0.0000 0.0000 0.0000 20.3551 0.0000 2.1548
# 5 -20.3148 -5.6113 -14.9103 0.0000 45.2715 0.0000
# 6 0.0000 0.0000 0.0000 2.1548 0.0000 7.9911
#
#
#
# Elastic Compliance Matrix: (Units=1/GPa)
#
#
# Indices 1 2 3 4 5 6 
#
# 1 0.011030 -0.000006 -0.002101 0.000000 0.004257 0.000000
# 2 -0.000006 0.016138 0.001625 0.000000 0.002533 0.000000
# 3 -0.002101 0.001625 0.010450 0.000000 0.002701 0.000000
# 4 0.000000 0.000000 0.000000 0.050571 0.000000 -0.013637
# 5 0.004257 0.002533 0.002701 0.000000 0.025203 0.000000
# 6 0.000000 0.000000 0.000000 -0.013637 0.000000 0.128817
#
#
# Mechanical properties :
#
#
# Convention : Reuss Voigt Hill
#
# Bulk Modulus (GPa) = 27.28052 34.40450 30.84251
# Shear Modulus (GPa) = 19.57785 31.72040 25.64913
#
# Velocity S-wave (km/s) = 2.91135 3.70579 3.33233
# Velocity P-wave (km/s) = 4.80750 5.76242 5.30648
#
# Compressibility (1/GPa) = 0.03665620
#
# Stress axis : x y z
#
# Youngs Moduli (GPa) = 90.65777 61.96596 95.69085
#
# Poissons Ratio (x) = 0.00035 0.20102
# Poissons Ratio (y) = 0.00052 -0.15552
# Poissons Ratio (z) = 0.19045 -0.10071
#
# Static dielectric constant tensor:
#      x y z
#    x 1.878450 0.000000 -0.013360 
#    y 0.000000 1.852700 0.000000 
#    z -0.013360 0.000000 1.839080 
# 
# From -- ./inp_files/238612.got.cif
#   From: 2010.05.17/outbox.cif.g08.bks.cpg/sg12_120_cif.got.tgz:238612.got - 2010.06.03 13:09:07.
