data_PCOD9198602
_publ_section_title
;
Structure prediction by ZEFSAII (Michael W. Deem and Ramdas Pophale) SiO2 
 PCOD9198602
Probable space group: C 2/M
;
_chemical_formula_sum "Si O2"
_cell_formula_units_Z 64
_cell_length_a 23.272278
_cell_length_b 11.434732
_cell_length_c 25.589307
_cell_angle_alpha 90.000000
_cell_angle_beta 149.319409
_cell_angle_gamma 90.000000
_cell_volume 3474.623858
_symmetry_space_group_name_H-M "C 2/M"
_symmetry_group_IT_number 12
_symmetry_cell_setting 'monoclinic'
loop_
_space_group_symop_operation_xyz
x,y,z
-x,y,-z
-x,-y,-z
x,-y,z
1/2+x,1/2+y,z
1/2-x,1/2+y,-z
1/2-x,1/2-y,-z
1/2+x,1/2-y,z
loop_
_atom_site_type_symbol
_atom_site_label
_atom_site_fract_x
_atom_site_fract_y
_atom_site_fract_z
Si Si1 0.002190 0.141383 0.876713
Si Si2 0.954931 0.222590 0.304047
Si Si3 0.165034 0.126134 0.691450
Si Si4 0.330421 0.864493 0.486551
Si Si5 0.865705 0.372255 0.392098
Si Si6 0.387247 0.764492 0.883211
Si Si7 0.273659 0.362938 0.888464
Si Si8 0.083477 0.860850 0.303912
O O1 0.921647 0.204450 0.855667
O O2 0.969640 0.178673 0.792738
O O3 0.990003 0.000000 0.871994
O O4 0.131062 0.169650 0.994151
O O5 0.910094 0.139348 0.315278
O O6 0.845035 0.297458 0.202397
O O7 0.057909 0.297684 0.408395
O O8 0.004531 0.164386 0.291099
O O9 0.153101 0.249422 0.651546
O O10 0.296910 0.133341 0.807932
O O11 0.139197 0.000000 0.645819
O O12 0.321611 0.863476 0.416630
O O13 0.210566 0.814365 0.411884
O O14 0.342606 0.000000 0.512517
O O15 0.826146 0.500000 0.339044
O O16 0.000000 0.380889 0.500000
O O17 0.330956 0.669325 0.877875
O O18 0.500000 0.804733 0.000000
O O19 0.253815 0.500000 0.876637
O O20 0.096942 0.000000 0.309214
#
# Coordination Sequence:
#
# PCOD9198602 Si02
#       8
#     8   8   8   8   8   8   8   8
#     4   9  17  33  56  82 108 136 179 234 286 330
#     4  11  21  35  51  74 109 147 186 223 267 330
#     4  11  23  36  54  82 116 152 185 223 277 335
#     4  10  20  36  58  82 104 135 179 230 283 330
#     4  10  20  37  60  86 110 137 179 230 283 334
#     4   9  18  33  55  82 111 142 177 222 278 339
#     4   9  18  31  54  85 110 135 174 233 292 333
#     4  10  21  35  52  72 102 145 190 230 270 323
#
# _framework density 18.419260999999999
#
# number of rings (size 3 to 8) (size 9 to 14) (size 15 to 20)
#    0.000    2.125    1.250    2.250    0.000    6.000 
#    0.000    0.000    0.000    7.500    0.000    0.000 
#    0.000    0.000    0.000    0.000    0.000    0.000 
#
# Total GULP energy -178338.356276 kJ/mol
# GULP energy per Si atom -5573.073634 kJ/mol
# Density = 1.837734 g / cm^3
# Si number density = 18.419261 Si / 1000 Ang^3
#
#
#
# Elastic Constant Matrix: (Units=GPa)
#
#
# Indices 1 2 3 4 5 6 
#
# 1 78.0309 14.1386 41.0701 0.0000 3.7489 0.0000
# 2 14.1386 78.7353 45.9955 0.0000 -3.9611 0.0000
# 3 41.0701 45.9955 105.3924 0.0001 11.0581 0.0000
# 4 0.0000 0.0000 0.0001 10.0428 0.0000 -9.3340
# 5 3.7489 -3.9611 11.0581 0.0000 31.6975 0.0000
# 6 0.0000 0.0000 0.0000 -9.3340 0.0000 10.1476
#
#
#
# Elastic Compliance Matrix: (Units=1/GPa)
#
#
# Indices 1 2 3 4 5 6 
#
# 1 0.016197 0.001139 -0.006874 0.000001 0.000625 0.000001
# 2 0.001139 0.017895 -0.008796 0.000000 0.005170 0.000000
# 3 -0.006874 -0.008796 0.016645 -0.000001 -0.006093 -0.000001
# 4 0.000001 0.000000 -0.000001 0.686314 0.000000 0.631290
# 5 0.000625 0.005170 -0.006093 0.000000 0.034246 0.000000
# 6 0.000001 0.000000 -0.000001 0.631290 0.000000 0.679223
#
#
# Mechanical properties :
#
#
# Convention : Reuss Voigt Hill
#
# Bulk Modulus (GPa) = 46.13777 51.61853 48.87815
# Shear Modulus (GPa) = 3.36291 21.10787 12.23539
#
# Velocity S-wave (km/s) = 1.35267 3.38889 2.58014
# Velocity P-wave (km/s) = 5.24811 6.58770 5.95569
#
# Compressibility (1/GPa) = 0.02167422
#
# Stress axis : x y z
#
# Youngs Moduli (GPa) = 61.73867 55.88226 60.07726
#
# Poissons Ratio (x) = -0.06364 0.41300
# Poissons Ratio (y) = -0.07031 0.52843
# Poissons Ratio (z) = 0.42442 0.49153
#
# Static dielectric constant tensor:
#      x y z
#    x 1.628760 0.000000 -0.007350 
#    y 0.000000 1.643850 0.000000 
#    z -0.007350 0.000000 1.690600 
# 
# From -- ./inp_files/367822.got.cif
#   From: 2010.05.17/outbox.cif.g08.bks.cpg/sg12_184_cif.got.tgz:367822.got - 2010.06.03 13:09:07.
