data_PCOD9198817
_publ_section_title
;
Structure prediction by ZEFSAII (Michael W. Deem and Ramdas Pophale) SiO2 
 PCOD9198817
Probable space group: C 2/M
;
_chemical_formula_sum "Si O2"
_cell_formula_units_Z 40
_cell_length_a 19.145024
_cell_length_b 7.840201
_cell_length_c 28.901117
_cell_angle_alpha 90.000000
_cell_angle_beta 24.628587
_cell_angle_gamma 90.000000
_cell_volume 1807.827896
_symmetry_space_group_name_H-M "C 2/M"
_symmetry_group_IT_number 12
_symmetry_cell_setting 'monoclinic'
loop_
_space_group_symop_operation_xyz
x,y,z
-x,y,-z
-x,-y,-z
x,-y,z
1/2+x,1/2+y,z
1/2-x,1/2+y,-z
1/2-x,1/2-y,-z
1/2+x,1/2-y,z
loop_
_atom_site_type_symbol
_atom_site_label
_atom_site_fract_x
_atom_site_fract_y
_atom_site_fract_z
Si Si1 0.618092 0.206680 0.884672
Si Si2 0.831456 0.307032 0.997974
Si Si3 0.017155 0.695529 0.238824
Si Si4 0.991107 0.000000 0.426347
Si Si5 0.272461 0.000000 0.330975
Si Si6 0.501733 0.195631 0.348560
O O1 0.796643 0.294214 0.778164
O O2 0.647099 0.000000 0.865145
O O3 0.500000 0.234694 0.000000
O O4 0.501439 0.275892 0.913431
O O5 0.881550 0.500000 0.960900
O O6 0.681300 0.296760 0.125586
O O7 0.750000 0.250000 0.000000
O O8 0.074472 0.500000 0.212928
O O9 0.938929 0.750187 0.334877
O O10 0.888860 0.664733 0.273329
O O11 0.964465 0.834071 0.410390
O O12 0.173813 0.000000 0.342112
O O13 0.860993 0.000000 0.546826
O O14 0.449585 0.000000 0.389655
#
# Coordination Sequence:
#
# PCOD9198817 Si02
#       6
#     8   8   8   4   4   8
#     4  10  20  36  58  85 126 171 209 250 307 377
#     4  11  23  35  57  89 128 174 213 250 313 383
#     4   9  21  41  60  87 130 159 209 266 315 379
#     4  11  24  46  75  90 125 171 218 271 340 385
#     4   9  24  48  68  89 127 175 201 276 346 379
#     4  11  23  39  66 100 126 166 218 270 318 387
#
# _framework density 22.126000000000001
#
# number of rings (size 3 to 8) (size 9 to 14) (size 15 to 20)
#    0.600    1.200    3.000    0.600    4.200    2.800 
#    0.000    3.000    0.000    0.000    0.000    0.000 
#    0.000    0.000    0.000    0.000    0.000    0.000 
#
# Total GULP energy -111556.864552 kJ/mol
# GULP energy per Si atom -5577.843228 kJ/mol
# Density = 2.207564 g / cm^3
# Si number density = 22.126000 Si / 1000 Ang^3
#
#
#
# Elastic Constant Matrix: (Units=GPa)
#
#
# Indices 1 2 3 4 5 6 
#
# 1 108.6383 16.3353 6.8357 0.0050 1.5245 -0.0080
# 2 16.3353 54.4496 0.4170 0.0067 12.5968 -0.0050
# 3 6.8357 0.4170 56.2908 -0.0054 -2.3206 0.0009
# 4 0.0050 0.0067 -0.0054 21.1030 -0.0013 9.1057
# 5 1.5245 12.5968 -2.3206 -0.0013 41.1758 0.0031
# 6 -0.0080 -0.0050 0.0009 9.1057 0.0031 26.8363
#
#
#
# Elastic Compliance Matrix: (Units=1/GPa)
#
#
# Indices 1 2 3 4 5 6 
#
# 1 0.009724 -0.003025 -0.001138 -0.000003 0.000501 0.000003
# 2 -0.003025 0.020714 -0.000043 -0.000009 -0.006227 0.000007
# 3 -0.001138 -0.000043 0.017947 0.000006 0.001067 -0.000003
# 4 -0.000003 -0.000009 0.000006 0.055514 0.000006 -0.018836
# 5 0.000501 -0.006227 0.001067 0.000006 0.026233 -0.000006
# 6 0.000003 0.000007 -0.000003 -0.018836 -0.000006 0.043654
#
#
# Mechanical properties :
#
#
# Convention : Reuss Voigt Hill
#
# Bulk Modulus (GPa) = 25.01555 29.61718 27.31637
# Shear Modulus (GPa) = 25.57249 30.87572 28.22410
#
# Velocity S-wave (km/s) = 3.40334 3.73962 3.57544
# Velocity P-wave (km/s) = 5.17438 5.66226 5.42380
#
# Compressibility (1/GPa) = 0.03997513
#
# Stress axis : x y z
#
# Youngs Moduli (GPa) = 102.83614 48.27639 55.71851
#
# Poissons Ratio (x) = 0.14602 0.06340
# Poissons Ratio (y) = 0.31104 0.00239
# Poissons Ratio (z) = 0.11701 0.00207
#
# Static dielectric constant tensor:
#      x y z
#    x 2.874600 0.000000 -0.413830 
#    y 0.000000 1.765200 0.000000 
#    z -0.413830 0.000000 2.030260 
# 
# From -- ./inp_files/362601.got.cif
#   From: 2010.05.17/outbox.cif.g08.bks.cpg/sg12_182_cif.got.tgz:362601.got - 2010.06.03 13:09:07.
