data_PCOD9198520
_publ_section_title
;
Structure prediction by ZEFSAII (Michael W. Deem and Ramdas Pophale) SiO2 
 PCOD9198520
Probable space group: C 2/M
;
_chemical_formula_sum "Si O2"
_cell_formula_units_Z 64
_cell_length_a 11.371837
_cell_length_b 19.997935
_cell_length_c 14.353226
_cell_angle_alpha 90.000000
_cell_angle_beta 83.692280
_cell_angle_gamma 90.000000
_cell_volume 3244.353455
_symmetry_space_group_name_H-M "C 2/M"
_symmetry_group_IT_number 12
_symmetry_cell_setting 'monoclinic'
loop_
_space_group_symop_operation_xyz
x,y,z
-x,y,-z
-x,-y,-z
x,-y,z
1/2+x,1/2+y,z
1/2-x,1/2+y,-z
1/2-x,1/2-y,-z
1/2+x,1/2-y,z
loop_
_atom_site_type_symbol
_atom_site_label
_atom_site_fract_x
_atom_site_fract_y
_atom_site_fract_z
Si Si1 0.777611 0.081213 0.872167
Si Si2 0.200236 0.929573 0.718601
Si Si3 0.153286 0.695999 0.246515
Si Si4 0.460385 0.602495 0.101110
Si Si5 0.984096 0.869412 0.399629
Si Si6 0.750472 0.822384 0.044708
Si Si7 0.743112 0.336497 0.300129
Si Si8 0.441888 0.216072 0.405249
O O1 0.719281 0.110939 0.783292
O O2 0.915422 0.106546 0.856447
O O3 0.773924 0.000000 0.877653
O O4 0.731808 0.119250 0.969365
O O5 0.284814 0.866505 0.709673
O O6 0.135010 0.931224 0.824359
O O7 0.095324 0.916024 0.656352
O O8 0.261017 0.000000 0.696023
O O9 0.156643 0.678045 0.137108
O O10 0.229221 0.763570 0.253418
O O11 0.031738 0.707728 0.310719
O O12 0.383038 0.666393 0.075891
O O13 0.500000 0.570482 0.000000
O O14 0.113685 0.857024 0.346926
O O15 0.921789 0.796147 0.414106
O O16 0.000000 0.898432 0.500000
O O17 0.750000 0.750000 0.000000
O O18 0.827761 0.324888 0.381641
O O19 0.500000 0.196580 0.500000
#
# Coordination Sequence:
#
# PCOD9198520 Si02
#       8
#     8   8   8   8   8   8   8   8
#     4  11  22  38  61  93 128 163 203 255 321 378
#     4  11  21  36  57  88 125 158 198 254 312 369
#     4  10  22  38  62  90 124 163 212 251 305 369
#     4   9  20  33  56  87 123 155 197 240 308 366
#     4  10  22  35  60  93 123 154 200 255 319 372
#     4  10  20  36  57  90 127 167 203 246 299 365
#     4  11  21  39  65  91 127 159 206 263 311 375
#     4  10  23  40  65  91 118 163 213 265 314 374
#
# _framework density 19.726579999999998
#
# number of rings (size 3 to 8) (size 9 to 14) (size 15 to 20)
#    0.000    1.750    3.750    0.375    1.750    8.750 
#    2.250    1.250    0.000    1.500    0.000    0.000 
#    0.000    0.000    0.000    0.000    0.000    0.000 
#
# Total GULP energy -178319.891156 kJ/mol
# GULP energy per Si atom -5572.496599 kJ/mol
# Density = 1.968168 g / cm^3
# Si number density = 19.726580 Si / 1000 Ang^3
#
#
#
# Elastic Constant Matrix: (Units=GPa)
#
#
# Indices 1 2 3 4 5 6 
#
# 1 7.9727 16.9476 5.1090 0.0000 9.8922 0.0000
# 2 16.9476 116.8583 32.6076 0.0000 11.0751 0.0000
# 3 5.1090 32.6076 88.7119 0.0000 10.6708 0.0000
# 4 0.0000 0.0000 0.0000 259.5275 0.0000 211.7230
# 5 9.8922 11.0751 10.6708 0.0000 27.5021 0.0000
# 6 0.0000 0.0000 0.0000 211.7230 0.0000 142.5542
#
#
#
# Elastic Compliance Matrix: (Units=1/GPa)
#
#
# Indices 1 2 3 4 5 6 
#
# 1 0.348686 -0.042479 0.008981 0.000000 -0.111797 0.000000
# 2 -0.042479 0.014891 -0.004347 0.000000 0.010969 0.000000
# 3 0.008981 -0.004347 0.013144 0.000000 -0.006580 0.000000
# 4 0.000000 0.000000 0.000000 -0.018206 0.000000 0.027040
# 5 -0.111797 0.010969 -0.006580 0.000000 0.074709 0.000000
# 6 0.000000 0.000000 0.000000 0.027040 0.000000 -0.033146
#
#
# Mechanical properties :
#
#
# Convention : Reuss Voigt Hill
#
# Bulk Modulus (GPa) = 3.32192 35.87458 19.59825
# Shear Modulus (GPa) = 8.67885 96.50866 52.59376
#
# Velocity S-wave (km/s) = 2.09979 7.00210 5.16907
# Velocity P-wave (km/s) = 2.75072 9.14319 6.75146
#
# Compressibility (1/GPa) = 0.30103099
#
# Stress axis : x y z
#
# Youngs Moduli (GPa) = 2.86791 67.15324 76.07816
#
# Poissons Ratio (x) = 2.85263 -0.68323
# Poissons Ratio (y) = 0.12183 0.33068
# Poissons Ratio (z) = -0.02576 0.29189
#
# Static dielectric constant tensor:
#      x y z
#    x 1.716940 0.000000 0.016770 
#    y 0.000000 1.717310 0.000000 
#    z 0.016770 0.000000 1.736740 
# 
# From -- ./inp_files/206709.got.cif
#   From: 2010.05.17/outbox.cif.g08.bks.cpg/sg12_104_cif.got.tgz:206709.got - 2010.06.03 13:09:07.
