data_PCOD9198774
_publ_section_title
;
Structure prediction by ZEFSAII (Michael W. Deem and Ramdas Pophale) SiO2 
 PCOD9198774
Probable space group: C 2/M
;
_chemical_formula_sum "Si O2"
_cell_formula_units_Z 64
_cell_length_a 24.155065
_cell_length_b 7.789737
_cell_length_c 16.749895
_cell_angle_alpha 90.000000
_cell_angle_beta 109.919302
_cell_angle_gamma 90.000000
_cell_volume 2963.132396
_symmetry_space_group_name_H-M "C 2/M"
_symmetry_group_IT_number 12
_symmetry_cell_setting 'monoclinic'
loop_
_space_group_symop_operation_xyz
x,y,z
-x,y,-z
-x,-y,-z
x,-y,z
1/2+x,1/2+y,z
1/2-x,1/2+y,-z
1/2-x,1/2-y,-z
1/2+x,1/2-y,z
loop_
_atom_site_type_symbol
_atom_site_label
_atom_site_fract_x
_atom_site_fract_y
_atom_site_fract_z
Si Si1 0.358318 0.198296 0.900843
Si Si2 0.728001 0.197081 0.869674
Si Si3 0.048653 0.201964 0.583141
Si Si4 0.386048 0.208162 0.737698
Si Si5 0.984018 0.708256 0.253764
Si Si6 0.232234 0.199395 0.402130
Si Si7 0.175321 0.198644 0.680352
Si Si8 0.119194 0.289081 0.917378
O O1 0.288654 0.205237 0.884731
O O2 0.370981 0.272990 0.819793
O O3 0.377273 0.000000 0.905307
O O4 0.388110 0.271543 0.995283
O O5 0.692761 0.203398 0.768909
O O6 0.682587 0.265285 0.913374
O O7 0.742837 0.000000 0.895695
O O8 0.115320 0.269937 0.612429
O O9 0.000000 0.278712 0.500000
O O10 0.028378 0.223195 0.664191
O O11 0.053358 0.000000 0.565194
O O12 0.451397 0.260187 0.744302
O O13 0.335793 0.267789 0.652119
O O14 0.383681 0.000000 0.737121
O O15 0.982401 0.500000 0.256472
O O16 0.932992 0.763448 0.167330
O O17 0.250000 0.250000 0.500000
O O18 0.272050 0.295676 0.356862
O O19 0.244839 0.000000 0.397032
O O20 0.165389 0.000000 0.699089
O O21 0.120305 0.500000 0.918147
#
# Coordination Sequence:
#
# PCOD9198774 Si02
#       8
#     8   8   8   8   8   8   8   8
#     4  10  20  36  58  84 119 160 199 243 297 355
#     4  11  20  34  57  87 121 154 197 248 300 353
#     4  10  23  41  61  88 119 154 196 243 299 359
#     4  10  22  39  60  88 121 158 203 247 294 353
#     4  10  21  39  60  86 120 156 200 249 294 352
#     4  12  26  43  65  90 122 158 198 246 297 352
#     4  11  22  39  63  90 122 156 197 244 298 358
#     4   9  19  35  57  86 119 156 199 246 295 352
#
# _framework density 21.598763999999999
#
# number of rings (size 3 to 8) (size 9 to 14) (size 15 to 20)
#    0.000    1.625    2.500    2.250    1.750    1.750 
#    0.000    3.750    0.000    0.000    0.000    2.625 
#    0.000    0.000    0.000    0.000    0.000    0.000 
#
# Total GULP energy -178847.080437 kJ/mol
# GULP energy per Si atom -5588.971264 kJ/mol
# Density = 2.154960 g / cm^3
# Si number density = 21.598764 Si / 1000 Ang^3
#
#
#
# Elastic Constant Matrix: (Units=GPa)
#
#
# Indices 1 2 3 4 5 6 
#
# 1 74.1696 -9.4449 -4.1916 0.0000 12.7288 0.0000
# 2 -9.4449 36.9905 -5.0113 0.0000 -0.9301 0.0000
# 3 -4.1916 -5.0113 74.2405 0.0000 23.2930 0.0000
# 4 0.0000 0.0000 0.0000 10.4216 0.0000 -3.3084
# 5 12.7288 -0.9301 23.2930 0.0000 29.0069 0.0000
# 6 0.0000 0.0000 0.0000 -3.3084 0.0000 3.1563
#
#
#
# Elastic Compliance Matrix: (Units=1/GPa)
#
#
# Indices 1 2 3 4 5 6 
#
# 1 0.016120 0.004464 0.004526 0.000000 -0.010565 0.000000
# 2 0.004464 0.028534 0.003349 0.000000 -0.003733 0.000000
# 3 0.004526 0.003349 0.019438 0.000000 -0.017488 0.000000
# 4 0.000000 0.000000 0.000000 0.143805 0.000000 0.150733
# 5 -0.010565 -0.003733 -0.017488 0.000000 0.053034 0.000000
# 6 0.000000 0.000000 0.000000 0.150733 0.000000 0.474823
#
#
# Mechanical properties :
#
#
# Convention : Reuss Voigt Hill
#
# Bulk Modulus (GPa) = 11.26505 16.45612 13.86059
# Shear Modulus (GPa) = 6.75069 22.12018 14.43544
#
# Velocity S-wave (km/s) = 1.76983 3.20369 2.58804
# Velocity P-wave (km/s) = 3.06648 4.61740 3.91942
#
# Compressibility (1/GPa) = 0.08877013
#
# Stress axis : x y z
#
# Youngs Moduli (GPa) = 62.03472 35.04650 51.44497
#
# Poissons Ratio (x) = -0.15643 -0.23286
# Poissons Ratio (y) = -0.27689 -0.17231
# Poissons Ratio (z) = -0.28079 -0.11738
#
# Static dielectric constant tensor:
#      x y z
#    x 1.840850 0.000000 -0.073150 
#    y 0.000000 1.813390 0.000000 
#    z -0.073150 0.000000 1.872940 
# 
# From -- ./inp_files/244194.got.cif
#   From: 2010.05.17/outbox.cif.g08.bks.cpg/sg12_123_cif.got.tgz:244194.got - 2010.06.03 13:09:07.
