data_PCOD9198659
_publ_section_title
;
Structure prediction by ZEFSAII (Michael W. Deem and Ramdas Pophale) SiO2 
 PCOD9198659
Probable space group: C 2/M
;
_chemical_formula_sum "Si O2"
_cell_formula_units_Z 56
_cell_length_a 19.328659
_cell_length_b 8.639256
_cell_length_c 27.048958
_cell_angle_alpha 90.000000
_cell_angle_beta 137.819259
_cell_angle_gamma 90.000000
_cell_volume 3032.886924
_symmetry_space_group_name_H-M "C 2/M"
_symmetry_group_IT_number 12
_symmetry_cell_setting 'monoclinic'
loop_
_space_group_symop_operation_xyz
x,y,z
-x,y,-z
-x,-y,-z
x,-y,z
1/2+x,1/2+y,z
1/2-x,1/2+y,-z
1/2-x,1/2-y,-z
1/2+x,1/2-y,z
loop_
_atom_site_type_symbol
_atom_site_label
_atom_site_fract_x
_atom_site_fract_y
_atom_site_fract_z
Si Si1 0.460624 0.188024 0.923550
Si Si2 0.168255 0.683550 0.305203
Si Si3 0.051525 0.172618 0.810140
Si Si4 0.940048 0.178937 0.300004
Si Si5 0.329799 0.816703 0.581461
Si Si6 0.639579 0.175218 0.945205
Si Si7 0.261835 0.683810 0.760012
O O1 0.551951 0.241898 0.934921
O O2 0.352970 0.255738 0.845325
O O3 0.450997 0.000000 0.915820
O O4 0.500000 0.226262 0.000000
O O5 0.141539 0.500000 0.287367
O O6 0.210023 0.707508 0.383054
O O7 0.228845 0.731567 0.288233
O O8 0.069186 0.794223 0.252003
O O9 0.086087 0.180976 0.772146
O O10 0.097894 0.305631 0.868071
O O11 0.075270 0.000000 0.842154
O O12 0.851150 0.275713 0.279227
O O13 0.056668 0.242529 0.365300
O O14 0.937554 0.000000 0.315389
O O15 0.250000 0.750000 0.500000
O O16 0.340614 0.000000 0.580387
O O17 0.652718 0.000000 0.968275
O O18 0.750000 0.250000 0.000000
O O19 0.274322 0.500000 0.760806
#
# Coordination Sequence:
#
# PCOD9198659 Si02
#       7
#     8   8   8   8   8   8   8
#     4  10  23  42  60  80 113 159 203 246 303 359
#     4  10  20  37  61  87 117 156 195 234 286 349
#     4  10  20  36  58  83 110 147 194 243 293 347
#     4  10  22  39  61  87 120 158 197 240 293 351
#     4  10  21  39  65  95 126 157 195 239 289 349
#     4  11  23  37  56  80 112 150 193 247 299 352
#     4  12  24  38  60  89 121 156 200 251 298 351
#
# _framework density 18.464255000000001
#
# number of rings (size 3 to 8) (size 9 to 14) (size 15 to 20)
#    0.000    1.571    1.429    3.429    2.000    4.286 
#    0.000    0.714    0.000    4.286    0.000    0.000 
#    0.000    0.000    0.000    0.000    0.000    0.000 
#
# Total GULP energy -156108.663758 kJ/mol
# GULP energy per Si atom -5575.309420 kJ/mol
# Density = 1.842223 g / cm^3
# Si number density = 18.464255 Si / 1000 Ang^3
#
#
#
# Elastic Constant Matrix: (Units=GPa)
#
#
# Indices 1 2 3 4 5 6 
#
# 1 100.3946 29.4393 48.4931 0.0000 2.5981 0.0000
# 2 29.4393 69.6806 30.2875 0.0000 -5.2012 0.0000
# 3 48.4931 30.2875 108.4392 0.0000 -7.1760 0.0000
# 4 0.0000 0.0000 0.0000 32.8912 0.0000 1.0298
# 5 2.5981 -5.2012 -7.1760 0.0000 18.0587 0.0000
# 6 0.0000 0.0000 0.0000 1.0298 0.0000 27.3724
#
#
#
# Elastic Compliance Matrix: (Units=1/GPa)
#
#
# Indices 1 2 3 4 5 6 
#
# 1 0.013879 -0.003880 -0.005473 0.000000 -0.005289 0.000000
# 2 -0.003880 0.017575 -0.002878 0.000000 0.004477 0.000000
# 3 -0.005473 -0.002878 0.012807 0.000000 0.005048 0.000000
# 4 0.000000 0.000000 0.000000 0.030439 0.000000 -0.001145
# 5 -0.005289 0.004477 0.005048 0.000000 0.059431 0.000000
# 6 0.000000 0.000000 0.000000 -0.001145 0.000000 0.036576
#
#
# Mechanical properties :
#
#
# Convention : Reuss Voigt Hill
#
# Bulk Modulus (GPa) = 50.50322 54.99492 52.74907
# Shear Modulus (GPa) = 24.78094 27.01741 25.89918
#
# Velocity S-wave (km/s) = 3.66745 3.82937 3.74928
# Velocity P-wave (km/s) = 6.73386 7.02860 6.88281
#
# Compressibility (1/GPa) = 0.01980072
#
# Stress axis : x y z
#
# Youngs Moduli (GPa) = 72.05279 56.89820 78.08249
#
# Poissons Ratio (x) = 0.22074 0.42734
# Poissons Ratio (y) = 0.27953 0.22470
# Poissons Ratio (z) = 0.39434 0.16374
#
# Static dielectric constant tensor:
#      x y z
#    x 1.643990 0.000000 -0.088180 
#    y 0.000000 1.640800 0.000000 
#    z -0.088180 0.000000 1.084230 
# 
# From -- ./inp_files/363160.got.cif
#   From: 2010.05.17/outbox.cif.g08.bks.cpg/sg12_182_cif.got.tgz:363160.got - 2010.06.03 13:09:07.
