data_PCOD9198330
_publ_section_title
;
Structure prediction by ZEFSAII (Michael W. Deem and Ramdas Pophale) SiO2 
 PCOD9198330
Probable space group: C 2/M
;
_chemical_formula_sum "Si O2"
_cell_formula_units_Z 64
_cell_length_a 31.073901
_cell_length_b 7.497701
_cell_length_c 17.914641
_cell_angle_alpha 90.000000
_cell_angle_beta 136.299259
_cell_angle_gamma 90.000000
_cell_volume 2883.646488
_symmetry_space_group_name_H-M "C 2/M"
_symmetry_group_IT_number 12
_symmetry_cell_setting 'monoclinic'
loop_
_space_group_symop_operation_xyz
x,y,z
-x,y,-z
-x,-y,-z
x,-y,z
1/2+x,1/2+y,z
1/2-x,1/2+y,-z
1/2-x,1/2-y,-z
1/2+x,1/2-y,z
loop_
_atom_site_type_symbol
_atom_site_label
_atom_site_fract_x
_atom_site_fract_y
_atom_site_fract_z
Si Si1 0.582246 0.717512 0.170914
Si Si2 0.870012 0.283398 0.203335
Si Si3 0.640119 0.288337 0.528649
Si Si4 0.167236 0.291685 0.002821
Si Si5 0.784259 0.790714 0.236578
Si Si6 0.177092 0.786270 0.413453
Si Si7 0.503983 0.785084 0.419385
Si Si8 0.942200 0.784651 0.026735
O O1 0.582682 0.500000 0.169724
O O2 0.637556 0.780931 0.293288
O O3 0.584723 0.774146 0.087610
O O4 0.514580 0.770039 0.118539
O O5 0.869180 0.500000 0.201443
O O6 0.834218 0.225389 0.232632
O O7 0.941934 0.225647 0.298690
O O8 0.837983 0.217041 0.087219
O O9 0.652017 0.500000 0.539854
O O10 0.685570 0.214036 0.650231
O O11 0.652233 0.215661 0.461404
O O12 0.568974 0.266449 0.464415
O O13 0.183322 0.500000 0.013657
O O14 0.220324 0.212664 0.123159
O O15 0.101043 0.279737 0.960848
O O16 0.773070 0.000000 0.237509
O O17 0.250000 0.750000 0.500000
O O18 0.168336 0.000000 0.402143
O O19 0.500000 0.721711 0.500000
O O20 0.502599 0.000000 0.419590
O O21 0.941163 0.000000 0.027195
#
# Coordination Sequence:
#
# PCOD9198330 Si02
#       8
#     8   8   8   8   8   8   8   8
#     4   8  17  36  57  78 108 138 174 224 268 311
#     4  10  21  37  55  78 109 143 179 221 267 316
#     4  10  22  37  56  82 111 145 184 225 272 326
#     4  10  22  36  53  79 112 140 172 224 274 313
#     4  10  21  37  54  76 109 146 180 218 266 319
#     4  10  22  39  58  83 114 146 182 226 274 325
#     4  10  20  36  57  81 110 144 182 226 273 323
#     4   9  18  35  59  81 101 137 182 221 265 319
#
# _framework density 22.194122
#
# number of rings (size 3 to 8) (size 9 to 14) (size 15 to 20)
#    0.000    2.375    1.250    1.125    3.500    2.250 
#    0.000    1.875    0.000    0.000    0.000    0.000 
#    0.000    0.000    0.000    0.000    0.000    0.000 
#
# Total GULP energy -178772.952778 kJ/mol
# GULP energy per Si atom -5586.654774 kJ/mol
# Density = 2.214361 g / cm^3
# Si number density = 22.194122 Si / 1000 Ang^3
#
#
#
# Elastic Constant Matrix: (Units=GPa)
#
#
# Indices 1 2 3 4 5 6 
#
# 1 61.1537 -15.4426 11.1227 0.0000 -5.8257 0.0000
# 2 -15.4426 60.3898 4.6772 0.0000 -4.0180 -0.0001
# 3 11.1227 4.6772 116.0398 0.0000 3.9985 0.0000
# 4 0.0000 0.0000 0.0000 10.7542 0.0000 6.3113
# 5 -5.8257 -4.0180 3.9985 0.0000 19.1314 0.0000
# 6 0.0000 -0.0001 0.0000 6.3113 0.0000 2.2323
#
#
#
# Elastic Compliance Matrix: (Units=1/GPa)
#
#
# Indices 1 2 3 4 5 6 
#
# 1 0.018856 0.005489 -0.002283 0.000000 0.007372 0.000000
# 2 0.005489 0.018466 -0.001472 0.000001 0.005857 -0.000001
# 3 -0.002283 -0.001472 0.008995 0.000000 -0.002884 0.000000
# 4 0.000000 0.000001 0.000000 -0.141052 0.000000 0.398795
# 5 0.007372 0.005857 -0.002884 0.000000 0.056348 0.000000
# 6 0.000000 -0.000001 0.000000 0.398795 0.000000 -0.679535
#
#
# Mechanical properties :
#
#
# Convention : Reuss Voigt Hill
#
# Bulk Modulus (GPa) = 20.08617 26.47756 23.28187
# Shear Modulus (GPa) = -7.09427 22.23863 7.57218
#
# Velocity S-wave (km/s) = -1.78981 3.16888 1.84911
# Velocity P-wave (km/s) = 2.19059 5.03438 3.88224
#
# Compressibility (1/GPa) = 0.04978549
#
# Stress axis : x y z
#
# Youngs Moduli (GPa) = 53.03426 54.15230 111.16970
#
# Poissons Ratio (x) = -0.29724 0.25376
# Poissons Ratio (y) = -0.29110 0.16367
# Poissons Ratio (z) = 0.12106 0.07973
#
# Static dielectric constant tensor:
#      x y z
#    x 1.750500 0.000000 -0.015150 
#    y 0.000000 1.859940 0.000000 
#    z -0.015150 0.000000 1.836080 
# 
# From -- ./inp_files/295880.got.cif
#   From: 2010.05.17/outbox.cif.g08.bks.cpg/sg12_148_cif.got.tgz:295880.got - 2010.06.03 13:09:07.
