data_PCOD9198103
_publ_section_title
;
Structure prediction by ZEFSAII (Michael W. Deem and Ramdas Pophale) SiO2 
 PCOD9198103
Probable space group: C 2/M
;
_chemical_formula_sum "Si O2"
_cell_formula_units_Z 64
_cell_length_a 14.487594
_cell_length_b 8.850366
_cell_length_c 26.943291
_cell_angle_alpha 90.000000
_cell_angle_beta 89.110061
_cell_angle_gamma 90.000000
_cell_volume 3454.265776
_symmetry_space_group_name_H-M "C 2/M"
_symmetry_group_IT_number 12
_symmetry_cell_setting 'monoclinic'
loop_
_space_group_symop_operation_xyz
x,y,z
-x,y,-z
-x,-y,-z
x,-y,z
1/2+x,1/2+y,z
1/2-x,1/2+y,-z
1/2-x,1/2-y,-z
1/2+x,1/2-y,z
loop_
_atom_site_type_symbol
_atom_site_label
_atom_site_fract_x
_atom_site_fract_y
_atom_site_fract_z
Si Si1 0.394990 0.317805 0.136527
Si Si2 0.901137 0.682180 0.863018
Si Si3 0.613530 0.676735 0.396218
Si Si4 0.750666 0.320440 0.681649
Si Si5 0.244881 0.819365 0.210193
Si Si6 0.749129 0.819301 0.054294
Si Si7 0.893891 0.177963 0.399123
Si Si8 0.387546 0.828891 0.501420
O O1 0.397419 0.500000 0.140574
O O2 0.496962 0.249959 0.135355
O O3 0.334112 0.250024 0.181726
O O4 0.337958 0.277576 0.087023
O O5 0.903730 0.500000 0.859078
O O6 0.843461 0.750110 0.817615
O O7 0.840770 0.722639 0.912352
O O8 0.634162 0.500000 0.388812
O O9 0.665667 0.775421 0.355169
O O10 0.503392 0.699335 0.392465
O O11 0.639792 0.727434 0.451640
O O12 0.750036 0.500000 0.691241
O O13 0.755440 0.231921 0.732929
O O14 0.660437 0.279448 0.649966
O O15 0.244760 0.000000 0.205740
O O16 0.749123 0.000000 0.049852
O O17 0.750000 0.750000 0.000000
O O18 0.860534 0.266497 0.447974
O O19 0.877684 0.000000 0.408189
O O20 0.500000 0.829167 0.500000
O O21 0.355454 0.000000 0.509153
#
# Coordination Sequence:
#
# PCOD9198103 Si02
#       8
#     8   8   8   8   8   8   8   8
#     4  10  21  39  61  87 117 154 197 240 286 339
#     4  10  21  39  61  87 116 153 198 241 286 338
#     4  10  20  36  56  79 107 140 180 222 270 333
#     4  11  23  39  57  80 110 142 180 229 282 336
#     4  11  23  40  60  83 112 148 189 238 291 342
#     4   9  20  36  56  85 124 161 196 239 284 331
#     4   9  20  37  56  77 105 141 177 217 269 328
#     4   9  17  31  53  79 106 137 174 218 268 323
#
# _framework density 18.527816000000001
#
# number of rings (size 3 to 8) (size 9 to 14) (size 15 to 20)
#    0.000    2.125    0.000    3.750    0.000    8.000 
#    0.000    6.250    0.000    0.000    0.000    0.000 
#    0.000    0.000    0.000    0.000    0.000    0.000 
#
# Total GULP energy -178748.020777 kJ/mol
# GULP energy per Si atom -5585.875649 kJ/mol
# Density = 1.848565 g / cm^3
# Si number density = 18.527816 Si / 1000 Ang^3
#
#
#
# Elastic Constant Matrix: (Units=GPa)
#
#
# Indices 1 2 3 4 5 6 
#
# 1 120.8199 50.8233 58.8621 0.0000 5.7147 0.0000
# 2 50.8233 79.0203 52.7601 0.0000 4.2980 0.0000
# 3 58.8621 52.7601 148.6353 0.0000 5.3568 0.0000
# 4 0.0000 0.0000 0.0000 38.5693 0.0000 -3.1804
# 5 5.7147 4.2980 5.3568 0.0000 9.2052 0.0000
# 6 0.0000 0.0000 0.0000 -3.1804 0.0000 25.6720
#
#
#
# Elastic Compliance Matrix: (Units=1/GPa)
#
#
# Indices 1 2 3 4 5 6 
#
# 1 0.012194 -0.005923 -0.002608 0.000000 -0.003287 0.000000
# 2 -0.005923 0.019640 -0.004523 0.000000 -0.002861 0.000000
# 3 -0.002608 -0.004523 0.009430 0.000000 -0.001756 0.000000
# 4 0.000000 0.000000 0.000000 0.026195 0.000000 0.003245
# 5 -0.003287 -0.002861 -0.001756 0.000000 0.113033 0.000000
# 6 0.000000 0.000000 0.000000 0.003245 0.000000 0.039355
#
#
# Mechanical properties :
#
#
# Convention : Reuss Voigt Hill
#
# Bulk Modulus (GPa) = 65.98074 74.81850 70.39962
# Shear Modulus (GPa) = 19.91982 27.09130 23.50556
#
# Velocity S-wave (km/s) = 3.28248 3.82802 3.56569
# Velocity P-wave (km/s) = 7.07497 7.74646 7.41832
#
# Compressibility (1/GPa) = 0.01515594
#
# Stress axis : x y z
#
# Youngs Moduli (GPa) = 82.00446 50.91743 106.04967
#
# Poissons Ratio (x) = 0.30157 0.27662
# Poissons Ratio (y) = 0.48569 0.47963
# Poissons Ratio (z) = 0.21390 0.23029
#
# Static dielectric constant tensor:
#      x y z
#    x 1.646810 0.000000 0.010400 
#    y 0.000000 1.623430 0.000000 
#    z 0.010400 0.000000 1.605910 
# 
# From -- ./inp_files/338815.got.cif
#   From: 2010.05.17/outbox.cif.g08.bks.cpg/sg12_170_cif.got.tgz:338815.got - 2010.06.03 13:09:07.
