data_PCOD9198921
_publ_section_title
;
Structure prediction by ZEFSAII (Michael W. Deem and Ramdas Pophale) SiO2 
 PCOD9198921
Probable space group: C 2/M
;
_chemical_formula_sum "Si O2"
_cell_formula_units_Z 56
_cell_length_a 22.186611
_cell_length_b 11.951036
_cell_length_c 21.861915
_cell_angle_alpha 90.000000
_cell_angle_beta 148.521030
_cell_angle_gamma 90.000000
_cell_volume 3026.980302
_symmetry_space_group_name_H-M "C 2/M"
_symmetry_group_IT_number 12
_symmetry_cell_setting 'monoclinic'
loop_
_space_group_symop_operation_xyz
x,y,z
-x,y,-z
-x,-y,-z
x,-y,z
1/2+x,1/2+y,z
1/2-x,1/2+y,-z
1/2-x,1/2-y,-z
1/2+x,1/2-y,z
loop_
_atom_site_type_symbol
_atom_site_label
_atom_site_fract_x
_atom_site_fract_y
_atom_site_fract_z
Si Si1 0.169495 0.870765 0.760879
Si Si2 0.500831 0.000000 0.602105
Si Si3 0.289548 0.294964 0.689360
Si Si4 0.613014 0.133294 0.135873
Si Si5 0.306770 0.000000 0.327377
Si Si6 0.926298 0.127046 0.689707
Si Si7 0.698624 0.631253 0.930178
Si Si8 0.439141 0.240443 0.578259
O O1 0.273476 0.841641 0.806121
O O2 0.210199 0.861959 0.866529
O O3 0.054580 0.799241 0.653652
O O4 0.138634 0.000000 0.723743
O O5 0.408131 0.000000 0.466376
O O6 0.626986 0.000000 0.679840
O O7 0.473573 0.888794 0.615541
O O8 0.370420 0.200328 0.787537
O O9 0.266984 0.390351 0.720667
O O10 0.347514 0.346966 0.679419
O O11 0.165461 0.249490 0.559910
O O12 0.607239 0.000000 0.141176
O O13 0.500000 0.166111 0.000000
O O14 0.905898 0.206645 0.614313
O O15 0.061280 0.135445 0.824232
O O16 0.905805 0.000000 0.651281
O O17 0.736204 0.500000 0.979899
O O18 0.750000 0.750000 0.000000
#
# Coordination Sequence:
#
# PCOD9198921 Si02
#       8
#     8   4   8   8   4   8   8   8
#     4   9  19  38  59  79 113 154 192 239 300 351
#     4   9  18  32  54  84 122 154 188 239 289 341
#     4  11  21  37  60  86 117 158 197 236 290 358
#     4  10  23  40  58  84 116 152 193 246 298 347
#     4   9  18  34  57  82 116 160 194 230 288 347
#     4  10  21  39  59  83 122 158 192 240 302 361
#     4   9  19  36  60  84 111 156 201 248 301 354
#     4  10  20  36  58  90 118 152 194 241 293 350
#
# _framework density 18.500285999999999
#
# number of rings (size 3 to 8) (size 9 to 14) (size 15 to 20)
#    0.000    2.286    0.714    2.571    2.000    2.857 
#    6.429    1.786    0.000    0.000    0.000    0.000 
#    0.000    0.000    0.000    0.000    0.000    0.000 
#
# Total GULP energy -156089.026450 kJ/mol
# GULP energy per Si atom -5574.608088 kJ/mol
# Density = 1.845818 g / cm^3
# Si number density = 18.500286 Si / 1000 Ang^3
#
#
#
# Elastic Constant Matrix: (Units=GPa)
#
#
# Indices 1 2 3 4 5 6 
#
# 1 40.0675 39.7809 7.1863 0.0000 -5.5244 0.0000
# 2 39.7809 122.9371 56.1632 0.0000 -6.3916 0.0000
# 3 7.1863 56.1632 58.9406 0.0000 -2.0922 0.0000
# 4 0.0000 0.0000 0.0000 24.8328 0.0000 -6.8602
# 5 -5.5244 -6.3916 -2.0922 0.0000 7.4538 0.0000
# 6 0.0000 0.0000 0.0000 -6.8602 0.0000 28.8530
#
#
#
# Elastic Compliance Matrix: (Units=1/GPa)
#
#
# Indices 1 2 3 4 5 6 
#
# 1 0.045165 -0.020144 0.014407 0.000000 0.020245 0.000000
# 2 -0.020144 0.023954 -0.020373 0.000000 -0.000108 0.000000
# 3 0.014407 -0.020373 0.034728 0.000000 0.002956 0.000000
# 4 0.000000 0.000000 0.000000 0.043100 0.000000 0.010248
# 5 0.020245 -0.000108 0.002956 0.000000 0.149902 0.000000
# 6 0.000000 0.000000 0.000000 0.010248 0.000000 0.037095
#
#
# Mechanical properties :
#
#
# Convention : Reuss Voigt Hill
#
# Bulk Modulus (GPa) = 19.37002 47.57843 33.47423
# Shear Modulus (GPa) = 12.39542 20.14892 16.27217
#
# Velocity S-wave (km/s) = 2.59127 3.30375 2.96896
# Velocity P-wave (km/s) = 4.40973 6.35032 5.46682
#
# Compressibility (1/GPa) = 0.05162616
#
# Stress axis : x y z
#
# Youngs Moduli (GPa) = 22.14092 41.74591 28.79521
#
# Poissons Ratio (x) = 0.84093 -0.41484
# Poissons Ratio (y) = 0.44600 0.58666
# Poissons Ratio (z) = -0.31898 0.85051
#
# Static dielectric constant tensor:
#      x y z
#    x 1.638440 0.000000 0.009030 
#    y 0.000000 1.661790 0.000000 
#    z 0.009030 0.000000 1.620930 
# 
# From -- ./inp_files/325198.got.cif
#   From: 2010.05.17/outbox.cif.g08.bks.cpg/sg12_163_cif.got.tgz:325198.got - 2010.06.03 13:09:07.
