data_PCOD9198388
_publ_section_title
;
Structure prediction by ZEFSAII (Michael W. Deem and Ramdas Pophale) SiO2 
 PCOD9198388
Probable space group: C 2/M
;
_chemical_formula_sum "Si O2"
_cell_formula_units_Z 58
_cell_length_a 21.891145
_cell_length_b 12.477802
_cell_length_c 20.277147
_cell_angle_alpha 90.000000
_cell_angle_beta 34.347647
_cell_angle_gamma 90.000000
_cell_volume 3125.045741
_symmetry_space_group_name_H-M "C 2/M"
_symmetry_group_IT_number 12
_symmetry_cell_setting 'monoclinic'
loop_
_space_group_symop_operation_xyz
x,y,z
-x,y,-z
-x,-y,-z
x,-y,z
1/2+x,1/2+y,z
1/2-x,1/2+y,-z
1/2-x,1/2-y,-z
1/2+x,1/2-y,z
loop_
_atom_site_type_symbol
_atom_site_label
_atom_site_fract_x
_atom_site_fract_y
_atom_site_fract_z
Si Si1 0.322929 0.742703 0.341590
Si Si2 0.669936 0.190242 0.814912
Si Si3 0.598080 0.775615 0.232692
Si Si4 0.457914 0.375938 0.833164
Si Si5 0.367774 0.876643 0.427185
Si Si6 0.179040 0.874869 0.913897
Si Si7 0.913375 0.873755 0.632287
Si Si8 0.000000 0.500000 0.000000
O O1 0.344971 0.778992 0.247974
O O2 0.416410 0.658469 0.279034
O O3 0.333375 0.838962 0.384655
O O4 0.205028 0.691866 0.457569
O O5 0.655281 0.294015 0.875158
O O6 0.793051 0.150911 0.714375
O O7 0.591215 0.094697 0.905721
O O8 0.603370 0.705722 0.161137
O O9 0.494912 0.852975 0.319775
O O10 0.707277 0.837732 0.154439
O O11 0.572424 0.692192 0.313707
O O12 0.444373 0.500000 0.825107
O O13 0.410294 0.364564 0.949057
O O14 0.344819 0.000000 0.458082
O O15 0.184821 0.000000 0.888654
O O16 0.000000 0.840916 0.500000
O O17 0.926134 0.000000 0.633235
#
# Coordination Sequence:
#
# PCOD9198388 Si02
#       8
#     8   8   8   8   8   8   8   2
#     4  10  22  38  57  85 118 154 196 243 294 360
#     4  11  23  40  60  88 122 157 201 246 302 356
#     4  10  20  36  58  85 117 150 197 245 295 352
#     4  10  20  36  57  82 114 156 201 249 295 347
#     4  10  21  37  59  86 116 153 195 241 296 354
#     4  10  22  39  60  85 118 157 199 244 296 356
#     4  10  20  36  58  85 116 153 193 242 297 351
#     4  12  24  40  60  88 120 156 196 252 290 360
#
# _framework density 18.559728
#
# number of rings (size 3 to 8) (size 9 to 14) (size 15 to 20)
#    0.000    1.793    0.690    3.310    0.966    1.103 
#    0.000    3.793    7.586    4.552    0.000    0.000 
#    0.000    0.000    0.000    0.000    0.000    0.000 
#
# Total GULP energy -161677.072356 kJ/mol
# GULP energy per Si atom -5575.071461 kJ/mol
# Density = 1.851749 g / cm^3
# Si number density = 18.559728 Si / 1000 Ang^3
#
#
#
# Elastic Constant Matrix: (Units=GPa)
#
#
# Indices 1 2 3 4 5 6 
#
# 1 50.2289 30.4379 20.1383 0.0000 4.4467 0.0000
# 2 30.4379 83.9531 24.6927 0.0000 4.5394 0.0000
# 3 20.1383 24.6927 76.3140 0.0000 -3.5873 0.0000
# 4 0.0000 0.0000 0.0000 16.7486 0.0000 -4.3910
# 5 4.4467 4.5394 -3.5873 0.0000 20.9135 0.0000
# 6 0.0000 0.0000 0.0000 -4.3910 0.0000 -24.7917
#
#
#
# Elastic Compliance Matrix: (Units=1/GPa)
#
#
# Indices 1 2 3 4 5 6 
#
# 1 0.027215 -0.008209 -0.004752 0.000000 -0.004820 0.000000
# 2 -0.008209 0.015917 -0.003089 0.000000 -0.002240 0.000000
# 3 -0.004752 -0.003089 0.015562 0.000000 0.004350 0.000000
# 4 0.000000 0.000000 0.000000 0.057057 0.000000 -0.010106
# 5 -0.004820 -0.002240 0.004350 0.000000 0.050073 0.000000
# 6 0.000000 0.000000 0.000000 -0.010106 0.000000 -0.038546
#
#
# Mechanical properties :
#
#
# Convention : Reuss Voigt Hill
#
# Bulk Modulus (GPa) = 37.60286 40.11485 38.85886
# Shear Modulus (GPa) = 29.71874 11.58922 20.65398
#
# Velocity S-wave (km/s) = 4.00590 2.50157 3.33954
# Velocity P-wave (km/s) = 6.45761 5.47765 5.98771
#
# Compressibility (1/GPa) = 0.02659372
#
# Stress axis : x y z
#
# Youngs Moduli (GPa) = 36.74409 62.82461 64.25940
#
# Poissons Ratio (x) = 0.51571 0.30538
# Poissons Ratio (y) = 0.30162 0.19852
# Poissons Ratio (z) = 0.17462 0.19409
#
# Static dielectric constant tensor:
#      x y z
#    x 1.640080 0.000000 -0.007920 
#    y 0.000000 1.606900 0.000000 
#    z -0.007920 0.000000 1.620030 
# 
# From -- ./inp_files/283533.got.cif
#   From: 2010.05.17/outbox.cif.g08.bks.cpg/sg12_142_cif.got.tgz:283533.got - 2010.06.03 13:09:07.
