data_PCOD9198105
_publ_section_title
;
Structure prediction by ZEFSAII (Michael W. Deem and Ramdas Pophale) SiO2 
 PCOD9198105
Probable space group: C 2/M
;
_chemical_formula_sum "Si O2"
_cell_formula_units_Z 56
_cell_length_a 19.111176
_cell_length_b 8.735609
_cell_length_c 18.991129
_cell_angle_alpha 90.000000
_cell_angle_beta 119.263670
_cell_angle_gamma 90.000000
_cell_volume 2765.901989
_symmetry_space_group_name_H-M "C 2/M"
_symmetry_group_IT_number 12
_symmetry_cell_setting 'monoclinic'
loop_
_space_group_symop_operation_xyz
x,y,z
-x,y,-z
-x,-y,-z
x,-y,z
1/2+x,1/2+y,z
1/2-x,1/2+y,-z
1/2-x,1/2-y,-z
1/2+x,1/2-y,z
loop_
_atom_site_type_symbol
_atom_site_label
_atom_site_fract_x
_atom_site_fract_y
_atom_site_fract_z
Si Si1 0.171776 0.680722 0.742835
Si Si2 0.170793 0.680815 0.249879
Si Si3 0.590441 0.677891 0.833678
Si Si4 0.082300 0.817836 0.079994
Si Si5 0.997535 0.681955 0.418600
Si Si6 0.171941 0.319598 0.998403
Si Si7 0.080056 0.178764 0.328659
O O1 0.178909 0.500000 0.762659
O O2 0.249144 0.737405 0.738981
O O3 0.154940 0.773607 0.806191
O O4 0.091717 0.703460 0.656629
O O5 0.180748 0.500000 0.250654
O O6 0.100838 0.734918 0.161995
O O7 0.145743 0.731649 0.315726
O O8 0.600709 0.500000 0.859006
O O9 0.602412 0.782286 0.907566
O O10 0.504144 0.696085 0.755026
O O11 0.081761 0.000000 0.091533
O O12 0.151497 0.768407 0.059803
O O13 0.000000 0.775275 0.000000
O O14 0.013853 0.500000 0.426421
O O15 0.060136 0.760618 0.396578
O O16 0.000000 0.737891 0.500000
O O17 0.179486 0.500000 0.014391
O O18 0.250000 0.250000 0.000000
O O19 0.100344 0.000000 0.340131
#
# Coordination Sequence:
#
# PCOD9198105 Si02
#       7
#     8   8   8   8   8   8   8
#     4  10  20  36  59  85 115 150 187 229 280 336
#     4  12  24  38  57  82 115 151 191 236 280 332
#     4  10  20  36  56  79 108 142 185 233 280 333
#     4  11  24  41  59  80 110 148 190 238 291 341
#     4   9  19  38  64  92 119 147 182 226 276 332
#     4  12  24  37  54  77 107 143 187 236 285 334
#     4  10  21  37  59  85 113 147 185 225 273 331
#
# _framework density 20.246559000000001
#
# number of rings (size 3 to 8) (size 9 to 14) (size 15 to 20)
#    0.000    1.429    0.000    6.000    0.000    7.143 
#    0.000    0.714    0.000    0.000    0.000    0.000 
#    0.000    0.000    0.000    0.000    0.000    0.000 
#
# Total GULP energy -156631.593652 kJ/mol
# GULP energy per Si atom -5593.985488 kJ/mol
# Density = 2.020048 g / cm^3
# Si number density = 20.246559 Si / 1000 Ang^3
#
#
#
# Elastic Constant Matrix: (Units=GPa)
#
#
# Indices 1 2 3 4 5 6 
#
# 1 90.5866 12.4493 0.1722 0.0000 -21.7184 0.0000
# 2 12.4493 45.7365 6.1828 0.0000 1.7689 0.0000
# 3 0.1722 6.1828 54.9120 0.0000 -27.8211 0.0000
# 4 0.0000 0.0000 0.0000 26.0778 0.0000 -4.6250
# 5 -21.7184 1.7689 -27.8211 0.0000 28.1540 0.0000
# 6 0.0000 0.0000 0.0000 -4.6250 0.0000 22.1717
#
#
#
# Elastic Compliance Matrix: (Units=1/GPa)
#
#
# Indices 1 2 3 4 5 6 
#
# 1 0.020791 -0.009582 0.018914 0.000000 0.035330 0.000000
# 2 -0.009582 0.027494 -0.015392 0.000000 -0.024330 0.000000
# 3 0.018914 -0.015392 0.055607 0.000000 0.070507 0.000000
# 4 0.000000 0.000000 0.000000 0.039820 0.000000 0.008306
# 5 0.035330 -0.024330 0.070507 0.000000 0.133975 0.000000
# 6 0.000000 0.000000 0.000000 0.008306 0.000000 0.046835
#
#
# Mechanical properties :
#
#
# Convention : Reuss Voigt Hill
#
# Bulk Modulus (GPa) = 10.89677 25.42707 18.16192
# Shear Modulus (GPa) = 13.61532 26.77611 20.19572
#
# Velocity S-wave (km/s) = 2.59603 3.64057 3.16173
# Velocity P-wave (km/s) = 3.79203 5.50069 4.72425
#
# Compressibility (1/GPa) = 0.09177030
#
# Stress axis : x y z
#
# Youngs Moduli (GPa) = 48.09852 36.37107 17.98341
#
# Poissons Ratio (x) = 0.34852 -0.34013
# Poissons Ratio (y) = 0.46090 0.27680
# Poissons Ratio (z) = -0.90973 0.55983
#
# Static dielectric constant tensor:
#      x y z
#    x 1.751910 0.000000 0.019300 
#    y 0.000000 1.673280 0.000000 
#    z 0.019300 0.000000 1.730220 
# 
# From -- ./inp_files/275500.got.cif
#   From: 2010.05.17/outbox.cif.g08.bks.cpg/sg12_138_cif.got.tgz:275500.got - 2010.06.03 13:09:07.
