data_PCOD9198904
_publ_section_title
;
Structure prediction by ZEFSAII (Michael W. Deem and Ramdas Pophale) SiO2 
 PCOD9198904
Probable space group: C 2/M
;
_chemical_formula_sum "Si O2"
_cell_formula_units_Z 48
_cell_length_a 11.019182
_cell_length_b 16.279627
_cell_length_c 23.535154
_cell_angle_alpha 90.000000
_cell_angle_beta 148.598825
_cell_angle_gamma 90.000000
_cell_volume 2199.739196
_symmetry_space_group_name_H-M "C 2/M"
_symmetry_group_IT_number 12
_symmetry_cell_setting 'monoclinic'
loop_
_space_group_symop_operation_xyz
x,y,z
-x,y,-z
-x,-y,-z
x,-y,z
1/2+x,1/2+y,z
1/2-x,1/2+y,-z
1/2-x,1/2-y,-z
1/2+x,1/2-y,z
loop_
_atom_site_type_symbol
_atom_site_label
_atom_site_fract_x
_atom_site_fract_y
_atom_site_fract_z
Si Si1 0.751983 0.098616 0.373379
Si Si2 0.725304 0.838027 0.762861
Si Si3 0.729077 0.336196 0.958163
Si Si4 0.260503 0.838249 0.836100
Si Si5 0.497522 0.098359 0.566707
Si Si6 0.988394 0.903702 0.360489
O O1 0.507883 0.127502 0.301123
O O2 0.782928 0.124437 0.319922
O O3 0.000000 0.125734 0.500000
O O4 0.747394 0.000000 0.377154
O O5 0.745877 0.746194 0.794867
O O6 0.674950 0.850800 0.675903
O O7 0.982523 0.875929 0.877210
O O8 0.720634 0.322751 0.886618
O O9 0.750000 0.250000 0.000000
O O10 0.981325 0.377087 0.068499
O O11 0.069175 0.892328 0.728208
O O12 0.500000 0.106907 0.500000
O O13 0.238166 0.130296 0.478110
O O14 0.524757 0.000000 0.590283
O O15 0.013264 0.000000 0.380846
#
# Coordination Sequence:
#
# PCOD9198904 Si02
#       6
#     8   8   8   8   8   8
#     4  10  20  38  60  86 125 168 200 237 301 362
#     4  11  21  35  63  89 117 155 208 255 289 362
#     4   9  21  41  60  85 118 157 196 253 316 361
#     4  10  22  40  62  87 116 157 206 252 308 354
#     4  10  20  36  58  88 125 161 195 239 301 363
#     4  10  21  39  59  84 126 167 198 240 305 365
#
# _framework density 21.820767
#
# number of rings (size 3 to 8) (size 9 to 14) (size 15 to 20)
#    0.000    2.000    1.667    1.500    4.667    0.667 
#    0.000    4.167    0.000    2.000    0.000    0.000 
#    0.000    0.000    0.000    0.000    0.000    0.000 
#
# Total GULP energy -133721.116335 kJ/mol
# GULP energy per Si atom -5571.713181 kJ/mol
# Density = 2.177110 g / cm^3
# Si number density = 21.820767 Si / 1000 Ang^3
#
#
#
# Elastic Constant Matrix: (Units=GPa)
#
#
# Indices 1 2 3 4 5 6 
#
# 1 102.0998 14.3592 46.0618 -0.0003 13.0546 0.0000
# 2 14.3592 14.9887 18.3298 -0.0002 6.2775 -0.0001
# 3 46.0618 18.3298 136.8248 -0.0025 21.8632 -0.0002
# 4 -0.0003 -0.0002 -0.0025 40.5883 -0.0006 -2.2730
# 5 13.0546 6.2775 21.8632 -0.0006 47.4955 -0.0001
# 6 0.0000 -0.0001 -0.0002 -2.2730 -0.0001 21.8691
#
#
#
# Elastic Compliance Matrix: (Units=1/GPa)
#
#
# Indices 1 2 3 4 5 6 
#
# 1 0.012352 -0.007802 -0.002953 0.000000 -0.001005 0.000000
# 2 -0.007802 0.086372 -0.008056 0.000000 -0.005563 0.000000
# 3 -0.002953 -0.008056 0.009803 0.000001 -0.002636 0.000000
# 4 0.000000 0.000000 0.000001 0.024782 0.000000 0.002576
# 5 -0.001005 -0.005563 -0.002636 0.000000 0.023280 0.000000
# 6 0.000000 0.000000 0.000000 0.002576 0.000000 0.045994
#
#
# Mechanical properties :
#
#
# Convention : Reuss Voigt Hill
#
# Bulk Modulus (GPa) = 14.10285 45.71276 29.90780
# Shear Modulus (GPa) = 18.95095 33.66808 26.30952
#
# Velocity S-wave (km/s) = 2.95020 3.93229 3.47610
# Velocity P-wave (km/s) = 4.25229 6.45072 5.46323
#
# Compressibility (1/GPa) = 0.07090767
#
# Stress axis : x y z
#
# Youngs Moduli (GPa) = 80.95799 11.57778 102.00942
#
# Poissons Ratio (x) = 0.09033 0.30119
# Poissons Ratio (y) = 0.63161 0.82174
# Poissons Ratio (z) = 0.23903 0.09327
#
# Static dielectric constant tensor:
#      x y z
#    x 1.915620 0.000000 0.022110 
#    y 0.000000 1.829230 0.000000 
#    z 0.022110 0.000000 1.803180 
# 
# From -- ./inp_files/336387.got.cif
#   From: 2010.05.17/outbox.cif.g08.bks.cpg/sg12_169_cif.got.tgz:336387.got - 2010.06.03 13:09:07.
