data_PCOD9198185
_publ_section_title
;
Structure prediction by ZEFSAII (Michael W. Deem and Ramdas Pophale) SiO2 
 PCOD9198185
Probable space group: C 2/M
;
_chemical_formula_sum "Si O2"
_cell_formula_units_Z 64
_cell_length_a 25.990200
_cell_length_b 8.261705
_cell_length_c 15.082059
_cell_angle_alpha 90.000000
_cell_angle_beta 78.490114
_cell_angle_gamma 90.000000
_cell_volume 3173.345764
_symmetry_space_group_name_H-M "C 2/M"
_symmetry_group_IT_number 12
_symmetry_cell_setting 'monoclinic'
loop_
_space_group_symop_operation_xyz
x,y,z
-x,y,-z
-x,-y,-z
x,-y,z
1/2+x,1/2+y,z
1/2-x,1/2+y,-z
1/2-x,1/2-y,-z
1/2+x,1/2-y,z
loop_
_atom_site_type_symbol
_atom_site_label
_atom_site_fract_x
_atom_site_fract_y
_atom_site_fract_z
Si Si1 0.949402 0.691844 0.791799
Si Si2 0.228302 0.305523 0.601154
Si Si3 0.953925 0.814073 0.138690
Si Si4 0.857719 0.689803 0.076725
Si Si5 0.746614 0.197930 0.788010
Si Si6 0.489195 0.195595 0.405700
Si Si7 0.608783 0.805222 0.671315
Si Si8 0.162278 0.808970 0.109320
O O1 0.939629 0.500000 0.789643
O O2 0.974722 0.749328 0.689487
O O3 0.895126 0.779793 0.829949
O O4 0.993122 0.719658 0.853456
O O5 0.230076 0.500000 0.600865
O O6 0.250000 0.250000 0.500000
O O7 0.255542 0.249596 0.683338
O O8 0.167660 0.256589 0.631508
O O9 0.915204 0.765544 0.072257
O O10 0.916134 0.782269 0.236017
O O11 0.968572 0.000000 0.124989
O O12 0.864063 0.500000 0.091921
O O13 0.810986 0.749993 0.157488
O O14 0.837602 0.719563 0.984635
O O15 0.792185 0.249032 0.839717
O O16 0.746104 0.000000 0.789097
O O17 0.500000 0.259933 0.500000
O O18 0.429646 0.227881 0.397236
O O19 0.495535 0.000000 0.406053
O O20 0.607217 0.000000 0.689589
O O21 0.170083 0.000000 0.090703
#
# Coordination Sequence:
#
# PCOD9198185 Si02
#       8
#     8   8   8   8   8   8   8   8
#     4  10  21  38  58  83 117 157 195 234 290 354
#     4  10  20  36  56  83 115 154 198 240 291 343
#     4  11  21  35  59  88 115 146 189 243 291 339
#     4  11  21  39  64  87 113 154 199 237 289 357
#     4   9  20  39  61  82 117 159 194 239 295 350
#     4   8  15  29  53  82 107 139 189 241 282 330
#     4   9  17  33  55  76 109 153 192 234 287 346
#     4  11  23  39  58  86 120 154 192 243 297 344
#
# _framework density 20.167987
#
# number of rings (size 3 to 8) (size 9 to 14) (size 15 to 20)
#    0.000    2.125    1.250    3.375    0.000    2.000 
#    0.000    6.875    0.000    9.375    0.000    0.000 
#    0.000    0.000    0.000    0.000    0.000    0.000 
#
# Total GULP energy -178608.969911 kJ/mol
# GULP energy per Si atom -5581.530310 kJ/mol
# Density = 2.012208 g / cm^3
# Si number density = 20.167987 Si / 1000 Ang^3
#
#
#
# Elastic Constant Matrix: (Units=GPa)
#
#
# Indices 1 2 3 4 5 6 
#
# 1 65.6601 -6.6122 28.7631 0.0000 13.5489 0.0000
# 2 -6.6122 10.8819 -8.7814 0.0000 3.4362 0.0000
# 3 28.7631 -8.7814 108.4555 0.0000 19.7196 0.0000
# 4 0.0000 0.0000 0.0000 24.0042 0.0000 0.1769
# 5 13.5489 3.4362 19.7196 0.0000 32.3823 0.0000
# 6 0.0000 0.0000 0.0000 0.1769 0.0000 20.0162
#
#
#
# Elastic Compliance Matrix: (Units=1/GPa)
#
#
# Indices 1 2 3 4 5 6 
#
# 1 0.019199 0.011855 -0.002747 0.000000 -0.007618 0.000000
# 2 0.011855 0.114948 0.010438 0.000000 -0.023514 0.000000
# 3 -0.002747 0.010438 0.012129 0.000000 -0.007345 0.000000
# 4 0.000000 0.000000 0.000000 0.041662 0.000000 -0.000368
# 5 -0.007618 -0.023514 -0.007345 0.000000 0.041036 0.000000
# 6 0.000000 0.000000 0.000000 -0.000368 0.000000 0.049963
#
#
# Mechanical properties :
#
#
# Convention : Reuss Voigt Hill
#
# Bulk Modulus (GPa) = 5.39459 23.52628 14.46044
# Shear Modulus (GPa) = 16.57637 26.72243 21.64940
#
# Velocity S-wave (km/s) = 2.87002 3.64399 3.27991
# Velocity P-wave (km/s) = 3.69639 5.42175 4.63997
#
# Compressibility (1/GPa) = 0.18537073
#
# Stress axis : x y z
#
# Youngs Moduli (GPa) = 52.08596 8.69956 82.44425
#
# Poissons Ratio (x) = -0.10313 0.22644
# Poissons Ratio (y) = -0.61749 -0.86059
# Poissons Ratio (z) = 0.14306 -0.09081
#
# Static dielectric constant tensor:
#      x y z
#    x 1.704280 0.000000 0.016640 
#    y 0.000000 1.710390 0.000000 
#    z 0.016640 0.000000 1.733050 
# 
# From -- ./inp_files/238815.got.cif
#   From: 2010.05.17/outbox.cif.g08.bks.cpg/sg12_120_cif.got.tgz:238815.got - 2010.06.03 13:09:07.
