data_PCOD9198576
_publ_section_title
;
Structure prediction by ZEFSAII (Michael W. Deem and Ramdas Pophale) SiO2 
 PCOD9198576
Probable space group: C 2/M
;
_chemical_formula_sum "Si O2"
_cell_formula_units_Z 48
_cell_length_a 19.698299
_cell_length_b 7.538865
_cell_length_c 25.422062
_cell_angle_alpha 90.000000
_cell_angle_beta 149.930148
_cell_angle_gamma 90.000000
_cell_volume 1891.608460
_symmetry_space_group_name_H-M "C 2/M"
_symmetry_group_IT_number 12
_symmetry_cell_setting 'monoclinic'
loop_
_space_group_symop_operation_xyz
x,y,z
-x,y,-z
-x,-y,-z
x,-y,z
1/2+x,1/2+y,z
1/2-x,1/2+y,-z
1/2-x,1/2-y,-z
1/2+x,1/2-y,z
loop_
_atom_site_type_symbol
_atom_site_label
_atom_site_fract_x
_atom_site_fract_y
_atom_site_fract_z
Si Si1 0.071325 0.204494 0.331978
Si Si2 0.322680 0.296710 0.761672
Si Si3 0.175809 0.283364 0.559763
Si Si4 0.434743 0.717457 0.010970
Si Si5 0.176583 0.710359 0.895846
Si Si6 0.087392 0.205239 0.675156
O O1 0.216824 0.276293 0.412805
O O2 0.987444 0.285664 0.323983
O O3 0.970349 0.210366 0.214247
O O4 0.094158 0.000000 0.361697
O O5 0.350173 0.500000 0.765539
O O6 0.240020 0.219293 0.657566
O O7 0.464788 0.218788 0.875428
O O8 0.222786 0.294809 0.744906
O O9 0.169372 0.500000 0.556161
O O10 0.027089 0.218317 0.446643
O O11 0.435700 0.500000 0.011899
O O12 0.500000 0.774902 0.000000
O O13 0.282664 0.773105 0.922144
O O14 0.160818 0.500000 0.881309
O O15 0.250000 0.750000 0.000000
O O16 0.120790 0.000000 0.707352
#
# Coordination Sequence:
#
# PCOD9198576 Si02
#       6
#     8   8   8   8   8   8
#     4  10  22  40  59  82 113 147 186 232 280 331
#     4  10  20  36  58  81 108 146 190 230 271 328
#     4  10  21  38  59  80 108 150 194 232 272 330
#     4   9  18  34  57  83 109 143 189 231 266 319
#     4  11  22  37  60  87 115 148 186 230 278 329
#     4  11  23  37  56  84 116 145 179 233 291 336
#
# _framework density 25.375229000000001
#
# number of rings (size 3 to 8) (size 9 to 14) (size 15 to 20)
#    0.000    1.833    0.000    4.000    0.000    8.667 
#    0.000    3.333    0.000    4.500    0.000    0.000 
#    0.000    0.000    0.000    0.000    0.000    0.000 
#
# Total GULP energy -134332.876527 kJ/mol
# GULP energy per Si atom -5597.203189 kJ/mol
# Density = 2.531747 g / cm^3
# Si number density = 25.375229 Si / 1000 Ang^3
#
#
#
# Elastic Constant Matrix: (Units=GPa)
#
#
# Indices 1 2 3 4 5 6 
#
# 1 78.8829 1.3225 -7.1618 0.0000 8.2943 0.0000
# 2 1.3225 82.6044 -4.5311 0.0000 0.3306 0.0000
# 3 -7.1618 -4.5311 100.4099 -0.0003 11.2779 -0.0001
# 4 0.0000 0.0000 -0.0003 18.5150 -0.0001 -2.2258
# 5 8.2943 0.3306 11.2779 -0.0001 49.0973 0.0000
# 6 0.0000 0.0000 -0.0001 -2.2258 0.0000 16.1017
#
#
#
# Elastic Compliance Matrix: (Units=1/GPa)
#
#
# Indices 1 2 3 4 5 6 
#
# 1 0.013049 -0.000133 0.001203 0.000000 -0.002480 0.000000
# 2 -0.000133 0.012139 0.000559 0.000000 -0.000188 0.000000
# 3 0.001203 0.000559 0.010361 0.000000 -0.002587 0.000000
# 4 0.000000 0.000000 0.000000 0.054923 0.000000 0.007592
# 5 -0.002480 -0.000188 -0.002587 0.000000 0.021382 0.000000
# 6 0.000000 0.000000 0.000000 0.007592 0.000000 0.063155
#
#
# Mechanical properties :
#
#
# Convention : Reuss Voigt Hill
#
# Bulk Modulus (GPa) = 25.76724 26.79515 26.28119
# Shear Modulus (GPa) = 27.07297 34.89399 30.98348
#
# Velocity S-wave (km/s) = 3.26990 3.71228 3.49809
# Velocity P-wave (km/s) = 4.94296 5.38119 5.16672
#
# Compressibility (1/GPa) = 0.03880897
#
# Stress axis : x y z
#
# Youngs Moduli (GPa) = 76.63268 82.37596 96.51752
#
# Poissons Ratio (x) = 0.01095 -0.11614
# Poissons Ratio (y) = 0.01019 -0.05399
# Poissons Ratio (z) = -0.09221 -0.04608
#
# Static dielectric constant tensor:
#      x y z
#    x 2.038260 0.000000 -0.068090 
#    y 0.000000 1.947330 0.000000 
#    z -0.068090 0.000000 1.958780 
# 
# From -- ./inp_files/365548.got.cif
#   From: 2010.05.17/outbox.cif.g08.bks.cpg/sg12_183_cif.got.tgz:365548.got - 2010.06.03 13:09:07.
