data_PCOD9198647
_publ_section_title
;
Structure prediction by ZEFSAII (Michael W. Deem and Ramdas Pophale) SiO2 
 PCOD9198647
Probable space group: C 2/M
;
_chemical_formula_sum "Si O2"
_cell_formula_units_Z 48
_cell_length_a 19.899599
_cell_length_b 16.516005
_cell_length_c 26.783482
_cell_angle_alpha 90.000000
_cell_angle_beta 18.266102
_cell_angle_gamma 90.000000
_cell_volume 2759.039306
_symmetry_space_group_name_H-M "C 2/M"
_symmetry_group_IT_number 12
_symmetry_cell_setting 'monoclinic'
loop_
_space_group_symop_operation_xyz
x,y,z
-x,y,-z
-x,-y,-z
x,-y,z
1/2+x,1/2+y,z
1/2-x,1/2+y,-z
1/2-x,1/2-y,-z
1/2+x,1/2-y,z
loop_
_atom_site_type_symbol
_atom_site_label
_atom_site_fract_x
_atom_site_fract_y
_atom_site_fract_z
Si Si1 0.332547 0.771627 0.161629
Si Si2 0.017618 0.330270 0.786526
Si Si3 0.275906 0.408264 0.682822
Si Si4 0.343720 0.236962 0.489034
Si Si5 0.682602 0.905589 0.412122
Si Si6 0.041944 0.174046 0.099519
O O1 0.295783 0.848966 0.222949
O O2 0.430001 0.699686 0.126973
O O3 0.097704 0.750039 0.307652
O O4 0.500000 0.789155 0.000000
O O5 0.979161 0.254056 0.850762
O O6 0.098862 0.401873 0.764349
O O7 0.211729 0.302833 0.614368
O O8 0.792783 0.345765 0.917970
O O9 0.500000 0.379690 0.500000
O O10 0.305478 0.500000 0.679072
O O11 0.250000 0.250000 0.500000
O O12 0.315377 0.153076 0.540815
O O13 0.500000 0.880446 0.500000
O O14 0.905218 0.892685 0.225411
O O15 0.649049 0.000000 0.448361
#
# Coordination Sequence:
#
# PCOD9198647 Si02
#       6
#     8   8   8   8   8   8
#     4  11  21  35  57  84 118 154 196 247 297 355
#     4   9  18  33  55  81 110 149 197 243 282 345
#     4  10  20  36  58  82 113 156 199 238 290 355
#     4  11  21  36  58  86 119 155 197 249 299 352
#     4  10  20  37  63  88 115 158 206 247 294 355
#     4   9  18  33  56  84 111 145 199 246 285 343
#
# _framework density 17.397359000000002
#
# number of rings (size 3 to 8) (size 9 to 14) (size 15 to 20)
#    0.000    2.000    3.333    1.000    0.000    2.333 
#    0.000    1.667    0.000    4.000    0.000    0.000 
#    0.000    0.000    0.000    0.000    0.000    0.000 
#
# Total GULP energy -133699.463797 kJ/mol
# GULP energy per Si atom -5570.810992 kJ/mol
# Density = 1.735776 g / cm^3
# Si number density = 17.397359 Si / 1000 Ang^3
#
#
#
# Elastic Constant Matrix: (Units=GPa)
#
#
# Indices 1 2 3 4 5 6 
#
# 1 129.5366 42.4906 57.5369 0.0062 -11.1314 -0.0035
# 2 42.4906 58.8921 29.0070 -0.0276 11.3163 0.0306
# 3 57.5369 29.0070 144.0408 -0.0048 -8.1684 0.0135
# 4 0.0062 -0.0276 -0.0048 16.3577 -0.0046 -0.2014
# 5 -11.1314 11.3163 -8.1684 -0.0046 39.4617 -0.0038
# 6 -0.0035 0.0306 0.0135 -0.2014 -0.0038 13.5500
#
#
#
# Elastic Compliance Matrix: (Units=1/GPa)
#
#
# Indices 1 2 3 4 5 6 
#
# 1 0.012208 -0.008395 -0.002888 -0.000018 0.005253 0.000026
# 2 -0.008395 0.026289 -0.002532 0.000043 -0.010431 -0.000061
# 3 -0.002888 -0.002532 0.008703 0.000000 0.001713 -0.000003
# 4 -0.000018 0.000043 0.000000 0.061145 -0.000010 0.000909
# 5 0.005253 -0.010431 0.001713 -0.000010 0.030169 0.000032
# 6 0.000026 -0.000061 -0.000003 0.000909 0.000032 0.073814
#
#
# Mechanical properties :
#
#
# Convention : Reuss Voigt Hill
#
# Bulk Modulus (GPa) = 51.09974 65.61540 58.35757
# Shear Modulus (GPa) = 20.28561 27.43621 23.86091
#
# Velocity S-wave (km/s) = 3.41840 3.97550 3.70743
# Velocity P-wave (km/s) = 6.70944 7.67270 7.20718
#
# Compressibility (1/GPa) = 0.01956957
#
# Stress axis : x y z
#
# Youngs Moduli (GPa) = 81.91592 38.03916 114.90119
#
# Poissons Ratio (x) = 0.31933 0.33182
# Poissons Ratio (y) = 0.68767 0.29096
# Poissons Ratio (z) = 0.23656 0.09632
#
# Static dielectric constant tensor:
#      x y z
#    x 1.605910 0.000020 -0.018880 
#    y 0.000020 1.579300 0.000080 
#    z -0.018880 0.000080 1.591010 
# 
# From -- ./inp_files/75106.got.cif
#   From: 2010.05.17/outbox.cif.g08.bks.cpg/sg12_38_cif.got.tgz:75106.got - 2010.06.03 13:09:07.
