data_PCOD9198575
_publ_section_title
;
Structure prediction by ZEFSAII (Michael W. Deem and Ramdas Pophale) SiO2 
 PCOD9198575
Probable space group: C 2/M
;
_chemical_formula_sum "Si O2"
_cell_formula_units_Z 40
_cell_length_a 27.715144
_cell_length_b 7.645230
_cell_length_c 18.996019
_cell_angle_alpha 90.000000
_cell_angle_beta 27.509714
_cell_angle_gamma 90.000000
_cell_volume 1859.162299
_symmetry_space_group_name_H-M "C 2/M"
_symmetry_group_IT_number 12
_symmetry_cell_setting 'monoclinic'
loop_
_space_group_symop_operation_xyz
x,y,z
-x,y,-z
-x,-y,-z
x,-y,z
1/2+x,1/2+y,z
1/2-x,1/2+y,-z
1/2-x,1/2-y,-z
1/2+x,1/2-y,z
loop_
_atom_site_type_symbol
_atom_site_label
_atom_site_fract_x
_atom_site_fract_y
_atom_site_fract_z
Si Si1 0.819339 0.214329 0.559295
Si Si2 0.978644 0.795999 0.233749
Si Si3 0.914123 0.297137 0.163338
Si Si4 0.882398 0.786198 0.634731
Si Si5 0.786315 0.708637 0.031899
O O1 0.702766 0.275598 0.691306
O O2 0.849554 0.268142 0.598985
O O3 0.903263 0.273100 0.392835
O O4 0.822169 0.000000 0.554631
O O5 0.955775 0.709144 0.188639
O O6 0.953986 0.000000 0.255583
O O7 0.098741 0.779605 0.100844
O O8 0.902603 0.500000 0.156328
O O9 0.000000 0.216622 0.000000
O O10 0.799110 0.727573 0.800964
O O11 0.000000 0.729783 0.500000
O O12 0.882348 0.000000 0.635959
O O13 0.792681 0.500000 0.031005
O O14 0.750000 0.750000 0.000000
#
# Coordination Sequence:
#
# PCOD9198575 Si02
#       5
#     8   8   8   8   8
#     4   9  18  33  54  81 110 143 185 228 272 323
#     4  11  22  36  56  82 113 145 179 225 278 330
#     4  10  20  36  58  81 108 145 189 232 272 321
#     4   9  17  32  56  82 106 138 182 226 268 319
#     4  11  22  37  59  84 111 144 182 225 272 324
#
# _framework density 21.515066999999998
#
# number of rings (size 3 to 8) (size 9 to 14) (size 15 to 20)
#    0.000    2.000    0.000    4.200    0.000    6.800 
#    0.000    1.000    0.000   15.600    0.000    0.000 
#    0.000    0.000    0.000    0.000    0.000    0.000 
#
# Total GULP energy -111802.522607 kJ/mol
# GULP energy per Si atom -5590.126130 kJ/mol
# Density = 2.146610 g / cm^3
# Si number density = 21.515067 Si / 1000 Ang^3
#
#
#
# Elastic Constant Matrix: (Units=GPa)
#
#
# Indices 1 2 3 4 5 6 
#
# 1 171.5863 -21.0017 113.9208 0.0012 4.6030 -0.0003
# 2 -21.0017 42.5019 -5.1994 0.0026 4.1429 0.0001
# 3 113.9208 -5.1994 238.3982 0.0043 9.1568 -0.0009
# 4 0.0012 0.0026 0.0043 6.9587 0.0002 4.2933
# 5 4.6030 4.1429 9.1568 0.0002 48.9610 -0.0005
# 6 -0.0003 0.0001 -0.0009 4.2933 -0.0005 16.4520
#
#
#
# Elastic Compliance Matrix: (Units=1/GPa)
#
#
# Indices 1 2 3 4 5 6 
#
# 1 0.009177 0.004050 -0.004282 0.000000 -0.000405 0.000000
# 2 0.004050 0.025597 -0.001289 -0.000011 -0.002306 0.000003
# 3 -0.004282 -0.001289 0.006238 -0.000003 -0.000655 0.000001
# 4 0.000000 -0.000011 -0.000003 0.171283 0.000000 -0.044698
# 5 -0.000405 -0.002306 -0.000655 0.000000 0.020780 0.000001
# 6 0.000000 0.000003 0.000001 -0.044698 0.000001 0.072447
#
#
# Mechanical properties :
#
#
# Convention : Reuss Voigt Hill
#
# Bulk Modulus (GPa) = 26.33501 69.76954 48.05228
# Shear Modulus (GPa) = 15.56571 38.79211 27.17891
#
# Velocity S-wave (km/s) = 2.69268 4.25081 3.55808
# Velocity P-wave (km/s) = 4.68339 7.52270 6.26599
#
# Compressibility (1/GPa) = 0.03797226
#
# Stress axis : x y z
#
# Youngs Moduli (GPa) = 108.96541 39.06717 160.31588
#
# Poissons Ratio (x) = -0.15824 0.68640
# Poissons Ratio (y) = -0.44136 0.20660
# Poissons Ratio (z) = 0.46654 0.05035
#
# Static dielectric constant tensor:
#      x y z
#    x 1.688990 0.000000 0.014280 
#    y 0.000000 1.839670 0.000000 
#    z 0.014280 0.000000 1.761370 
# 
# From -- ./inp_files/151674.got.cif
#   From: 2010.05.17/outbox.cif.g08.bks.cpg/sg12_76_cif.got.tgz:151674.got - 2010.06.03 13:09:07.
