data_PCOD9198950
_publ_section_title
;
Structure prediction by ZEFSAII (Michael W. Deem and Ramdas Pophale) SiO2 
 PCOD9198950
Probable space group: C 2/M
;
_chemical_formula_sum "Si O2"
_cell_formula_units_Z 40
_cell_length_a 19.685774
_cell_length_b 8.871586
_cell_length_c 27.756706
_cell_angle_alpha 90.000000
_cell_angle_beta 27.561097
_cell_angle_gamma 90.000000
_cell_volume 2242.930162
_symmetry_space_group_name_H-M "C 2/M"
_symmetry_group_IT_number 12
_symmetry_cell_setting 'monoclinic'
loop_
_space_group_symop_operation_xyz
x,y,z
-x,y,-z
-x,-y,-z
x,-y,z
1/2+x,1/2+y,z
1/2-x,1/2+y,-z
1/2-x,1/2-y,-z
1/2+x,1/2-y,z
loop_
_atom_site_type_symbol
_atom_site_label
_atom_site_fract_x
_atom_site_fract_y
_atom_site_fract_z
Si Si1 0.338325 0.320551 0.084481
Si Si2 0.191770 0.821153 0.085363
Si Si3 0.541391 0.820063 0.326506
Si Si4 0.893901 0.818466 0.325196
Si Si5 0.420672 0.681055 0.499493
O O1 0.337371 0.500000 0.074880
O O2 0.293603 0.232578 0.064974
O O3 0.209443 0.293183 0.204294
O O4 0.500000 0.278485 0.000000
O O5 0.026537 0.777719 0.205357
O O6 0.194733 0.000000 0.079182
O O7 0.250000 0.750000 0.000000
O O8 0.439577 0.749225 0.348480
O O9 0.507444 0.745815 0.398943
O O10 0.516115 0.000000 0.344441
O O11 0.741548 0.751159 0.402676
O O12 0.885269 0.000000 0.334418
O O13 0.500000 0.720162 0.500000
O O14 0.412020 0.500000 0.501672
#
# Coordination Sequence:
#
# PCOD9198950 Si02
#       5
#     8   8   8   8   8
#     4   9  19  36  57  82 111 143 181 223 267 317
#     4  10  21  36  56  82 111 144 181 222 267 318
#     4  10  20  36  59  82 108 144 182 222 268 320
#     4  10  21  38  59  81 107 142 184 224 265 320
#     4  11  24  39  55  79 111 143 178 224 274 322
#
# _framework density 17.833814
#
# number of rings (size 3 to 8) (size 9 to 14) (size 15 to 20)
#    0.000    2.000    0.000    3.000    0.000    6.800 
#    0.000    6.000    0.000    0.000    0.000    0.000 
#    0.000    0.000    0.000    0.000    0.000    0.000 
#
# Total GULP energy -111700.219445 kJ/mol
# GULP energy per Si atom -5585.010972 kJ/mol
# Density = 1.779322 g / cm^3
# Si number density = 17.833814 Si / 1000 Ang^3
#
#
#
# Elastic Constant Matrix: (Units=GPa)
#
#
# Indices 1 2 3 4 5 6 
#
# 1 140.4595 69.7825 109.5460 0.0006 4.6334 0.0000
# 2 69.7825 68.5614 66.5469 0.0016 5.9534 -0.0002
# 3 109.5460 66.5469 124.7310 0.0015 12.3224 0.0002
# 4 0.0006 0.0016 0.0015 29.9920 -0.0001 5.4355
# 5 4.6334 5.9534 12.3224 -0.0001 38.5088 0.0003
# 6 0.0000 -0.0002 0.0002 5.4355 0.0003 32.7851
#
#
#
# Elastic Compliance Matrix: (Units=1/GPa)
#
#
# Indices 1 2 3 4 5 6 
#
# 1 0.025378 -0.008627 -0.018088 0.000001 0.004068 0.000000
# 2 -0.008627 0.033193 -0.010045 -0.000001 -0.000879 0.000000
# 3 -0.018088 -0.010045 0.029837 -0.000001 -0.005818 0.000000
# 4 0.000001 -0.000001 -0.000001 0.034375 0.000000 -0.005699
# 5 0.004068 -0.000879 -0.005818 0.000000 0.027476 0.000000
# 6 0.000000 0.000000 0.000000 -0.005699 0.000000 0.031447
#
#
# Mechanical properties :
#
#
# Convention : Reuss Voigt Hill
#
# Bulk Modulus (GPa) = 67.16975 91.72253 79.44614
# Shear Modulus (GPa) = 19.21674 26.11562 22.66618
#
# Velocity S-wave (km/s) = 3.28616 3.83088 3.56893
# Velocity P-wave (km/s) = 7.22111 8.43273 7.85033
#
# Compressibility (1/GPa) = 0.01488765
#
# Stress axis : x y z
#
# Youngs Moduli (GPa) = 39.40382 30.12683 33.51515
#
# Poissons Ratio (x) = 0.25991 0.60621
# Poissons Ratio (y) = 0.33994 0.33668
# Poissons Ratio (z) = 0.71273 0.30264
#
# Static dielectric constant tensor:
#      x y z
#    x 1.565850 0.000000 -0.005350 
#    y 0.000000 1.596560 0.000000 
#    z -0.005350 0.000000 1.614900 
# 
# From -- ./inp_files/151729.got.cif
#   From: 2010.05.17/outbox.cif.g08.bks.cpg/sg12_76_cif.got.tgz:151729.got - 2010.06.03 13:09:07.
