data_PCOD9198738
_publ_section_title
;
Structure prediction by ZEFSAII (Michael W. Deem and Ramdas Pophale) SiO2 
 PCOD9198738
Probable space group: C 2/M
;
_chemical_formula_sum "Si O2"
_cell_formula_units_Z 56
_cell_length_a 9.718415
_cell_length_b 16.747893
_cell_length_c 29.086330
_cell_angle_alpha 90.000000
_cell_angle_beta 39.810127
_cell_angle_gamma 90.000000
_cell_volume 3031.035818
_symmetry_space_group_name_H-M "C 2/M"
_symmetry_group_IT_number 12
_symmetry_cell_setting 'monoclinic'
loop_
_space_group_symop_operation_xyz
x,y,z
-x,y,-z
-x,-y,-z
x,-y,z
1/2+x,1/2+y,z
1/2-x,1/2+y,-z
1/2-x,1/2-y,-z
1/2+x,1/2-y,z
loop_
_atom_site_type_symbol
_atom_site_label
_atom_site_fract_x
_atom_site_fract_y
_atom_site_fract_z
Si Si1 0.422640 0.142905 0.773734
Si Si2 0.471537 0.296049 0.453667
Si Si3 0.570357 0.403375 0.930817
Si Si4 0.912441 0.092510 0.657089
Si Si5 0.742254 0.902959 0.934565
Si Si6 0.608849 0.407777 0.774472
Si Si7 0.883972 0.198024 0.314353
O O1 0.283728 0.137272 0.855839
O O2 0.655151 0.103728 0.720767
O O3 0.282057 0.098848 0.770869
O O4 0.464567 0.231486 0.743737
O O5 0.500000 0.316333 0.500000
O O6 0.250000 0.250000 0.500000
O O7 0.491851 0.371711 0.414697
O O8 0.670851 0.239027 0.389026
O O9 0.603322 0.500000 0.920971
O O10 0.378759 0.383408 0.944763
O O11 0.500000 0.381361 0.000000
O O12 0.001631 0.146326 0.675775
O O13 0.966463 0.000000 0.649533
O O14 0.884026 0.877859 0.854356
O O15 0.734541 0.000000 0.934146
O O16 0.500000 0.872766 0.000000
O O17 0.583859 0.500000 0.767703
O O18 0.673904 0.356453 0.714219
#
# Coordination Sequence:
#
# PCOD9198738 Si02
#       7
#     8   8   8   8   8   8   8
#     4  10  20  37  58  84 117 156 196 237 291 353
#     4  11  23  44  66  87 119 158 190 226 289 355
#     4   9  17  30  51  80 113 150 194 245 295 338
#     4  11  23  39  62  93 120 148 195 244 282 338
#     4   8  15  29  49  74 105 143 187 232 282 335
#     4  10  20  36  58  84 113 150 197 242 285 341
#     4  11  23  39  62  85 118 154 189 232 294 350
#
# _framework density 18.475532999999999
#
# number of rings (size 3 to 8) (size 9 to 14) (size 15 to 20)
#    0.000    2.000    1.429    4.286    2.000    1.429 
#    0.000    5.714    0.000    4.286    0.000    0.000 
#    0.000    0.000    0.000    0.000    0.000    0.000 
#
# Total GULP energy -156299.729360 kJ/mol
# GULP energy per Si atom -5582.133191 kJ/mol
# Density = 1.843348 g / cm^3
# Si number density = 18.475533 Si / 1000 Ang^3
#
#
#
# Elastic Constant Matrix: (Units=GPa)
#
#
# Indices 1 2 3 4 5 6 
#
# 1 52.5663 22.5219 43.8241 -0.0014 8.7102 0.0031
# 2 22.5219 88.5553 47.0515 -0.0010 8.5134 0.0017
# 3 43.8241 47.0515 132.3595 0.0015 10.5692 0.0026
# 4 -0.0014 -0.0010 0.0015 13.3725 -0.0001 0.6115
# 5 8.7102 8.5134 10.5692 -0.0001 41.9194 -0.0008
# 6 0.0031 0.0017 0.0026 0.6115 -0.0008 15.9766
#
#
#
# Elastic Compliance Matrix: (Units=1/GPa)
#
#
# Indices 1 2 3 4 5 6 
#
# 1 0.027151 -0.002415 -0.007878 0.000004 -0.003165 -0.000004
# 2 -0.002415 0.014244 -0.004157 0.000001 -0.001343 -0.000001
# 3 -0.007878 -0.004157 0.011678 -0.000002 -0.000463 0.000000
# 4 0.000004 0.000001 -0.000002 0.074911 0.000000 -0.002867
# 5 -0.003165 -0.001343 -0.000463 0.000000 0.024902 0.000002
# 6 -0.000004 -0.000001 0.000000 -0.002867 0.000002 0.062701
#
#
# Mechanical properties :
#
#
# Convention : Reuss Voigt Hill
#
# Bulk Modulus (GPa) = 41.36810 55.58623 48.47717
# Shear Modulus (GPa) = 19.79832 24.92593 22.36212
#
# Velocity S-wave (km/s) = 3.27708 3.67704 3.48280
# Velocity P-wave (km/s) = 6.06286 6.94112 6.51681
#
# Compressibility (1/GPa) = 0.02417322
#
# Stress axis : x y z
#
# Youngs Moduli (GPa) = 36.83133 70.20371 85.62835
#
# Poissons Ratio (x) = 0.16953 0.67462
# Poissons Ratio (y) = 0.08894 0.35594
# Poissons Ratio (z) = 0.29017 0.29182
#
# Static dielectric constant tensor:
#      x y z
#    x 1.617240 0.000000 0.001870 
#    y 0.000000 1.640580 0.000000 
#    z 0.001870 0.000000 1.636970 
# 
# From -- ./inp_files/356677.got.cif
#   From: 2010.05.17/outbox.cif.g08.bks.cpg/sg12_179_cif.got.tgz:356677.got - 2010.06.03 13:09:07.
