data_PCOD9198495
_publ_section_title
;
Structure prediction by ZEFSAII (Michael W. Deem and Ramdas Pophale) SiO2 
 PCOD9198495
Probable space group: C 2/M
;
_chemical_formula_sum "Si O2"
_cell_formula_units_Z 64
_cell_length_a 31.970916
_cell_length_b 18.287509
_cell_length_c 12.713948
_cell_angle_alpha 90.000000
_cell_angle_beta 24.234227
_cell_angle_gamma 90.000000
_cell_volume 3051.189607
_symmetry_space_group_name_H-M "C 2/M"
_symmetry_group_IT_number 12
_symmetry_cell_setting 'monoclinic'
loop_
_space_group_symop_operation_xyz
x,y,z
-x,y,-z
-x,-y,-z
x,-y,z
1/2+x,1/2+y,z
1/2-x,1/2+y,-z
1/2-x,1/2-y,-z
1/2+x,1/2-y,z
loop_
_atom_site_type_symbol
_atom_site_label
_atom_site_fract_x
_atom_site_fract_y
_atom_site_fract_z
Si Si1 0.930336 0.417766 0.994765
Si Si2 0.711580 0.760781 0.374693
Si Si3 0.668961 0.081845 0.426677
Si Si4 0.993871 0.782066 0.274562
Si Si5 0.605297 0.166059 0.134102
Si Si6 0.304898 0.084859 0.881451
Si Si7 0.934404 0.913852 0.544816
Si Si8 0.393706 0.230833 0.179220
O O1 0.895833 0.500000 0.096032
O O2 0.052306 0.414016 0.733960
O O3 0.913041 0.396207 0.912238
O O4 0.879729 0.353863 0.178734
O O5 0.730192 0.847893 0.325782
O O6 0.607802 0.746909 0.547780
O O7 0.793630 0.709945 0.132145
O O8 0.688626 0.741370 0.548554
O O9 0.665288 0.089005 0.308628
O O10 0.708962 0.000000 0.358747
O O11 0.978271 0.862525 0.353717
O O12 0.019495 0.727095 0.311241
O O13 0.082270 0.773330 0.983975
O O14 0.625941 0.132479 0.200061
O O15 0.314302 0.000000 0.892388
O O16 0.185014 0.105001 0.164790
O O17 0.000000 0.901740 0.500000
O O18 0.940346 0.000000 0.506425
O O19 0.500000 0.234287 0.000000
#
# Coordination Sequence:
#
# PCOD9198495 Si02
#       8
#     8   8   8   8   8   8   8   8
#     4  10  20  36  57  87 118 147 188 234 288 349
#     4  11  21  39  59  84 118 154 196 236 287 341
#     4  10  21  37  55  82 118 147 187 236 285 344
#     4  10  21  39  57  90 116 148 195 240 284 340
#     4  11  22  37  61  84 116 155 189 239 288 346
#     4  10  22  39  59  84 115 154 192 233 291 346
#     4  10  22  41  62  83 114 156 198 238 281 335
#     4   9  18  36  59  84 116 153 189 235 290 341
#
# _framework density 20.975424
#
# number of rings (size 3 to 8) (size 9 to 14) (size 15 to 20)
#    0.000    1.875    5.000    0.375    1.750    4.750 
#    0.000    1.875    0.000    6.375    0.000    0.000 
#    0.000    0.000    0.000    0.000    0.000    0.000 
#
# Total GULP energy -178829.685123 kJ/mol
# GULP energy per Si atom -5588.427660 kJ/mol
# Density = 2.092768 g / cm^3
# Si number density = 20.975424 Si / 1000 Ang^3
#
#
#
# Elastic Constant Matrix: (Units=GPa)
#
#
# Indices 1 2 3 4 5 6 
#
# 1 75.9299 24.4543 10.2007 0.0000 -4.3449 0.0000
# 2 24.4543 91.3293 33.0109 0.0000 8.7902 0.0000
# 3 10.2007 33.0109 61.2904 0.0000 3.2895 0.0000
# 4 0.0000 0.0000 0.0000 29.5302 0.0000 3.3468
# 5 -4.3449 8.7902 3.2895 0.0000 26.7906 0.0000
# 6 0.0000 0.0000 0.0000 3.3468 0.0000 27.5145
#
#
#
# Elastic Compliance Matrix: (Units=1/GPa)
#
#
# Indices 1 2 3 4 5 6 
#
# 1 0.014790 -0.004177 -0.000417 0.000000 0.003820 0.000000
# 2 -0.004177 0.015127 -0.007197 0.000000 -0.004757 0.000000
# 3 -0.000417 -0.007197 0.020272 0.000000 -0.000195 0.000000
# 4 0.000000 0.000000 0.000000 0.034337 0.000000 -0.004177
# 5 0.003820 -0.004757 -0.000195 0.000000 0.039531 0.000000
# 6 0.000000 0.000000 0.000000 -0.004177 0.000000 0.036852
#
#
# Mechanical properties :
#
#
# Convention : Reuss Voigt Hill
#
# Bulk Modulus (GPa) = 37.58377 40.43126 39.00752
# Shear Modulus (GPa) = 25.85851 27.49265 26.67558
#
# Velocity S-wave (km/s) = 3.51493 3.62430 3.57003
# Velocity P-wave (km/s) = 5.86770 6.06889 5.96914
#
# Compressibility (1/GPa) = 0.02660723
#
# Stress axis : x y z
#
# Youngs Moduli (GPa) = 67.61337 66.10685 49.32953
#
# Poissons Ratio (x) = 0.27614 0.02056
# Poissons Ratio (y) = 0.28244 0.35502
# Poissons Ratio (z) = 0.02818 0.47576
#
# Static dielectric constant tensor:
#      x y z
#    x 1.774430 0.000000 -0.022980 
#    y 0.000000 1.735200 0.000000 
#    z -0.022980 0.000000 1.791420 
# 
# From -- ./inp_files/190013.got.cif
#   From: 2010.05.17/outbox.cif.g08.bks.cpg/sg12_96_cif.got.tgz:190013.got - 2010.06.03 13:09:07.
