data_PCOD9198653
_publ_section_title
;
Structure prediction by ZEFSAII (Michael W. Deem and Ramdas Pophale) SiO2 
 PCOD9198653
Probable space group: C 2/M
;
_chemical_formula_sum "Si O2"
_cell_formula_units_Z 48
_cell_length_a 17.007861
_cell_length_b 10.979938
_cell_length_c 13.485597
_cell_angle_alpha 90.000000
_cell_angle_beta 89.950200
_cell_angle_gamma 90.000000
_cell_volume 2518.370357
_symmetry_space_group_name_H-M "C 2/M"
_symmetry_group_IT_number 12
_symmetry_cell_setting 'monoclinic'
loop_
_space_group_symop_operation_xyz
x,y,z
-x,y,-z
-x,-y,-z
x,-y,z
1/2+x,1/2+y,z
1/2-x,1/2+y,-z
1/2-x,1/2-y,-z
1/2+x,1/2-y,z
loop_
_atom_site_type_symbol
_atom_site_label
_atom_site_fract_x
_atom_site_fract_y
_atom_site_fract_z
Si Si1 0.235211 0.866568 0.310084
Si Si2 0.450416 0.500000 0.344823
Si Si3 0.991837 0.359856 0.119943
Si Si4 0.704871 0.369774 0.966864
Si Si5 0.365262 0.710486 0.230592
Si Si6 0.599878 0.364702 0.147617
Si Si7 0.123255 0.000000 0.440659
O O1 0.302467 0.767149 0.306659
O O2 0.177617 0.854255 0.215322
O O3 0.175948 0.885428 0.402785
O O4 0.274134 0.000000 0.300884
O O5 0.425432 0.620030 0.284155
O O6 0.540694 0.500000 0.381331
O O7 0.397857 0.500000 0.445069
O O8 0.008431 0.500000 0.147761
O O9 0.909244 0.315831 0.166977
O O10 0.050111 0.256371 0.161387
O O11 0.000000 0.353725 0.000000
O O12 0.745611 0.500000 0.988218
O O13 0.683293 0.361686 0.852571
O O14 0.750000 0.250000 0.000000
O O15 0.626466 0.368268 0.033284
O O16 0.564510 0.500000 0.167654
#
# Coordination Sequence:
#
# PCOD9198653 Si02
#       7
#     8   4   8   8   8   8   4
#     4   9  20  39  63  87 121 164 206 247 329 384
#     4  11  24  42  70  97 121 152 228 275 326 372
#     4  11  24  36  52  85 127 171 211 257 302 362
#     4  11  22  35  54  87 128 172 212 254 307 372
#     4  12  22  37  60  95 128 162 212 272 305 377
#     4  10  20  36  58  82 118 173 214 250 304 379
#     4   9  22  46  67  92 117 167 211 273 336 396
#
# _framework density 19.059944999999999
#
# number of rings (size 3 to 8) (size 9 to 14) (size 15 to 20)
#    0.500    1.000    4.167    1.500    1.167    2.333 
#    1.500    0.000    0.000    0.000    0.000    3.500 
#    0.000    0.000    0.000    0.000    0.000    0.000 
#
# Total GULP energy -133716.745493 kJ/mol
# GULP energy per Si atom -5571.531062 kJ/mol
# Density = 1.901656 g / cm^3
# Si number density = 19.059945 Si / 1000 Ang^3
#
#
#
# Elastic Constant Matrix: (Units=GPa)
#
#
# Indices 1 2 3 4 5 6 
#
# 1 63.6729 56.5226 13.5711 0.0000 -15.0765 0.0000
# 2 56.5226 165.9944 22.5120 0.0000 -0.3489 0.0000
# 3 13.5711 22.5120 73.5042 0.0000 -17.2421 0.0000
# 4 0.0000 0.0000 0.0000 19.9121 0.0000 -9.1200
# 5 -15.0765 -0.3489 -17.2421 0.0000 31.4633 0.0000
# 6 0.0000 0.0000 0.0000 -9.1200 0.0000 38.2298
#
#
#
# Elastic Compliance Matrix: (Units=1/GPa)
#
#
# Indices 1 2 3 4 5 6 
#
# 1 0.026859 -0.009253 0.000998 0.000000 0.013315 0.000000
# 2 -0.009253 0.009508 -0.002546 0.000000 -0.005724 0.000000
# 3 0.000998 -0.002546 0.016416 0.000000 0.009446 0.000000
# 4 0.000000 0.000000 0.000000 0.056381 0.000000 0.013450
# 5 0.013315 -0.005724 0.009446 0.000000 0.043276 0.000000
# 6 0.000000 0.000000 0.000000 0.013450 0.000000 0.029366
#
#
# Mechanical properties :
#
#
# Convention : Reuss Voigt Hill
#
# Bulk Modulus (GPa) = 32.07080 54.26477 43.16778
# Shear Modulus (GPa) = 23.38593 31.95876 27.67235
#
# Velocity S-wave (km/s) = 3.50661 4.09926 3.81446
# Velocity P-wave (km/s) = 5.76697 7.13706 6.48828
#
# Compressibility (1/GPa) = 0.03118101
#
# Stress axis : x y z
#
# Youngs Moduli (GPa) = 37.23105 105.16997 60.91589
#
# Poissons Ratio (x) = 0.97316 -0.06081
# Poissons Ratio (y) = 0.34451 0.15512
# Poissons Ratio (z) = -0.03716 0.26780
#
# Static dielectric constant tensor:
#      x y z
#    x 1.697650 0.000000 -0.041360 
#    y 0.000000 1.699580 0.000000 
#    z -0.041360 0.000000 1.667330 
# 
# From -- ./inp_files/212784.got.cif
#   From: 2010.05.17/outbox.cif.g08.bks.cpg/sg12_107_cif.got.tgz:212784.got - 2010.06.03 13:09:07.
