data_PCOD9198073
_publ_section_title
;
Structure prediction by ZEFSAII (Michael W. Deem and Ramdas Pophale) SiO2 
 PCOD9198073
Probable space group: C 2/M
;
_chemical_formula_sum "Si O2"
_cell_formula_units_Z 56
_cell_length_a 8.734464
_cell_length_b 11.083711
_cell_length_c 30.534699
_cell_angle_alpha 90.000000
_cell_angle_beta 70.521579
_cell_angle_gamma 90.000000
_cell_volume 2786.888122
_symmetry_space_group_name_H-M "C 2/M"
_symmetry_group_IT_number 12
_symmetry_cell_setting 'monoclinic'
loop_
_space_group_symop_operation_xyz
x,y,z
-x,y,-z
-x,-y,-z
x,-y,z
1/2+x,1/2+y,z
1/2-x,1/2+y,-z
1/2-x,1/2-y,-z
1/2+x,1/2-y,z
loop_
_atom_site_type_symbol
_atom_site_label
_atom_site_fract_x
_atom_site_fract_y
_atom_site_fract_z
Si Si1 0.646973 0.132148 0.020099
Si Si2 0.808417 0.869519 0.590371
Si Si3 0.913451 0.312787 0.466101
Si Si4 0.888914 0.365062 0.733672
Si Si5 0.413439 0.134832 0.871779
Si Si6 0.758404 0.863716 0.697360
Si Si7 0.625476 0.365476 0.836374
O O1 0.731169 0.000000 0.007763
O O2 0.500000 0.131778 0.000000
O O3 0.750000 0.250000 0.000000
O O4 0.586160 0.140151 0.075836
O O5 0.658302 0.871169 0.570985
O O6 0.750807 0.851084 0.645454
O O7 0.945694 0.776121 0.563626
O O8 0.890082 0.000000 0.580233
O O9 0.750000 0.250000 0.500000
O O10 0.000000 0.373907 0.500000
O O11 0.872475 0.500000 0.714444
O O12 0.856747 0.248791 0.706811
O O13 0.759634 0.360048 0.785177
O O14 0.074090 0.357701 0.732190
O O15 0.509083 0.250721 0.844871
O O16 0.230358 0.141968 0.870876
O O17 0.474925 0.000000 0.852610
O O18 0.822248 0.000000 0.700887
O O19 0.547782 0.500000 0.841587
#
# Coordination Sequence:
#
# PCOD9198073 Si02
#       7
#     8   8   8   8   8   8   8
#     4  10  21  36  55  81 111 144 184 228 274 326
#     4  10  20  36  56  78 108 142 177 221 268 318
#     4   9  19  34  53  79 107 137 177 218 261 318
#     4  10  21  37  56  81 112 142 180 229 274 324
#     4  10  21  37  56  80 111 145 183 228 275 326
#     4  10  21  37  58  82 111 148 184 223 275 328
#     4  10  21  36  55  80 109 143 182 225 275 328
#
# _framework density 20.094096
#
# number of rings (size 3 to 8) (size 9 to 14) (size 15 to 20)
#    0.000    2.143    0.000    2.571    0.000    6.571 
#    0.000    2.857    0.000    0.000    0.000    0.000 
#    0.000    0.000    0.000    0.000    0.000    0.000 
#
# Total GULP energy -156006.499242 kJ/mol
# GULP energy per Si atom -5571.660687 kJ/mol
# Density = 2.004836 g / cm^3
# Si number density = 20.094096 Si / 1000 Ang^3
#
#
#
# Elastic Constant Matrix: (Units=GPa)
#
#
# Indices 1 2 3 4 5 6 
#
# 1 49.8596 46.2857 -1.5152 0.0000 2.4763 0.0000
# 2 46.2857 173.7952 28.0296 0.0000 -10.7410 0.0000
# 3 -1.5152 28.0296 40.7305 0.0000 9.5165 0.0000
# 4 0.0000 0.0000 0.0000 46.8202 0.0000 3.4534
# 5 2.4763 -10.7410 9.5165 0.0000 33.2068 0.0000
# 6 0.0000 0.0000 0.0000 3.4534 0.0000 26.1154
#
#
#
# Elastic Compliance Matrix: (Units=1/GPa)
#
#
# Indices 1 2 3 4 5 6 
#
# 1 0.030274 -0.010221 0.010139 0.000000 -0.008469 0.000000
# 2 -0.010221 0.010354 -0.009074 0.000000 0.006712 0.000000
# 3 0.010139 -0.009074 0.034335 0.000000 -0.013531 0.000000
# 4 0.000000 0.000000 0.000000 0.021569 0.000000 -0.002852
# 5 -0.008469 0.006712 -0.013531 0.000000 0.036795 0.000000
# 6 0.000000 0.000000 0.000000 -0.002852 0.000000 0.038669
#
#
# Mechanical properties :
#
#
# Convention : Reuss Voigt Hill
#
# Bulk Modulus (GPa) = 17.65223 45.55395 31.60309
# Shear Modulus (GPa) = 23.90169 34.00083 28.95126
#
# Velocity S-wave (km/s) = 3.45264 4.11795 3.79988
# Velocity P-wave (km/s) = 4.96972 6.73272 5.91725
#
# Compressibility (1/GPa) = 0.05665007
#
# Stress axis : x y z
#
# Youngs Moduli (GPa) = 33.03212 96.57842 29.12515
#
# Poissons Ratio (x) = 0.98714 -0.29530
# Poissons Ratio (y) = 0.33763 0.26428
# Poissons Ratio (z) = -0.33491 0.87635
#
# Static dielectric constant tensor:
#      x y z
#    x 1.678390 0.000000 0.020320 
#    y 0.000000 1.754780 0.000000 
#    z 0.020320 0.000000 1.728790 
# 
# From -- ./inp_files/371961.got.cif
#   From: 2010.05.17/outbox.cif.g08.bks.cpg/sg12_186_cif.got.tgz:371961.got - 2010.06.03 13:09:07.
