data_PCOD9198484
_publ_section_title
;
Structure prediction by ZEFSAII (Michael W. Deem and Ramdas Pophale) SiO2 
 PCOD9198484
Probable space group: C 2/M
;
_chemical_formula_sum "Si O2"
_cell_formula_units_Z 64
_cell_length_a 26.063579
_cell_length_b 11.914610
_cell_length_c 19.700189
_cell_angle_alpha 90.000000
_cell_angle_beta 147.141492
_cell_angle_gamma 90.000000
_cell_volume 3319.227911
_symmetry_space_group_name_H-M "C 2/M"
_symmetry_group_IT_number 12
_symmetry_cell_setting 'monoclinic'
loop_
_space_group_symop_operation_xyz
x,y,z
-x,y,-z
-x,-y,-z
x,-y,z
1/2+x,1/2+y,z
1/2-x,1/2+y,-z
1/2-x,1/2-y,-z
1/2+x,1/2-y,z
loop_
_atom_site_type_symbol
_atom_site_label
_atom_site_fract_x
_atom_site_fract_y
_atom_site_fract_z
Si Si1 0.297023 0.117380 0.612443
Si Si2 0.600387 0.301826 0.364349
Si Si3 0.525136 0.876729 0.713060
Si Si4 0.091120 0.317131 0.134797
Si Si5 0.014296 0.871968 0.891653
Si Si6 0.785486 0.366803 0.999429
Si Si7 0.096663 0.629348 0.641049
Si Si8 0.706958 0.750185 0.132367
O O1 0.343553 0.214340 0.620592
O O2 0.184340 0.129674 0.492135
O O3 0.349539 0.121407 0.742152
O O4 0.317071 0.000000 0.599417
O O5 0.543216 0.227561 0.354016
O O6 0.531246 0.362786 0.234269
O O7 0.603496 0.870681 0.858955
O O8 0.579651 0.870366 0.702749
O O9 0.478760 0.000000 0.663538
O O10 0.160849 0.293776 0.150251
O O11 0.044902 0.208598 0.122775
O O12 0.000000 0.374479 0.000000
O O13 0.008606 0.000000 0.908571
O O14 0.123457 0.831791 0.011510
O O15 0.752533 0.500000 0.977844
O O16 0.750000 0.250000 0.000000
O O17 0.773698 0.338664 0.906756
O O18 0.105985 0.500000 0.627907
O O19 0.194780 0.691621 0.739112
O O20 0.000000 0.674862 0.500000
#
# Coordination Sequence:
#
# PCOD9198484 Si02
#       8
#     8   8   8   8   8   8   8   8
#     4  10  21  37  57  81 114 152 192 239 295 360
#     4  10  20  36  57  86 116 147 194 243 304 362
#     4  10  20  37  60  85 117 152 195 249 303 363
#     4   9  22  38  55  85 118 157 203 243 292 361
#     4  10  20  36  58  88 124 158 199 253 309 366
#     4  11  23  41  64  93 123 156 204 257 310 370
#     4  10  22  37  57  86 118 158 207 255 303 365
#     4  11  21  38  60  85 117 160 200 255 304 363
#
# _framework density 19.281593000000001
#
# number of rings (size 3 to 8) (size 9 to 14) (size 15 to 20)
#    0.000    1.875    2.500    1.125    1.750    4.000 
#    0.000    0.625    0.000    0.375    0.000    0.000 
#    0.000    0.000    0.000    0.000    0.000    0.000 
#
# Total GULP energy -178149.932389 kJ/mol
# GULP energy per Si atom -5567.185387 kJ/mol
# Density = 1.923771 g / cm^3
# Si number density = 19.281593 Si / 1000 Ang^3
#
#
#
# Elastic Constant Matrix: (Units=GPa)
#
#
# Indices 1 2 3 4 5 6 
#
# 1 72.2370 26.1954 20.4313 0.0000 14.4377 0.0000
# 2 26.1954 105.7013 31.2920 0.0000 8.3594 0.0000
# 3 20.4313 31.2920 120.5826 0.0000 12.5702 0.0000
# 4 0.0000 0.0000 0.0000 7.6494 0.0000 16.2077
# 5 14.4377 8.3594 12.5702 0.0000 22.6738 0.0000
# 6 0.0000 0.0000 0.0000 16.2077 0.0000 45.3622
#
#
#
# Elastic Compliance Matrix: (Units=1/GPa)
#
#
# Indices 1 2 3 4 5 6 
#
# 1 0.017141 -0.003194 -0.001125 0.000000 -0.009113 0.000000
# 2 -0.003194 0.010972 -0.002225 0.000000 -0.000778 0.000000
# 3 -0.001125 -0.002225 0.009447 0.000000 -0.003700 0.000000
# 4 0.000000 0.000000 0.000000 0.538069 0.000000 -0.192249
# 5 -0.009113 -0.000778 -0.003700 0.000000 0.052245 0.000000
# 6 0.000000 0.000000 0.000000 -0.192249 0.000000 0.090734
#
#
# Mechanical properties :
#
#
# Convention : Reuss Voigt Hill
#
# Bulk Modulus (GPa) = 40.86419 50.48423 45.67421
# Shear Modulus (GPa) = 6.75807 29.84389 18.30098
#
# Velocity S-wave (km/s) = 1.87418 3.93847 3.08416
# Velocity P-wave (km/s) = 5.09144 6.84992 6.03507
#
# Compressibility (1/GPa) = 0.02447131
#
# Stress axis : x y z
#
# Youngs Moduli (GPa) = 58.33830 91.13730 105.85434
#
# Poissons Ratio (x) = 0.29110 0.11914
# Poissons Ratio (y) = 0.18634 0.23554
# Poissons Ratio (z) = 0.06566 0.20279
#
# Static dielectric constant tensor:
#      x y z
#    x 1.664340 0.000000 -0.007270 
#    y 0.000000 1.735850 0.000000 
#    z -0.007270 0.000000 1.707410 
# 
# From -- ./inp_files/327853.got.cif
#   From: 2010.05.17/outbox.cif.g08.bks.cpg/sg12_164_cif.got.tgz:327853.got - 2010.06.03 13:09:07.
