data_PCOD9198239
_publ_section_title
;
Structure prediction by ZEFSAII (Michael W. Deem and Ramdas Pophale) SiO2 
 PCOD9198239
Probable space group: C 2/M
;
_chemical_formula_sum "Si O2"
_cell_formula_units_Z 58
_cell_length_a 14.881626
_cell_length_b 7.880642
_cell_length_c 24.365706
_cell_angle_alpha 90.000000
_cell_angle_beta 71.649247
_cell_angle_gamma 90.000000
_cell_volume 2712.217097
_symmetry_space_group_name_H-M "C 2/M"
_symmetry_group_IT_number 12
_symmetry_cell_setting 'monoclinic'
loop_
_space_group_symop_operation_xyz
x,y,z
-x,y,-z
-x,-y,-z
x,-y,z
1/2+x,1/2+y,z
1/2-x,1/2+y,-z
1/2-x,1/2-y,-z
1/2+x,1/2-y,z
loop_
_atom_site_type_symbol
_atom_site_label
_atom_site_fract_x
_atom_site_fract_y
_atom_site_fract_z
Si Si1 0.704633 0.793177 0.121768
Si Si2 0.906117 0.808604 0.961771
Si Si3 0.433199 0.800238 0.561244
Si Si4 0.484049 0.197478 0.777236
Si Si5 0.961932 0.198656 0.353439
Si Si6 0.763373 0.204696 0.433941
Si Si7 0.602866 0.304714 0.854884
Si Si8 0.500000 0.000000 0.000000
O O1 0.676503 0.723426 0.067080
O O2 0.614735 0.740108 0.176914
O O3 0.804327 0.740157 0.130399
O O4 0.704499 0.000000 0.117675
O O5 0.007000 0.802203 0.909568
O O6 0.895736 0.000000 0.987620
O O7 0.921809 0.650721 0.998834
O O8 0.500000 0.727951 0.500000
O O9 0.471286 0.782829 0.614703
O O10 0.329213 0.725783 0.577549
O O11 0.424897 0.000000 0.550308
O O12 0.509795 0.280103 0.714802
O O13 0.568221 0.217048 0.805615
O O14 0.469816 0.000000 0.769139
O O15 0.858283 0.269241 0.387684
O O16 0.963414 0.000000 0.366204
O O17 0.750000 0.250000 0.500000
O O18 0.767005 0.000000 0.429068
O O19 0.623818 0.500000 0.837120
#
# Coordination Sequence:
#
# PCOD9198239 Si02
#       8
#     8   8   8   8   8   8   8   2
#     4   9  18  38  64  88 118 157 200 251 303 358
#     4  10  21  38  63  91 123 171 210 250 304 357
#     4  10  20  36  57  77 101 139 184 225 276 345
#     4  10  21  36  58  86 114 152 193 241 300 351
#     4  11  23  37  54  79 116 143 182 238 290 345
#     4  10  21  36  55  77 102 141 181 224 279 343
#     4   9  19  37  64  89 118 154 202 248 301 360
#     4  12  22  40  64  86 140 166 210 260 298 344
#
# _framework density 21.384719
#
# number of rings (size 3 to 8) (size 9 to 14) (size 15 to 20)
#    0.000    2.069    2.069    1.034    0.966    3.586 
#    0.000    6.207    0.000    0.000    0.000    0.000 
#    0.000    0.000    0.000    0.000    0.000    0.000 
#
# Total GULP energy -161597.030173 kJ/mol
# GULP energy per Si atom -5572.311385 kJ/mol
# Density = 2.133605 g / cm^3
# Si number density = 21.384719 Si / 1000 Ang^3
#
#
#
# Elastic Constant Matrix: (Units=GPa)
#
#
# Indices 1 2 3 4 5 6 
#
# 1 164.9840 2.3125 36.3471 0.0000 16.1436 0.0000
# 2 2.3125 43.2407 1.1177 0.0000 0.3412 0.0000
# 3 36.3471 1.1177 73.3779 0.0000 -0.6849 0.0000
# 4 0.0000 0.0000 0.0000 16.1413 0.0000 25.1944
# 5 16.1436 0.3412 -0.6849 0.0000 25.7068 0.0000
# 6 0.0000 0.0000 0.0000 25.1944 0.0000 -9.9103
#
#
#
# Elastic Compliance Matrix: (Units=1/GPa)
#
#
# Indices 1 2 3 4 5 6 
#
# 1 0.007334 -0.000260 -0.003673 0.000000 -0.004700 0.000000
# 2 -0.000260 0.023147 -0.000225 0.000000 -0.000150 0.000000
# 3 -0.003673 -0.000225 0.015476 0.000000 0.002722 0.000000
# 4 0.000000 0.000000 0.000000 0.012470 0.000000 0.031702
# 5 -0.004700 -0.000150 0.002722 0.000000 0.041926 0.000000
# 6 0.000000 0.000000 0.000000 0.031702 0.000000 -0.020311
#
#
# Mechanical properties :
#
#
# Convention : Reuss Voigt Hill
#
# Bulk Modulus (GPa) = 26.56653 40.12856 33.34754
# Shear Modulus (GPa) = 49.55110 22.50926 36.03018
#
# Velocity S-wave (km/s) = 4.81888 3.24788 4.10915
# Velocity P-wave (km/s) = 6.58879 5.73330 6.17588
#
# Compressibility (1/GPa) = 0.03764135
#
# Stress axis : x y z
#
# Youngs Moduli (GPa) = 136.35423 43.20166 64.61560
#
# Poissons Ratio (x) = 0.01124 0.23731
# Poissons Ratio (y) = 0.03548 0.01454
# Poissons Ratio (z) = 0.50078 0.00972
#
# Static dielectric constant tensor:
#      x y z
#    x 1.800280 0.000000 -0.031380 
#    y 0.000000 1.820770 0.000000 
#    z -0.031380 0.000000 1.759820 
# 
# From -- ./inp_files/337985.got.cif
#   From: 2010.05.17/outbox.cif.g08.bks.cpg/sg12_169_cif.got.tgz:337985.got - 2010.06.03 13:09:07.
