data_PCOD9198631
_publ_section_title
;
Structure prediction by ZEFSAII (Michael W. Deem and Ramdas Pophale) SiO2 
 PCOD9198631
Probable space group: C 2/M
;
_chemical_formula_sum "Si O2"
_cell_formula_units_Z 64
_cell_length_a 20.408489
_cell_length_b 9.166555
_cell_length_c 16.608005
_cell_angle_alpha 90.000000
_cell_angle_beta 103.029356
_cell_angle_gamma 90.000000
_cell_volume 3026.961996
_symmetry_space_group_name_H-M "C 2/M"
_symmetry_group_IT_number 12
_symmetry_cell_setting 'monoclinic'
loop_
_space_group_symop_operation_xyz
x,y,z
-x,y,-z
-x,-y,-z
x,-y,z
1/2+x,1/2+y,z
1/2-x,1/2+y,-z
1/2-x,1/2-y,-z
1/2+x,1/2-y,z
loop_
_atom_site_type_symbol
_atom_site_label
_atom_site_fract_x
_atom_site_fract_y
_atom_site_fract_z
Si Si1 0.580326 0.333110 0.014585
Si Si2 0.293020 0.832087 0.414222
Si Si3 0.656706 0.171931 0.177158
Si Si4 0.215020 0.661864 0.782541
Si Si5 0.080449 0.332451 0.849722
Si Si6 0.998752 0.169765 0.301866
Si Si7 0.647783 0.675723 0.348049
Si Si8 0.429331 0.671673 0.447536
O O1 0.604724 0.500000 0.025181
O O2 0.595106 0.260305 0.932916
O O3 0.500000 0.334476 0.000000
O O4 0.610676 0.239611 0.095414
O O5 0.294702 0.831609 0.316387
O O6 0.217108 0.773153 0.409991
O O7 0.360050 0.744595 0.454748
O O8 0.298272 0.000000 0.443323
O O9 0.733641 0.213277 0.177376
O O10 0.645866 0.253608 0.259003
O O11 0.647025 0.000000 0.182969
O O12 0.244420 0.500000 0.807657
O O13 0.145518 0.671821 0.810341
O O14 0.066050 0.500000 0.867386
O O15 0.020209 0.266314 0.779748
O O16 0.072501 0.204486 0.358882
O O17 0.942253 0.182935 0.355066
O O18 0.001063 0.000000 0.277512
O O19 0.655273 0.500000 0.344652
O O20 0.500000 0.732811 0.500000
O O21 0.426078 0.500000 0.468305
#
# Coordination Sequence:
#
# PCOD9198631 Si02
#       8
#     8   8   8   8   8   8   8   8
#     4  11  24  40  55  73 105 149 188 224 277 339
#     4   9  17  34  57  80 108 145 187 226 270 329
#     4  11  22  35  55  82 110 142 184 233 280 324
#     4   9  19  36  56  79 109 145 180 223 278 333
#     4  11  22  36  57  83 110 139 182 237 281 321
#     4  10  20  36  58  82 111 149 189 226 274 339
#     4   9  19  36  57  80 110 150 190 228 276 334
#     4  10  21  36  56  84 116 147 181 226 277 329
#
# _framework density 21.143312999999999
#
# number of rings (size 3 to 8) (size 9 to 14) (size 15 to 20)
#    0.000    2.000    1.250    3.375    0.000    8.250 
#    0.000    0.625    0.000    0.000    0.000    0.000 
#    0.000    0.000    0.000    0.000    0.000    0.000 
#
# Total GULP energy -178721.861777 kJ/mol
# GULP energy per Si atom -5585.058181 kJ/mol
# Density = 2.109519 g / cm^3
# Si number density = 21.143313 Si / 1000 Ang^3
#
#
#
# Elastic Constant Matrix: (Units=GPa)
#
#
# Indices 1 2 3 4 5 6 
#
# 1 118.9030 31.1826 20.0832 0.0000 17.2357 0.0000
# 2 31.1826 60.6507 27.5512 0.0000 13.5142 0.0000
# 3 20.0832 27.5512 78.8747 0.0000 19.5867 0.0000
# 4 0.0000 0.0000 0.0000 38.2096 0.0000 6.0030
# 5 17.2357 13.5142 19.5867 0.0000 36.1412 0.0000
# 6 0.0000 0.0000 0.0000 6.0030 0.0000 29.8880
#
#
#
# Elastic Compliance Matrix: (Units=1/GPa)
#
#
# Indices 1 2 3 4 5 6 
#
# 1 0.010037 -0.004362 -0.000287 0.000000 -0.003000 0.000000
# 2 -0.004362 0.022055 -0.005849 0.000000 -0.002997 0.000000
# 3 -0.000287 -0.005849 0.016428 0.000000 -0.006579 0.000000
# 4 0.000000 0.000000 0.000000 0.027024 0.000000 -0.005428
# 5 -0.003000 -0.002997 -0.006579 0.000000 0.033786 0.000000
# 6 0.000000 0.000000 0.000000 -0.005428 0.000000 0.034548
#
#
# Mechanical properties :
#
#
# Convention : Reuss Voigt Hill
#
# Bulk Modulus (GPa) = 36.33042 46.22915 41.27978
# Shear Modulus (GPa) = 28.72723 32.82185 30.77454
#
# Velocity S-wave (km/s) = 3.69004 3.94426 3.81927
# Velocity P-wave (km/s) = 5.94773 6.53109 6.24622
#
# Compressibility (1/GPa) = 0.02752515
#
# Stress axis : x y z
#
# Youngs Moduli (GPa) = 99.62653 45.34085 60.87030
#
# Poissons Ratio (x) = 0.19776 0.01748
# Poissons Ratio (y) = 0.43454 0.35604
# Poissons Ratio (z) = 0.02861 0.26520
#
# Static dielectric constant tensor:
#      x y z
#    x 1.801250 0.000000 0.001460 
#    y 0.000000 1.728440 0.000000 
#    z 0.001460 0.000000 1.756220 
# 
# From -- ./inp_files/320142.got.cif
#   From: 2010.05.17/outbox.cif.g08.bks.cpg/sg12_161_cif.got.tgz:320142.got - 2010.06.03 13:09:07.
