data_PCOD9198723
_publ_section_title
;
Structure prediction by ZEFSAII (Michael W. Deem and Ramdas Pophale) SiO2 
 PCOD9198723
Probable space group: C 2/M
;
_chemical_formula_sum "Si O2"
_cell_formula_units_Z 44
_cell_length_a 27.700728
_cell_length_b 9.892337
_cell_length_c 12.399610
_cell_angle_alpha 90.000000
_cell_angle_beta 42.227796
_cell_angle_gamma 90.000000
_cell_volume 2283.594652
_symmetry_space_group_name_H-M "C 2/M"
_symmetry_group_IT_number 12
_symmetry_cell_setting 'monoclinic'
loop_
_space_group_symop_operation_xyz
x,y,z
-x,y,-z
-x,-y,-z
x,-y,z
1/2+x,1/2+y,z
1/2-x,1/2+y,-z
1/2-x,1/2-y,-z
1/2+x,1/2-y,z
loop_
_atom_site_type_symbol
_atom_site_label
_atom_site_fract_x
_atom_site_fract_y
_atom_site_fract_z
Si Si1 0.359984 0.160053 0.639708
Si Si2 0.296671 0.662047 0.135379
Si Si3 0.693784 0.163538 0.664485
Si Si4 0.000000 0.210921 0.500000
Si Si5 0.954096 0.852612 0.811156
Si Si6 0.429808 0.158405 0.296845
O O1 0.278245 0.202363 0.797323
O O2 0.425559 0.211086 0.602614
O O3 0.378857 0.194300 0.483697
O O4 0.361406 0.000000 0.646087
O O5 0.290510 0.500000 0.175730
O O6 0.305798 0.760918 0.222014
O O7 0.369318 0.675726 0.947182
O O8 0.750000 0.250000 0.500000
O O9 0.616647 0.178610 0.733329
O O10 0.709233 0.000000 0.643037
O O11 0.985860 0.142326 0.638114
O O12 0.998708 0.744495 0.805406
O O13 0.963278 0.000000 0.847153
O O14 0.447261 0.000000 0.277183
#
# Coordination Sequence:
#
# PCOD9198723 Si02
#       6
#     8   8   8   4   8   8
#     4   9  17  34  57  81 109 147 190 235 285 341
#     4  10  21  38  57  83 118 153 191 237 286 339
#     4  11  21  36  59  89 118 154 190 230 280 337
#     4  10  20  36  58  84 109 146 199 238 293 344
#     4  10  22  38  57  82 116 152 190 242 293 337
#     4   9  19  36  58  81 113 152 191 228 274 339
#
# _framework density 19.267869000000001
#
# number of rings (size 3 to 8) (size 9 to 14) (size 15 to 20)
#    0.000    2.182    1.818    1.091    0.000    4.364 
#    0.000    4.545    0.000    0.000    0.000    0.000 
#    0.000    0.000    0.000    0.000    0.000    0.000 
#
# Total GULP energy -122516.931047 kJ/mol
# GULP energy per Si atom -5568.951411 kJ/mol
# Density = 1.922401 g / cm^3
# Si number density = 19.267869 Si / 1000 Ang^3
#
#
#
# Elastic Constant Matrix: (Units=GPa)
#
#
# Indices 1 2 3 4 5 6 
#
# 1 117.7700 52.6816 33.4474 0.0000 -35.4124 0.0000
# 2 52.6816 56.3466 43.7078 0.0000 -20.3061 0.0000
# 3 33.4474 43.7078 81.6532 0.0000 -30.9556 0.0000
# 4 0.0000 0.0000 0.0000 18.3829 0.0000 -14.6517
# 5 -35.4124 -20.3061 -30.9556 0.0000 39.4042 0.0000
# 6 0.0000 0.0000 0.0000 -14.6517 0.0000 10.0040
#
#
#
# Elastic Compliance Matrix: (Units=1/GPa)
#
#
# Indices 1 2 3 4 5 6 
#
# 1 0.018381 -0.017963 0.006891 0.000000 0.012676 0.000000
# 2 -0.017963 0.048375 -0.021655 0.000000 -0.008226 0.000000
# 3 0.006891 -0.021655 0.027248 0.000000 0.016440 0.000000
# 4 0.000000 0.000000 0.000000 -0.325132 0.000000 -0.476184
# 5 0.012676 -0.008226 0.016440 0.000000 0.045445 0.000000
# 6 0.000000 0.000000 0.000000 -0.476184 0.000000 -0.597451
#
#
# Mechanical properties :
#
#
# Convention : Reuss Voigt Hill
#
# Bulk Modulus (GPa) = 35.02479 57.27149 46.14814
# Shear Modulus (GPa) = -7.06050 21.95376 7.44663
#
# Velocity S-wave (km/s) = -1.91634 3.37916 1.96804
# Velocity P-wave (km/s) = 3.64977 6.70920 5.40065
#
# Compressibility (1/GPa) = 0.02855121
#
# Stress axis : x y z
#
# Youngs Moduli (GPa) = 54.40546 20.67200 36.69996
#
# Poissons Ratio (x) = 0.37132 -0.25292
# Poissons Ratio (y) = 0.97726 0.79473
# Poissons Ratio (z) = -0.37493 0.44765
#
# Static dielectric constant tensor:
#      x y z
#    x 1.674240 0.000000 -0.004250 
#    y 0.000000 1.665650 0.000000 
#    z -0.004250 0.000000 1.695320 
# 
# From -- ./inp_files/182382.got.cif
#   From: 2010.05.17/outbox.cif.g08.bks.cpg/sg12_92_cif.got.tgz:182382.got - 2010.06.03 13:09:07.
