data_PCOD9198471
_publ_section_title
;
Structure prediction by ZEFSAII (Michael W. Deem and Ramdas Pophale) SiO2 
 PCOD9198471
Probable space group: C 2/M
;
_chemical_formula_sum "Si O2"
_cell_formula_units_Z 48
_cell_length_a 13.209785
_cell_length_b 13.697547
_cell_length_c 23.278066
_cell_angle_alpha 90.000000
_cell_angle_beta 31.309258
_cell_angle_gamma 90.000000
_cell_volume 2188.781293
_symmetry_space_group_name_H-M "C 2/M"
_symmetry_group_IT_number 12
_symmetry_cell_setting 'monoclinic'
loop_
_space_group_symop_operation_xyz
x,y,z
-x,y,-z
-x,-y,-z
x,-y,z
1/2+x,1/2+y,z
1/2-x,1/2+y,-z
1/2-x,1/2-y,-z
1/2+x,1/2-y,z
loop_
_atom_site_type_symbol
_atom_site_label
_atom_site_fract_x
_atom_site_fract_y
_atom_site_fract_z
Si Si1 0.271438 0.000000 0.544001
Si Si2 0.782545 0.700149 0.730012
Si Si3 0.563125 0.207649 0.028540
Si Si4 0.731623 0.613206 0.342055
Si Si5 0.819033 0.608993 0.915518
Si Si6 0.295887 0.156343 0.441865
Si Si7 0.245879 0.500000 0.318226
O O1 0.216767 0.084887 0.528413
O O2 0.507974 0.000000 0.434581
O O3 0.187226 0.000000 0.648145
O O4 0.621790 0.746612 0.848985
O O5 0.838680 0.790279 0.659452
O O6 0.701054 0.603586 0.736658
O O7 0.968086 0.658320 0.674685
O O8 0.664772 0.135729 0.024576
O O9 0.500000 0.158907 0.000000
O O10 0.699254 0.300604 0.948311
O O11 0.664102 0.500000 0.363430
O O12 0.714284 0.635793 0.418451
O O13 0.962463 0.610638 0.215178
O O14 0.737599 0.500000 0.946254
O O15 0.250000 0.250000 0.500000
#
# Coordination Sequence:
#
# PCOD9198471 Si02
#       7
#     4   8   8   8   8   8   4
#     4   9  18  34  52  77 102 143 186 228 285 327
#     4  10  22  37  58  85 114 155 193 237 295 339
#     4  10  20  36  57  85 117 147 192 238 279 345
#     4  10  20  39  60  84 120 154 189 240 290 346
#     4   9  20  36  57  84 117 153 188 230 291 343
#     4  11  21  36  58  83 113 148 197 238 285 345
#     4   9  18  34  55  76 112 141 186 239 281 342
#
# _framework density 21.930011
#
# number of rings (size 3 to 8) (size 9 to 14) (size 15 to 20)
#    0.000    2.167    0.833    2.000    1.167    2.667 
#    1.500    0.833    0.000    0.000    0.000    0.000 
#    0.000    0.000    0.000    0.000    0.000    0.000 
#
# Total GULP energy -133766.136654 kJ/mol
# GULP energy per Si atom -5573.589027 kJ/mol
# Density = 2.188010 g / cm^3
# Si number density = 21.930011 Si / 1000 Ang^3
#
#
#
# Elastic Constant Matrix: (Units=GPa)
#
#
# Indices 1 2 3 4 5 6 
#
# 1 96.8228 23.7177 8.7741 -0.0004 20.7493 0.0005
# 2 23.7177 132.9599 7.9947 -0.0006 20.6864 0.0002
# 3 8.7741 7.9947 49.8843 -0.0024 11.8890 0.0013
# 4 -0.0004 -0.0006 -0.0024 21.8754 0.0002 -4.6637
# 5 20.7493 20.6864 11.8890 0.0002 30.7667 -0.0003
# 6 0.0005 0.0002 0.0013 -4.6637 -0.0003 25.3274
#
#
#
# Elastic Compliance Matrix: (Units=1/GPa)
#
#
# Indices 1 2 3 4 5 6 
#
# 1 0.012193 -0.001000 -0.000204 0.000000 -0.007472 0.000000
# 2 -0.001000 0.008482 0.000017 0.000000 -0.005035 0.000000
# 3 -0.000204 0.000017 0.022083 0.000002 -0.008407 -0.000001
# 4 0.000000 0.000000 0.000002 0.047581 -0.000001 0.008761
# 5 -0.007472 -0.005035 -0.008407 -0.000001 0.044176 0.000001
# 6 0.000000 0.000000 -0.000001 0.008761 0.000001 0.041096
#
#
# Mechanical properties :
#
#
# Convention : Reuss Voigt Hill
#
# Bulk Modulus (GPa) = 24.76265 40.07110 32.41688
# Shear Modulus (GPa) = 26.11693 31.53926 28.82809
#
# Velocity S-wave (km/s) = 3.45472 3.79645 3.62961
# Velocity P-wave (km/s) = 5.21820 6.12611 5.69029
#
# Compressibility (1/GPa) = 0.04038339
#
# Stress axis : x y z
#
# Youngs Moduli (GPa) = 82.01544 117.89942 45.28309
#
# Poissons Ratio (x) = 0.11793 0.00922
# Poissons Ratio (y) = 0.08204 -0.00075
# Poissons Ratio (z) = 0.01669 -0.00195
#
# Static dielectric constant tensor:
#      x y z
#    x 1.813170 0.000000 -0.155590 
#    y 0.000000 1.701090 0.000000 
#    z -0.155590 0.000000 1.651170 
# 
# From -- ./inp_files/212880.got.cif
#   From: 2010.05.17/outbox.cif.g08.bks.cpg/sg12_107_cif.got.tgz:212880.got - 2010.06.03 13:09:07.
