data_PCOD9198867
_publ_section_title
;
Structure prediction by ZEFSAII (Michael W. Deem and Ramdas Pophale) SiO2 
 PCOD9198867
Probable space group: C 2/M
;
_chemical_formula_sum "Si O2"
_cell_formula_units_Z 56
_cell_length_a 24.255858
_cell_length_b 8.005546
_cell_length_c 14.467454
_cell_angle_alpha 90.000000
_cell_angle_beta 108.811430
_cell_angle_gamma 90.000000
_cell_volume 2659.250841
_symmetry_space_group_name_H-M "C 2/M"
_symmetry_group_IT_number 12
_symmetry_cell_setting 'monoclinic'
loop_
_space_group_symop_operation_xyz
x,y,z
-x,y,-z
-x,-y,-z
x,-y,z
1/2+x,1/2+y,z
1/2-x,1/2+y,-z
1/2-x,1/2-y,-z
1/2+x,1/2-y,z
loop_
_atom_site_type_symbol
_atom_site_label
_atom_site_fract_x
_atom_site_fract_y
_atom_site_fract_z
Si Si1 0.314928 0.701940 0.500006
Si Si2 0.919310 0.697475 0.182271
Si Si3 0.351988 0.692538 0.317695
Si Si4 0.477052 0.696030 0.887874
Si Si5 0.132090 0.204013 0.287325
Si Si6 0.730667 0.306053 0.210748
Si Si7 0.687306 0.199555 0.004217
O O1 0.314391 0.500000 0.495010
O O2 0.250000 0.750000 0.500000
O O3 0.335206 0.764420 0.409779
O O4 0.362602 0.753869 0.603031
O O5 0.927816 0.500000 0.174351
O O6 0.901008 0.728529 0.278494
O O7 0.973913 0.786292 0.164719
O O8 0.864041 0.752196 0.090781
O O9 0.368022 0.500000 0.338060
O O10 0.290137 0.707017 0.231007
O O11 0.465353 0.500000 0.898907
O O12 0.419229 0.768023 0.806838
O O13 0.500000 0.765388 0.000000
O O14 0.194551 0.251955 0.278997
O O15 0.129355 0.000000 0.283523
O O16 0.746920 0.500000 0.226848
O O17 0.685960 0.284177 0.102799
O O18 0.684730 0.000000 0.012459
O O19 0.750000 0.250000 0.000000
#
# Coordination Sequence:
#
# PCOD9198867 Si02
#       7
#     8   8   8   8   8   8   8
#     4  10  20  36  58  87 121 156 196 243 296 352
#     4  11  24  40  58  82 117 158 195 245 301 347
#     4  11  22  35  56  85 117 154 195 239 291 355
#     4  10  21  40  65  89 115 154 201 244 288 354
#     4   9  19  36  59  86 117 153 194 242 296 351
#     4  11  20  33  56  84 117 152 187 238 296 350
#     4  11  22  34  51  78 113 150 190 234 290 355
#
# _framework density 21.058561000000001
#
# number of rings (size 3 to 8) (size 9 to 14) (size 15 to 20)
#    0.000    1.571    2.857    2.571    0.000    3.714 
#    0.000    2.857    0.000    4.286    0.000    0.000 
#    0.000    0.000    0.000    0.000    0.000    0.000 
#
# Total GULP energy -156193.675369 kJ/mol
# GULP energy per Si atom -5578.345549 kJ/mol
# Density = 2.101063 g / cm^3
# Si number density = 21.058561 Si / 1000 Ang^3
#
#
#
# Elastic Constant Matrix: (Units=GPa)
#
#
# Indices 1 2 3 4 5 6 
#
# 1 72.7084 -4.1554 31.5108 0.0000 -7.7703 0.0000
# 2 -4.1554 21.3761 -0.0626 0.0000 0.9104 0.0000
# 3 31.5108 -0.0626 123.4123 0.0000 -16.3549 0.0000
# 4 0.0000 0.0000 0.0000 14.7178 0.0000 -2.7548
# 5 -7.7703 0.9104 -16.3549 0.0000 35.0673 0.0000
# 6 0.0000 0.0000 0.0000 -2.7548 0.0000 21.1414
#
#
#
# Elastic Compliance Matrix: (Units=1/GPa)
#
#
# Indices 1 2 3 4 5 6 
#
# 1 0.015747 0.002980 -0.003802 0.000000 0.001639 0.000000
# 2 0.002980 0.047400 -0.000866 0.000000 -0.000974 0.000000
# 3 -0.003802 -0.000866 0.009555 0.000000 0.003636 0.000000
# 4 0.000000 0.000000 0.000000 0.069644 0.000000 0.009075
# 5 0.001639 -0.000974 0.003636 0.000000 0.030601 0.000000
# 6 0.000000 0.000000 0.000000 0.009075 0.000000 0.048483
#
#
# Mechanical properties :
#
#
# Convention : Reuss Voigt Hill
#
# Bulk Modulus (GPa) = 14.42463 30.23140 22.32801
# Shear Modulus (GPa) = 20.16834 26.86556 23.51695
#
# Velocity S-wave (km/s) = 3.09807 3.57565 3.34539
# Velocity P-wave (km/s) = 4.43419 5.60661 5.05451
#
# Compressibility (1/GPa) = 0.06932586
#
# Stress axis : x y z
#
# Youngs Moduli (GPa) = 63.50527 21.09725 104.65575
#
# Poissons Ratio (x) = -0.06287 0.39789
# Poissons Ratio (y) = -0.18925 0.09063
# Poissons Ratio (z) = 0.24144 0.01827
#
# Static dielectric constant tensor:
#      x y z
#    x 1.737000 0.000000 -0.034930 
#    y 0.000000 1.741690 0.000000 
#    z -0.034930 0.000000 1.840460 
# 
# From -- ./inp_files/244293.got.cif
#   From: 2010.05.17/outbox.cif.g08.bks.cpg/sg12_123_cif.got.tgz:244293.got - 2010.06.03 13:09:07.
