data_PCOD9198469
_publ_section_title
;
Structure prediction by ZEFSAII (Michael W. Deem and Ramdas Pophale) SiO2 
 PCOD9198469
Probable space group: C 2/M
;
_chemical_formula_sum "Si O2"
_cell_formula_units_Z 40
_cell_length_a 8.305933
_cell_length_b 18.748566
_cell_length_c 16.772124
_cell_angle_alpha 90.000000
_cell_angle_beta 134.190200
_cell_angle_gamma 90.000000
_cell_volume 1872.758491
_symmetry_space_group_name_H-M "C 2/M"
_symmetry_group_IT_number 12
_symmetry_cell_setting 'monoclinic'
loop_
_space_group_symop_operation_xyz
x,y,z
-x,y,-z
-x,-y,-z
x,-y,z
1/2+x,1/2+y,z
1/2-x,1/2+y,-z
1/2-x,1/2-y,-z
1/2+x,1/2-y,z
loop_
_atom_site_type_symbol
_atom_site_label
_atom_site_fract_x
_atom_site_fract_y
_atom_site_fract_z
Si Si1 0.459329 0.651646 0.574534
Si Si2 0.960035 0.313780 0.364161
Si Si3 0.699383 0.192992 0.860261
Si Si4 0.444540 0.580639 0.728684
Si Si5 0.669879 0.656426 0.935721
O O1 0.500000 0.623776 0.500000
O O2 0.564052 0.730608 0.621740
O O3 0.532848 0.602197 0.672323
O O4 0.189631 0.661599 0.483783
O O5 0.972002 0.316743 0.271575
O O6 0.754050 0.363037 0.320138
O O7 0.714810 0.274422 0.896334
O O8 0.933325 0.171964 0.898812
O O9 0.664114 0.150901 0.931367
O O10 0.360871 0.500000 0.700787
O O11 0.629123 0.592394 0.861418
#
# Coordination Sequence:
#
# PCOD9198469 Si02
#       5
#     8   8   8   8   8
#     4  11  22  35  58  84 112 152 202 246 276 334
#     4  10  20  36  57  85 115 151 193 239 287 336
#     4   9  17  31  56  83 113 139 188 235 276 333
#     4  11  23  39  58  84 122 155 186 235 298 350
#     4   9  18  33  54  86 110 145 183 232 282 338
#
# _framework density 21.358867
#
# number of rings (size 3 to 8) (size 9 to 14) (size 15 to 20)
#    0.000    2.000    2.000    3.000    2.800    2.000 
#    0.000    8.000    0.000    0.000    0.000   18.200 
#    0.000    0.000    0.000    0.000    0.000    0.000 
#
# Total GULP energy -111605.052775 kJ/mol
# GULP energy per Si atom -5580.252639 kJ/mol
# Density = 2.131025 g / cm^3
# Si number density = 21.358867 Si / 1000 Ang^3
#
#
#
# Elastic Constant Matrix: (Units=GPa)
#
#
# Indices 1 2 3 4 5 6 
#
# 1 57.4488 19.3086 35.5726 0.0000 -33.2116 0.0000
# 2 19.3086 51.4741 43.5052 0.0000 -18.5680 0.0000
# 3 35.5726 43.5052 129.2556 0.0000 -50.5668 0.0000
# 4 0.0000 0.0000 0.0000 -12.2674 0.0000 10.4952
# 5 -33.2116 -18.5680 -50.5668 0.0000 43.9163 0.0000
# 6 0.0000 0.0000 0.0000 10.4952 0.0000 12.3920
#
#
#
# Elastic Compliance Matrix: (Units=1/GPa)
#
#
# Indices 1 2 3 4 5 6 
#
# 1 0.032031 -0.005317 0.002860 0.000000 0.025268 0.000000
# 2 -0.005317 0.028107 -0.008955 0.000000 -0.002448 0.000000
# 3 0.002860 -0.008955 0.016975 0.000000 0.017922 0.000000
# 4 0.000000 0.000000 0.000000 -0.047268 0.000000 0.040033
# 5 0.025268 -0.002448 0.017922 0.000000 0.061480 0.000000
# 6 0.000000 0.000000 0.000000 0.040033 0.000000 0.046792
#
#
# Mechanical properties :
#
#
# Convention : Reuss Voigt Hill
#
# Bulk Modulus (GPa) = 18.42039 48.32792 33.37416
# Shear Modulus (GPa) = 27.92691 18.12766 23.02728
#
# Velocity S-wave (km/s) = 3.61987 2.91644 3.28703
# Velocity P-wave (km/s) = 5.11021 5.83237 5.48319
#
# Compressibility (1/GPa) = 0.05428766
#
# Stress axis : x y z
#
# Youngs Moduli (GPa) = 31.22007 35.57809 58.91005
#
# Poissons Ratio (x) = 0.18918 -0.16846
# Poissons Ratio (y) = 0.16601 0.52753
# Poissons Ratio (z) = -0.08928 0.31860
#
# Static dielectric constant tensor:
#      x y z
#    x 1.816470 0.000000 0.001790 
#    y 0.000000 1.720310 0.000000 
#    z 0.001790 0.000000 1.871060 
# 
# From -- ./inp_files/196605.got.cif
#   From: 2010.05.17/outbox.cif.g08.bks.cpg/sg12_99_cif.got.tgz:196605.got - 2010.06.03 13:09:07.
