data_PCOD9198740
_publ_section_title
;
Structure prediction by ZEFSAII (Michael W. Deem and Ramdas Pophale) SiO2 
 PCOD9198740
Probable space group: C 2/M
;
_chemical_formula_sum "Si O2"
_cell_formula_units_Z 48
_cell_length_a 21.201112
_cell_length_b 8.456673
_cell_length_c 27.572018
_cell_angle_alpha 90.000000
_cell_angle_beta 30.016107
_cell_angle_gamma 90.000000
_cell_volume 2472.908978
_symmetry_space_group_name_H-M "C 2/M"
_symmetry_group_IT_number 12
_symmetry_cell_setting 'monoclinic'
loop_
_space_group_symop_operation_xyz
x,y,z
-x,y,-z
-x,-y,-z
x,-y,z
1/2+x,1/2+y,z
1/2-x,1/2+y,-z
1/2-x,1/2-y,-z
1/2+x,1/2-y,z
loop_
_atom_site_type_symbol
_atom_site_label
_atom_site_fract_x
_atom_site_fract_y
_atom_site_fract_z
Si Si1 0.375620 0.189703 0.890191
Si Si2 0.626809 0.808611 0.220469
Si Si3 0.876905 0.810239 0.219620
Si Si4 0.873594 0.693044 0.556622
Si Si5 0.873301 0.310414 0.112095
Si Si6 0.874039 0.691194 0.444555
O O1 0.376993 0.242311 0.833102
O O2 0.498527 0.249927 0.836406
O O3 0.375799 0.000000 0.890802
O O4 0.250000 0.250000 0.000000
O O5 0.750598 0.746994 0.164956
O O6 0.500554 0.756837 0.332575
O O7 0.630135 0.000000 0.219241
O O8 0.752025 0.755935 0.331605
O O9 0.872725 0.752685 0.167179
O O10 0.877971 0.000000 0.219070
O O11 0.873964 0.500000 0.556478
O O12 0.874028 0.744384 0.500465
O O13 0.000000 0.744627 0.500000
O O14 0.873816 0.500000 0.113051
O O15 0.000000 0.256744 0.000000
O O16 0.873318 0.500000 0.444879
O O17 0.750000 0.750000 0.500000
#
# Coordination Sequence:
#
# PCOD9198740 Si02
#       6
#     8   8   8   8   8   8
#     4  11  23  39  59  85 117 151 191 237 285 337
#     4  10  22  39  60  85 114 151 192 235 283 337
#     4  11  22  37  60  87 116 152 191 231 281 339
#     4   9  18  34  57  83 111 146 187 228 272 329
#     4  11  24  40  59  84 114 149 191 239 287 337
#     4  10  20  36  58  84 114 147 185 229 278 333
#
# _framework density 19.410337999999999
#
# number of rings (size 3 to 8) (size 9 to 14) (size 15 to 20)
#    0.000    1.667    0.000    4.500    0.000    8.667 
#    0.000    0.833    0.000    3.500    0.000    0.000 
#    0.000    0.000    0.000    0.000    0.000    0.000 
#
# Total GULP energy -134194.019296 kJ/mol
# GULP energy per Si atom -5591.417471 kJ/mol
# Density = 1.936616 g / cm^3
# Si number density = 19.410338 Si / 1000 Ang^3
#
#
#
# Elastic Constant Matrix: (Units=GPa)
#
#
# Indices 1 2 3 4 5 6 
#
# 1 2306.3550 641.7300 2251.5990 0.0103 -80.5807 -0.0247
# 2 641.7300 201.1342 655.3758 0.0031 -21.3021 -0.0079
# 3 2251.5990 655.3758 2387.3583 0.0104 -82.4931 -0.0251
# 4 0.0103 0.0031 0.0104 23.1438 -0.0004 -7.2471
# 5 -80.5807 -21.3021 -82.4931 -0.0004 50.0915 0.0010
# 6 -0.0247 -0.0079 -0.0251 -7.2471 0.0010 37.0909
#
#
#
# Elastic Compliance Matrix: (Units=1/GPa)
#
#
# Indices 1 2 3 4 5 6 
#
# 1 0.006406 -0.007167 -0.004054 0.000000 0.000581 0.000000
# 2 -0.007167 0.055228 -0.008470 0.000000 -0.001993 0.000001
# 3 -0.004054 -0.008470 0.006593 0.000000 0.000734 0.000000
# 4 0.000000 0.000000 0.000000 0.046024 0.000000 0.008993
# 5 0.000581 -0.001993 0.000734 0.000000 0.021259 0.000000
# 6 0.000000 0.000001 0.000000 0.008993 0.000000 0.028718
#
#
# Mechanical properties :
#
#
# Convention : Reuss Voigt Hill
#
# Bulk Modulus (GPa) = 34.66948 1332.47300 683.57124
# Shear Modulus (GPa) = 23.44943 111.80808 67.62876
#
# Velocity S-wave (km/s) = 3.47953 7.59785 5.90908
# Velocity P-wave (km/s) = 5.83463 27.65748 19.98723
#
# Compressibility (1/GPa) = 0.02884381
#
# Stress axis : x y z
#
# Youngs Moduli (GPa) = 156.11136 18.10668 151.68316
#
# Poissons Ratio (x) = 0.12978 0.61489
# Poissons Ratio (y) = 1.11892 1.28478
# Poissons Ratio (z) = 0.63284 0.15337
#
# Static dielectric constant tensor:
#      x y z
#    x 1.629230 0.000000 0.014790 
#    y 0.000000 1.674120 0.000000 
#    z 0.014790 0.000000 1.656570 
# 
# From -- ./inp_files/319542.got.cif
#   From: 2010.05.17/outbox.cif.g08.bks.cpg/sg12_160_cif.got.tgz:319542.got - 2010.06.03 13:09:07.
