data_PCOD9198042
_publ_section_title
;
Structure prediction by ZEFSAII (Michael W. Deem and Ramdas Pophale) SiO2 
 PCOD9198042
Probable space group: C 2/M
;
_chemical_formula_sum "Si O2"
_cell_formula_units_Z 40
_cell_length_a 14.958926
_cell_length_b 33.773370
_cell_length_c 8.901515
_cell_angle_alpha 90.000000
_cell_angle_beta 27.952783
_cell_angle_gamma 90.000000
_cell_volume 2108.017692
_symmetry_space_group_name_H-M "C 2/M"
_symmetry_group_IT_number 12
_symmetry_cell_setting 'monoclinic'
loop_
_space_group_symop_operation_xyz
x,y,z
-x,y,-z
-x,-y,-z
x,-y,z
1/2+x,1/2+y,z
1/2-x,1/2+y,-z
1/2-x,1/2-y,-z
1/2+x,1/2-y,z
loop_
_atom_site_type_symbol
_atom_site_label
_atom_site_fract_x
_atom_site_fract_y
_atom_site_fract_z
Si Si1 0.311794 0.347726 0.377400
Si Si2 0.834930 0.000000 0.625537
Si Si3 0.784001 0.718788 0.254988
Si Si4 0.049521 0.500000 0.606054
Si Si5 0.803158 0.563561 0.388593
Si Si6 0.522424 0.204406 0.641142
O O1 0.309753 0.318792 0.524621
O O2 0.283148 0.393485 0.456695
O O3 0.128504 0.332830 0.556457
O O4 0.500000 0.341064 0.000000
O O5 0.830416 0.962675 0.520788
O O6 0.000000 0.000000 0.500000
O O7 0.644198 0.000000 0.009034
O O8 0.659460 0.757654 0.463486
O O9 0.000000 0.723595 0.000000
O O10 0.823710 0.711505 0.020932
O O11 0.157967 0.538672 0.515062
O O12 0.000000 0.500000 0.500000
O O13 0.000000 0.567274 0.000000
O O14 0.500000 0.198790 0.500000
#
# Coordination Sequence:
#
# PCOD9198042 Si02
#       6
#     8   4   8   4   8   8
#     4  11  22  37  55  78 108 146 184 221 269 325
#     4   9  19  37  60  84 110 141 179 221 271 327
#     4  10  20  36  56  76 106 145 181 222 270 326
#     4   9  19  35  60  84 110 143 179 219 268 329
#     4   9  19  38  58  79 110 148 180 218 273 328
#     4  11  21  35  56  81 107 140 181 229 272 319
#
# _framework density 18.975172000000001
#
# number of rings (size 3 to 8) (size 9 to 14) (size 15 to 20)
#    0.000    2.000    0.000    7.800    0.000    2.400 
#    0.000    7.000    0.000    0.000    0.000    0.000 
#    0.000    0.000    0.000    0.000    0.000    0.000 
#
# Total GULP energy -111619.056182 kJ/mol
# GULP energy per Si atom -5580.952809 kJ/mol
# Density = 1.893198 g / cm^3
# Si number density = 18.975172 Si / 1000 Ang^3
#
#
#
# Elastic Constant Matrix: (Units=GPa)
#
#
# Indices 1 2 3 4 5 6 
#
# 1 109.7924 49.4042 20.3025 0.0000 27.6687 0.0000
# 2 49.4042 139.0667 36.2553 0.0000 10.0437 0.0000
# 3 20.3025 36.2553 80.6930 0.0000 25.7607 0.0000
# 4 0.0000 0.0000 0.0000 30.1784 0.0000 6.1741
# 5 27.6687 10.0437 25.7607 0.0000 36.4862 0.0000
# 6 0.0000 0.0000 0.0000 6.1741 0.0000 5.8491
#
#
#
# Elastic Compliance Matrix: (Units=1/GPa)
#
#
# Indices 1 2 3 4 5 6 
#
# 1 0.013367 -0.004514 0.001942 0.000000 -0.010265 0.000000
# 2 -0.004514 0.009674 -0.004459 0.000000 0.003908 0.000000
# 3 0.001942 -0.004459 0.018055 0.000000 -0.012993 0.000000
# 4 0.000000 0.000000 0.000000 0.042263 0.000000 -0.044611
# 5 -0.010265 0.003908 -0.012993 0.000000 0.043290 0.000000
# 6 0.000000 0.000000 0.000000 -0.044611 0.000000 0.218057
#
#
# Mechanical properties :
#
#
# Convention : Reuss Voigt Hill
#
# Bulk Modulus (GPa) = 36.98757 60.16401 48.57579
# Shear Modulus (GPa) = 13.59512 29.40875 21.50194
#
# Velocity S-wave (km/s) = 2.67960 3.94109 3.36990
# Velocity P-wave (km/s) = 5.39524 7.24466 6.38724
#
# Compressibility (1/GPa) = 0.02703611
#
# Stress axis : x y z
#
# Youngs Moduli (GPa) = 74.81145 103.36540 55.38562
#
# Poissons Ratio (x) = 0.46655 -0.10755
# Poissons Ratio (y) = 0.33767 0.24694
# Poissons Ratio (z) = -0.14528 0.46086
#
# Static dielectric constant tensor:
#      x y z
#    x 1.698790 0.000000 0.014300 
#    y 0.000000 1.629490 0.000000 
#    z 0.014300 0.000000 1.690310 
# 
# From -- ./inp_files/68489.got.cif
#   From: 2010.05.17/outbox.cif.g08.bks.cpg/sg12_35_cif.got.tgz:68489.got - 2010.06.03 13:09:07.
