data_PCOD9198567
_publ_section_title
;
Structure prediction by ZEFSAII (Michael W. Deem and Ramdas Pophale) SiO2 
 PCOD9198567
Probable space group: C 2/M
;
_chemical_formula_sum "Si O2"
_cell_formula_units_Z 56
_cell_length_a 30.675038
_cell_length_b 10.094278
_cell_length_c 21.008314
_cell_angle_alpha 90.000000
_cell_angle_beta 27.117173
_cell_angle_gamma 90.000000
_cell_volume 2965.084299
_symmetry_space_group_name_H-M "C 2/M"
_symmetry_group_IT_number 12
_symmetry_cell_setting 'monoclinic'
loop_
_space_group_symop_operation_xyz
x,y,z
-x,y,-z
-x,-y,-z
x,-y,z
1/2+x,1/2+y,z
1/2-x,1/2+y,-z
1/2-x,1/2-y,-z
1/2+x,1/2-y,z
loop_
_atom_site_type_symbol
_atom_site_label
_atom_site_fract_x
_atom_site_fract_y
_atom_site_fract_z
Si Si1 0.953007 0.659839 0.994855
Si Si2 0.996652 0.346054 0.679293
Si Si3 0.452661 0.652600 0.492204
Si Si4 0.851232 0.648636 0.309431
Si Si5 0.254759 0.161330 0.194646
Si Si6 0.207178 0.656861 0.000647
Si Si7 0.798226 0.648084 0.526545
O O1 0.942957 0.500000 0.011965
O O2 0.037662 0.687561 0.834822
O O3 0.849995 0.709986 0.106831
O O4 0.000000 0.705716 0.000000
O O5 0.996718 0.500000 0.658408
O O6 0.989048 0.245948 0.630684
O O7 0.099483 0.317537 0.576835
O O8 0.907916 0.332257 0.842617
O O9 0.500000 0.652555 0.500000
O O10 0.451584 0.500000 0.470489
O O11 0.343667 0.701734 0.643642
O O12 0.844747 0.500000 0.290621
O O13 0.815054 0.643950 0.428580
O O14 0.784926 0.746112 0.355365
O O15 0.254650 0.000000 0.195547
O O16 0.260026 0.196662 0.112923
O O17 0.231485 0.500000 0.978412
O O18 0.250000 0.750000 0.000000
O O19 0.771189 0.500000 0.582738
#
# Coordination Sequence:
#
# PCOD9198567 Si02
#       7
#     8   8   8   8   8   8   8
#     4   9  17  28  47  76 104 131 172 218 255 300
#     4  10  21  35  54  78 106 141 177 213 260 322
#     4  10  21  36  55  80 109 139 174 221 272 317
#     4   9  17  30  50  74 100 130 170 216 256 296
#     4   9  18  33  53  77 109 143 175 220 273 316
#     4  10  20  36  58  81 106 138 177 221 271 319
#     4   9  18  32  49  72 103 136 168 206 257 310
#
# _framework density 18.886479000000001
#
# number of rings (size 3 to 8) (size 9 to 14) (size 15 to 20)
#    0.000    2.571    0.000    1.714    2.000    6.000 
#    0.000    0.714    0.000    3.857    0.000    0.000 
#    0.000    0.000    0.000    0.000    0.000    0.000 
#
# Total GULP energy -156083.112610 kJ/mol
# GULP energy per Si atom -5574.396879 kJ/mol
# Density = 1.884349 g / cm^3
# Si number density = 18.886479 Si / 1000 Ang^3
#
#
#
# Elastic Constant Matrix: (Units=GPa)
#
#
# Indices 1 2 3 4 5 6 
#
# 1 42.7363 13.3376 -4.9725 0.0003 -10.6072 0.0000
# 2 13.3376 26.6880 12.5054 0.0014 -2.7382 0.0000
# 3 -4.9725 12.5054 63.3056 0.0010 -7.4248 0.0000
# 4 0.0003 0.0014 0.0010 20.3072 0.0000 -4.2499
# 5 -10.6072 -2.7382 -7.4248 0.0000 34.0104 -0.0001
# 6 0.0000 0.0000 0.0000 -4.2499 -0.0001 20.7574
#
#
#
# Elastic Compliance Matrix: (Units=1/GPa)
#
#
# Indices 1 2 3 4 5 6 
#
# 1 0.032697 -0.018792 0.007491 0.000000 0.010320 0.000000
# 2 -0.018792 0.052176 -0.012292 -0.000003 -0.004344 -0.000001
# 3 0.007491 -0.012292 0.019469 0.000000 0.005597 0.000000
# 4 0.000000 -0.000003 0.000000 0.051448 0.000000 0.010534
# 5 0.010320 -0.004344 0.005597 0.000000 0.033494 0.000000
# 6 0.000000 -0.000001 0.000000 0.010534 0.000000 0.050332
#
#
# Mechanical properties :
#
#
# Convention : Reuss Voigt Hill
#
# Bulk Modulus (GPa) = 17.49615 19.38566 18.44090
# Shear Modulus (GPa) = 16.34763 22.47229 19.40996
#
# Velocity S-wave (km/s) = 2.94525 3.45318 3.20928
# Velocity P-wave (km/s) = 4.56618 5.11721 4.84953
#
# Compressibility (1/GPa) = 0.05715544
#
# Stress axis : x y z
#
# Youngs Moduli (GPa) = 30.58381 19.16599 51.36248
#
# Poissons Ratio (x) = 0.36016 -0.38475
# Poissons Ratio (y) = 0.57473 0.63136
# Poissons Ratio (z) = -0.22910 0.23559
#
# Static dielectric constant tensor:
#      x y z
#    x 1.667820 0.000000 -0.004050 
#    y 0.000000 1.661110 0.000000 
#    z -0.004050 0.000000 1.673380 
# 
# From -- ./inp_files/329564.got.cif
#   From: 2010.05.17/outbox.cif.g08.bks.cpg/sg12_165_cif.got.tgz:329564.got - 2010.06.03 13:09:07.
