data_PCOD9198945
_publ_section_title
;
Structure prediction by ZEFSAII (Michael W. Deem and Ramdas Pophale) SiO2 
 PCOD9198945
Probable space group: C 2/M
;
_chemical_formula_sum "Si O2"
_cell_formula_units_Z 40
_cell_length_a 14.430507
_cell_length_b 21.123435
_cell_length_c 10.998199
_cell_angle_alpha 90.000000
_cell_angle_beta 29.030233
_cell_angle_gamma 90.000000
_cell_volume 1626.867178
_symmetry_space_group_name_H-M "C 2/M"
_symmetry_group_IT_number 12
_symmetry_cell_setting 'monoclinic'
loop_
_space_group_symop_operation_xyz
x,y,z
-x,y,-z
-x,-y,-z
x,-y,z
1/2+x,1/2+y,z
1/2-x,1/2+y,-z
1/2-x,1/2-y,-z
1/2+x,1/2-y,z
loop_
_atom_site_type_symbol
_atom_site_label
_atom_site_fract_x
_atom_site_fract_y
_atom_site_fract_z
Si Si1 0.121307 0.569967 0.236236
Si Si2 0.071509 0.068706 0.753902
Si Si3 0.269128 0.069077 0.261494
Si Si4 0.718663 0.793724 0.720688
Si Si5 0.155377 0.329406 0.513786
O O1 0.086461 0.500000 0.220631
O O2 0.000000 0.571199 0.500000
O O3 0.035226 0.628865 0.262978
O O4 0.346714 0.576782 0.994079
O O5 0.171802 0.066872 0.506052
O O6 0.174932 0.122141 0.712593
O O7 0.111221 0.000000 0.763857
O O8 0.222552 0.141875 0.275210
O O9 0.217433 0.000000 0.262183
O O10 0.500000 0.069567 0.000000
O O11 0.845184 0.730425 0.574882
O O12 0.707096 0.810252 0.591149
O O13 0.500000 0.776466 0.000000
#
# Coordination Sequence:
#
# PCOD9198945 Si02
#       5
#     8   8   8   8   8
#     4  10  22  37  56  87 119 151 197 240 282 344
#     4   9  18  33  56  84 112 147 190 234 284 342
#     4   8  14  29  54  78 103 138 178 227 283 331
#     4   9  19  34  56  85 114 147 197 237 281 354
#     4  10  20  36  59  81 116 157 188 239 295 334
#
# _framework density 24.587130999999999
#
# number of rings (size 3 to 8) (size 9 to 14) (size 15 to 20)
#    0.000    2.800    0.000    0.600    2.800    0.800 
#    0.000   12.000    0.000   14.400    0.000   64.400 
#    0.000    0.000    0.000    0.000    0.000    0.000 
#
# Total GULP energy -111575.920181 kJ/mol
# GULP energy per Si atom -5578.796009 kJ/mol
# Density = 2.453117 g / cm^3
# Si number density = 24.587131 Si / 1000 Ang^3
#
#
#
# Elastic Constant Matrix: (Units=GPa)
#
#
# Indices 1 2 3 4 5 6 
#
# 1 30.6800 31.6489 36.3521 0.0405 -1.7673 0.0812
# 2 31.6489 225.9853 48.1698 0.1618 -23.0352 0.1629
# 3 36.3521 48.1698 161.7607 0.1670 0.3403 -0.4621
# 4 0.0405 0.1618 0.1670 11.9885 -0.0230 17.3495
# 5 -1.7673 -23.0352 0.3403 -0.0230 38.4246 -0.0516
# 6 0.0812 0.1629 -0.4621 17.3495 -0.0516 127.3436
#
#
#
# Elastic Compliance Matrix: (Units=1/GPa)
#
#
# Indices 1 2 3 4 5 6 
#
# 1 0.048885 -0.004874 -0.009533 0.000148 -0.000589 -0.000080
# 2 -0.004874 0.005544 -0.000562 -0.000047 0.003104 0.000002
# 3 -0.009533 -0.000562 0.008494 -0.000167 -0.000851 0.000060
# 4 0.000148 -0.000047 -0.000167 0.103903 0.000023 -0.014157
# 5 -0.000589 0.003104 -0.000851 0.000023 0.027866 0.000001
# 6 -0.000080 0.000002 0.000060 -0.014157 0.000001 0.009782
#
#
# Mechanical properties :
#
#
# Convention : Reuss Voigt Hill
#
# Bulk Modulus (GPa) = 30.31846 72.30750 51.31298
# Shear Modulus (GPa) = 20.37430 55.70170 38.03800
#
# Velocity S-wave (km/s) = 2.88176 4.76487 3.93755
# Velocity P-wave (km/s) = 4.84051 7.72946 6.44884
#
# Compressibility (1/GPa) = 0.03298320
#
# Stress axis : x y z
#
# Youngs Moduli (GPa) = 20.45632 180.37671 117.73190
#
# Poissons Ratio (x) = 0.87920 1.12238
# Poissons Ratio (y) = 0.09971 0.06617
# Poissons Ratio (z) = 0.19502 0.10137
#
# Static dielectric constant tensor:
#      x y z
#    x 1.982210 0.000100 0.065970 
#    y 0.000100 2.098360 0.000110 
#    z 0.065970 0.000110 1.951110 
# 
# From -- ./inp_files/227514.got.cif
#   From: 2010.05.17/outbox.cif.g08.bks.cpg/sg12_114_cif.got.tgz:227514.got - 2010.06.03 13:09:07.
