data_PCOD9198421
_publ_section_title
;
Structure prediction by ZEFSAII (Michael W. Deem and Ramdas Pophale) SiO2 
 PCOD9198421
Probable space group: C 2/M
;
_chemical_formula_sum "Si O2"
_cell_formula_units_Z 64
_cell_length_a 32.319784
_cell_length_b 11.350932
_cell_length_c 17.502142
_cell_angle_alpha 90.000000
_cell_angle_beta 31.731914
_cell_angle_gamma 90.000000
_cell_volume 3377.006509
_symmetry_space_group_name_H-M "C 2/M"
_symmetry_group_IT_number 12
_symmetry_cell_setting 'monoclinic'
loop_
_space_group_symop_operation_xyz
x,y,z
-x,y,-z
-x,-y,-z
x,-y,z
1/2+x,1/2+y,z
1/2-x,1/2+y,-z
1/2-x,1/2-y,-z
1/2+x,1/2-y,z
loop_
_atom_site_type_symbol
_atom_site_label
_atom_site_fract_x
_atom_site_fract_y
_atom_site_fract_z
Si Si1 0.872201 0.132015 0.815409
Si Si2 0.523715 0.868317 0.373490
Si Si3 0.218100 0.134117 0.195011
Si Si4 0.027490 0.137939 0.750963
Si Si5 0.853691 0.799543 0.011208
Si Si6 0.776349 0.865390 0.290293
Si Si7 0.119279 0.257945 0.478019
Si Si8 0.918620 0.857216 0.167832
O O1 0.804549 0.143742 0.858193
O O2 0.842120 0.133645 0.949344
O O3 0.925630 0.249647 0.722451
O O4 0.909109 0.000000 0.744417
O O5 0.500000 0.864083 0.500000
O O6 0.445211 0.853629 0.445749
O O7 0.558948 0.000000 0.304206
O O8 0.156083 0.207605 0.342302
O O9 0.210223 0.000000 0.230945
O O10 0.304655 0.180661 0.077168
O O11 0.074689 0.162853 0.599922
O O12 0.075930 0.168410 0.750982
O O13 0.946616 0.210272 0.876867
O O14 0.005465 0.000000 0.790604
O O15 0.817587 0.861184 0.142208
O O16 0.693061 0.803097 0.411080
O O17 0.840566 0.812683 0.247868
O O18 0.761637 0.000000 0.335254
O O19 0.917248 0.000000 0.161364
O O20 0.000000 0.817481 0.000000
#
# Coordination Sequence:
#
# PCOD9198421 Si02
#       8
#     8   8   8   8   8   8   8   8
#     4  11  22  38  61  87 116 157 209 253 297 351
#     4  11  23  39  56  84 123 162 202 247 303 353
#     4  10  23  40  56  81 118 159 198 244 301 359
#     4  11  21  35  58  88 116 145 194 250 296 349
#     4  11  21  35  58  87 114 150 194 248 299 347
#     4  10  20  36  57  83 116 150 190 241 299 358
#     4  11  22  37  58  83 115 157 201 238 293 355
#     4   9  17  32  56  85 115 145 181 239 304 353
#
# _framework density 18.951695000000001
#
# number of rings (size 3 to 8) (size 9 to 14) (size 15 to 20)
#    0.000    1.500    3.750    2.250    0.000    1.750 
#    0.000    1.250    0.000    0.000    0.000    8.750 
#    0.000    0.000    0.000    0.000    0.000    0.000 
#
# Total GULP energy -178418.870470 kJ/mol
# GULP energy per Si atom -5575.589702 kJ/mol
# Density = 1.890856 g / cm^3
# Si number density = 18.951695 Si / 1000 Ang^3
#
#
#
# Elastic Constant Matrix: (Units=GPa)
#
#
# Indices 1 2 3 4 5 6 
#
# 1 106.1880 13.6899 15.1594 0.0000 -11.3781 0.0000
# 2 13.6899 72.4912 10.6683 0.0000 -11.1242 0.0000
# 3 15.1594 10.6683 46.8229 0.0000 -11.6446 0.0000
# 4 0.0000 0.0000 0.0000 15.2969 0.0000 -2.2414
# 5 -11.3781 -11.1242 -11.6446 0.0000 35.5317 0.0000
# 6 0.0000 0.0000 0.0000 -2.2414 0.0000 18.7487
#
#
#
# Elastic Compliance Matrix: (Units=1/GPa)
#
#
# Indices 1 2 3 4 5 6 
#
# 1 0.010152 -0.001236 -0.002497 0.000000 0.002046 0.000000
# 2 -0.001236 0.014886 -0.002102 0.000000 0.003576 0.000000
# 3 -0.002497 -0.002102 0.024259 0.000000 0.006493 0.000000
# 4 0.000000 0.000000 0.000000 0.066538 0.000000 0.007955
# 5 0.002046 0.003576 0.006493 0.000000 0.032046 0.000000
# 6 0.000000 0.000000 0.000000 0.007955 0.000000 0.054288
#
#
# Mechanical properties :
#
#
# Convention : Reuss Voigt Hill
#
# Bulk Modulus (GPa) = 26.57587 33.83747 30.20667
# Shear Modulus (GPa) = 22.08651 26.31442 24.20047
#
# Velocity S-wave (km/s) = 3.41752 3.73030 3.57733
# Velocity P-wave (km/s) = 5.44297 6.03712 5.74773
#
# Compressibility (1/GPa) = 0.03762813
#
# Stress axis : x y z
#
# Youngs Moduli (GPa) = 98.50074 67.17592 41.22177
#
# Poissons Ratio (x) = 0.08302 0.10291
# Poissons Ratio (y) = 0.12173 0.08666
# Poissons Ratio (z) = 0.24591 0.14123
#
# Static dielectric constant tensor:
#      x y z
#    x 1.669500 0.000000 -0.011500 
#    y 0.000000 1.663760 0.000000 
#    z -0.011500 0.000000 1.660240 
# 
# From -- ./inp_files/296441.got.cif
#   From: 2010.05.17/outbox.cif.g08.bks.cpg/sg12_149_cif.got.tgz:296441.got - 2010.06.03 13:09:07.
