data_PCOD9198318
_publ_section_title
;
Structure prediction by ZEFSAII (Michael W. Deem and Ramdas Pophale) SiO2 
 PCOD9198318
Probable space group: C 2/M
;
_chemical_formula_sum "Si O2"
_cell_formula_units_Z 44
_cell_length_a 13.170769
_cell_length_b 11.466792
_cell_length_c 17.681610
_cell_angle_alpha 90.000000
_cell_angle_beta 122.746144
_cell_angle_gamma 90.000000
_cell_volume 2246.000327
_symmetry_space_group_name_H-M "C 2/M"
_symmetry_group_IT_number 12
_symmetry_cell_setting 'monoclinic'
loop_
_space_group_symop_operation_xyz
x,y,z
-x,y,-z
-x,-y,-z
x,-y,z
1/2+x,1/2+y,z
1/2-x,1/2+y,-z
1/2-x,1/2-y,-z
1/2+x,1/2-y,z
loop_
_atom_site_type_symbol
_atom_site_label
_atom_site_fract_x
_atom_site_fract_y
_atom_site_fract_z
Si Si1 0.271700 0.132576 0.384132
Si Si2 0.505166 0.366915 0.332379
Si Si3 0.706204 0.130199 0.941055
Si Si4 0.723198 0.207641 0.782905
Si Si5 0.947632 0.633381 0.899133
Si Si6 0.000000 0.793608 0.500000
O O1 0.276827 0.137425 0.295032
O O2 0.379877 0.214334 0.455041
O O3 0.138950 0.169426 0.359200
O O4 0.290785 0.000000 0.418109
O O5 0.485612 0.500000 0.298201
O O6 0.400600 0.281356 0.261655
O O7 0.497252 0.363077 0.420443
O O8 0.739932 0.137672 0.866947
O O9 0.561502 0.133546 0.889991
O O10 0.743563 0.000000 0.986454
O O11 0.750000 0.250000 0.000000
O O12 0.835614 0.295411 0.824476
O O13 0.909328 0.500000 0.897767
O O14 0.000000 0.679759 0.000000
#
# Coordination Sequence:
#
# PCOD9198318 Si02
#       6
#     8   8   8   8   8   4
#     4  10  21  37  56  82 115 149 185 232 287 343
#     4  10  21  36  58  86 117 147 186 236 283 338
#     4  11  23  39  59  84 114 151 197 248 294 348
#     4  11  21  37  58  83 113 152 194 238 291 344
#     4  10  20  36  57  80 111 151 194 239 293 353
#     4  10  20  36  60  84 112 150 188 224 278 346
#
# _framework density 19.590378999999999
#
# number of rings (size 3 to 8) (size 9 to 14) (size 15 to 20)
#    0.000    1.636    1.818    3.273    0.000    0.727 
#    0.000    2.727    0.000   17.455    0.000    0.000 
#    0.000    0.000    0.000    0.000    0.000    0.000 
#
# Total GULP energy -122737.457832 kJ/mol
# GULP energy per Si atom -5578.975356 kJ/mol
# Density = 1.954579 g / cm^3
# Si number density = 19.590379 Si / 1000 Ang^3
#
#
#
# Elastic Constant Matrix: (Units=GPa)
#
#
# Indices 1 2 3 4 5 6 
#
# 1 93.5922 33.3719 -1.9359 0.0000 15.6851 0.0000
# 2 33.3719 100.3325 27.8393 0.0000 20.5815 0.0000
# 3 -1.9359 27.8393 42.0934 0.0000 1.6669 0.0000
# 4 0.0000 0.0000 0.0000 -27.8532 0.0000 0.9398
# 5 15.6851 20.5815 1.6669 0.0000 36.3815 0.0000
# 6 0.0000 0.0000 0.0000 0.9398 0.0000 17.3622
#
#
#
# Elastic Compliance Matrix: (Units=1/GPa)
#
#
# Indices 1 2 3 4 5 6 
#
# 1 0.012977 -0.004757 0.003865 0.000000 -0.003081 0.000000
# 2 -0.004757 0.015735 -0.010373 0.000000 -0.006376 0.000000
# 3 0.003865 -0.010373 0.030684 0.000000 0.002796 0.000000
# 4 0.000000 0.000000 0.000000 -0.035837 0.000000 0.001940
# 5 -0.003081 -0.006376 0.002796 0.000000 0.032293 0.000000
# 6 0.000000 0.000000 0.000000 0.001940 0.000000 0.057491
#
#
# Mechanical properties :
#
#
# Convention : Reuss Voigt Hill
#
# Bulk Modulus (GPa) = 27.12503 39.39651 33.26077
# Shear Modulus (GPa) = 33.74683 16.96097 25.35390
#
# Velocity S-wave (km/s) = 4.15495 2.94561 3.60140
# Velocity P-wave (km/s) = 6.07407 5.63228 5.85734
#
# Compressibility (1/GPa) = 0.03686631
#
# Stress axis : x y z
#
# Youngs Moduli (GPa) = 77.05940 63.55257 32.59025
#
# Poissons Ratio (x) = 0.30230 -0.12595
# Poissons Ratio (y) = 0.36655 0.33806
# Poissons Ratio (z) = -0.29782 0.65923
#
# Static dielectric constant tensor:
#      x y z
#    x 1.683320 0.000000 -0.025760 
#    y 0.000000 1.737390 0.000000 
#    z -0.025760 0.000000 1.676070 
# 
# From -- ./inp_files/203397.got.cif
#   From: 2010.05.17/outbox.cif.g08.bks.cpg/sg12_102_cif.got.tgz:203397.got - 2010.06.03 13:09:07.
