data_PCOD9198208
_publ_section_title
;
Structure prediction by ZEFSAII (Michael W. Deem and Ramdas Pophale) SiO2 
 PCOD9198208
Probable space group: C 2/M
;
_chemical_formula_sum "Si O2"
_cell_formula_units_Z 60
_cell_length_a 8.922877
_cell_length_b 25.034823
_cell_length_c 16.465054
_cell_angle_alpha 90.000000
_cell_angle_beta 51.818008
_cell_angle_gamma 90.000000
_cell_volume 2891.102151
_symmetry_space_group_name_H-M "C 2/M"
_symmetry_group_IT_number 12
_symmetry_cell_setting 'monoclinic'
loop_
_space_group_symop_operation_xyz
x,y,z
-x,y,-z
-x,-y,-z
x,-y,z
1/2+x,1/2+y,z
1/2-x,1/2+y,-z
1/2-x,1/2-y,-z
1/2+x,1/2-y,z
loop_
_atom_site_type_symbol
_atom_site_label
_atom_site_fract_x
_atom_site_fract_y
_atom_site_fract_z
Si Si1 0.231045 0.837817 0.291792
Si Si2 0.000000 0.243721 0.000000
Si Si3 0.356283 0.174692 0.909835
Si Si4 0.158730 0.560896 0.286744
Si Si5 0.773413 0.939660 0.061466
Si Si6 0.805073 0.367823 0.438483
Si Si7 0.390668 0.363299 0.320192
Si Si8 0.592162 0.225082 0.382531
O O1 0.456202 0.835190 0.206162
O O2 0.192574 0.864385 0.391996
O O3 0.140833 0.778934 0.321318
O O4 0.116652 0.864933 0.256867
O O5 0.180200 0.204308 0.923543
O O6 0.930073 0.283632 0.952880
O O7 0.288642 0.115568 0.961538
O O8 0.174739 0.500000 0.305796
O O9 0.181940 0.564296 0.182112
O O10 0.318922 0.594436 0.279253
O O11 0.957652 0.585003 0.381242
O O12 0.728669 0.000000 0.043870
O O13 0.000000 0.937802 0.000000
O O14 0.696166 0.372126 0.560130
O O15 0.932650 0.313531 0.398290
O O16 0.286493 0.308483 0.328131
O O17 0.500000 0.239864 0.500000
#
# Coordination Sequence:
#
# PCOD9198208 Si02
#       8
#     8   4   8   8   8   8   8   8
#     4  12  22  33  57  88 121 162 196 251 305 367
#     4  10  26  44  64  94 138 164 204 252 320 394
#     4  11  24  43  64  96 127 169 204 254 314 389
#     4  10  21  40  64  86 112 158 213 257 308 374
#     4  10  21  42  71  93 116 156 214 274 314 362
#     4  10  20  36  56  84 120 162 207 251 296 363
#     4  10  22  35  54  87 123 158 206 254 299 360
#     4   9  19  34  52  79 118 160 202 239 283 354
#
# _framework density 20.753330999999999
#
# number of rings (size 3 to 8) (size 9 to 14) (size 15 to 20)
#    0.000    1.733    2.000    3.200    3.733    4.267 
#    0.000    1.667    0.000    1.600    0.000    0.000 
#    0.000    0.000    0.000    0.000    0.000    0.000 
#
# Total GULP energy -167454.960864 kJ/mol
# GULP energy per Si atom -5581.832029 kJ/mol
# Density = 2.070610 g / cm^3
# Si number density = 20.753331 Si / 1000 Ang^3
#
#
#
# Elastic Constant Matrix: (Units=GPa)
#
#
# Indices 1 2 3 4 5 6 
#
# 1 84.8982 25.9936 -1.4563 0.0000 -11.7951 0.0000
# 2 25.9936 106.3491 9.9844 0.0000 -9.9642 0.0000
# 3 -1.4563 9.9844 28.5648 0.0000 -16.3626 0.0000
# 4 0.0000 0.0000 0.0000 12.0493 0.0000 16.2795
# 5 -11.7951 -9.9642 -16.3626 0.0000 22.9225 0.0000
# 6 0.0000 0.0000 0.0000 16.2795 0.0000 -12.4030
#
#
#
# Elastic Compliance Matrix: (Units=1/GPa)
#
#
# Indices 1 2 3 4 5 6 
#
# 1 0.014696 -0.003263 0.009151 0.000000 0.012675 0.000000
# 2 -0.003263 0.010574 -0.003707 0.000000 0.000271 0.000000
# 3 0.009151 -0.003707 0.065208 0.000000 0.049644 0.000000
# 4 0.000000 0.000000 0.000000 0.029925 0.000000 0.039278
# 5 0.012675 0.000271 0.049644 0.000000 0.085703 0.000000
# 6 0.000000 0.000000 0.000000 0.039278 0.000000 -0.029071
#
#
# Mechanical properties :
#
#
# Convention : Reuss Voigt Hill
#
# Bulk Modulus (GPa) = 10.54426 32.09505 21.31965
# Shear Modulus (GPa) = 24.47541 16.86645 20.67093
#
# Velocity S-wave (km/s) = 3.43789 2.85390 3.15942
# Velocity P-wave (km/s) = 4.56624 5.13403 4.85844
#
# Compressibility (1/GPa) = 0.09483836
#
# Stress axis : x y z
#
# Youngs Moduli (GPa) = 68.04573 94.57096 15.33553
#
# Poissons Ratio (x) = 0.30863 -0.14033
# Poissons Ratio (y) = 0.22206 0.05685
# Poissons Ratio (z) = -0.62267 0.35060
#
# Static dielectric constant tensor:
#      x y z
#    x 1.760640 0.000000 -0.006860 
#    y 0.000000 1.751890 0.000000 
#    z -0.006860 0.000000 1.775090 
# 
# From -- ./inp_files/259711.got.cif
#   From: 2010.05.17/outbox.cif.g08.bks.cpg/sg12_130_cif.got.tgz:259711.got - 2010.06.03 13:09:07.
