data_PCOD9198534
_publ_section_title
;
Structure prediction by ZEFSAII (Michael W. Deem and Ramdas Pophale) SiO2 
 PCOD9198534
Probable space group: C 2/M
;
_chemical_formula_sum "Si O2"
_cell_formula_units_Z 64
_cell_length_a 14.911536
_cell_length_b 7.576158
_cell_length_c 29.492668
_cell_angle_alpha 90.000000
_cell_angle_beta 132.933270
_cell_angle_gamma 90.000000
_cell_volume 2439.405792
_symmetry_space_group_name_H-M "C 2/M"
_symmetry_group_IT_number 12
_symmetry_cell_setting 'monoclinic'
loop_
_space_group_symop_operation_xyz
x,y,z
-x,y,-z
-x,-y,-z
x,-y,z
1/2+x,1/2+y,z
1/2-x,1/2+y,-z
1/2-x,1/2-y,-z
1/2+x,1/2-y,z
loop_
_atom_site_type_symbol
_atom_site_label
_atom_site_fract_x
_atom_site_fract_y
_atom_site_fract_z
Si Si1 0.063809 0.212871 0.453679
Si Si2 0.937414 0.795647 0.721819
Si Si3 0.810118 0.205667 0.084062
Si Si4 0.442475 0.796430 0.045188
Si Si5 0.825294 0.793119 0.771732
Si Si6 0.290429 0.298838 0.858756
Si Si7 0.805994 0.213080 0.415635
Si Si8 0.943652 0.215366 0.324923
O O1 0.168238 0.277241 0.523986
O O2 0.932704 0.249168 0.432568
O O3 0.046187 0.275004 0.396182
O O4 0.075948 0.000000 0.456709
O O5 0.912432 0.716589 0.762748
O O6 0.809794 0.791248 0.649880
O O7 0.030735 0.719525 0.717196
O O8 0.970539 0.000000 0.740476
O O9 0.917234 0.287365 0.090717
O O10 0.798699 0.222061 0.133979
O O11 0.816465 0.000000 0.075268
O O12 0.681138 0.277982 0.019853
O O13 0.568979 0.707828 0.075697
O O14 0.452560 0.000000 0.035082
O O15 0.806130 0.711108 0.814835
O O16 0.688136 0.781649 0.704858
O O17 0.860068 0.000000 0.790224
O O18 0.253299 0.500000 0.840117
O O19 0.790810 0.000000 0.410241
O O20 0.942145 0.000000 0.324260
#
# Coordination Sequence:
#
# PCOD9198534 Si02
#       8
#     8   8   8   8   8   8   8   8
#     4   8  15  29  51  78 105 135 174 219 268 330
#     4  10  21  36  54  78 108 137 174 229 282 325
#     4  10  21  38  61  90 123 155 190 235 284 336
#     4  10  21  38  61  91 124 155 189 231 283 343
#     4  10  23  41  55  76 111 145 182 233 282 321
#     4  11  23  38  58  83 116 157 198 241 288 338
#     4   9  16  30  53  77 104 139 175 215 268 335
#     4  10  20  36  58  79 102 141 186 225 274 336
#
# _framework density 26.235897999999999
#
# number of rings (size 3 to 8) (size 9 to 14) (size 15 to 20)
#    0.000    2.250    1.250    2.250    0.000    6.000 
#    0.000    3.125    0.000    0.000    0.000    0.000 
#    0.000    0.000    0.000    0.000    0.000    0.000 
#
# Total GULP energy -178975.371365 kJ/mol
# GULP energy per Si atom -5592.980355 kJ/mol
# Density = 2.617618 g / cm^3
# Si number density = 26.235898 Si / 1000 Ang^3
#
#
#
# Elastic Constant Matrix: (Units=GPa)
#
#
# Indices 1 2 3 4 5 6 
#
# 1 163.1920 9.0880 39.3622 0.0000 -27.7457 0.0000
# 2 9.0880 78.9185 1.2751 0.0000 -5.1505 0.0000
# 3 39.3622 1.2751 89.0769 0.0000 -18.9084 0.0000
# 4 0.0000 0.0000 0.0000 19.8485 0.0000 3.7231
# 5 -27.7457 -5.1505 -18.9084 0.0000 60.4774 0.0000
# 6 0.0000 0.0000 0.0000 3.7231 0.0000 2.1002
#
#
#
# Elastic Compliance Matrix: (Units=1/GPa)
#
#
# Indices 1 2 3 4 5 6 
#
# 1 0.007218 -0.000630 -0.002666 0.000000 0.002424 0.000000
# 2 -0.000630 0.012797 0.000284 0.000000 0.000890 0.000000
# 3 -0.002666 0.000284 0.013009 0.000000 0.002868 0.000000
# 4 0.000000 0.000000 0.000000 0.075481 0.000000 -0.133810
# 5 0.002424 0.000890 0.002868 0.000000 0.018620 0.000000
# 6 0.000000 0.000000 0.000000 -0.133810 0.000000 0.713366
#
#
# Mechanical properties :
#
#
# Convention : Reuss Voigt Hill
#
# Bulk Modulus (GPa) = 37.03596 47.84866 42.44231
# Shear Modulus (GPa) = 5.84443 35.24934 20.54689
#
# Velocity S-wave (km/s) = 1.49415 3.66943 2.80153
# Velocity P-wave (km/s) = 4.13809 6.01917 5.16499
#
# Compressibility (1/GPa) = 0.02700078
#
# Stress axis : x y z
#
# Youngs Moduli (GPa) = 138.54171 78.14140 76.86906
#
# Poissons Ratio (x) = 0.04922 0.20493
# Poissons Ratio (y) = 0.08727 -0.02183
# Poissons Ratio (z) = 0.36935 -0.02219
#
# Static dielectric constant tensor:
#      x y z
#    x 2.037730 0.000000 -0.049540 
#    y 0.000000 1.950080 0.000000 
#    z -0.049540 0.000000 2.145320 
# 
# From -- ./inp_files/375599.got.cif
#   From: 2010.05.17/outbox.cif.g08.bks.cpg/sg12_188_cif.got.tgz:375599.got - 2010.06.03 13:09:07.
