data_PCOD9198259
_publ_section_title
;
Structure prediction by ZEFSAII (Michael W. Deem and Ramdas Pophale) SiO2 
 PCOD9198259
Probable space group: C 2/M
;
_chemical_formula_sum "Si O2"
_cell_formula_units_Z 56
_cell_length_a 15.331941
_cell_length_b 8.941129
_cell_length_c 25.209383
_cell_angle_alpha 90.000000
_cell_angle_beta 62.208199
_cell_angle_gamma 90.000000
_cell_volume 3057.187479
_symmetry_space_group_name_H-M "C 2/M"
_symmetry_group_IT_number 12
_symmetry_cell_setting 'monoclinic'
loop_
_space_group_symop_operation_xyz
x,y,z
-x,y,-z
-x,-y,-z
x,-y,z
1/2+x,1/2+y,z
1/2-x,1/2+y,-z
1/2-x,1/2-y,-z
1/2+x,1/2-y,z
loop_
_atom_site_type_symbol
_atom_site_label
_atom_site_fract_x
_atom_site_fract_y
_atom_site_fract_z
Si Si1 0.894866 0.680577 0.503068
Si Si2 0.677959 0.679438 0.804537
Si Si3 0.314153 0.180387 0.410557
Si Si4 0.027707 0.827722 0.935257
Si Si5 0.586190 0.819351 0.727765
Si Si6 0.634697 0.821747 0.185229
Si Si7 0.682344 0.669902 0.062217
O O1 0.891059 0.500000 0.508628
O O2 0.795325 0.748876 0.556895
O O3 0.877625 0.719218 0.445466
O O4 0.000000 0.727349 0.500000
O O5 0.661008 0.500000 0.805100
O O6 0.610894 0.736305 0.872938
O O7 0.648847 0.756546 0.758544
O O8 0.790219 0.706297 0.788491
O O9 0.370875 0.226668 0.341219
O O10 0.303608 0.000000 0.413701
O O11 0.928070 0.830963 0.929752
O O12 0.059985 0.000000 0.937924
O O13 0.000000 0.757635 0.000000
O O14 0.474319 0.767715 0.769891
O O15 0.586606 0.000000 0.728854
O O16 0.677201 0.750511 0.119855
O O17 0.630820 0.000000 0.177719
O O18 0.716033 0.500000 0.059334
O O19 0.750000 0.750000 0.000000
#
# Coordination Sequence:
#
# PCOD9198259 Si02
#       7
#     8   8   8   8   8   8   8
#     4   9  18  34  58  86 114 145 188 234 268 313
#     4  10  20  36  57  79 104 142 186 226 272 333
#     4   9  19  35  54  80 116 153 184 221 277 327
#     4   9  17  31  51  74 100 131 171 220 271 323
#     4  10  21  37  55  79 115 150 181 227 278 327
#     4  10  21  37  57  79 107 142 181 226 279 331
#     4  11  21  34  54  78 107 140 178 226 280 337
#
# _framework density 18.317489999999999
#
# number of rings (size 3 to 8) (size 9 to 14) (size 15 to 20)
#    0.000    2.286    1.429    1.286    0.000    4.857 
#    0.000    2.857    0.000    2.143    0.000    0.000 
#    0.000    0.000    0.000    0.000    0.000    0.000 
#
# Total GULP energy -156121.933088 kJ/mol
# GULP energy per Si atom -5575.783325 kJ/mol
# Density = 1.827580 g / cm^3
# Si number density = 18.317490 Si / 1000 Ang^3
#
#
#
# Elastic Constant Matrix: (Units=GPa)
#
#
# Indices 1 2 3 4 5 6 
#
# 1 120.3523 40.5377 73.1094 0.0000 2.7314 0.0000
# 2 40.5377 15.8068 36.4690 0.0000 -1.8467 0.0000
# 3 73.1094 36.4690 158.7112 0.0000 7.9036 0.0000
# 4 0.0000 0.0000 0.0000 27.2724 0.0000 2.6244
# 5 2.7314 -1.8467 7.9036 0.0000 19.0295 0.0000
# 6 0.0000 0.0000 0.0000 2.6244 0.0000 23.9947
#
#
#
# Elastic Compliance Matrix: (Units=1/GPa)
#
#
# Indices 1 2 3 4 5 6 
#
# 1 0.258296 -0.907322 0.097757 0.000000 -0.165725 0.000000
# 2 -0.907322 3.336274 -0.379113 0.000000 0.611449 0.000001
# 3 0.097757 -0.379113 0.051989 0.000000 -0.072414 0.000000
# 4 0.000000 0.000000 0.000000 0.037057 0.000000 -0.004053
# 5 -0.165725 0.611449 -0.072414 0.000000 0.165749 0.000000
# 6 0.000000 0.000001 0.000000 -0.004053 0.000000 0.042119
#
#
# Mechanical properties :
#
#
# Convention : Reuss Voigt Hill
#
# Bulk Modulus (GPa) = 0.78790 66.12249 33.45519
# Shear Modulus (GPa) = 0.74717 23.70960 12.22839
#
# Velocity S-wave (km/s) = 0.63936 3.60164 2.58656
# Velocity P-wave (km/s) = 0.98799 7.31246 5.21767
#
# Compressibility (1/GPa) = 1.26920183
#
# Stress axis : x y z
#
# Youngs Moduli (GPa) = 3.87153 0.29974 19.23477
#
# Poissons Ratio (x) = 0.27196 -1.88033
# Poissons Ratio (y) = 3.51273 7.29216
# Poissons Ratio (z) = -0.37847 0.11363
#
# Static dielectric constant tensor:
#      x y z
#    x 1.626030 0.000000 -0.005000 
#    y 0.000000 1.628730 0.000000 
#    z -0.005000 0.000000 1.626520 
# 
# From -- ./inp_files/338565.got.cif
#   From: 2010.05.17/outbox.cif.g08.bks.cpg/sg12_170_cif.got.tgz:338565.got - 2010.06.03 13:09:07.
