data_PCOD9198036
_publ_section_title
;
Structure prediction by ZEFSAII (Michael W. Deem and Ramdas Pophale) SiO2 
 PCOD9198036
Probable space group: C 2/M
;
_chemical_formula_sum "Si O2"
_cell_formula_units_Z 56
_cell_length_a 18.992774
_cell_length_b 37.525170
_cell_length_c 7.870515
_cell_angle_alpha 90.000000
_cell_angle_beta 145.974603
_cell_angle_gamma 90.000000
_cell_volume 3138.781878
_symmetry_space_group_name_H-M "C 2/M"
_symmetry_group_IT_number 12
_symmetry_cell_setting 'monoclinic'
loop_
_space_group_symop_operation_xyz
x,y,z
-x,y,-z
-x,-y,-z
x,-y,z
1/2+x,1/2+y,z
1/2-x,1/2+y,-z
1/2-x,1/2-y,-z
1/2+x,1/2-y,z
loop_
_atom_site_type_symbol
_atom_site_label
_atom_site_fract_x
_atom_site_fract_y
_atom_site_fract_z
Si Si1 0.500000 0.199962 0.803623
Si Si2 0.652108 0.592679 0.501185
Si Si3 0.846864 0.959203 0.193729
Si Si4 0.500000 0.278968 0.305777
Si Si5 0.234162 0.172251 0.262659
Si Si6 0.765838 0.172251 0.326011
Si Si7 0.652108 0.407321 0.107245
O O1 0.500000 0.242676 0.799634
O O2 0.369487 0.185400 0.468654
O O3 0.500000 0.187980 0.000000
O O4 0.630514 0.185400 0.990707
O O5 0.690584 0.562607 0.712584
O O6 0.707621 0.631076 0.661851
O O7 0.685491 0.584865 0.370981
O O8 0.500000 0.595946 0.203467
O O9 0.000000 0.959951 0.500000
O O10 0.803007 0.000000 0.106014
O O11 0.809416 0.937393 0.950247
O O12 0.500000 0.267316 0.500000
O O13 0.622284 0.302854 0.515677
O O14 0.377715 0.302854 0.026540
O O15 0.230537 0.175152 0.461074
O O16 0.207621 0.131076 0.168631
#
# Coordination Sequence:
#
# PCOD9198036 Si02
#       7
#     8   8   8   8   8   8   8
#     4  10  22  38  54  74 104 137 179 230 273 312
#     4   9  17  30  51  76 102 137 177 214 259 317
#     4   9  18  30  48  77 110 138 165 208 265 317
#     4  12  24  34  52  76 104 141 178 223 274 320
#     4  10  20  36  56  76 100 139 183 222 267 317
#     4  10  20  36  56  76 100 139 183 222 267 317
#     4   9  17  30  51  76 102 137 177 214 259 317
#
# _framework density 17.841317
#
# number of rings (size 3 to 8) (size 9 to 14) (size 15 to 20)
#    0.000    2.143    1.429    2.143    2.000    5.143 
#    0.000    2.857    0.000    0.000    0.000    2.000 
#    0.000    5.714    0.000    0.000    0.000    0.000 
#
# Total GULP energy -156227.979505 kJ/mol
# GULP energy per Si atom -5579.570697 kJ/mol
# Density = 1.780071 g / cm^3
# Si number density = 17.841317 Si / 1000 Ang^3
#
#
#
# Elastic Constant Matrix: (Units=GPa)
#
#
# Indices 1 2 3 4 5 6 
#
# 1 43.9381 49.2240 50.9061 0.0000 -6.3960 0.0000
# 2 49.2240 130.0232 49.0571 0.0000 -0.1509 0.0000
# 3 50.9061 49.0571 63.0075 0.0000 23.5558 0.0000
# 4 0.0000 0.0000 0.0000 5.5901 0.0000 -18.1461
# 5 -6.3960 -0.1509 23.5558 0.0000 19.9173 0.0000
# 6 0.0000 0.0000 0.0000 -18.1461 0.0000 25.7530
#
#
#
# Elastic Compliance Matrix: (Units=1/GPa)
#
#
# Indices 1 2 3 4 5 6 
#
# 1 -0.013712 -0.007351 0.033107 0.000000 -0.043614 0.000000
# 2 -0.007351 0.012439 -0.005196 0.000000 0.003879 0.000000
# 3 0.033107 -0.005196 -0.019346 0.000000 0.033472 0.000000
# 4 0.000000 0.000000 0.000000 -0.138965 0.000000 -0.097918
# 5 -0.043614 0.003879 0.033472 0.000000 -0.003356 0.000000
# 6 0.000000 0.000000 0.000000 -0.097918 0.000000 -0.030164
#
#
# Mechanical properties :
#
#
# Convention : Reuss Voigt Hill
#
# Bulk Modulus (GPa) = 48.77544 59.48259 54.12901
# Shear Modulus (GPa) = -21.98843 16.10418 -2.94212
#
# Velocity S-wave (km/s) = -3.51443 3.00765 -1.28555
# Velocity P-wave (km/s) = 3.30599 6.74340 5.31051
#
# Compressibility (1/GPa) = 0.02050212
#
# Stress axis : x y z
#
# Youngs Moduli (GPa) = -72.92888 80.39515 -51.69067
#
# Poissons Ratio (x) = 0.59096 1.71133
# Poissons Ratio (y) = -0.53608 -0.26857
# Poissons Ratio (z) = 2.41446 0.41771
#
# Static dielectric constant tensor:
#      x y z
#    x 1.622490 0.000000 -0.014410 
#    y 0.000000 1.576710 0.000000 
#    z -0.014410 0.000000 1.606480 
# 
# From -- ./inp_files/91646.got.cif
#   From: 2010.05.17/outbox.cif.g08.bks.cpg/sg12_46_cif.got.tgz:91646.got - 2010.06.03 13:09:07.
