data_PCOD9198146
_publ_section_title
;
Structure prediction by ZEFSAII (Michael W. Deem and Ramdas Pophale) SiO2 
 PCOD9198146
Probable space group: C 2/M
;
_chemical_formula_sum "Si O2"
_cell_formula_units_Z 52
_cell_length_a 28.966287
_cell_length_b 11.348353
_cell_length_c 8.024139
_cell_angle_alpha 90.000000
_cell_angle_beta 77.577531
_cell_angle_gamma 90.000000
_cell_volume 2575.938496
_symmetry_space_group_name_H-M "C 2/M"
_symmetry_group_IT_number 12
_symmetry_cell_setting 'monoclinic'
loop_
_space_group_symop_operation_xyz
x,y,z
-x,y,-z
-x,-y,-z
x,-y,z
1/2+x,1/2+y,z
1/2-x,1/2+y,-z
1/2-x,1/2-y,-z
1/2+x,1/2-y,z
loop_
_atom_site_type_symbol
_atom_site_label
_atom_site_fract_x
_atom_site_fract_y
_atom_site_fract_z
Si Si1 0.620436 0.290930 0.077959
Si Si2 0.778207 0.870064 0.935222
Si Si3 0.634511 0.134935 0.751422
Si Si4 0.500000 0.791951 0.500000
Si Si5 0.744545 0.870817 0.603998
Si Si6 0.105639 0.365981 0.408088
Si Si7 0.015287 0.865944 0.170689
O O1 0.669439 0.360460 0.030908
O O2 0.623915 0.208685 0.238793
O O3 0.572235 0.362927 0.134782
O O4 0.615550 0.212474 0.916195
O O5 0.779541 0.869876 0.733422
O O6 0.757536 0.000000 0.998619
O O7 0.750000 0.750000 0.000000
O O8 0.691320 0.131674 0.717635
O O9 0.621508 0.179803 0.577001
O O10 0.616904 0.000000 0.777993
O O11 0.548664 0.862593 0.447027
O O12 0.503296 0.712014 0.663001
O O13 0.750000 0.750000 0.500000
O O14 0.749644 0.000000 0.513053
O O15 0.122977 0.500000 0.381346
O O16 0.998067 0.000000 0.200482
O O17 0.000000 0.821607 0.000000
#
# Coordination Sequence:
#
# PCOD9198146 Si02
#       7
#     8   8   8   4   8   8   8
#     4  11  21  37  60  85 116 154 198 242 301 349
#     4  11  23  39  60  86 120 156 201 250 301 359
#     4  10  20  36  56  81 114 150 192 239 291 355
#     4  10  20  36  56  80 114 150 188 240 296 354
#     4  10  21  38  57  82 114 151 195 247 296 355
#     4  10  21  35  57  86 116 152 195 242 297 359
#     4  10  21  37  57  82 113 149 192 240 294 356
#
# _framework density 20.186817999999999
#
# number of rings (size 3 to 8) (size 9 to 14) (size 15 to 20)
#    0.000    1.692    1.538    3.231    0.000    1.231 
#    0.000    0.000    0.000   13.846    0.000    0.000 
#    0.000    0.000    0.000    0.000    0.000    0.000 
#
# Total GULP energy -145062.961225 kJ/mol
# GULP energy per Si atom -5579.344663 kJ/mol
# Density = 2.014087 g / cm^3
# Si number density = 20.186818 Si / 1000 Ang^3
#
#
#
# Elastic Constant Matrix: (Units=GPa)
#
#
# Indices 1 2 3 4 5 6 
#
# 1 42.7449 2.5586 -8.2364 0.0000 4.7725 0.0000
# 2 2.5586 127.3001 53.4059 0.0000 -6.5073 0.0000
# 3 -8.2364 53.4059 112.3872 0.0000 20.0699 0.0000
# 4 0.0000 0.0000 0.0000 10.4078 0.0000 23.6795
# 5 4.7725 -6.5073 20.0699 0.0000 32.5009 0.0000
# 6 0.0000 0.0000 0.0000 23.6795 0.0000 172.4365
#
#
#
# Elastic Compliance Matrix: (Units=1/GPa)
#
#
# Indices 1 2 3 4 5 6 
#
# 1 0.025169 -0.002689 0.004359 0.000000 -0.006926 0.000000
# 2 -0.002689 0.011038 -0.006639 0.000000 0.006705 0.000000
# 3 0.004359 -0.006639 0.014301 0.000000 -0.010801 0.000000
# 4 0.000000 0.000000 0.000000 0.139742 0.000000 -0.019190
# 5 -0.006926 0.006705 -0.010801 0.000000 0.039797 0.000000
# 6 0.000000 0.000000 0.000000 -0.019190 0.000000 0.008434
#
#
# Mechanical properties :
#
#
# Convention : Reuss Voigt Hill
#
# Bulk Modulus (GPa) = 24.64919 41.98759 33.31839
# Shear Modulus (GPa) = 19.08816 58.71597 38.90207
#
# Velocity S-wave (km/s) = 3.07836 5.39902 4.39464
# Velocity P-wave (km/s) = 4.98719 7.72726 6.50318
#
# Compressibility (1/GPa) = 0.04056928
#
# Stress axis : x y z
#
# Youngs Moduli (GPa) = 39.73185 90.59925 69.92512
#
# Poissons Ratio (x) = 0.24358 -0.30480
# Poissons Ratio (y) = 0.10682 0.46426
# Poissons Ratio (z) = -0.17319 0.60152
#
# Static dielectric constant tensor:
#      x y z
#    x 1.715170 0.000000 0.018750 
#    y 0.000000 1.702170 0.000000 
#    z 0.018750 0.000000 1.699200 
# 
# From -- ./inp_files/102643.got.cif
#   From: 2010.05.17/outbox.cif.g08.bks.cpg/sg12_52_cif.got.tgz:102643.got - 2010.06.03 13:09:07.
