data_PCOD9198719
_publ_section_title
;
Structure prediction by ZEFSAII (Michael W. Deem and Ramdas Pophale) SiO2 
 PCOD9198719
Probable space group: C 2/M
;
_chemical_formula_sum "Si O2"
_cell_formula_units_Z 64
_cell_length_a 15.194483
_cell_length_b 13.967754
_cell_length_c 16.891752
_cell_angle_alpha 90.000000
_cell_angle_beta 125.857390
_cell_angle_gamma 90.000000
_cell_volume 2905.548710
_symmetry_space_group_name_H-M "C 2/M"
_symmetry_group_IT_number 12
_symmetry_cell_setting 'monoclinic'
loop_
_space_group_symop_operation_xyz
x,y,z
-x,y,-z
-x,-y,-z
x,-y,z
1/2+x,1/2+y,z
1/2-x,1/2+y,-z
1/2-x,1/2-y,-z
1/2+x,1/2-y,z
loop_
_atom_site_type_symbol
_atom_site_label
_atom_site_fract_x
_atom_site_fract_y
_atom_site_fract_z
Si Si1 0.733953 0.612974 0.819789
Si Si2 0.078655 0.610785 0.727642
Si Si3 0.593366 0.766005 0.159704
Si Si4 0.656774 0.888433 0.346717
Si Si5 0.746299 0.613688 0.301097
Si Si6 0.638118 0.738219 0.895026
Si Si7 0.324699 0.383668 0.564079
Si Si8 0.957573 0.116470 0.391765
O O1 0.754343 0.500000 0.829714
O O2 0.846726 0.672007 0.876665
O O3 0.658188 0.642515 0.853752
O O4 0.660593 0.641156 0.704128
O O5 0.104939 0.500000 0.761822
O O6 0.137817 0.634375 0.676921
O O7 0.120366 0.679426 0.819277
O O8 0.949302 0.615853 0.653609
O O9 0.624009 0.828502 0.253439
O O10 0.657759 0.667080 0.201305
O O11 0.465894 0.744437 0.101831
O O12 0.757810 0.854504 0.451559
O O13 0.674663 0.000000 0.333532
O O14 0.729713 0.500000 0.290384
O O15 0.729026 0.645281 0.382119
O O16 0.750000 0.750000 0.000000
O O17 0.323223 0.500000 0.561654
O O18 0.449300 0.352698 0.621184
O O19 0.000000 0.148617 0.500000
O O20 0.957085 0.000000 0.394193
#
# Coordination Sequence:
#
# PCOD9198719 Si02
#       8
#     8   8   8   8   8   8   8   8
#     4  11  23  42  67  98 132 168 211 263 321 381
#     4   9  19  39  61  82 117 161 203 247 308 371
#     4  11  22  39  65  89 122 161 207 257 321 383
#     4   9  18  33  56  87 123 163 205 252 305 365
#     4  10  20  36  58  83 118 164 207 248 299 362
#     4  11  25  44  66  93 124 157 204 265 327 387
#     4   9  17  30  52  85 121 162 212 254 295 356
#     4   9  17  31  55  87 127 168 204 247 302 363
#
# _framework density 22.026820000000001
#
# number of rings (size 3 to 8) (size 9 to 14) (size 15 to 20)
#    0.000    2.125    1.250    1.875    0.000    6.000 
#    0.000    5.625    0.000    1.500    0.000    0.000 
#    0.000    0.000    0.000    0.000    0.000    0.000 
#
# Total GULP energy -178736.553503 kJ/mol
# GULP energy per Si atom -5585.517297 kJ/mol
# Density = 2.197669 g / cm^3
# Si number density = 22.026820 Si / 1000 Ang^3
#
#
#
# Elastic Constant Matrix: (Units=GPa)
#
#
# Indices 1 2 3 4 5 6 
#
# 1 137.0981 12.1523 22.6163 0.0000 26.0371 0.0000
# 2 12.1523 82.1641 -2.0110 0.0000 -1.4297 0.0000
# 3 22.6163 -2.0110 51.2988 0.0000 16.4047 0.0000
# 4 0.0000 0.0000 0.0000 11.0547 0.0000 -0.8681
# 5 26.0371 -1.4297 16.4047 0.0000 28.3080 0.0000
# 6 0.0000 0.0000 0.0000 -0.8681 0.0000 25.4100
#
#
#
# Elastic Compliance Matrix: (Units=1/GPa)
#
#
# Indices 1 2 3 4 5 6 
#
# 1 0.009131 -0.001522 -0.001688 0.000000 -0.007498 0.000000
# 2 -0.001522 0.012440 0.000626 0.000000 0.001666 0.000000
# 3 -0.001688 0.000626 0.024250 0.000000 -0.012469 0.000000
# 4 0.000000 0.000000 0.000000 0.090703 0.000000 0.003099
# 5 -0.007498 0.001666 -0.012469 0.000000 0.049532 0.000000
# 6 0.000000 0.000000 0.000000 0.003099 0.000000 0.039460
#
#
# Mechanical properties :
#
#
# Convention : Reuss Voigt Hill
#
# Bulk Modulus (GPa) = 24.59825 37.34180 30.97002
# Shear Modulus (GPa) = 20.47207 28.80809 24.64008
#
# Velocity S-wave (km/s) = 3.05194 3.62036 3.34824
# Velocity P-wave (km/s) = 4.85909 5.87075 5.38871
#
# Compressibility (1/GPa) = 0.04065331
#
# Stress axis : x y z
#
# Youngs Moduli (GPa) = 109.51321 80.38436 41.23765
#
# Poissons Ratio (x) = 0.12237 0.06960
# Poissons Ratio (y) = 0.16671 -0.02582
# Poissons Ratio (z) = 0.18484 -0.05033
#
# Static dielectric constant tensor:
#      x y z
#    x 1.869440 0.000000 -0.024270 
#    y 0.000000 1.837970 0.000000 
#    z -0.024270 0.000000 1.767810 
# 
# From -- ./inp_files/270692.got.cif
#   From: 2010.05.17/outbox.cif.g08.bks.cpg/sg12_136_cif.got.tgz:270692.got - 2010.06.03 13:09:07.
