data_PCOD9198771
_publ_section_title
;
Structure prediction by ZEFSAII (Michael W. Deem and Ramdas Pophale) SiO2 
 PCOD9198771
Probable space group: C 2/M
;
_chemical_formula_sum "Si O2"
_cell_formula_units_Z 34
_cell_length_a 17.751362
_cell_length_b 15.406197
_cell_length_c 9.124774
_cell_angle_alpha 90.000000
_cell_angle_beta 144.247280
_cell_angle_gamma 90.000000
_cell_volume 1458.063219
_symmetry_space_group_name_H-M "C 2/M"
_symmetry_group_IT_number 12
_symmetry_cell_setting 'monoclinic'
loop_
_space_group_symop_operation_xyz
x,y,z
-x,y,-z
-x,-y,-z
x,-y,z
1/2+x,1/2+y,z
1/2-x,1/2+y,-z
1/2-x,1/2-y,-z
1/2+x,1/2-y,z
loop_
_atom_site_type_symbol
_atom_site_label
_atom_site_fract_x
_atom_site_fract_y
_atom_site_fract_z
Si Si1 0.031453 0.092219 0.878281
Si Si2 0.827285 0.232537 0.472212
Si Si3 0.500000 0.500000 0.500000
Si Si4 0.767927 0.594205 0.890250
Si Si5 0.337335 0.097165 0.324293
O O1 0.183161 0.098801 0.108020
O O2 0.992092 0.000000 0.736253
O O3 0.000000 0.085110 0.000000
O O4 0.947705 0.170415 0.691035
O O5 0.750000 0.250000 0.500000
O O6 0.733843 0.177022 0.217310
O O7 0.879372 0.320637 0.483004
O O8 0.618231 0.575389 0.696201
O O9 0.809463 0.500000 0.889264
O O10 0.847527 0.607843 0.165358
O O11 0.382175 0.000000 0.435677
#
# Coordination Sequence:
#
# PCOD9198771 Si02
#       5
#     8   8   2   8   8
#     4  10  20  36  58  84 117 152 197 250 293 343
#     4  12  22  32  54  89 123 153 192 241 306 350
#     4   8  16  36  64  90 110 140 206 248 296 328
#     4   9  19  34  57  85 115 145 194 247 298 337
#     4  10  21  38  58  83 116 154 198 246 292 346
#
# _framework density 23.318605999999999
#
# number of rings (size 3 to 8) (size 9 to 14) (size 15 to 20)
#    0.706    1.176    2.353    2.824    3.294    0.941 
#    0.000    0.000    0.000    3.529    0.000    9.059 
#    0.000    0.000    0.000    0.000    0.000    0.000 
#
# Total GULP energy -94832.613565 kJ/mol
# GULP energy per Si atom -5578.389033 kJ/mol
# Density = 2.326553 g / cm^3
# Si number density = 23.318606 Si / 1000 Ang^3
#
#
#
# Elastic Constant Matrix: (Units=GPa)
#
#
# Indices 1 2 3 4 5 6 
#
# 1 93.7529 78.7712 12.7205 0.0000 -1.2890 0.0000
# 2 78.7712 233.9066 54.5101 0.0000 -20.5118 0.0000
# 3 12.7205 54.5101 49.5772 0.0000 11.1773 0.0000
# 4 0.0000 0.0000 0.0000 39.3048 0.0000 -14.4835
# 5 -1.2890 -20.5118 11.1773 0.0000 30.2905 0.0000
# 6 0.0000 0.0000 0.0000 -14.4835 0.0000 45.8791
#
#
#
# Elastic Compliance Matrix: (Units=1/GPa)
#
#
# Indices 1 2 3 4 5 6 
#
# 1 0.015784 -0.006989 0.004962 0.000000 -0.005892 0.000000
# 2 -0.006989 0.010489 -0.012297 0.000000 0.011343 0.000000
# 3 0.004962 -0.012297 0.037355 0.000000 -0.021900 0.000000
# 4 0.000000 0.000000 0.000000 0.028791 0.000000 0.009089
# 5 -0.005892 0.011343 -0.021900 0.000000 0.048526 0.000000
# 6 0.000000 0.000000 0.000000 0.009089 0.000000 0.024666
#
#
# Mechanical properties :
#
#
# Convention : Reuss Voigt Hill
#
# Bulk Modulus (GPa) = 28.58606 74.36001 51.47304
# Shear Modulus (GPa) = 24.28151 38.51054 31.39602
#
# Velocity S-wave (km/s) = 3.23041 4.06827 3.67330
# Velocity P-wave (km/s) = 5.11855 7.35021 6.33345
#
# Compressibility (1/GPa) = 0.03498208
#
# Stress axis : x y z
#
# Youngs Moduli (GPa) = 63.35615 95.33679 26.76989
#
# Poissons Ratio (x) = 0.66626 -0.13284
# Poissons Ratio (y) = 0.44277 0.32919
# Poissons Ratio (z) = -0.31440 1.17236
#
# Static dielectric constant tensor:
#      x y z
#    x 1.812270 0.000000 -0.002750 
#    y 0.000000 1.891580 0.000000 
#    z -0.002750 0.000000 1.881180 
# 
# From -- ./inp_files/194947.got.cif
#   From: 2010.05.17/outbox.cif.g08.bks.cpg/sg12_98_cif.got.tgz:194947.got - 2010.06.03 13:09:07.
