data_PCOD9198263
_publ_section_title
;
Structure prediction by ZEFSAII (Michael W. Deem and Ramdas Pophale) SiO2 
 PCOD9198263
Probable space group: C 2/M
;
_chemical_formula_sum "Si O2"
_cell_formula_units_Z 40
_cell_length_a 12.982287
_cell_length_b 13.926894
_cell_length_c 13.580024
_cell_angle_alpha 90.000000
_cell_angle_beta 121.414391
_cell_angle_gamma 90.000000
_cell_volume 2095.408895
_symmetry_space_group_name_H-M "C 2/M"
_symmetry_group_IT_number 12
_symmetry_cell_setting 'monoclinic'
loop_
_space_group_symop_operation_xyz
x,y,z
-x,y,-z
-x,-y,-z
x,-y,z
1/2+x,1/2+y,z
1/2-x,1/2+y,-z
1/2-x,1/2-y,-z
1/2+x,1/2-y,z
loop_
_atom_site_type_symbol
_atom_site_label
_atom_site_fract_x
_atom_site_fract_y
_atom_site_fract_z
Si Si1 0.402704 0.114615 0.751392
Si Si2 0.390681 0.115848 0.517093
Si Si3 0.233130 0.735291 0.154551
Si Si4 0.312628 0.386457 0.732872
Si Si5 0.937087 0.226424 0.109658
O O1 0.390296 0.145889 0.631007
O O2 0.306749 0.162122 0.779385
O O3 0.525515 0.163978 0.848910
O O4 0.400500 0.000000 0.756642
O O5 0.500000 0.151774 0.500000
O O6 0.260096 0.134896 0.403337
O O7 0.404430 0.000000 0.525850
O O8 0.269212 0.834096 0.226032
O O9 0.336537 0.694420 0.137220
O O10 0.124928 0.767507 0.027662
O O11 0.320609 0.500000 0.749896
O O12 0.443772 0.337685 0.811946
#
# Coordination Sequence:
#
# PCOD9198263 Si02
#       5
#     8   8   8   8   8
#     4  10  20  36  57  79 106 142 182 223 269 322
#     4   9  18  33  55  83 110 139 181 228 273 325
#     4  10  22  37  53  80 113 141 178 226 272 322
#     4  10  20  36  57  79 106 142 182 223 269 322
#     4  10  22  37  53  80 113 141 178 226 272 322
#
# _framework density 19.089352999999999
#
# number of rings (size 3 to 8) (size 9 to 14) (size 15 to 20)
#    0.000    2.200    0.000    3.600    0.000    9.600 
#    0.000    7.000    0.000    3.600    0.000    0.000 
#    0.000    0.000    0.000    0.000    0.000    0.000 
#
# Total GULP energy -111337.079900 kJ/mol
# GULP energy per Si atom -5566.853995 kJ/mol
# Density = 1.904590 g / cm^3
# Si number density = 19.089353 Si / 1000 Ang^3
#
#
#
# Elastic Constant Matrix: (Units=GPa)
#
#
# Indices 1 2 3 4 5 6 
#
# 1 92.0722 10.4958 32.2733 0.0000 -23.9538 0.0000
# 2 10.4958 78.3128 36.6485 0.0000 -10.4577 0.0000
# 3 32.2733 36.6485 123.6823 0.0000 -20.7928 0.0000
# 4 0.0000 0.0000 0.0000 23.1760 0.0000 8.0688
# 5 -23.9538 -10.4577 -20.7928 0.0000 29.4707 0.0000
# 6 0.0000 0.0000 0.0000 8.0688 0.0000 -0.1613
#
#
#
# Elastic Compliance Matrix: (Units=1/GPa)
#
#
# Indices 1 2 3 4 5 6 
#
# 1 0.014211 0.000454 -0.002126 0.000000 0.010212 0.000000
# 2 0.000454 0.014997 -0.004091 0.000000 0.002805 0.000000
# 3 -0.002126 -0.004091 0.010572 0.000000 0.004279 0.000000
# 4 0.000000 0.000000 0.000000 0.002343 0.000000 0.117205
# 5 0.010212 0.002805 0.004279 0.000000 0.046247 0.000000
# 6 0.000000 0.000000 0.000000 0.117205 0.000000 -0.336646
#
#
# Mechanical properties :
#
#
# Convention : Reuss Voigt Hill
#
# Bulk Modulus (GPa) = 35.39270 50.32249 42.85759
# Shear Modulus (GPa) = -21.99421 24.80706 1.40642
#
# Velocity S-wave (km/s) = -3.39805 3.60880 0.85928
# Velocity P-wave (km/s) = 1.78470 6.61690 4.84606
#
# Compressibility (1/GPa) = 0.02825441
#
# Stress axis : x y z
#
# Youngs Moduli (GPa) = 70.36656 66.67821 94.59378
#
# Poissons Ratio (x) = -0.03027 0.20110
# Poissons Ratio (y) = -0.03194 0.38697
# Poissons Ratio (z) = 0.14960 0.27277
#
# Static dielectric constant tensor:
#      x y z
#    x 1.738190 0.000000 -0.012340 
#    y 0.000000 1.653230 0.000000 
#    z -0.012340 0.000000 1.677290 
# 
# From -- ./inp_files/142527.got.cif
#   From: 2010.05.17/outbox.cif.g08.bks.cpg/sg12_72_cif.got.tgz:142527.got - 2010.06.03 13:09:07.
