data_PCOD9198777
_publ_section_title
;
Structure prediction by ZEFSAII (Michael W. Deem and Ramdas Pophale) SiO2 
 PCOD9198777
Probable space group: C 2/M
;
_chemical_formula_sum "Si O2"
_cell_formula_units_Z 56
_cell_length_a 23.126386
_cell_length_b 15.184309
_cell_length_c 9.368530
_cell_angle_alpha 90.000000
_cell_angle_beta 121.797908
_cell_angle_gamma 90.000000
_cell_volume 2796.070914
_symmetry_space_group_name_H-M "C 2/M"
_symmetry_group_IT_number 12
_symmetry_cell_setting 'monoclinic'
loop_
_space_group_symop_operation_xyz
x,y,z
-x,y,-z
-x,-y,-z
x,-y,z
1/2+x,1/2+y,z
1/2-x,1/2+y,-z
1/2-x,1/2-y,-z
1/2+x,1/2-y,z
loop_
_atom_site_type_symbol
_atom_site_label
_atom_site_fract_x
_atom_site_fract_y
_atom_site_fract_z
Si Si1 0.190955 0.097113 0.161745
Si Si2 0.147177 0.099075 0.554216
Si Si3 0.361226 0.897989 0.888799
Si Si4 0.498222 0.397940 0.326555
Si Si5 0.268208 0.147288 0.514980
Si Si6 0.434262 0.720362 0.014587
Si Si7 0.231549 0.844165 0.911010
O O1 0.259201 0.117446 0.340822
O O2 0.208088 0.101159 0.017048
O O3 0.165171 0.000000 0.164714
O O4 0.134463 0.170398 0.124850
O O5 0.076497 0.121746 0.389028
O O6 0.206854 0.099821 0.517940
O O7 0.139402 0.000000 0.603665
O O8 0.171609 0.159527 0.715942
O O9 0.334388 0.876328 0.693017
O O10 0.382236 0.000000 0.924682
O O11 0.415804 0.823393 0.000107
O O12 0.296059 0.882799 0.908577
O O13 0.500000 0.390929 0.500000
O O14 0.481501 0.500000 0.267303
O O15 0.451556 0.328671 0.185406
O O16 0.250000 0.250000 0.500000
O O17 0.500000 0.707447 0.000000
O O18 0.250000 0.750000 0.000000
#
# Coordination Sequence:
#
# PCOD9198777 Si02
#       7
#     8   8   8   8   8   8   8
#     4  12  22  36  62  96 127 151 188 254 319 368
#     4  10  20  36  58  84 120 160 191 234 302 370
#     4  11  24  44  64  86 121 166 210 251 298 360
#     4  10  22  39  61  90 124 161 198 240 302 370
#     4  11  20  37  58  89 119 153 195 246 309 364
#     4  12  25  41  60  89 124 168 211 251 291 353
#     4  11  20  38  63  96 122 154 195 251 310 364
#
# _framework density 20.028103000000002
#
# number of rings (size 3 to 8) (size 9 to 14) (size 15 to 20)
#    0.000    1.000    2.857    6.429    0.000    3.714 
#    0.000    0.000    0.000    0.429    0.000    0.000 
#    0.000    0.000    0.000    0.000    0.000    0.000 
#
# Total GULP energy -156393.320466 kJ/mol
# GULP energy per Si atom -5585.475731 kJ/mol
# Density = 1.998252 g / cm^3
# Si number density = 20.028103 Si / 1000 Ang^3
#
#
#
# Elastic Constant Matrix: (Units=GPa)
#
#
# Indices 1 2 3 4 5 6 
#
# 1 45.8700 3.3821 14.7771 0.0000 -5.3623 0.0000
# 2 3.3821 155.6437 48.8583 0.0000 11.9780 0.0000
# 3 14.7771 48.8583 108.0083 0.0000 3.4959 0.0000
# 4 0.0000 0.0000 0.0000 32.3637 0.0000 1.1608
# 5 -5.3623 11.9780 3.4959 0.0000 25.2020 0.0000
# 6 0.0000 0.0000 0.0000 1.1608 0.0000 25.8786
#
#
#
# Elastic Compliance Matrix: (Units=1/GPa)
#
#
# Indices 1 2 3 4 5 6 
#
# 1 0.023539 0.000161 -0.003468 0.000000 0.005413 0.000000
# 2 0.000161 0.007739 -0.003420 0.000000 -0.003170 0.000000
# 3 -0.003468 -0.003420 0.011302 0.000000 -0.000680 0.000000
# 4 0.000000 0.000000 0.000000 0.030949 0.000000 -0.001388
# 5 0.005413 -0.003170 -0.000680 0.000000 0.042432 0.000000
# 6 0.000000 0.000000 0.000000 -0.001388 0.000000 0.038704
#
#
# Mechanical properties :
#
#
# Convention : Reuss Voigt Hill
#
# Bulk Modulus (GPa) = 34.33534 49.28411 41.80972
# Shear Modulus (GPa) = 28.11689 32.85582 30.48636
#
# Velocity S-wave (km/s) = 3.75089 4.05469 3.90574
# Velocity P-wave (km/s) = 5.99498 6.82507 6.42344
#
# Compressibility (1/GPa) = 0.02912451
#
# Stress axis : x y z
#
# Youngs Moduli (GPa) = 42.48261 129.21572 88.47806
#
# Poissons Ratio (x) = -0.02076 0.30688
# Poissons Ratio (y) = -0.00683 0.30261
# Poissons Ratio (z) = 0.14735 0.44194
#
# Static dielectric constant tensor:
#      x y z
#    x 1.752080 0.000000 0.003590 
#    y 0.000000 1.800460 0.000000 
#    z 0.003590 0.000000 1.750360 
# 
# From -- ./inp_files/96768.got.cif
#   From: 2010.05.17/outbox.cif.g08.bks.cpg/sg12_49_cif.got.tgz:96768.got - 2010.06.03 13:09:07.
