data_PCOD9198721
_publ_section_title
;
Structure prediction by ZEFSAII (Michael W. Deem and Ramdas Pophale) SiO2 
 PCOD9198721
Probable space group: C 2/M
;
_chemical_formula_sum "Si O2"
_cell_formula_units_Z 56
_cell_length_a 12.922218
_cell_length_b 13.538374
_cell_length_c 17.388060
_cell_angle_alpha 90.000000
_cell_angle_beta 61.066037
_cell_angle_gamma 90.000000
_cell_volume 2662.263531
_symmetry_space_group_name_H-M "C 2/M"
_symmetry_group_IT_number 12
_symmetry_cell_setting 'monoclinic'
loop_
_space_group_symop_operation_xyz
x,y,z
-x,y,-z
-x,-y,-z
x,-y,z
1/2+x,1/2+y,z
1/2-x,1/2+y,-z
1/2-x,1/2-y,-z
1/2+x,1/2-y,z
loop_
_atom_site_type_symbol
_atom_site_label
_atom_site_fract_x
_atom_site_fract_y
_atom_site_fract_z
Si Si1 0.319035 0.666252 0.926512
Si Si2 0.993314 0.619015 0.777678
Si Si3 0.658765 0.258805 0.637579
Si Si4 0.401487 0.118428 0.094997
Si Si5 0.723610 0.609471 0.896507
Si Si6 0.368878 0.619205 0.510282
Si Si7 0.918446 0.119535 0.195056
O O1 0.226662 0.640444 0.893092
O O2 0.449219 0.660837 0.846289
O O3 0.250000 0.750000 0.000000
O O4 0.325905 0.598582 0.000401
O O5 0.000285 0.500000 0.762786
O O6 0.050046 0.682698 0.689690
O O7 0.067318 0.642189 0.828632
O O8 0.857410 0.648720 0.843737
O O9 0.638141 0.329063 0.571239
O O10 0.772528 0.186475 0.590305
O O11 0.660313 0.331936 0.710060
O O12 0.413235 0.000000 0.088052
O O13 0.500000 0.159061 0.000000
O O14 0.739769 0.500000 0.858798
O O15 0.632809 0.654799 0.869046
O O16 0.500000 0.628545 0.500000
O O17 0.341557 0.500000 0.518197
O O18 0.924428 0.000000 0.199612
#
# Coordination Sequence:
#
# PCOD9198721 Si02
#       7
#     8   8   8   8   8   8   8
#     4  12  24  36  58  86 128 180 236 280 318 374
#     4  10  21  38  64  97 133 174 222 281 333 381
#     4  11  24  42  71 102 135 163 218 268 328 413
#     4  10  20  36  58  83 122 173 226 279 325 368
#     4  10  21  39  58  82 127 179 224 270 322 374
#     4  10  24  48  76 102 134 171 207 263 340 421
#     4  11  25  41  62  93 134 178 222 275 334 393
#
# _framework density 21.034732000000002
#
# number of rings (size 3 to 8) (size 9 to 14) (size 15 to 20)
#    0.000    1.429    1.429    3.429    4.000    2.286 
#    0.000    1.429    0.000    2.571    0.000    0.000 
#    0.000    0.000    0.000    0.000    0.000    0.000 
#
# Total GULP energy -156103.156389 kJ/mol
# GULP energy per Si atom -5575.112728 kJ/mol
# Density = 2.098686 g / cm^3
# Si number density = 21.034732 Si / 1000 Ang^3
#
#
#
# Elastic Constant Matrix: (Units=GPa)
#
#
# Indices 1 2 3 4 5 6 
#
# 1 137.8436 31.3693 44.4029 0.0000 -4.1011 0.0000
# 2 31.3693 131.0785 44.8613 0.0000 -0.1557 0.0000
# 3 44.4029 44.8613 91.5404 0.0000 -18.2468 0.0000
# 4 0.0000 0.0000 0.0000 28.8104 0.0000 -2.7007
# 5 -4.1011 -0.1557 -18.2468 0.0000 22.2832 0.0000
# 6 0.0000 0.0000 0.0000 -2.7007 0.0000 31.4044
#
#
#
# Elastic Compliance Matrix: (Units=1/GPa)
#
#
# Indices 1 2 3 4 5 6 
#
# 1 0.008728 -0.000613 -0.004319 0.000000 -0.001934 0.000000
# 2 -0.000613 0.009571 -0.005261 0.000000 -0.004354 0.000000
# 3 -0.004319 -0.005261 0.018442 0.000000 0.014269 0.000000
# 4 0.000000 0.000000 0.000000 0.034992 0.000000 0.003009
# 5 -0.001934 -0.004354 0.014269 0.000000 0.056175 0.000000
# 6 0.000000 0.000000 0.000000 0.003009 0.000000 0.032101
#
#
# Mechanical properties :
#
#
# Convention : Reuss Voigt Hill
#
# Bulk Modulus (GPa) = 61.14339 66.85883 64.00111
# Shear Modulus (GPa) = 26.90401 32.48821 29.69611
#
# Velocity S-wave (km/s) = 3.58023 3.93428 3.76142
# Velocity P-wave (km/s) = 6.79865 7.24514 7.02544
#
# Compressibility (1/GPa) = 0.01635500
#
# Stress axis : x y z
#
# Youngs Moduli (GPa) = 114.57789 104.48094 54.22515
#
# Poissons Ratio (x) = 0.06404 0.23418
# Poissons Ratio (y) = 0.07023 0.28528
# Poissons Ratio (z) = 0.49483 0.54969
#
# Static dielectric constant tensor:
#      x y z
#    x 1.933350 0.000000 0.252930 
#    y 0.000000 1.852190 0.000000 
#    z 0.252930 0.000000 2.060570 
# 
# From -- ./inp_files/263228.got.cif
#   From: 2010.05.17/outbox.cif.g08.bks.cpg/sg12_132_cif.got.tgz:263228.got - 2010.06.03 13:09:07.
