data_PCOD9198379
_publ_section_title
;
Structure prediction by ZEFSAII (Michael W. Deem and Ramdas Pophale) SiO2 
 PCOD9198379
Probable space group: C 2/M
;
_chemical_formula_sum "Si O2"
_cell_formula_units_Z 36
_cell_length_a 5.085973
_cell_length_b 17.509638
_cell_length_c 20.009158
_cell_angle_alpha 90.000000
_cell_angle_beta 100.035259
_cell_angle_gamma 90.000000
_cell_volume 1754.624869
_symmetry_space_group_name_H-M "C 2/M"
_symmetry_group_IT_number 12
_symmetry_cell_setting 'monoclinic'
loop_
_space_group_symop_operation_xyz
x,y,z
-x,y,-z
-x,-y,-z
x,-y,z
1/2+x,1/2+y,z
1/2-x,1/2+y,-z
1/2-x,1/2-y,-z
1/2+x,1/2-y,z
loop_
_atom_site_type_symbol
_atom_site_label
_atom_site_fract_x
_atom_site_fract_y
_atom_site_fract_z
Si Si1 0.177044 0.696000 0.220227
Si Si2 0.855351 0.697089 0.427223
Si Si3 0.983405 0.301778 0.070879
Si Si4 0.981208 0.413625 0.669946
Si Si5 0.726436 0.000000 0.452939
O O1 0.463710 0.736357 0.226706
O O2 0.090784 0.662336 0.143957
O O3 0.143622 0.631386 0.274338
O O4 0.068481 0.764736 0.423964
O O5 0.823719 0.641911 0.362125
O O6 0.000000 0.661798 0.500000
O O7 0.185797 0.229615 0.069924
O O8 0.000000 0.343502 0.000000
O O9 0.081563 0.500000 0.691035
O O10 0.780891 0.430493 0.599944
O O11 0.500000 0.000000 0.500000
O O12 0.000000 0.000000 0.500000
#
# Coordination Sequence:
#
# PCOD9198379 Si02
#       5
#     8   8   8   8   4
#     4  10  20  36  57  82 113 144 180 223 270 319
#     4  10  21  37  56  77 100 129 169 218 271 320
#     4   8  14  26  48  78 108 139 175 215 257 308
#     4  10  23  39  57  80 107 143 177 229 265 336
#     4  10  24  40  56  74  99 136 179 222 266 318
#
# _framework density 20.517208
#
# number of rings (size 3 to 8) (size 9 to 14) (size 15 to 20)
#    0.667    1.778    0.000    2.000    0.000    6.222 
#    0.000    0.000    0.000    0.667    0.000    0.000 
#    0.000   17.778    0.000    0.000    0.000    2.667 
#
# Total GULP energy -100217.546841 kJ/mol
# GULP energy per Si atom -5567.641491 kJ/mol
# Density = 2.047051 g / cm^3
# Si number density = 20.517208 Si / 1000 Ang^3
#
#
#
# Elastic Constant Matrix: (Units=GPa)
#
#
# Indices 1 2 3 4 5 6 
#
# 1 82.2868 3.5089 14.6228 0.0000 -1.4470 0.0000
# 2 3.5089 63.1444 46.5684 0.0000 -8.8191 0.0000
# 3 14.6228 46.5684 179.5204 0.0000 -12.7798 0.0000
# 4 0.0000 0.0000 0.0000 21.2517 0.0000 1.9863
# 5 -1.4470 -8.8191 -12.7798 0.0000 26.8410 0.0000
# 6 0.0000 0.0000 0.0000 1.9863 0.0000 4.9504
#
#
#
# Elastic Compliance Matrix: (Units=1/GPa)
#
#
# Indices 1 2 3 4 5 6 
#
# 1 0.012333 0.000092 -0.001013 0.000000 0.000213 0.000000
# 2 0.000092 0.020042 -0.004904 0.000000 0.004255 0.000000
# 3 -0.001013 -0.004904 0.007045 0.000000 0.001689 0.000000
# 4 0.000000 0.000000 0.000000 0.048888 0.000000 -0.019616
# 5 0.000213 0.004255 0.001689 0.000000 0.039470 0.000000
# 6 0.000000 0.000000 0.000000 -0.019616 0.000000 0.209876
#
#
# Mechanical properties :
#
#
# Convention : Reuss Voigt Hill
#
# Bulk Modulus (GPa) = 36.01058 50.48352 43.24705
# Shear Modulus (GPa) = 13.94463 27.95872 20.95167
#
# Velocity S-wave (km/s) = 2.60985 3.69548 3.19905
# Velocity P-wave (km/s) = 5.16442 6.54733 5.89656
#
# Compressibility (1/GPa) = 0.02776962
#
# Stress axis : x y z
#
# Youngs Moduli (GPa) = 81.08655 49.89439 141.94162
#
# Poissons Ratio (x) = -0.00457 0.14381
# Poissons Ratio (y) = -0.00743 0.69602
# Poissons Ratio (z) = 0.08215 0.24466
#
# Static dielectric constant tensor:
#      x y z
#    x 1.746890 0.000000 0.005840 
#    y 0.000000 1.850170 0.000000 
#    z 0.005840 0.000000 1.829890 
# 
# From -- ./inp_files/297506.got.cif
#   From: 2010.05.17/outbox.cif.g08.bks.cpg/sg12_149_cif.got.tgz:297506.got - 2010.06.03 13:09:07.
