data_PCOD9198674
_publ_section_title
;
Structure prediction by ZEFSAII (Michael W. Deem and Ramdas Pophale) SiO2 
 PCOD9198674
Probable space group: C 2/M
;
_chemical_formula_sum "Si O2"
_cell_formula_units_Z 56
_cell_length_a 9.327218
_cell_length_b 23.404307
_cell_length_c 17.886679
_cell_angle_alpha 90.000000
_cell_angle_beta 50.144551
_cell_angle_gamma 90.000000
_cell_volume 2997.427062
_symmetry_space_group_name_H-M "C 2/M"
_symmetry_group_IT_number 12
_symmetry_cell_setting 'monoclinic'
loop_
_space_group_symop_operation_xyz
x,y,z
-x,y,-z
-x,-y,-z
x,-y,z
1/2+x,1/2+y,z
1/2-x,1/2+y,-z
1/2-x,1/2-y,-z
1/2+x,1/2-y,z
loop_
_atom_site_type_symbol
_atom_site_label
_atom_site_fract_x
_atom_site_fract_y
_atom_site_fract_z
Si Si1 0.564561 0.776444 0.732674
Si Si2 0.506806 0.934993 0.769723
Si Si3 0.498949 0.642233 0.264016
Si Si4 0.029521 0.746877 0.072722
Si Si5 0.233214 0.850768 0.795571
Si Si6 0.155681 0.434591 0.886964
Si Si7 0.869381 0.137967 0.614443
O O1 0.514633 0.710661 0.737910
O O2 0.534319 0.787563 0.832044
O O3 0.413815 0.809643 0.733301
O O4 0.770791 0.799374 0.646890
O O5 0.314458 0.902169 0.817416
O O6 0.553170 0.933625 0.841661
O O7 0.688535 0.903549 0.674086
O O8 0.496552 0.000000 0.747290
O O9 0.331414 0.626125 0.263462
O O10 0.680612 0.611826 0.168640
O O11 0.516278 0.628846 0.346432
O O12 0.925665 0.808810 0.116132
O O13 0.250000 0.750000 0.000000
O O14 0.000000 0.722405 0.000000
O O15 0.228766 0.500000 0.873186
O O16 0.000000 0.423110 0.000000
O O17 0.000000 0.130099 0.500000
#
# Coordination Sequence:
#
# PCOD9198674 Si02
#       7
#     8   8   8   8   8   8   8
#     4  10  21  39  53  82 124 151 190 230 283 345
#     4   9  20  40  62  82 115 150 186 245 292 335
#     4  10  20  36  58  83 112 149 191 235 277 338
#     4  11  21  35  55  84 118 160 194 231 271 333
#     4  10  21  36  52  85 118 148 189 230 288 338
#     4   9  19  38  59  82 112 152 196 233 279 335
#     4  10  22  40  62  85 110 149 193 236 289 351
#
# _framework density 18.682690999999998
#
# number of rings (size 3 to 8) (size 9 to 14) (size 15 to 20)
#    0.000    2.143    1.429    1.714    2.000    3.714 
#   10.286    2.857    0.000    3.857    0.000    0.000 
#    0.000    0.000    0.000    0.000    0.000    0.000 
#
# Total GULP energy -155965.237456 kJ/mol
# GULP energy per Si atom -5570.187052 kJ/mol
# Density = 1.864017 g / cm^3
# Si number density = 18.682691 Si / 1000 Ang^3
#
#
#
# Elastic Constant Matrix: (Units=GPa)
#
#
# Indices 1 2 3 4 5 6 
#
# 1 115.8436 19.8315 32.4578 0.0000 -0.4557 0.0000
# 2 19.8315 90.2125 20.2804 0.0000 -6.2053 0.0000
# 3 32.4578 20.2804 120.9778 0.0000 3.8526 0.0000
# 4 0.0000 0.0000 0.0000 10.1822 0.0000 -0.6887
# 5 -0.4557 -6.2053 3.8526 0.0000 15.5558 0.0000
# 6 0.0000 0.0000 0.0000 -0.6887 0.0000 25.9892
#
#
#
# Elastic Compliance Matrix: (Units=1/GPa)
#
#
# Indices 1 2 3 4 5 6 
#
# 1 0.009547 -0.001565 -0.002306 0.000000 0.000227 0.000000
# 2 -0.001565 0.012194 -0.001792 0.000000 0.005262 0.000000
# 3 -0.002306 -0.001792 0.009283 0.000000 -0.003082 0.000000
# 4 0.000000 0.000000 0.000000 0.098387 0.000000 0.002607
# 5 0.000227 0.005262 -0.003082 0.000000 0.067154 0.000000
# 6 0.000000 0.000000 0.000000 0.002607 0.000000 0.038547
#
#
# Mechanical properties :
#
#
# Convention : Reuss Voigt Hill
#
# Bulk Modulus (GPa) = 50.76583 52.46369 51.61476
# Shear Modulus (GPa) = 19.76258 27.30973 23.53615
#
# Velocity S-wave (km/s) = 3.25591 3.82745 3.55319
# Velocity P-wave (km/s) = 6.43166 6.90470 6.67238
#
# Compressibility (1/GPa) = 0.01969829
#
# Stress axis : x y z
#
# Youngs Moduli (GPa) = 104.74159 82.00959 107.72030
#
# Poissons Ratio (x) = 0.12832 0.24845
# Poissons Ratio (y) = 0.16389 0.19302
# Poissons Ratio (z) = 0.24158 0.14695
#
# Static dielectric constant tensor:
#      x y z
#    x 1.653310 0.000000 0.012130 
#    y 0.000000 1.715060 0.000000 
#    z 0.012130 0.000000 1.622620 
# 
# From -- ./inp_files/259130.got.cif
#   From: 2010.05.17/outbox.cif.g08.bks.cpg/sg12_130_cif.got.tgz:259130.got - 2010.06.03 13:09:07.
