data_PCOD9198511
_publ_section_title
;
Structure prediction by ZEFSAII (Michael W. Deem and Ramdas Pophale) SiO2 
 PCOD9198511
Probable space group: C 2/M
;
_chemical_formula_sum "Si O2"
_cell_formula_units_Z 40
_cell_length_a 8.973849
_cell_length_b 17.253249
_cell_length_c 14.008821
_cell_angle_alpha 90.000000
_cell_angle_beta 103.686697
_cell_angle_gamma 90.000000
_cell_volume 2107.368892
_symmetry_space_group_name_H-M "C 2/M"
_symmetry_group_IT_number 12
_symmetry_cell_setting 'monoclinic'
loop_
_space_group_symop_operation_xyz
x,y,z
-x,y,-z
-x,-y,-z
x,-y,z
1/2+x,1/2+y,z
1/2-x,1/2+y,-z
1/2-x,1/2-y,-z
1/2+x,1/2-y,z
loop_
_atom_site_type_symbol
_atom_site_label
_atom_site_fract_x
_atom_site_fract_y
_atom_site_fract_z
Si Si1 0.732379 0.858505 0.706230
Si Si2 0.332769 0.593285 0.516371
Si Si3 0.395578 0.088877 0.688763
Si Si4 0.523134 0.344185 0.106897
Si Si5 0.730923 0.792703 0.180471
O O1 0.799150 0.865234 0.610838
O O2 0.574037 0.903652 0.690854
O O3 0.699890 0.769846 0.733768
O O4 0.861327 0.886029 0.801881
O O5 0.500000 0.611693 0.500000
O O6 0.326324 0.500000 0.532098
O O7 0.205372 0.612771 0.418017
O O8 0.354608 0.142356 0.771895
O O9 0.355806 0.000000 0.704033
O O10 0.610445 0.261309 0.105726
O O11 0.363588 0.327494 0.135349
O O12 0.500000 0.380842 0.000000
#
# Coordination Sequence:
#
# PCOD9198511 Si02
#       5
#     8   8   8   8   8
#     4  10  20  36  57  89 114 155 200 248 280 349
#     4  10  21  36  57  85 121 164 196 234 296 359
#     4  11  22  38  61  88 125 162 193 236 299 357
#     4  10  20  37  64  87 114 153 199 249 299 348
#     4  10  20  37  59  93 114 153 198 248 290 346
#
# _framework density 18.981013999999998
#
# number of rings (size 3 to 8) (size 9 to 14) (size 15 to 20)
#    1.200    0.600    2.000    3.000    0.000    2.400 
#    0.000    1.000    0.000    9.600    0.000    0.000 
#    0.000    0.000    0.000    0.000    0.000    0.000 
#
# Total GULP energy -111523.350230 kJ/mol
# GULP energy per Si atom -5576.167511 kJ/mol
# Density = 1.893781 g / cm^3
# Si number density = 18.981014 Si / 1000 Ang^3
#
#
#
# Elastic Constant Matrix: (Units=GPa)
#
#
# Indices 1 2 3 4 5 6 
#
# 1 115.7878 -6.9994 53.0149 0.0000 -11.1391 0.0000
# 2 -6.9994 15.6170 -1.8949 0.0000 -0.6736 0.0000
# 3 53.0149 -1.8949 54.9615 0.0000 7.8938 0.0000
# 4 0.0000 0.0000 0.0000 84.7678 0.0000 117.6057
# 5 -11.1391 -0.6736 7.8938 0.0000 29.8928 0.0000
# 6 0.0000 0.0000 0.0000 117.6057 0.0000 200.7670
#
#
#
# Elastic Compliance Matrix: (Units=1/GPa)
#
#
# Indices 1 2 3 4 5 6 
#
# 1 0.019793 0.006918 -0.020721 0.000000 0.013003 0.000000
# 2 0.006918 0.066743 -0.005153 0.000000 0.005442 0.000000
# 3 -0.020721 -0.005153 0.040672 0.000000 -0.018578 0.000000
# 4 0.000000 0.000000 0.000000 0.062986 0.000000 -0.036896
# 5 0.013003 0.005442 -0.018578 0.000000 0.043327 0.000000
# 6 0.000000 0.000000 0.000000 -0.036896 0.000000 0.026594
#
#
# Mechanical properties :
#
#
# Convention : Reuss Voigt Hill
#
# Bulk Modulus (GPa) = 11.19887 30.51195 20.85541
# Shear Modulus (GPa) = 15.25353 72.56857 43.91105
#
# Velocity S-wave (km/s) = 2.83790 6.18993 4.81502
# Velocity P-wave (km/s) = 4.08057 8.19737 6.47487
#
# Compressibility (1/GPa) = 0.08929474
#
# Stress axis : x y z
#
# Youngs Moduli (GPa) = 50.52296 14.98291 24.58682
#
# Poissons Ratio (x) = -0.10365 0.50946
# Poissons Ratio (y) = -0.34950 0.12670
# Poissons Ratio (z) = 1.04689 0.07721
#
# Static dielectric constant tensor:
#      x y z
#    x 1.629810 0.000000 0.025810 
#    y 0.000000 1.663370 0.000000 
#    z 0.025810 0.000000 1.640080 
# 
# From -- ./inp_files/195100.got.cif
#   From: 2010.05.17/outbox.cif.g08.bks.cpg/sg12_98_cif.got.tgz:195100.got - 2010.06.03 13:09:07.
