data_PCOD9198083
_publ_section_title
;
Structure prediction by ZEFSAII (Michael W. Deem and Ramdas Pophale) SiO2 
 PCOD9198083
Probable space group: C 2/M
;
_chemical_formula_sum "Si O2"
_cell_formula_units_Z 56
_cell_length_a 10.229395
_cell_length_b 25.431037
_cell_length_c 16.645078
_cell_angle_alpha 90.000000
_cell_angle_beta 51.187460
_cell_angle_gamma 90.000000
_cell_volume 3374.032378
_symmetry_space_group_name_H-M "C 2/M"
_symmetry_group_IT_number 12
_symmetry_cell_setting 'monoclinic'
loop_
_space_group_symop_operation_xyz
x,y,z
-x,y,-z
-x,-y,-z
x,-y,z
1/2+x,1/2+y,z
1/2-x,1/2+y,-z
1/2-x,1/2-y,-z
1/2+x,1/2-y,z
loop_
_atom_site_type_symbol
_atom_site_label
_atom_site_fract_x
_atom_site_fract_y
_atom_site_fract_z
Si Si1 0.302546 0.196388 0.077378
Si Si2 0.028211 0.059460 0.584855
Si Si3 0.807987 0.177981 0.054745
Si Si4 0.006575 0.349951 0.282551
Si Si5 0.923942 0.437975 0.442157
Si Si6 0.676884 0.659444 0.297553
Si Si7 0.450176 0.758104 0.430515
O O1 0.282276 0.259561 0.081162
O O2 0.226727 0.176041 0.189022
O O3 0.500000 0.185509 0.000000
O O4 0.223766 0.171666 0.027781
O O5 0.223862 0.069672 0.524323
O O6 0.000000 0.062498 0.500000
O O7 0.914215 0.103548 0.667744
O O8 0.987854 0.000000 0.626419
O O9 0.670194 0.149593 0.162965
O O10 0.000000 0.164444 0.000000
O O11 0.991185 0.400727 0.345697
O O12 0.841408 0.344041 0.290366
O O13 0.008295 0.299546 0.340969
O O14 0.954870 0.500000 0.413712
O O15 0.000000 0.425254 0.500000
O O16 0.548645 0.703310 0.380522
O O17 0.500000 0.777869 0.500000
O O18 0.250000 0.750000 0.500000
#
# Coordination Sequence:
#
# PCOD9198083 Si02
#       7
#     8   8   8   8   8   8   8
#     4  10  20  36  56  78 110 151 192 239 280 338
#     4  10  20  37  60  85 113 151 195 231 272 339
#     4  10  22  36  56  81 111 145 198 239 282 342
#     4  12  22  37  59  84 114 156 190 235 294 343
#     4  10  22  40  61  87 117 151 194 237 279 339
#     4  12  22  36  59  84 116 155 193 235 288 341
#     4  12  24  35  51  82 121 150 183 230 288 347
#
# _framework density 16.597351
#
# number of rings (size 3 to 8) (size 9 to 14) (size 15 to 20)
#    0.000    1.143    5.714    1.714    0.000    2.286 
#    0.000    0.000    0.000    1.714    0.000    0.000 
#    0.000    0.000    0.000    0.000    0.000    0.000 
#
# Total GULP energy -156383.702825 kJ/mol
# GULP energy per Si atom -5585.132244 kJ/mol
# Density = 1.655957 g / cm^3
# Si number density = 16.597351 Si / 1000 Ang^3
#
#
#
# Elastic Constant Matrix: (Units=GPa)
#
#
# Indices 1 2 3 4 5 6 
#
# 1 152.8556 44.5671 67.2692 0.0000 11.2702 0.0000
# 2 44.5671 72.2461 52.9132 0.0000 -4.5733 0.0000
# 3 67.2692 52.9132 118.1955 0.0000 5.3927 0.0000
# 4 0.0000 0.0000 0.0000 20.9333 0.0000 6.1216
# 5 11.2702 -4.5733 5.3927 0.0000 28.0114 0.0000
# 6 0.0000 0.0000 0.0000 6.1216 0.0000 23.1918
#
#
#
# Elastic Compliance Matrix: (Units=1/GPa)
#
#
# Indices 1 2 3 4 5 6 
#
# 1 0.009406 -0.003319 -0.003702 0.000000 -0.003614 0.000000
# 2 -0.003319 0.022539 -0.008505 0.000000 0.006653 0.000000
# 3 -0.003702 -0.008505 0.014498 0.000000 -0.002690 0.000000
# 4 0.000000 0.000000 0.000000 0.051767 0.000000 -0.013664
# 5 -0.003614 0.006653 -0.002690 0.000000 0.038758 0.000000
# 6 0.000000 0.000000 0.000000 -0.013664 0.000000 0.046725
#
#
# Mechanical properties :
#
#
# Convention : Reuss Voigt Hill
#
# Bulk Modulus (GPa) = 64.97685 74.75512 69.86599
# Shear Modulus (GPa) = 22.74026 26.33047 24.53537
#
# Velocity S-wave (km/s) = 3.70552 3.98732 3.84900
# Velocity P-wave (km/s) = 7.58563 8.14472 7.87014
#
# Compressibility (1/GPa) = 0.01539010
#
# Stress axis : x y z
#
# Youngs Moduli (GPa) = 106.31922 44.36735 68.97683
#
# Poissons Ratio (x) = 0.14727 0.25537
# Poissons Ratio (y) = 0.35291 0.58662
# Poissons Ratio (z) = 0.39362 0.37732
#
# Static dielectric constant tensor:
#      x y z
#    x 1.573500 0.000000 0.017950 
#    y 0.000000 1.554580 0.000000 
#    z 0.017950 0.000000 1.532710 
# 
# From -- ./inp_files/198772.got.cif
#   From: 2010.05.17/outbox.cif.g08.bks.cpg/sg12_100_cif.got.tgz:198772.got - 2010.06.03 13:09:07.
