data_PCOD9198128
_publ_section_title
;
Structure prediction by ZEFSAII (Michael W. Deem and Ramdas Pophale) SiO2 
 PCOD9198128
Probable space group: C 2/M
;
_chemical_formula_sum "Si O2"
_cell_formula_units_Z 48
_cell_length_a 30.390941
_cell_length_b 9.916723
_cell_length_c 9.225571
_cell_angle_alpha 90.000000
_cell_angle_beta 81.049097
_cell_angle_gamma 90.000000
_cell_volume 2746.529649
_symmetry_space_group_name_H-M "C 2/M"
_symmetry_group_IT_number 12
_symmetry_cell_setting 'monoclinic'
loop_
_space_group_symop_operation_xyz
x,y,z
-x,y,-z
-x,-y,-z
x,-y,z
1/2+x,1/2+y,z
1/2-x,1/2+y,-z
1/2-x,1/2-y,-z
1/2+x,1/2-y,z
loop_
_atom_site_type_symbol
_atom_site_label
_atom_site_fract_x
_atom_site_fract_y
_atom_site_fract_z
Si Si1 0.958239 0.840184 0.415136
Si Si2 0.373045 0.660931 0.663676
Si Si3 0.225351 0.152790 0.402731
Si Si4 0.278523 0.850326 0.078426
Si Si5 0.041894 0.340230 0.872615
Si Si6 0.378688 0.839783 0.948209
O O1 0.912555 0.816625 0.527881
O O2 0.960241 0.749742 0.270236
O O3 0.000000 0.811307 0.500000
O O4 0.960221 0.000000 0.377352
O O5 0.372319 0.500000 0.699141
O O6 0.324339 0.694828 0.622448
O O7 0.381768 0.749279 0.802599
O O8 0.250000 0.250000 0.500000
O O9 0.257322 0.149141 0.247176
O O10 0.221386 0.000000 0.463124
O O11 0.273626 0.000000 0.018030
O O12 0.250000 0.750000 0.000000
O O13 0.330359 0.816895 0.043611
O O14 0.043238 0.500000 0.833882
O O15 0.084520 0.307877 0.950198
O O16 0.000000 0.318513 0.000000
O O17 0.383075 0.000000 0.910143
#
# Coordination Sequence:
#
# PCOD9198128 Si02
#       6
#     8   8   8   8   8   8
#     4  10  22  39  59  84 113 145 183 225 272 328
#     4  10  21  38  57  81 112 146 184 227 274 325
#     4  10  22  37  54  79 112 147 185 228 272 323
#     4  10  20  36  56  80 110 145 185 227 271 321
#     4  10  22  39  59  85 114 143 181 227 274 327
#     4  10  21  36  57  84 111 143 185 228 272 326
#
# _framework density 17.476600000000001
#
# number of rings (size 3 to 8) (size 9 to 14) (size 15 to 20)
#    0.000    2.000    1.667    1.000    2.333    3.333 
#    0.000    0.000    0.000    0.000    0.000    0.000 
#    0.000    0.000    0.000    0.000    0.000    0.000 
#
# Total GULP energy -133895.822392 kJ/mol
# GULP energy per Si atom -5578.992600 kJ/mol
# Density = 1.743682 g / cm^3
# Si number density = 17.476600 Si / 1000 Ang^3
#
#
#
# Elastic Constant Matrix: (Units=GPa)
#
#
# Indices 1 2 3 4 5 6 
#
# 1 161.3491 83.7649 93.6484 0.0000 10.7979 0.0000
# 2 83.7649 85.2522 91.0296 0.0000 18.3855 0.0000
# 3 93.6484 91.0296 131.0751 0.0000 14.9218 0.0000
# 4 0.0000 0.0000 0.0000 41.0489 0.0000 7.9363
# 5 10.7979 18.3855 14.9218 0.0000 29.6524 0.0000
# 6 0.0000 0.0000 0.0000 7.9363 0.0000 24.4925
#
#
#
# Elastic Compliance Matrix: (Units=1/GPa)
#
#
# Indices 1 2 3 4 5 6 
#
# 1 0.013031 -0.012342 -0.001135 0.000000 0.003478 0.000000
# 2 -0.012342 0.062371 -0.032467 0.000000 -0.017840 0.000000
# 3 -0.001135 -0.032467 0.030390 0.000000 0.005251 0.000000
# 4 0.000000 0.000000 0.000000 0.025989 0.000000 -0.008421
# 5 0.003478 -0.017840 0.005251 0.000000 0.040876 0.000000
# 6 0.000000 0.000000 0.000000 -0.008421 0.000000 0.043557
#
#
# Mechanical properties :
#
#
# Convention : Reuss Voigt Hill
#
# Bulk Modulus (GPa) = 71.91886 101.61802 86.76844
# Shear Modulus (GPa) = 15.98781 26.32100 21.15441
#
# Velocity S-wave (km/s) = 3.02787 3.88502 3.48291
# Velocity P-wave (km/s) = 7.31197 8.85415 8.11975
#
# Compressibility (1/GPa) = 0.01390456
#
# Stress axis : x y z
#
# Youngs Moduli (GPa) = 76.73953 16.03300 32.90567
#
# Poissons Ratio (x) = 0.19788 0.03734
# Poissons Ratio (y) = 0.94714 1.06834
# Poissons Ratio (z) = 0.08707 0.52054
#
# Static dielectric constant tensor:
#      x y z
#    x 1.619970 0.000000 0.011450 
#    y 0.000000 1.609950 0.000000 
#    z 0.011450 0.000000 1.553930 
# 
# From -- ./inp_files/108625.got.cif
#   From: 2010.05.17/outbox.cif.g08.bks.cpg/sg12_55_cif.got.tgz:108625.got - 2010.06.03 13:09:07.
