data_PCOD9198056
_publ_section_title
;
Structure prediction by ZEFSAII (Michael W. Deem and Ramdas Pophale) SiO2 
 PCOD9198056
Probable space group: C 2/M
;
_chemical_formula_sum "Si O2"
_cell_formula_units_Z 40
_cell_length_a 8.631811
_cell_length_b 11.155682
_cell_length_c 22.967641
_cell_angle_alpha 90.000000
_cell_angle_beta 114.480416
_cell_angle_gamma 90.000000
_cell_volume 2012.820132
_symmetry_space_group_name_H-M "C 2/M"
_symmetry_group_IT_number 12
_symmetry_cell_setting 'monoclinic'
loop_
_space_group_symop_operation_xyz
x,y,z
-x,y,-z
-x,-y,-z
x,-y,z
1/2+x,1/2+y,z
1/2-x,1/2+y,-z
1/2-x,1/2-y,-z
1/2+x,1/2-y,z
loop_
_atom_site_type_symbol
_atom_site_label
_atom_site_fract_x
_atom_site_fract_y
_atom_site_fract_z
Si Si1 0.776911 0.369755 0.872953
Si Si2 0.018483 0.863382 0.727848
Si Si3 0.208915 0.365649 0.323542
Si Si4 0.796677 0.131445 0.472090
Si Si5 0.424863 0.312811 0.047317
O O1 0.860387 0.500000 0.880995
O O2 0.670466 0.346636 0.798102
O O3 0.640177 0.374674 0.904177
O O4 0.924981 0.276378 0.909516
O O5 0.106925 0.860332 0.678390
O O6 0.893863 0.750728 0.713677
O O7 0.949087 0.000000 0.725901
O O8 0.139257 0.500000 0.297485
O O9 0.225193 0.359553 0.395475
O O10 0.750000 0.250000 0.500000
O O11 0.000000 0.128811 0.500000
O O12 0.741485 0.000000 0.487706
O O13 0.500000 0.371786 0.000000
O O14 0.250000 0.250000 0.000000
#
# Coordination Sequence:
#
# PCOD9198056 Si02
#       5
#     8   8   8   8   8
#     4  10  20  36  56  77 106 142 179 223 272 323
#     4  10  21  37  58  82 110 147 187 228 277 330
#     4  10  21  37  57  82 112 145 183 229 278 326
#     4  10  21  37  57  82 112 146 184 227 275 328
#     4   9  19  34  53  79 107 137 177 219 265 325
#
# _framework density 19.872615
#
# number of rings (size 3 to 8) (size 9 to 14) (size 15 to 20)
#    0.000    2.200    0.000    2.400    0.000    7.600 
#    0.000    4.000    0.000    0.000    0.000    0.000 
#    0.000    0.000    0.000    0.000    0.000    0.000 
#
# Total GULP energy -111374.061183 kJ/mol
# GULP energy per Si atom -5568.703059 kJ/mol
# Density = 1.982738 g / cm^3
# Si number density = 19.872615 Si / 1000 Ang^3
#
#
#
# Elastic Constant Matrix: (Units=GPa)
#
#
# Indices 1 2 3 4 5 6 
#
# 1 56.6003 36.9200 0.6872 0.0000 -3.2340 0.0000
# 2 36.9200 157.1200 31.8274 0.0000 19.1961 0.0000
# 3 0.6872 31.8274 43.8371 0.0000 -3.0791 0.0000
# 4 0.0000 0.0000 0.0000 42.7935 0.0000 7.4543
# 5 -3.2340 19.1961 -3.0791 0.0000 31.1540 0.0000
# 6 0.0000 0.0000 0.0000 7.4543 0.0000 19.6741
#
#
#
# Elastic Compliance Matrix: (Units=1/GPa)
#
#
# Indices 1 2 3 4 5 6 
#
# 1 0.022862 -0.007411 0.005548 0.000000 0.007488 0.000000
# 2 -0.007411 0.010794 -0.008299 0.000000 -0.008241 0.000000
# 3 0.005548 -0.008299 0.029354 0.000000 0.008591 0.000000
# 4 0.000000 0.000000 0.000000 0.025019 0.000000 -0.009480
# 5 0.007488 -0.008241 0.008591 0.000000 0.038803 0.000000
# 6 0.000000 0.000000 0.000000 -0.009480 0.000000 0.054420
#
#
# Mechanical properties :
#
#
# Convention : Reuss Voigt Hill
#
# Bulk Modulus (GPa) = 23.42697 44.04740 33.73719
# Shear Modulus (GPa) = 23.16905 31.26584 27.21745
#
# Velocity S-wave (km/s) = 3.41820 3.97080 3.70482
# Velocity P-wave (km/s) = 5.23383 6.57541 5.94260
#
# Compressibility (1/GPa) = 0.04268584
#
# Stress axis : x y z
#
# Youngs Moduli (GPa) = 43.74006 92.64433 34.06696
#
# Poissons Ratio (x) = 0.68658 -0.18901
# Poissons Ratio (y) = 0.32415 0.28274
# Poissons Ratio (z) = -0.24268 0.76890
#
# Static dielectric constant tensor:
#      x y z
#    x 1.682480 0.000000 -0.044340 
#    y 0.000000 1.726420 0.000000 
#    z -0.044340 0.000000 1.710760 
# 
# From -- ./inp_files/254619.got.cif
#   From: 2010.05.17/outbox.cif.g08.bks.cpg/sg12_128_cif.got.tgz:254619.got - 2010.06.03 13:09:07.
