data_PCOD9198692
_publ_section_title
;
Structure prediction by ZEFSAII (Michael W. Deem and Ramdas Pophale) SiO2 
 PCOD9198692
Probable space group: C 2/M
;
_chemical_formula_sum "Si O2"
_cell_formula_units_Z 56
_cell_length_a 21.540123
_cell_length_b 9.793954
_cell_length_c 29.813209
_cell_angle_alpha 90.000000
_cell_angle_beta 26.717409
_cell_angle_gamma 90.000000
_cell_volume 2827.691430
_symmetry_space_group_name_H-M "C 2/M"
_symmetry_group_IT_number 12
_symmetry_cell_setting 'monoclinic'
loop_
_space_group_symop_operation_xyz
x,y,z
-x,y,-z
-x,-y,-z
x,-y,z
1/2+x,1/2+y,z
1/2-x,1/2+y,-z
1/2-x,1/2-y,-z
1/2+x,1/2-y,z
loop_
_atom_site_type_symbol
_atom_site_label
_atom_site_fract_x
_atom_site_fract_y
_atom_site_fract_z
Si Si1 0.617380 0.839147 0.460688
Si Si2 0.927683 0.149668 0.252460
Si Si3 0.159601 0.156489 0.230529
Si Si4 0.350679 0.336842 0.468399
Si Si5 0.400833 0.650558 0.948466
Si Si6 0.879027 0.657634 0.827154
Si Si7 0.940153 0.339500 0.087455
O O1 0.500000 0.801443 0.500000
O O2 0.769671 0.833771 0.340160
O O3 0.632575 0.742296 0.494624
O O4 0.593449 0.000000 0.488953
O O5 0.031798 0.149988 0.143721
O O6 0.979552 0.268917 0.250839
O O7 0.938404 0.000000 0.268264
O O8 0.179027 0.260073 0.177421
O O9 0.276214 0.187242 0.192177
O O10 0.004499 0.165310 0.348195
O O11 0.186453 0.000000 0.198143
O O12 0.311607 0.500000 0.497649
O O13 0.250000 0.250000 0.500000
O O14 0.427369 0.500000 0.951349
O O15 0.479440 0.760730 0.926650
O O16 0.236554 0.668963 0.059221
O O17 0.900801 0.500000 0.802916
O O18 0.962089 0.500000 0.079379
O O19 0.000000 0.302135 0.000000
#
# Coordination Sequence:
#
# PCOD9198692 Si02
#       7
#     8   8   8   8   8   8   8
#     4  10  23  43  65  90 121 159 205 254 306 363
#     4  10  22  40  60  82 115 157 194 234 290 351
#     4  10  22  39  59  85 118 155 191 234 292 352
#     4  11  24  42  65  92 123 158 203 256 307 360
#     4  10  22  37  56  85 118 151 191 236 286 341
#     4  11  22  36  57  89 120 150 192 240 285 340
#     4  10  20  36  58  83 113 152 193 232 283 347
#
# _framework density 19.804141000000001
#
# number of rings (size 3 to 8) (size 9 to 14) (size 15 to 20)
#    0.000    1.714    1.429    2.143    2.000    7.429 
#    0.000    0.000    0.000    0.000    0.000    0.000 
#    0.000    0.000    0.000    0.000    0.000    0.000 
#
# Total GULP energy -156216.354973 kJ/mol
# GULP energy per Si atom -5579.155535 kJ/mol
# Density = 1.975907 g / cm^3
# Si number density = 19.804141 Si / 1000 Ang^3
#
#
#
# Elastic Constant Matrix: (Units=GPa)
#
#
# Indices 1 2 3 4 5 6 
#
# 1 82.7584 63.4793 17.2509 -0.0002 -21.5149 -0.0001
# 2 63.4793 113.1850 38.9564 -0.0001 -12.1101 0.0001
# 3 17.2509 38.9564 70.1309 -0.0002 -17.0954 0.0004
# 4 -0.0002 -0.0001 -0.0002 9.3413 0.0000 6.1788
# 5 -21.5149 -12.1101 -17.0954 0.0000 35.1519 -0.0002
# 6 -0.0001 0.0001 0.0004 6.1788 -0.0002 32.2614
#
#
#
# Elastic Compliance Matrix: (Units=1/GPa)
#
#
# Indices 1 2 3 4 5 6 
#
# 1 0.025815 -0.014822 0.005094 0.000000 0.013171 0.000000
# 2 -0.014822 0.019460 -0.008782 0.000000 -0.006639 0.000000
# 3 0.005094 -0.008782 0.020315 0.000001 0.009972 0.000000
# 4 0.000000 0.000000 0.000001 0.122580 0.000000 -0.023477
# 5 0.013171 -0.006639 0.009972 0.000000 0.039072 0.000000
# 6 0.000000 0.000000 0.000000 -0.023477 0.000000 0.035493
#
#
# Mechanical properties :
#
#
# Convention : Reuss Voigt Hill
#
# Bulk Modulus (GPa) = 35.00180 56.16084 45.58132
# Shear Modulus (GPa) = 16.16657 25.11011 20.63834
#
# Velocity S-wave (km/s) = 2.86024 3.56465 3.23169
# Velocity P-wave (km/s) = 5.34979 6.73513 6.08204
#
# Compressibility (1/GPa) = 0.02856996
#
# Stress axis : x y z
#
# Youngs Moduli (GPa) = 38.73722 51.38620 49.22423
#
# Poissons Ratio (x) = 0.76166 -0.25076
# Poissons Ratio (y) = 0.57417 0.43230
# Poissons Ratio (z) = -0.19733 0.45128
#
# Static dielectric constant tensor:
#      x y z
#    x 1.679880 0.000000 -0.000440 
#    y 0.000000 1.701450 0.000000 
#    z -0.000440 0.000000 1.726070 
# 
# From -- ./inp_files/380633.got.cif
#   From: 2010.05.17/outbox.cif.g08.bks.cpg/sg12_191_cif.got.tgz:380633.got - 2010.06.03 13:09:07.
