data_PCOD9198805
_publ_section_title
;
Structure prediction by ZEFSAII (Michael W. Deem and Ramdas Pophale) SiO2 
 PCOD9198805
Probable space group: C 2/M
;
_chemical_formula_sum "Si O2"
_cell_formula_units_Z 50
_cell_length_a 16.095972
_cell_length_b 8.832607
_cell_length_c 24.937067
_cell_angle_alpha 90.000000
_cell_angle_beta 49.778850
_cell_angle_gamma 90.000000
_cell_volume 2707.031793
_symmetry_space_group_name_H-M "C 2/M"
_symmetry_group_IT_number 12
_symmetry_cell_setting 'monoclinic'
loop_
_space_group_symop_operation_xyz
x,y,z
-x,y,-z
-x,-y,-z
x,-y,z
1/2+x,1/2+y,z
1/2-x,1/2+y,-z
1/2-x,1/2-y,-z
1/2+x,1/2-y,z
loop_
_atom_site_type_symbol
_atom_site_label
_atom_site_fract_x
_atom_site_fract_y
_atom_site_fract_z
Si Si1 0.628070 0.320275 0.209228
Si Si2 0.841418 0.682451 0.500014
Si Si3 0.046230 0.320274 0.790814
Si Si4 0.500000 0.500000 0.000000
Si Si5 0.249903 0.820249 0.652833
Si Si6 0.145222 0.167560 0.854628
Si Si7 0.944333 0.320251 0.652803
O O1 0.631896 0.500000 0.203101
O O2 0.565896 0.249989 0.184253
O O3 0.748369 0.253188 0.168499
O O4 0.560601 0.270985 0.290186
O O5 0.838438 0.500000 0.500017
O O6 0.750000 0.750000 0.500000
O O7 0.812698 0.726876 0.572676
O O8 0.958099 0.726864 0.427360
O O9 0.037802 0.500000 0.796944
O O10 0.140776 0.270986 0.709861
O O11 0.084991 0.253170 0.831567
O O12 0.562847 0.629312 0.937040
O O13 0.331919 0.798031 0.668014
O O14 0.224797 0.000000 0.659186
O O15 0.180909 0.000000 0.818939
O O16 0.956731 0.500000 0.659155
#
# Coordination Sequence:
#
# PCOD9198805 Si02
#       7
#     8   8   8   2   8   8   8
#     4  12  24  39  65  99 133 172 220 265 316 380
#     4  10  21  35  51  77 117 164 220 274 332 381
#     4  12  24  39  65  99 133 172 220 265 316 380
#     4   8  24  44  82  96 136 164 206 244 328 396
#     4  10  20  36  58  85 119 169 218 275 327 383
#     4  10  21  45  71  98 130 165 202 258 315 380
#     4  10  20  36  58  85 119 169 218 275 327 383
#
# _framework density 18.470416
#
# number of rings (size 3 to 8) (size 9 to 14) (size 15 to 20)
#    0.480    0.960    1.600    4.800    0.000    5.760 
#    0.000    2.400    0.000    2.880    0.000    0.000 
#    0.000    0.000    0.000    0.000    0.000    0.000 
#
# Total GULP energy -139345.277683 kJ/mol
# GULP energy per Si atom -5573.811107 kJ/mol
# Density = 1.842838 g / cm^3
# Si number density = 18.470416 Si / 1000 Ang^3
#
#
#
# Elastic Constant Matrix: (Units=GPa)
#
#
# Indices 1 2 3 4 5 6 
#
# 1 145.7004 76.8420 51.7949 0.0000 -5.2990 0.0001
# 2 76.8420 114.4226 41.1750 0.0000 -2.1078 0.0002
# 3 51.7949 41.1750 121.3109 0.0000 4.1124 0.0000
# 4 0.0000 0.0000 0.0000 19.6048 0.0000 -0.7282
# 5 -5.2990 -2.1078 4.1124 0.0000 3.3588 0.0000
# 6 0.0001 0.0002 0.0000 -0.7282 0.0000 31.7818
#
#
#
# Elastic Compliance Matrix: (Units=1/GPa)
#
#
# Indices 1 2 3 4 5 6 
#
# 1 0.012408 -0.006624 -0.003727 0.000000 0.019983 0.000000
# 2 -0.006624 0.013884 -0.001905 0.000000 0.000595 0.000000
# 3 -0.003727 -0.001905 0.011185 0.000000 -0.020771 0.000000
# 4 0.000000 0.000000 0.000000 0.051051 0.000000 0.001170
# 5 0.019983 0.000595 -0.020771 0.000000 0.355062 0.000000
# 6 0.000000 0.000000 0.000000 0.001170 0.000000 0.031491
#
#
# Mechanical properties :
#
#
# Convention : Reuss Voigt Hill
#
# Bulk Modulus (GPa) = 77.11994 80.11754 78.61874
# Shear Modulus (GPa) = 9.92229 25.05721 17.48975
#
# Velocity S-wave (km/s) = 2.32027 3.68722 3.08052
# Velocity P-wave (km/s) = 7.00158 7.84842 7.43706
#
# Compressibility (1/GPa) = 0.01296681
#
# Stress axis : x y z
#
# Youngs Moduli (GPa) = 80.58994 72.02472 89.40382
#
# Poissons Ratio (x) = 0.47707 0.33322
# Poissons Ratio (y) = 0.53381 0.17028
# Poissons Ratio (z) = 0.30037 0.13718
#
# Static dielectric constant tensor:
#      x y z
#    x 1.628840 0.000000 0.000810 
#    y 0.000000 1.623220 0.000000 
#    z 0.000810 0.000000 1.642560 
# 
# From -- ./inp_files/308352.got.cif
#   From: 2010.05.17/outbox.cif.g08.bks.cpg/sg12_155_cif.got.tgz:308352.got - 2010.06.03 13:09:07.
