data_PCOD9198435
_publ_section_title
;
Structure prediction by ZEFSAII (Michael W. Deem and Ramdas Pophale) SiO2 
 PCOD9198435
Probable space group: C 2/M
;
_chemical_formula_sum "Si O2"
_cell_formula_units_Z 40
_cell_length_a 9.297384
_cell_length_b 23.667654
_cell_length_c 16.300383
_cell_angle_alpha 90.000000
_cell_angle_beta 30.351777
_cell_angle_gamma 90.000000
_cell_volume 1812.465141
_symmetry_space_group_name_H-M "C 2/M"
_symmetry_group_IT_number 12
_symmetry_cell_setting 'monoclinic'
loop_
_space_group_symop_operation_xyz
x,y,z
-x,y,-z
-x,-y,-z
x,-y,z
1/2+x,1/2+y,z
1/2-x,1/2+y,-z
1/2-x,1/2-y,-z
1/2+x,1/2-y,z
loop_
_atom_site_type_symbol
_atom_site_label
_atom_site_fract_x
_atom_site_fract_y
_atom_site_fract_z
Si Si1 0.106132 0.936840 0.854256
Si Si2 0.120750 0.718042 0.641362
Si Si3 0.927195 0.390128 0.947187
Si Si4 0.080047 0.262818 0.841477
Si Si5 0.819556 0.587237 0.351675
O O1 0.447188 0.934295 0.697451
O O2 0.028623 0.000000 0.863746
O O3 0.000000 0.929634 0.000000
O O4 0.916739 0.892505 0.895833
O O5 0.250000 0.750000 0.500000
O O6 0.195195 0.744072 0.692488
O O7 0.201461 0.652933 0.610736
O O8 0.779280 0.725065 0.800042
O O9 0.077416 0.328416 0.870095
O O10 0.048979 0.418609 0.804624
O O11 0.000000 0.415182 0.000000
O O12 0.750000 0.250000 0.000000
O O13 0.500000 0.564810 0.500000
#
# Coordination Sequence:
#
# PCOD9198435 Si02
#       5
#     8   8   8   8   8
#     4   9  19  37  61  86 113 148 190 238 292 344
#     4  11  21  35  52  77 112 148 184 223 274 330
#     4  10  20  36  57  84 113 147 189 235 287 337
#     4  11  21  33  52  78 108 144 186 227 267 323
#     4  10  21  37  57  82 113 151 194 235 280 338
#
# _framework density 22.069389999999999
#
# number of rings (size 3 to 8) (size 9 to 14) (size 15 to 20)
#    0.000    1.800    0.000    6.000    0.000    4.000 
#    0.000    3.000    0.000    1.200    0.000    0.000 
#    0.000    0.000    0.000    0.000    0.000    0.000 
#
# Total GULP energy -111503.880531 kJ/mol
# GULP energy per Si atom -5575.194027 kJ/mol
# Density = 2.201916 g / cm^3
# Si number density = 22.069390 Si / 1000 Ang^3
#
#
#
# Elastic Constant Matrix: (Units=GPa)
#
#
# Indices 1 2 3 4 5 6 
#
# 1 139.7031 30.1220 55.5272 0.0016 -15.0300 -0.0003
# 2 30.1220 52.9366 11.0900 0.0000 -5.1049 -0.0004
# 3 55.5272 11.0900 93.9443 -0.0013 -14.9847 0.0015
# 4 0.0016 0.0000 -0.0013 7.0893 0.0002 -6.2263
# 5 -15.0300 -5.1049 -14.9847 0.0002 60.3738 -0.0001
# 6 -0.0003 -0.0004 0.0015 -6.2263 -0.0001 10.3097
#
#
#
# Elastic Compliance Matrix: (Units=1/GPa)
#
#
# Indices 1 2 3 4 5 6 
#
# 1 0.010444 -0.004713 -0.005482 -0.000005 0.000841 -0.000002
# 2 -0.004713 0.021569 0.000357 0.000003 0.000739 0.000003
# 3 -0.005482 0.000357 0.014192 0.000004 0.002188 0.000000
# 4 -0.000005 0.000003 0.000004 0.300377 -0.000001 0.181405
# 5 0.000841 0.000739 0.002188 -0.000001 0.017378 -0.000001
# 6 -0.000002 0.000003 0.000000 0.181405 -0.000001 0.206550
#
#
# Mechanical properties :
#
#
# Convention : Reuss Voigt Hill
#
# Bulk Modulus (GPa) = 37.69567 53.34024 45.51796
# Shear Modulus (GPa) = 8.34684 28.21089 18.27886
#
# Velocity S-wave (km/s) = 1.94687 3.57918 2.88105
# Velocity P-wave (km/s) = 4.70864 6.42671 5.63356
#
# Compressibility (1/GPa) = 0.02652825
#
# Stress axis : x y z
#
# Youngs Moduli (GPa) = 95.75058 46.36333 70.46284
#
# Poissons Ratio (x) = 0.21852 0.38631
# Poissons Ratio (y) = 0.45128 -0.02519
# Poissons Ratio (z) = 0.52495 -0.01657
#
# Static dielectric constant tensor:
#      x y z
#    x 1.827360 -0.000010 -0.050470 
#    y -0.000010 1.841070 -0.000010 
#    z -0.050470 -0.000010 1.904840 
# 
# From -- ./inp_files/41399.got.cif
#   From: 2010.05.17/outbox.cif.g08.bks.cpg/sg12_21_cif.got.tgz:41399.got - 2010.06.03 13:09:07.
