data_PCOD9198828
_publ_section_title
;
Structure prediction by ZEFSAII (Michael W. Deem and Ramdas Pophale) SiO2 
 PCOD9198828
Probable space group: C 2/M
;
_chemical_formula_sum "Si O2"
_cell_formula_units_Z 48
_cell_length_a 28.657105
_cell_length_b 8.931149
_cell_length_c 10.363162
_cell_angle_alpha 90.000000
_cell_angle_beta 89.834327
_cell_angle_gamma 90.000000
_cell_volume 2652.345658
_symmetry_space_group_name_H-M "C 2/M"
_symmetry_group_IT_number 12
_symmetry_cell_setting 'monoclinic'
loop_
_space_group_symop_operation_xyz
x,y,z
-x,y,-z
-x,-y,-z
x,-y,z
1/2+x,1/2+y,z
1/2-x,1/2+y,-z
1/2-x,1/2-y,-z
1/2+x,1/2-y,z
loop_
_atom_site_type_symbol
_atom_site_label
_atom_site_fract_x
_atom_site_fract_y
_atom_site_fract_z
Si Si1 0.472928 0.680550 0.130401
Si Si2 0.780319 0.179131 0.613545
Si Si3 0.034296 0.826381 0.377566
Si Si4 0.773821 0.319651 0.124907
Si Si5 0.374111 0.178104 0.521311
Si Si6 0.623674 0.180756 0.782479
O O1 0.467755 0.500000 0.130268
O O2 0.505250 0.720760 0.252369
O O3 0.422037 0.751505 0.150236
O O4 0.500000 0.724553 0.000000
O O5 0.750000 0.250000 0.500000
O O6 0.756724 0.220340 0.749315
O O7 0.832035 0.240722 0.594024
O O8 0.779590 0.000000 0.602869
O O9 0.078091 0.724655 0.410930
O O10 0.000000 0.822074 0.500000
O O11 0.049363 0.000000 0.359724
O O12 0.773818 0.500000 0.113484
O O13 0.827482 0.273159 0.151624
O O14 0.750000 0.250000 0.000000
O O15 0.375390 0.223794 0.369649
O O16 0.366978 0.000000 0.524652
O O17 0.620976 0.000000 0.786983
#
# Coordination Sequence:
#
# PCOD9198828 Si02
#       6
#     8   8   8   8   8   8
#     4  10  22  39  59  85 118 153 194 241 293 354
#     4  11  22  39  62  89 122 156 198 248 297 352
#     4  10  20  36  58  86 116 149 195 244 290 347
#     4  10  23  42  61  88 123 157 197 247 297 355
#     4  11  22  37  60  90 121 155 200 248 296 351
#     4  10  21  39  60  84 118 153 194 244 295 353
#
# _framework density 18.097189
#
# number of rings (size 3 to 8) (size 9 to 14) (size 15 to 20)
#    0.000    1.667    3.333    1.000    0.000    5.333 
#    0.000    5.000    0.000    0.000    0.000    0.000 
#    0.000    0.000    0.000    0.000    0.000    0.000 
#
# Total GULP energy -134048.269862 kJ/mol
# GULP energy per Si atom -5585.344578 kJ/mol
# Density = 1.805600 g / cm^3
# Si number density = 18.097189 Si / 1000 Ang^3
#
#
#
# Elastic Constant Matrix: (Units=GPa)
#
#
# Indices 1 2 3 4 5 6 
#
# 1 169.5543 48.3228 98.2952 0.0000 -4.3587 0.0000
# 2 48.3228 33.9334 45.9600 0.0000 -4.1333 0.0000
# 3 98.2952 45.9600 168.1663 0.0000 0.8216 0.0000
# 4 0.0000 0.0000 0.0000 25.5518 0.0000 2.3345
# 5 -4.3587 -4.1333 0.8216 0.0000 28.3155 0.0000
# 6 0.0000 0.0000 0.0000 2.3345 0.0000 39.5962
#
#
#
# Elastic Compliance Matrix: (Units=1/GPa)
#
#
# Indices 1 2 3 4 5 6 
#
# 1 0.011044 -0.011050 -0.003436 0.000000 0.000187 0.000000
# 2 -0.011050 0.059362 -0.009800 0.000000 0.007249 0.000000
# 3 -0.003436 -0.009800 0.010644 0.000000 -0.002268 0.000000
# 4 0.000000 0.000000 0.000000 0.039348 0.000000 -0.002320
# 5 0.000187 0.007249 -0.002268 0.000000 0.036469 0.000000
# 6 0.000000 0.000000 0.000000 -0.002320 0.000000 0.025392
#
#
# Mechanical properties :
#
#
# Convention : Reuss Voigt Hill
#
# Bulk Modulus (GPa) = 30.79083 84.09000 57.44042
# Shear Modulus (GPa) = 20.69037 30.63110 25.66074
#
# Velocity S-wave (km/s) = 3.38493 4.11857 3.76964
# Velocity P-wave (km/s) = 5.68578 8.31766 7.12431
#
# Compressibility (1/GPa) = 0.03247720
#
# Stress axis : x y z
#
# Youngs Moduli (GPa) = 90.54667 16.84579 93.94607
#
# Poissons Ratio (x) = 0.18615 0.32281
# Poissons Ratio (y) = 1.00058 0.92067
# Poissons Ratio (z) = 0.31113 0.16509
#
# Static dielectric constant tensor:
#      x y z
#    x 1.498440 0.000000 0.006720 
#    y 0.000000 1.613360 0.000000 
#    z 0.006720 0.000000 1.598150 
# 
# From -- ./inp_files/108737.got.cif
#   From: 2010.05.17/outbox.cif.g08.bks.cpg/sg12_55_cif.got.tgz:108737.got - 2010.06.03 13:09:07.
