data_PCOD9198683
_publ_section_title
;
Structure prediction by ZEFSAII (Michael W. Deem and Ramdas Pophale) SiO2 
 PCOD9198683
Probable space group: C 2/M
;
_chemical_formula_sum "Si O2"
_cell_formula_units_Z 48
_cell_length_a 9.034234
_cell_length_b 10.200135
_cell_length_c 25.196677
_cell_angle_alpha 90.000000
_cell_angle_beta 86.821606
_cell_angle_gamma 90.000000
_cell_volume 2318.312372
_symmetry_space_group_name_H-M "C 2/M"
_symmetry_group_IT_number 12
_symmetry_cell_setting 'monoclinic'
loop_
_space_group_symop_operation_xyz
x,y,z
-x,y,-z
-x,-y,-z
x,-y,z
1/2+x,1/2+y,z
1/2-x,1/2+y,-z
1/2-x,1/2-y,-z
1/2+x,1/2-y,z
loop_
_atom_site_type_symbol
_atom_site_label
_atom_site_fract_x
_atom_site_fract_y
_atom_site_fract_z
Si Si1 0.340824 0.354782 0.030878
Si Si2 0.834083 0.724747 0.375310
Si Si3 0.877875 0.652395 0.791073
Si Si4 0.567459 0.650182 0.851018
Si Si5 0.417604 0.852466 0.552409
Si Si6 0.423879 0.644374 0.696666
O O1 0.271090 0.500000 0.029780
O O2 0.366952 0.323096 0.091999
O O3 0.500000 0.361339 0.000000
O O4 0.250000 0.250000 0.000000
O O5 0.725978 0.780633 0.422700
O O6 0.722034 0.653099 0.337507
O O7 0.962903 0.645416 0.402307
O O8 0.927910 0.833314 0.341006
O O9 0.926620 0.500000 0.787512
O O10 0.703088 0.652398 0.806789
O O11 0.912587 0.735632 0.737814
O O12 0.955333 0.736869 0.835897
O O13 0.506564 0.500000 0.853512
O O14 0.500000 0.790939 0.500000
O O15 0.374857 0.000000 0.538184
O O16 0.428363 0.500000 0.722094
#
# Coordination Sequence:
#
# PCOD9198683 Si02
#       6
#     8   8   8   8   8   8
#     4  10  21  37  59  87 117 152 193 236 284 340
#     4  10  22  37  57  84 114 146 189 233 278 335
#     4  11  24  39  59  86 114 149 193 238 286 341
#     4  10  22  40  59  84 119 153 190 237 287 340
#     4  10  20  36  58  83 113 148 185 228 278 332
#     4  11  23  39  59  83 114 151 190 235 286 338
#
# _framework density 20.704716999999999
#
# number of rings (size 3 to 8) (size 9 to 14) (size 15 to 20)
#    0.000    1.667    0.000    4.000    0.000    9.000 
#    0.000    0.000    0.000    8.000    0.000    0.000 
#    0.000    0.000    0.000    0.000    0.000    0.000 
#
# Total GULP energy -133999.749006 kJ/mol
# GULP energy per Si atom -5583.322875 kJ/mol
# Density = 2.065759 g / cm^3
# Si number density = 20.704717 Si / 1000 Ang^3
#
#
#
# Elastic Constant Matrix: (Units=GPa)
#
#
# Indices 1 2 3 4 5 6 
#
# 1 72.6943 28.9136 2.6615 0.0000 -0.5406 0.0000
# 2 28.9136 115.1999 18.1012 0.0000 12.6857 0.0000
# 3 2.6615 18.1012 73.8341 0.0000 -3.2139 0.0000
# 4 0.0000 0.0000 0.0000 25.7511 0.0000 6.9649
# 5 -0.5406 12.6857 -3.2139 0.0000 36.4572 0.0000
# 6 0.0000 0.0000 0.0000 6.9649 0.0000 25.2661
#
#
#
# Elastic Compliance Matrix: (Units=1/GPa)
#
#
# Indices 1 2 3 4 5 6 
#
# 1 0.015395 -0.004137 0.000534 0.000000 0.001715 0.000000
# 2 -0.004137 0.010567 -0.002614 0.000000 -0.003969 0.000000
# 3 0.000534 -0.002614 0.014260 0.000000 0.002175 0.000000
# 4 0.000000 0.000000 0.000000 0.041962 0.000000 -0.011567
# 5 0.001715 -0.003969 0.002175 0.000000 0.029027 0.000000
# 6 0.000000 0.000000 0.000000 -0.011567 0.000000 0.042767
#
#
# Mechanical properties :
#
#
# Convention : Reuss Voigt Hill
#
# Bulk Modulus (GPa) = 35.98712 40.12009 38.05360
# Shear Modulus (GPa) = 28.46176 31.63169 30.04673
#
# Velocity S-wave (km/s) = 3.71165 3.91289 3.81360
# Velocity P-wave (km/s) = 5.98225 6.31139 6.14902
#
# Compressibility (1/GPa) = 0.02778772
#
# Stress axis : x y z
#
# Youngs Moduli (GPa) = 64.95726 94.63823 70.12536
#
# Poissons Ratio (x) = 0.39148 -0.03744
# Poissons Ratio (y) = 0.26870 0.18332
# Poissons Ratio (z) = -0.03468 0.24740
#
# Static dielectric constant tensor:
#      x y z
#    x 1.711860 0.000000 0.002890 
#    y 0.000000 1.743270 0.000000 
#    z 0.002890 0.000000 1.759740 
# 
# From -- ./inp_files/331998.got.cif
#   From: 2010.05.17/outbox.cif.g08.bks.cpg/sg12_166_cif.got.tgz:331998.got - 2010.06.03 13:09:07.
