data_PCOD9198273
_publ_section_title
;
Structure prediction by ZEFSAII (Michael W. Deem and Ramdas Pophale) SiO2 
 PCOD9198273
Probable space group: C 2/M
;
_chemical_formula_sum "Si O2"
_cell_formula_units_Z 56
_cell_length_a 19.385286
_cell_length_b 7.445835
_cell_length_c 20.703569
_cell_angle_alpha 90.000000
_cell_angle_beta 125.791903
_cell_angle_gamma 90.000000
_cell_volume 2423.986099
_symmetry_space_group_name_H-M "C 2/M"
_symmetry_group_IT_number 12
_symmetry_cell_setting 'monoclinic'
loop_
_space_group_symop_operation_xyz
x,y,z
-x,y,-z
-x,-y,-z
x,-y,z
1/2+x,1/2+y,z
1/2-x,1/2+y,-z
1/2-x,1/2-y,-z
1/2+x,1/2-y,z
loop_
_atom_site_type_symbol
_atom_site_label
_atom_site_fract_x
_atom_site_fract_y
_atom_site_fract_z
Si Si1 0.408453 0.210040 0.472976
Si Si2 0.898756 0.795730 0.248113
Si Si3 0.412220 0.718213 0.626005
Si Si4 0.776729 0.213766 0.657469
Si Si5 0.589428 0.780613 0.020626
Si Si6 0.344854 0.213026 0.076846
Si Si7 0.275493 0.215999 0.799866
O O1 0.500000 0.285875 0.500000
O O2 0.399338 0.225506 0.545163
O O3 0.319707 0.288068 0.397768
O O4 0.410445 0.000000 0.455037
O O5 0.867033 0.798375 0.157023
O O6 0.820569 0.711851 0.244699
O O7 0.992958 0.717445 0.303339
O O8 0.907857 0.000000 0.277160
O O9 0.410576 0.500000 0.627837
O O10 0.339938 0.782469 0.636368
O O11 0.810765 0.243261 0.748381
O O12 0.770097 0.000000 0.643362
O O13 0.665294 0.719632 0.109129
O O14 0.592589 0.000000 0.021814
O O15 0.500000 0.724814 0.000000
O O16 0.598465 0.722981 0.951830
O O17 0.355181 0.000000 0.091149
O O18 0.250000 0.250000 0.000000
O O19 0.271388 0.000000 0.803943
#
# Coordination Sequence:
#
# PCOD9198273 Si02
#       7
#     8   8   8   8   8   8   8
#     4  10  21  38  60  84 113 146 184 229 272 326
#     4  10  21  38  56  80 113 145 185 232 276 328
#     4  10  22  38  58  83 115 148 180 228 280 329
#     4  10  22  38  55  82 117 146 178 229 283 326
#     4   9  19  35  54  78 110 144 184 232 275 319
#     4  11  21  36  59  83 110 147 187 233 281 327
#     4  10  20  36  57  79 107 146 187 228 270 326
#
# _framework density 23.102442
#
# number of rings (size 3 to 8) (size 9 to 14) (size 15 to 20)
#    0.000    2.000    1.429    1.714    2.000    2.571 
#    0.000    0.000    0.000    2.143    0.000    0.000 
#    0.000    0.000    0.000    0.000    0.000    0.000 
#
# Total GULP energy -156468.480213 kJ/mol
# GULP energy per Si atom -5588.160008 kJ/mol
# Density = 2.304986 g / cm^3
# Si number density = 23.102442 Si / 1000 Ang^3
#
#
#
# Elastic Constant Matrix: (Units=GPa)
#
#
# Indices 1 2 3 4 5 6 
#
# 1 137.3905 1.4711 12.2162 0.0000 -11.0794 0.0000
# 2 1.4711 76.8013 -14.9020 0.0000 10.7924 0.0000
# 3 12.2162 -14.9020 74.7670 0.0000 -7.0029 0.0000
# 4 0.0000 0.0000 0.0000 13.6625 0.0000 -15.9480
# 5 -11.0794 10.7924 -7.0029 0.0000 43.2930 0.0000
# 6 0.0000 0.0000 0.0000 -15.9480 0.0000 -6.2264
#
#
#
# Elastic Compliance Matrix: (Units=1/GPa)
#
#
# Indices 1 2 3 4 5 6 
#
# 1 0.007544 -0.000641 -0.001182 0.000000 0.001899 0.000000
# 2 -0.000641 0.013990 0.002590 0.000000 -0.003232 0.000000
# 3 -0.001182 0.002590 0.014211 0.000000 0.001350 0.000000
# 4 0.000000 0.000000 0.000000 0.018345 0.000000 -0.046988
# 5 0.001899 -0.003232 0.001350 0.000000 0.024609 0.000000
# 6 0.000000 0.000000 0.000000 -0.046988 0.000000 -0.040254
#
#
# Mechanical properties :
#
#
# Convention : Reuss Voigt Hill
#
# Bulk Modulus (GPa) = 26.82521 31.83659 29.33090
# Shear Modulus (GPa) = 101.34644 29.49072 65.41858
#
# Velocity S-wave (km/s) = 6.63050 3.57672 5.32712
# Velocity P-wave (km/s) = 8.38180 5.55588 7.11064
#
# Compressibility (1/GPa) = 0.03727836
#
# Stress axis : x y z
#
# Youngs Moduli (GPa) = 132.56164 71.48105 70.36888
#
# Poissons Ratio (x) = 0.04580 0.08320
# Poissons Ratio (y) = 0.08494 -0.18227
# Poissons Ratio (z) = 0.15674 -0.18515
#
# Static dielectric constant tensor:
#      x y z
#    x 1.870420 0.000000 0.019720 
#    y 0.000000 1.856380 0.000000 
#    z 0.019720 0.000000 1.821850 
# 
# From -- ./inp_files/320256.got.cif
#   From: 2010.05.17/outbox.cif.g08.bks.cpg/sg12_161_cif.got.tgz:320256.got - 2010.06.03 13:09:07.
