data_PCOD9198829
_publ_section_title
;
Structure prediction by ZEFSAII (Michael W. Deem and Ramdas Pophale) SiO2 
 PCOD9198829
Probable space group: C 2/M
;
_chemical_formula_sum "Si O2"
_cell_formula_units_Z 64
_cell_length_a 9.140268
_cell_length_b 23.337991
_cell_length_c 14.059360
_cell_angle_alpha 90.000000
_cell_angle_beta 109.864458
_cell_angle_gamma 90.000000
_cell_volume 2820.631359
_symmetry_space_group_name_H-M "C 2/M"
_symmetry_group_IT_number 12
_symmetry_cell_setting 'monoclinic'
loop_
_space_group_symop_operation_xyz
x,y,z
-x,y,-z
-x,-y,-z
x,-y,z
1/2+x,1/2+y,z
1/2-x,1/2+y,-z
1/2-x,1/2-y,-z
1/2+x,1/2-y,z
loop_
_atom_site_type_symbol
_atom_site_label
_atom_site_fract_x
_atom_site_fract_y
_atom_site_fract_z
Si Si1 0.011088 0.880364 0.199253
Si Si2 0.722689 0.911850 0.866952
Si Si3 0.328667 0.780107 0.105405
Si Si4 0.636287 0.748274 0.227711
Si Si5 0.675375 0.095345 0.059000
Si Si6 0.379377 0.064299 0.737265
Si Si7 0.074899 0.745852 0.425943
Si Si8 0.076477 0.126419 0.614029
O O1 0.121715 0.920391 0.159632
O O2 0.095135 0.818809 0.224735
O O3 0.839508 0.872218 0.116116
O O4 0.992773 0.899724 0.304099
O O5 0.724916 0.844842 0.896532
O O6 0.564126 0.922172 0.772917
O O7 0.710650 0.938762 0.969210
O O8 0.511540 0.777935 0.133231
O O9 0.290933 0.749861 0.198868
O O10 0.250000 0.750000 0.000000
O O11 0.606047 0.773964 0.324853
O O12 0.653176 0.065396 0.156209
O O13 0.500000 0.119688 0.000000
O O14 0.258450 0.108879 0.662609
O O15 0.350509 0.000000 0.694871
O O16 0.250000 0.750000 0.500000
O O17 0.000000 0.712570 0.500000
O O18 0.975199 0.805705 0.396983
O O19 0.000000 0.104179 0.500000
#
# Coordination Sequence:
#
# PCOD9198829 Si02
#       8
#     8   8   8   8   8   8   8   8
#     4   9  18  36  56  83 118 153 192 240 295 353
#     4  10  21  35  56  84 118 156 193 246 300 345
#     4  11  22  33  49  77 113 155 195 227 274 346
#     4  10  21  34  50  75 113 153 191 233 280 335
#     4   9  18  32  56  83 111 148 190 235 285 343
#     4  10  22  40  61  85 113 149 199 249 295 353
#     4  10  20  36  58  86 116 150 193 239 289 349
#     4   9  20  39  62  85 112 151 196 242 295 355
#
# _framework density 22.689955000000001
#
# number of rings (size 3 to 8) (size 9 to 14) (size 15 to 20)
#    0.000    2.250    0.000    2.250    0.000   13.500 
#    0.000    3.125    0.000    6.750    0.000    0.000 
#    0.000    0.000    0.000    0.000    0.000    0.000 
#
# Total GULP energy -178152.799105 kJ/mol
# GULP energy per Si atom -5567.274972 kJ/mol
# Density = 2.263831 g / cm^3
# Si number density = 22.689955 Si / 1000 Ang^3
#
#
#
# Elastic Constant Matrix: (Units=GPa)
#
#
# Indices 1 2 3 4 5 6 
#
# 1 142.2868 24.1504 56.4124 0.0000 3.1119 0.0000
# 2 24.1504 67.5102 33.6043 0.0000 3.3859 0.0000
# 3 56.4124 33.6043 158.7698 0.0000 9.9346 0.0000
# 4 0.0000 0.0000 0.0000 202.8079 0.0000 -2.3511
# 5 3.1119 3.3859 9.9346 0.0000 40.7968 0.0000
# 6 0.0000 0.0000 0.0000 -2.3511 0.0000 -6.0780
#
#
#
# Elastic Compliance Matrix: (Units=1/GPa)
#
#
# Indices 1 2 3 4 5 6 
#
# 1 0.008350 -0.001691 -0.002618 0.000000 0.000141 0.000000
# 2 -0.001691 0.016911 -0.002943 0.000000 -0.000558 0.000000
# 3 -0.002618 -0.002943 0.007945 0.000000 -0.001491 0.000000
# 4 0.000000 0.000000 0.000000 0.004909 0.000000 -0.001899
# 5 0.000141 -0.000558 -0.001491 0.000000 0.024910 0.000000
# 6 0.000000 0.000000 0.000000 -0.001899 0.000000 -0.163793
#
#
# Mechanical properties :
#
#
# Convention : Reuss Voigt Hill
#
# Bulk Modulus (GPa) = 53.47344 66.32233 59.89788
# Shear Modulus (GPa) = -62.47622 64.46532 0.99455
#
# Velocity S-wave (km/s) = -5.25305 5.33602 0.66278
# Velocity P-wave (km/s) = 3.62967 8.20106 5.20014
#
# Compressibility (1/GPa) = 0.01870087
#
# Stress axis : x y z
#
# Youngs Moduli (GPa) = 119.76300 59.13435 125.86884
#
# Poissons Ratio (x) = 0.10000 0.32948
# Poissons Ratio (y) = 0.20253 0.37049
# Poissons Ratio (z) = 0.31350 0.17406
#
# Static dielectric constant tensor:
#      x y z
#    x 1.869640 0.000000 -0.024340 
#    y 0.000000 1.660280 0.000000 
#    z -0.024340 0.000000 1.864750 
# 
# From -- ./inp_files/200962.got.cif
#   From: 2010.05.17/outbox.cif.g08.bks.cpg/sg12_101_cif.got.tgz:200962.got - 2010.06.03 13:09:07.
