data_PCOD9198689
_publ_section_title
;
Structure prediction by ZEFSAII (Michael W. Deem and Ramdas Pophale) SiO2 
 PCOD9198689
Probable space group: C 2/M
;
_chemical_formula_sum "Si O2"
_cell_formula_units_Z 24
_cell_length_a 12.217309
_cell_length_b 14.302489
_cell_length_c 7.726321
_cell_angle_alpha 90.000000
_cell_angle_beta 125.826351
_cell_angle_gamma 90.000000
_cell_volume 1094.638784
_symmetry_space_group_name_H-M "C 2/M"
_symmetry_group_IT_number 12
_symmetry_cell_setting 'monoclinic'
loop_
_space_group_symop_operation_xyz
x,y,z
-x,y,-z
-x,-y,-z
x,-y,z
1/2+x,1/2+y,z
1/2-x,1/2+y,-z
1/2-x,1/2-y,-z
1/2+x,1/2-y,z
loop_
_atom_site_type_symbol
_atom_site_label
_atom_site_fract_x
_atom_site_fract_y
_atom_site_fract_z
Si Si1 0.553558 0.391207 0.350735
Si Si2 0.634723 0.111005 0.312268
Si Si3 0.396974 0.778140 0.076429
O O1 0.500000 0.376580 0.500000
O O2 0.527939 0.500000 0.287804
O O3 0.714159 0.373281 0.478707
O O4 0.475081 0.319891 0.158089
O O5 0.501182 0.154244 0.278316
O O6 0.619058 0.000000 0.275536
O O7 0.631050 0.165585 0.126314
O O8 0.250000 0.750000 0.000000
#
# Coordination Sequence:
#
# PCOD9198689 Si02
#       3
#     8   8   8
#     4  10  20  36  58  83 113 151 189 228 279 336
#     4  10  22  40  60  83 113 152 191 228 280 339
#     4  11  20  33  59  88 112 144 191 237 276 330
#
# _framework density 21.925039999999999
#
# number of rings (size 3 to 8) (size 9 to 14) (size 15 to 20)
#    0.000    1.667    3.333    3.000    0.000    1.333 
#    0.000    3.333    0.000    8.000    0.000    0.000 
#    0.000    0.000    0.000    0.000    0.000    0.000 
#
# Total GULP energy -66853.202353 kJ/mol
# GULP energy per Si atom -5571.100196 kJ/mol
# Density = 2.187514 g / cm^3
# Si number density = 21.925040 Si / 1000 Ang^3
#
#
#
# Elastic Constant Matrix: (Units=GPa)
#
#
# Indices 1 2 3 4 5 6 
#
# 1 84.4778 61.4143 63.0467 0.0000 39.9798 0.0000
# 2 61.4143 168.4166 101.3088 0.0000 29.8616 0.0000
# 3 63.0467 101.3088 132.0368 0.0000 53.1523 0.0000
# 4 0.0000 0.0000 0.0000 49.9114 0.0000 3.7061
# 5 39.9798 29.8616 53.1523 0.0000 51.2191 0.0000
# 6 0.0000 0.0000 0.0000 3.7061 0.0000 0.3461
#
#
#
# Elastic Compliance Matrix: (Units=1/GPa)
#
#
# Indices 1 2 3 4 5 6 
#
# 1 0.023081 -0.004896 -0.001994 0.000000 -0.013092 0.000000
# 2 -0.004896 0.012574 -0.010129 0.000000 0.007001 0.000000
# 3 -0.001994 -0.010129 0.022832 0.000000 -0.016231 0.000000
# 4 0.000000 0.000000 0.000000 0.097784 0.000000 -1.047051
# 5 -0.013092 0.007001 -0.016231 0.000000 0.042505 0.000000
# 6 0.000000 0.000000 0.000000 -1.047051 0.000000 14.100833
#
#
# Mechanical properties :
#
#
# Convention : Reuss Voigt Hill
#
# Bulk Modulus (GPa) = 40.90091 92.94119 66.92105
# Shear Modulus (GPa) = 0.34863 30.90608 15.62736
#
# Velocity S-wave (km/s) = 0.39919 3.75857 2.67266
# Velocity P-wave (km/s) = 4.34832 7.83060 6.33349
#
# Compressibility (1/GPa) = 0.02444933
#
# Stress axis : x y z
#
# Youngs Moduli (GPa) = 43.32595 79.52694 43.79891
#
# Poissons Ratio (x) = 0.38933 0.08735
# Poissons Ratio (y) = 0.21211 0.44363
# Poissons Ratio (z) = 0.08640 0.80552
#
# Static dielectric constant tensor:
#      x y z
#    x 2.017860 0.000000 -0.005150 
#    y 0.000000 1.768980 0.000000 
#    z -0.005150 0.000000 1.889920 
# 
# From -- ./inp_files/57254.got.cif
#   From: 2010.05.17/outbox.cif.g08.bks.cpg/sg12_29_cif.got.tgz:57254.got - 2010.06.03 13:09:07.
