data_PCOD9198879
_publ_section_title
;
Structure prediction by ZEFSAII (Michael W. Deem and Ramdas Pophale) SiO2 
 PCOD9198879
Probable space group: C 2/M
;
_chemical_formula_sum "Si O2"
_cell_formula_units_Z 64
_cell_length_a 15.476421
_cell_length_b 16.295826
_cell_length_c 13.141822
_cell_angle_alpha 90.000000
_cell_angle_beta 91.143369
_cell_angle_gamma 90.000000
_cell_volume 3313.721576
_symmetry_space_group_name_H-M "C 2/M"
_symmetry_group_IT_number 12
_symmetry_cell_setting 'monoclinic'
loop_
_space_group_symop_operation_xyz
x,y,z
-x,y,-z
-x,-y,-z
x,-y,z
1/2+x,1/2+y,z
1/2-x,1/2+y,-z
1/2-x,1/2-y,-z
1/2+x,1/2-y,z
loop_
_atom_site_type_symbol
_atom_site_label
_atom_site_fract_x
_atom_site_fract_y
_atom_site_fract_z
Si Si1 0.816377 0.594428 0.255503
Si Si2 0.276552 0.291371 0.895679
Si Si3 0.657205 0.817734 0.282943
Si Si4 0.003451 0.098668 0.686425
Si Si5 0.505966 0.901557 0.620065
Si Si6 0.438257 0.598529 0.906328
Si Si7 0.327597 0.652072 0.599143
Si Si8 0.690011 0.402996 0.621302
O O1 0.824231 0.500000 0.217946
O O2 0.800385 0.663877 0.169408
O O3 0.899391 0.612232 0.328662
O O4 0.730428 0.600766 0.323111
O O5 0.326242 0.225546 0.824935
O O6 0.344844 0.363278 0.918142
O O7 0.250000 0.250000 0.000000
O O8 0.565510 0.855994 0.312499
O O9 0.675371 0.744664 0.363107
O O10 0.732315 0.883892 0.301368
O O11 0.098208 0.129198 0.659932
O O12 0.975736 0.126274 0.798372
O O13 0.927244 0.124491 0.609119
O O14 0.006716 0.000000 0.687281
O O15 0.500000 0.876757 0.500000
O O16 0.489574 0.000000 0.622265
O O17 0.433261 0.500000 0.904562
O O18 0.500000 0.623341 0.000000
O O19 0.292827 0.637246 0.486831
O O20 0.682801 0.500000 0.604739
#
# Coordination Sequence:
#
# PCOD9198879 Si02
#       8
#     8   8   8   8   8   8   8   8
#     4  10  20  39  67  90 120 166 212 253 297 365
#     4  11  25  42  62  91 124 158 203 261 320 365
#     4  11  24  40  58  88 124 160 203 254 304 361
#     4  10  20  36  58  88 118 151 193 241 299 361
#     4  10  22  41  65  92 124 168 214 251 299 366
#     4  10  21  40  65  88 115 153 202 250 303 369
#     4  11  21  36  59  90 125 158 196 247 300 366
#     4  11  23  37  58  87 124 164 199 241 296 360
#
# _framework density 19.313631999999998
#
# number of rings (size 3 to 8) (size 9 to 14) (size 15 to 20)
#    0.000    1.500    2.500    3.375    1.750    7.000 
#    0.000    1.875    0.000    1.500    0.000    0.000 
#    0.000    0.000    0.000    0.000    0.000    0.000 
#
# Total GULP energy -178694.511773 kJ/mol
# GULP energy per Si atom -5584.203493 kJ/mol
# Density = 1.926967 g / cm^3
# Si number density = 19.313632 Si / 1000 Ang^3
#
#
#
# Elastic Constant Matrix: (Units=GPa)
#
#
# Indices 1 2 3 4 5 6 
#
# 1 91.5633 22.6706 33.3169 0.0000 1.9741 0.0000
# 2 22.6706 40.3400 36.5114 0.0000 -8.0123 0.0000
# 3 33.3169 36.5114 85.7360 0.0000 1.6759 0.0000
# 4 0.0000 0.0000 0.0000 25.6218 0.0000 -3.1361
# 5 1.9741 -8.0123 1.6759 0.0000 28.3040 0.0000
# 6 0.0000 0.0000 0.0000 -3.1361 0.0000 37.1555
#
#
#
# Elastic Compliance Matrix: (Units=1/GPa)
#
#
# Indices 1 2 3 4 5 6 
#
# 1 0.013337 -0.005366 -0.002853 0.000000 -0.002280 0.000000
# 2 -0.005366 0.047412 -0.018396 0.000000 0.014885 0.000000
# 3 -0.002853 -0.018396 0.020729 0.000000 -0.006236 0.000000
# 4 0.000000 0.000000 0.000000 0.039437 0.000000 0.003329
# 5 -0.002280 0.014885 -0.006236 0.000000 0.040073 0.000000
# 6 0.000000 0.000000 0.000000 0.003329 0.000000 0.027195
#
#
# Mechanical properties :
#
#
# Convention : Reuss Voigt Hill
#
# Bulk Modulus (GPa) = 35.40252 44.73747 40.07000
# Shear Modulus (GPa) = 19.93393 26.55895 23.24644
#
# Velocity S-wave (km/s) = 3.21614 3.71231 3.47310
# Velocity P-wave (km/s) = 5.67112 6.44895 6.07250
#
# Compressibility (1/GPa) = 0.02824657
#
# Stress axis : x y z
#
# Youngs Moduli (GPa) = 74.97753 21.09180 48.24246
#
# Poissons Ratio (x) = 0.11318 0.13764
# Poissons Ratio (y) = 0.40233 0.88749
# Poissons Ratio (z) = 0.21392 0.38801
#
# Static dielectric constant tensor:
#      x y z
#    x 1.680560 0.000000 0.010270 
#    y 0.000000 1.687110 0.000000 
#    z 0.010270 0.000000 1.669190 
# 
# From -- ./inp_files/146151.got.cif
#   From: 2010.05.17/outbox.cif.g08.bks.cpg/sg12_74_cif.got.tgz:146151.got - 2010.06.03 13:09:07.
