data_PCOD9198900
_publ_section_title
;
Structure prediction by ZEFSAII (Michael W. Deem and Ramdas Pophale) SiO2 
 PCOD9198900
Probable space group: C 2/M
;
_chemical_formula_sum "Si O2"
_cell_formula_units_Z 38
_cell_length_a 21.817342
_cell_length_b 16.615209
_cell_length_c 16.831497
_cell_angle_alpha 90.000000
_cell_angle_beta 162.030188
_cell_angle_gamma 90.000000
_cell_volume 1882.382538
_symmetry_space_group_name_H-M "C 2/M"
_symmetry_group_IT_number 12
_symmetry_cell_setting 'monoclinic'
loop_
_space_group_symop_operation_xyz
x,y,z
-x,y,-z
-x,-y,-z
x,-y,z
1/2+x,1/2+y,z
1/2-x,1/2+y,-z
1/2-x,1/2-y,-z
1/2+x,1/2-y,z
loop_
_atom_site_type_symbol
_atom_site_label
_atom_site_fract_x
_atom_site_fract_y
_atom_site_fract_z
Si Si1 0.500000 0.500000 0.500000
Si Si2 0.911948 0.846609 0.971545
Si Si3 0.500000 0.212179 0.500000
Si Si4 0.197015 0.852095 0.843773
Si Si5 0.101012 0.307689 0.268678
Si Si6 0.030127 0.094080 0.290282
O O1 0.609999 0.428551 0.688958
O O2 0.988614 0.753773 0.072288
O O3 0.985907 0.888633 0.143393
O O4 0.675154 0.841113 0.679806
O O5 0.000000 0.882760 0.000000
O O6 0.596203 0.271538 0.683965
O O7 0.130420 0.861474 0.852573
O O8 0.431548 0.845234 0.115613
O O9 0.250000 0.250000 0.500000
O O10 0.249754 0.373367 0.415971
O O11 0.020328 0.000000 0.293659
#
# Coordination Sequence:
#
# PCOD9198900 Si02
#       6
#     2   8   4   8   8   8
#     4  10  20  36  58  88 124 160 180 240 312 364
#     4  10  21  38  58  84 114 151 203 247 290 344
#     4   9  20  37  63  82 109 154 194 248 293 346
#     4  10  20  38  59  86 121 151 196 241 299 362
#     4   9  21  38  61  86 113 158 204 246 292 346
#     4  11  23  37  58  88 119 158 195 239 303 361
#
# _framework density 20.187180999999999
#
# number of rings (size 3 to 8) (size 9 to 14) (size 15 to 20)
#    0.000    2.105    1.053    1.263    1.474   11.368 
#    0.000    1.579    0.000    0.000    0.000    0.000 
#    0.000    0.000    0.000    0.000    0.000    0.000 
#
# Total GULP energy -105777.809609 kJ/mol
# GULP energy per Si atom -5567.253137 kJ/mol
# Density = 2.014123 g / cm^3
# Si number density = 20.187181 Si / 1000 Ang^3
#
#
#
# Elastic Constant Matrix: (Units=GPa)
#
#
# Indices 1 2 3 4 5 6 
#
# 1 111.5762 14.9908 40.0978 -0.0002 18.4230 0.0000
# 2 14.9908 35.4191 11.9958 0.0001 7.9377 0.0000
# 3 40.0978 11.9958 104.4311 0.0001 23.3183 -0.0002
# 4 -0.0002 0.0001 0.0001 5.3224 0.0000 -2.4729
# 5 18.4230 7.9377 23.3183 0.0000 21.3537 -0.0001
# 6 0.0000 0.0000 -0.0002 -2.4729 -0.0001 19.4976
#
#
#
# Elastic Compliance Matrix: (Units=1/GPa)
#
#
# Indices 1 2 3 4 5 6 
#
# 1 0.011239 -0.002538 -0.002737 0.000001 -0.005764 0.000000
# 2 -0.002538 0.031506 -0.000686 -0.000001 -0.008773 0.000000
# 3 -0.002737 -0.000686 0.013385 0.000000 -0.012000 0.000000
# 4 0.000001 -0.000001 0.000000 0.199650 0.000000 0.025322
# 5 -0.005764 -0.008773 -0.012000 0.000000 0.068169 0.000000
# 6 0.000000 0.000000 0.000000 0.025322 0.000000 0.054500
#
#
# Mechanical properties :
#
#
# Convention : Reuss Voigt Hill
#
# Bulk Modulus (GPa) = 22.61985 42.84392 32.73189
# Shear Modulus (GPa) = 12.34248 21.52421 16.93335
#
# Velocity S-wave (km/s) = 2.47534 3.26886 2.89938
# Velocity P-wave (km/s) = 4.40444 5.95959 5.24003
#
# Compressibility (1/GPa) = 0.04420895
#
# Stress axis : x y z
#
# Youngs Moduli (GPa) = 88.97790 31.74013 74.71207
#
# Poissons Ratio (x) = 0.08056 0.20446
# Poissons Ratio (y) = 0.22582 0.05122
# Poissons Ratio (z) = 0.24350 0.02176
#
# Static dielectric constant tensor:
#      x y z
#    x 1.810210 0.000000 -0.179220 
#    y 0.000000 1.711040 0.000000 
#    z -0.179220 0.000000 2.337830 
# 
# From -- ./inp_files/15335.got.cif
#   From: 2010.05.17/outbox.cif.g08.bks.cpg/sg12_8_cif.got.tgz:15335.got - 2010.06.03 13:09:07.
