data_PCOD9198725
_publ_section_title
;
Structure prediction by ZEFSAII (Michael W. Deem and Ramdas Pophale) SiO2 
 PCOD9198725
Probable space group: C 2/M
;
_chemical_formula_sum "Si O2"
_cell_formula_units_Z 40
_cell_length_a 14.019332
_cell_length_b 9.288027
_cell_length_c 14.381930
_cell_angle_alpha 90.000000
_cell_angle_beta 89.297674
_cell_angle_gamma 90.000000
_cell_volume 1872.558231
_symmetry_space_group_name_H-M "C 2/M"
_symmetry_group_IT_number 12
_symmetry_cell_setting 'monoclinic'
loop_
_space_group_symop_operation_xyz
x,y,z
-x,y,-z
-x,-y,-z
x,-y,z
1/2+x,1/2+y,z
1/2-x,1/2+y,-z
1/2-x,1/2-y,-z
1/2+x,1/2-y,z
loop_
_atom_site_type_symbol
_atom_site_label
_atom_site_fract_x
_atom_site_fract_y
_atom_site_fract_z
Si Si1 0.586841 0.168014 0.625786
Si Si2 0.311347 0.833482 0.075583
Si Si3 0.043811 0.827827 0.810935
Si Si4 0.638886 0.834918 0.425816
Si Si5 0.333729 0.335600 0.752572
O O1 0.591708 0.268352 0.715453
O O2 0.474302 0.165723 0.599493
O O3 0.641344 0.219227 0.532093
O O4 0.613109 0.000000 0.645911
O O5 0.407209 0.750421 0.102880
O O6 0.247358 0.831257 0.169647
O O7 0.327984 0.000000 0.049474
O O8 0.250000 0.750000 0.000000
O O9 0.932493 0.788410 0.800357
O O10 0.053713 0.000000 0.818469
O O11 0.686236 0.751172 0.340692
O O12 0.670899 0.000000 0.426654
O O13 0.350045 0.500000 0.722882
#
# Coordination Sequence:
#
# PCOD9198725 Si02
#       5
#     8   8   8   8   8
#     4   8  14  27  48  78 113 147 179 217 263 311
#     4  11  24  42  60  80 107 140 178 226 278 328
#     4  10  20  36  58  84 111 143 181 222 267 320
#     4   8  14  26  49  79 111 145 182 219 259 310
#     4   9  20  37  57  81 112 145 178 220 272 321
#
# _framework density 21.361151
#
# number of rings (size 3 to 8) (size 9 to 14) (size 15 to 20)
#    0.000    2.800    0.000    2.400    0.000    4.000 
#    0.000    9.000    0.000    0.000    0.000    0.000 
#    0.000    0.000    0.000    0.000    0.000    0.000 
#
# Total GULP energy -111694.667620 kJ/mol
# GULP energy per Si atom -5584.733381 kJ/mol
# Density = 2.131253 g / cm^3
# Si number density = 21.361151 Si / 1000 Ang^3
#
#
#
# Elastic Constant Matrix: (Units=GPa)
#
#
# Indices 1 2 3 4 5 6 
#
# 1 64.2537 13.3081 6.8980 0.0000 25.6430 0.0000
# 2 13.3081 67.0422 22.7232 0.0000 21.4639 0.0000
# 3 6.8980 22.7232 36.3301 0.0000 29.6673 0.0000
# 4 0.0000 0.0000 0.0000 40.7393 0.0000 2.3763
# 5 25.6430 21.4639 29.6673 0.0000 41.4167 0.0000
# 6 0.0000 0.0000 0.0000 2.3763 0.0000 15.5829
#
#
#
# Elastic Compliance Matrix: (Units=1/GPa)
#
#
# Indices 1 2 3 4 5 6 
#
# 1 0.025608 -0.002744 0.020817 0.000000 -0.029344 0.000000
# 2 -0.002744 0.019401 -0.011542 0.000000 -0.000088 0.000000
# 3 0.020817 -0.011542 0.087777 0.000000 -0.069783 0.000000
# 4 0.000000 0.000000 0.000000 0.024767 0.000000 -0.003777
# 5 -0.029344 -0.000088 -0.069783 0.000000 0.092346 0.000000
# 6 0.000000 0.000000 0.000000 -0.003777 0.000000 0.064749
#
#
# Mechanical properties :
#
#
# Convention : Reuss Voigt Hill
#
# Bulk Modulus (GPa) = 6.85646 28.16494 17.51070
# Shear Modulus (GPa) = 14.27752 27.86089 21.06921
#
# Velocity S-wave (km/s) = 2.58812 3.61540 3.14400
# Velocity P-wave (km/s) = 3.48539 5.53551 4.62546
#
# Compressibility (1/GPa) = 0.14584779
#
# Stress axis : x y z
#
# Youngs Moduli (GPa) = 39.05047 51.54436 11.39249
#
# Poissons Ratio (x) = 0.14145 -0.23716
# Poissons Ratio (y) = 0.10716 0.13149
# Poissons Ratio (z) = -0.81291 0.59491
#
# Static dielectric constant tensor:
#      x y z
#    x 1.849060 0.000000 0.016800 
#    y 0.000000 1.745540 0.000000 
#    z 0.016800 0.000000 1.753540 
# 
# From -- ./inp_files/211351.got.cif
#   From: 2010.05.17/outbox.cif.g08.bks.cpg/sg12_106_cif.got.tgz:211351.got - 2010.06.03 13:09:07.
