data_PCOD9198125
_publ_section_title
;
Structure prediction by ZEFSAII (Michael W. Deem and Ramdas Pophale) SiO2 
 PCOD9198125
Probable space group: C 2/M
;
_chemical_formula_sum "Si O2"
_cell_formula_units_Z 56
_cell_length_a 23.377359
_cell_length_b 7.509374
_cell_length_c 15.338260
_cell_angle_alpha 90.000000
_cell_angle_beta 112.935844
_cell_angle_gamma 90.000000
_cell_volume 2479.747478
_symmetry_space_group_name_H-M "C 2/M"
_symmetry_group_IT_number 12
_symmetry_cell_setting 'monoclinic'
loop_
_space_group_symop_operation_xyz
x,y,z
-x,y,-z
-x,-y,-z
x,-y,z
1/2+x,1/2+y,z
1/2-x,1/2+y,-z
1/2-x,1/2-y,-z
1/2+x,1/2-y,z
loop_
_atom_site_type_symbol
_atom_site_label
_atom_site_fract_x
_atom_site_fract_y
_atom_site_fract_z
Si Si1 0.987291 0.718894 0.591476
Si Si2 0.072364 0.296355 0.793454
Si Si3 0.178528 0.286299 0.975663
Si Si4 0.158236 0.714831 0.158673
Si Si5 0.981102 0.209405 0.892285
Si Si6 0.756023 0.284440 0.639174
Si Si7 0.349925 0.791381 0.545948
O O1 0.986765 0.500000 0.594006
O O2 0.919066 0.781375 0.580434
O O3 0.000000 0.770402 0.500000
O O4 0.039831 0.783104 0.689413
O O5 0.088092 0.500000 0.779507
O O6 0.133311 0.214212 0.873707
O O7 0.020823 0.296703 0.839589
O O8 0.169251 0.500000 0.972418
O O9 0.250000 0.250000 0.000000
O O10 0.160608 0.218222 0.061037
O O11 0.160270 0.500000 0.157628
O O12 0.092444 0.764926 0.161740
O O13 0.216268 0.774140 0.251976
O O14 0.995626 0.000000 0.898273
O O15 0.000000 0.277156 0.000000
O O16 0.755262 0.500000 0.637467
O O17 0.688448 0.225935 0.566808
O O18 0.805136 0.218260 0.594977
O O19 0.356425 0.000000 0.569756
#
# Coordination Sequence:
#
# PCOD9198125 Si02
#       7
#     8   8   8   8   8   8   8
#     4   9  18  33  55  81 107 138 183 231 267 311
#     4  10  20  37  59  81 108 147 188 225 271 329
#     4  10  22  37  55  78 106 143 182 220 264 319
#     4  10  20  36  56  80 108 143 184 220 264 328
#     4  11  22  34  54  85 115 141 174 226 283 326
#     4   9  18  32  52  76 105 138 173 215 263 316
#     4   9  17  31  51  77 105 135 171 217 270 313
#
# _framework density 22.582944999999999
#
# number of rings (size 3 to 8) (size 9 to 14) (size 15 to 20)
#    0.000    2.286    1.429    1.286    0.000    5.714 
#    0.000    5.000    0.000    1.714    0.000    0.000 
#    0.000    0.000    0.000    0.000    0.000    0.000 
#
# Total GULP energy -156447.850014 kJ/mol
# GULP energy per Si atom -5587.423215 kJ/mol
# Density = 2.253154 g / cm^3
# Si number density = 22.582945 Si / 1000 Ang^3
#
#
#
# Elastic Constant Matrix: (Units=GPa)
#
#
# Indices 1 2 3 4 5 6 
#
# 1 86.5972 -7.8554 49.3223 0.0000 24.9784 0.0000
# 2 -7.8554 63.5870 0.6217 0.0000 -1.9716 0.0000
# 3 49.3223 0.6217 181.5720 0.0000 25.1872 0.0000
# 4 0.0000 0.0000 0.0000 7.7515 0.0000 4.3476
# 5 24.9784 -1.9716 25.1872 0.0000 30.5788 0.0000
# 6 0.0000 0.0000 0.0000 4.3476 0.0000 7.4780
#
#
#
# Elastic Compliance Matrix: (Units=1/GPa)
#
#
# Indices 1 2 3 4 5 6 
#
# 1 0.016568 0.001736 -0.002986 0.000000 -0.010962 0.000000
# 2 0.001736 0.015948 -0.000533 0.000000 0.000049 0.000000
# 3 -0.002986 -0.000533 0.006759 0.000000 -0.003163 0.000000
# 4 0.000000 0.000000 0.000000 0.191427 0.000000 -0.111292
# 5 -0.010962 0.000049 -0.003163 0.000000 0.044265 0.000000
# 6 0.000000 0.000000 0.000000 -0.111292 0.000000 0.198430
#
#
# Mechanical properties :
#
#
# Convention : Reuss Voigt Hill
#
# Bulk Modulus (GPa) = 28.00413 46.21483 37.10948
# Shear Modulus (GPa) = 10.22778 28.47283 19.35030
#
# Velocity S-wave (km/s) = 2.13045 3.55464 2.93038
# Velocity P-wave (km/s) = 4.29875 6.11197 5.28372
#
# Compressibility (1/GPa) = 0.03570902
#
# Stress axis : x y z
#
# Youngs Moduli (GPa) = 60.35828 62.70498 147.94948
#
# Poissons Ratio (x) = -0.10886 0.44174
# Poissons Ratio (y) = -0.10478 0.07886
# Poissons Ratio (z) = 0.18022 0.03342
#
# Static dielectric constant tensor:
#      x y z
#    x 1.785520 0.000000 0.011770 
#    y 0.000000 1.873840 0.000000 
#    z 0.011770 0.000000 1.856360 
# 
# From -- ./inp_files/238952.got.cif
#   From: 2010.05.17/outbox.cif.g08.bks.cpg/sg12_120_cif.got.tgz:238952.got - 2010.06.03 13:09:07.
