data_PCOD9198209
_publ_section_title
;
Structure prediction by ZEFSAII (Michael W. Deem and Ramdas Pophale) SiO2 
 PCOD9198209
Probable space group: C 2/M
;
_chemical_formula_sum "Si O2"
_cell_formula_units_Z 64
_cell_length_a 9.649508
_cell_length_b 28.792113
_cell_length_c 18.267318
_cell_angle_alpha 90.000000
_cell_angle_beta 38.129334
_cell_angle_gamma 90.000000
_cell_volume 3133.627243
_symmetry_space_group_name_H-M "C 2/M"
_symmetry_group_IT_number 12
_symmetry_cell_setting 'monoclinic'
loop_
_space_group_symop_operation_xyz
x,y,z
-x,y,-z
-x,-y,-z
x,-y,z
1/2+x,1/2+y,z
1/2-x,1/2+y,-z
1/2-x,1/2-y,-z
1/2+x,1/2-y,z
loop_
_atom_site_type_symbol
_atom_site_label
_atom_site_fract_x
_atom_site_fract_y
_atom_site_fract_z
Si Si1 0.618980 0.948039 0.520008
Si Si2 0.655765 0.202371 0.504478
Si Si3 0.079571 0.154166 0.257824
Si Si4 0.490655 0.211007 0.148604
Si Si5 0.239987 0.409108 0.624659
Si Si6 0.147194 0.050290 0.272866
Si Si7 0.949316 0.181964 0.899178
Si Si8 0.920325 0.671465 0.747970
O O1 0.500000 0.923929 0.500000
O O2 0.624797 0.926651 0.598074
O O3 0.878706 0.952106 0.391638
O O4 0.518830 0.000000 0.567965
O O5 0.500000 0.213199 0.500000
O O6 0.750000 0.250000 0.500000
O O7 0.504295 0.180426 0.631268
O O8 0.851330 0.166621 0.397429
O O9 0.263581 0.188066 0.216213
O O10 0.170780 0.101136 0.226688
O O11 0.045824 0.165984 0.186761
O O12 0.500308 0.263030 0.114870
O O13 0.528358 0.214542 0.220137
O O14 0.698101 0.179436 0.034332
O O15 0.500000 0.395385 0.500000
O O16 0.257339 0.444831 0.684251
O O17 0.084801 0.366926 0.713175
O O18 0.222520 0.000000 0.210130
O O19 0.158382 0.158955 0.854228
#
# Coordination Sequence:
#
# PCOD9198209 Si02
#       8
#     8   8   8   8   8   8   8   8
#     4   9  18  31  54  86 119 156 202 253 307 368
#     4  12  26  39  60  94 140 178 205 252 324 403
#     4  12  24  41  66  98 131 170 213 263 321 387
#     4  11  24  44  66  90 122 171 215 264 312 377
#     4  10  20  36  56  84 122 166 203 251 309 385
#     4  10  21  38  59  87 124 168 215 259 313 381
#     4  11  24  43  66  92 125 162 218 270 316 365
#     4  12  24  38  61  92 124 164 209 256 314 380
#
# _framework density 20.423617
#
# number of rings (size 3 to 8) (size 9 to 14) (size 15 to 20)
#    0.000    1.125    2.500    4.875    3.500    4.500 
#    0.000    0.000    0.000    1.500    0.000    0.875 
#    0.000    0.000    0.000    0.000    0.000    0.000 
#
# Total GULP energy -178588.839601 kJ/mol
# GULP energy per Si atom -5580.901238 kJ/mol
# Density = 2.037713 g / cm^3
# Si number density = 20.423617 Si / 1000 Ang^3
#
#
#
# Elastic Constant Matrix: (Units=GPa)
#
#
# Indices 1 2 3 4 5 6 
#
# 1 109.2768 28.1188 4.1831 0.0000 -6.8665 0.0001
# 2 28.1188 75.9617 8.8896 0.0000 -6.9198 0.0000
# 3 4.1831 8.8896 59.0183 0.0000 -6.9182 -0.0001
# 4 0.0000 0.0000 0.0000 15.4882 0.0000 -15.6541
# 5 -6.8665 -6.9198 -6.9182 0.0000 23.2457 0.0000
# 6 0.0001 0.0000 -0.0001 -15.6541 0.0000 68.2651
#
#
#
# Elastic Compliance Matrix: (Units=1/GPa)
#
#
# Indices 1 2 3 4 5 6 
#
# 1 0.010199 -0.003603 0.000049 0.000000 0.001955 0.000000
# 2 -0.003603 0.014956 -0.001658 0.000000 0.002894 0.000000
# 3 0.000049 -0.001658 0.017753 0.000000 0.004804 0.000000
# 4 0.000000 0.000000 0.000000 0.084044 0.000000 0.019273
# 5 0.001955 0.002894 0.004804 0.000000 0.045888 0.000000
# 6 0.000000 0.000000 0.000000 0.019273 0.000000 0.019068
#
#
# Mechanical properties :
#
#
# Convention : Reuss Voigt Hill
#
# Bulk Modulus (GPa) = 30.78435 36.29332 33.53883
# Shear Modulus (GPa) = 23.45645 34.93749 29.19697
#
# Velocity S-wave (km/s) = 3.39262 4.14048 3.78507
# Velocity P-wave (km/s) = 5.51835 6.37706 5.96318
#
# Compressibility (1/GPa) = 0.03248404
#
# Stress axis : x y z
#
# Youngs Moduli (GPa) = 98.04734 66.86285 56.32738
#
# Poissons Ratio (x) = 0.24091 -0.00276
# Poissons Ratio (y) = 0.35327 0.09340
# Poissons Ratio (z) = -0.00480 0.11087
#
# Static dielectric constant tensor:
#      x y z
#    x 1.747010 0.000000 0.014420 
#    y 0.000000 1.805430 0.000000 
#    z 0.014420 0.000000 1.738210 
# 
# From -- ./inp_files/260314.got.cif
#   From: 2010.05.17/outbox.cif.g08.bks.cpg/sg12_131_cif.got.tgz:260314.got - 2010.06.03 13:09:07.
