data_PCOD9198062
_publ_section_title
;
Structure prediction by ZEFSAII (Michael W. Deem and Ramdas Pophale) SiO2 
 PCOD9198062
Probable space group: C 2/M
;
_chemical_formula_sum "Si O2"
_cell_formula_units_Z 64
_cell_length_a 14.435146
_cell_length_b 7.918108
_cell_length_c 30.197735
_cell_angle_alpha 90.000000
_cell_angle_beta 64.080695
_cell_angle_gamma 90.000000
_cell_volume 3104.380529
_symmetry_space_group_name_H-M "C 2/M"
_symmetry_group_IT_number 12
_symmetry_cell_setting 'monoclinic'
loop_
_space_group_symop_operation_xyz
x,y,z
-x,y,-z
-x,-y,-z
x,-y,z
1/2+x,1/2+y,z
1/2-x,1/2+y,-z
1/2-x,1/2-y,-z
1/2+x,1/2-y,z
loop_
_atom_site_type_symbol
_atom_site_label
_atom_site_fract_x
_atom_site_fract_y
_atom_site_fract_z
Si Si1 0.216997 0.703618 0.129821
Si Si2 0.134501 0.202788 0.508641
Si Si3 0.185322 0.803052 0.403696
Si Si4 0.907463 0.198100 0.388334
Si Si5 0.500345 0.796997 0.138619
Si Si6 0.624893 0.196751 0.319761
Si Si7 0.434457 0.203431 0.055286
Si Si8 0.216453 0.796072 0.786577
O O1 0.212639 0.500000 0.132453
O O2 0.314093 0.752015 0.079388
O O3 0.240791 0.763767 0.174732
O O4 0.108348 0.767495 0.134555
O O5 0.250000 0.250000 0.500000
O O6 0.125825 0.265391 0.459996
O O7 0.071221 0.257195 0.565190
O O8 0.124267 0.000000 0.507180
O O9 0.306897 0.789236 0.390155
O O10 0.163725 0.715647 0.361919
O O11 0.157137 0.000000 0.404035
O O12 0.012560 0.220775 0.339933
O O13 0.880631 0.000000 0.395842
O O14 0.476226 0.732827 0.094038
O O15 0.402703 0.755680 0.189664
O O16 0.507152 0.000000 0.134488
O O17 0.710835 0.265472 0.268173
O O18 0.610253 0.000000 0.312852
O O19 0.442627 0.000000 0.054033
O O20 0.500000 0.266886 0.000000
O O21 0.218635 0.000000 0.785720
#
# Coordination Sequence:
#
# PCOD9198062 Si02
#       8
#     8   8   8   8   8   8   8   8
#     4   9  18  34  54  75  99 132 174 215 254 298
#     4   8  16  31  52  75 101 132 167 207 254 310
#     4  10  20  36  56  78 104 136 172 213 261 314
#     4  10  20  36  56  79 106 136 170 212 262 317
#     4   9  18  33  54  77 101 134 175 213 254 306
#     4  11  23  37  52  76 107 138 174 217 267 322
#     4   9  18  32  49  75 112 144 169 205 251 299
#     4   9  20  37  53  71  99 131 168 217 263 302
#
# _framework density 20.616028
#
# number of rings (size 3 to 8) (size 9 to 14) (size 15 to 20)
#    0.000    2.625    0.000    1.125    0.000    4.750 
#    0.000    3.750    0.000    0.000    0.000    0.000 
#    0.000    0.000    0.000    0.000    0.000    0.000 
#
# Total GULP energy -178534.146581 kJ/mol
# GULP energy per Si atom -5579.192081 kJ/mol
# Density = 2.056910 g / cm^3
# Si number density = 20.616028 Si / 1000 Ang^3
#
#
#
# Elastic Constant Matrix: (Units=GPa)
#
#
# Indices 1 2 3 4 5 6 
#
# 1 100.3103 -2.3311 43.5975 0.0000 -25.1382 0.0000
# 2 -2.3311 21.5461 0.9429 0.0000 0.9065 0.0000
# 3 43.5975 0.9429 134.7628 0.0000 -32.6726 0.0000
# 4 0.0000 0.0000 0.0000 20.7697 0.0000 -4.3854
# 5 -25.1382 0.9065 -32.6726 0.0000 23.0535 0.0000
# 6 0.0000 0.0000 0.0000 -4.3854 0.0000 16.4340
#
#
#
# Elastic Compliance Matrix: (Units=1/GPa)
#
#
# Indices 1 2 3 4 5 6 
#
# 1 0.013875 0.000998 -0.001275 0.000000 0.013283 0.000000
# 2 0.000998 0.046682 -0.001266 0.000000 -0.002541 0.000000
# 3 -0.001275 -0.001266 0.011452 0.000000 0.014889 0.000000
# 4 0.000000 0.000000 0.000000 0.051022 0.000000 0.013615
# 5 0.013283 -0.002541 0.014889 0.000000 0.079063 0.000000
# 6 0.000000 0.000000 0.000000 0.013615 0.000000 0.064483
#
#
# Mechanical properties :
#
#
# Convention : Reuss Voigt Hill
#
# Bulk Modulus (GPa) = 14.50872 37.89308 26.20090
# Shear Modulus (GPa) = 17.08599 26.34542 21.71570
#
# Velocity S-wave (km/s) = 2.88196 3.57866 3.24904
# Velocity P-wave (km/s) = 4.25760 5.95786 5.17799
#
# Compressibility (1/GPa) = 0.06892408
#
# Stress axis : x y z
#
# Youngs Moduli (GPa) = 72.06962 21.42134 87.32363
#
# Poissons Ratio (x) = -0.02138 0.11137
# Poissons Ratio (y) = -0.07194 0.11051
# Poissons Ratio (z) = 0.09191 0.02711
#
# Static dielectric constant tensor:
#      x y z
#    x 1.731100 0.000000 0.002050 
#    y 0.000000 1.750030 0.000000 
#    z 0.002050 0.000000 1.747880 
# 
# From -- ./inp_files/375064.got.cif
#   From: 2010.05.17/outbox.cif.g08.bks.cpg/sg12_188_cif.got.tgz:375064.got - 2010.06.03 13:09:07.
