data_PCOD9198603
_publ_section_title
;
Structure prediction by ZEFSAII (Michael W. Deem and Ramdas Pophale) SiO2 
 PCOD9198603
Probable space group: C 2/M
;
_chemical_formula_sum "Si O2"
_cell_formula_units_Z 56
_cell_length_a 31.201767
_cell_length_b 9.224915
_cell_length_c 15.827844
_cell_angle_alpha 90.000000
_cell_angle_beta 37.967011
_cell_angle_gamma 90.000000
_cell_volume 2802.754511
_symmetry_space_group_name_H-M "C 2/M"
_symmetry_group_IT_number 12
_symmetry_cell_setting 'monoclinic'
loop_
_space_group_symop_operation_xyz
x,y,z
-x,y,-z
-x,-y,-z
x,-y,z
1/2+x,1/2+y,z
1/2-x,1/2+y,-z
1/2-x,1/2-y,-z
1/2+x,1/2-y,z
loop_
_atom_site_type_symbol
_atom_site_label
_atom_site_fract_x
_atom_site_fract_y
_atom_site_fract_z
Si Si1 0.537686 0.671347 0.525387
Si Si2 0.177528 0.162616 0.519092
Si Si3 0.293315 0.824144 0.008111
Si Si4 0.342024 0.161966 0.294161
Si Si5 0.453592 0.824841 0.800293
Si Si6 0.305139 0.328264 0.690984
Si Si7 0.950593 0.675003 0.998455
O O1 0.500000 0.725894 0.500000
O O2 0.522484 0.500000 0.559835
O O3 0.509712 0.753255 0.651149
O O4 0.620027 0.684284 0.381898
O O5 0.259038 0.153869 0.416832
O O6 0.139382 0.242824 0.654072
O O7 0.181353 0.237819 0.422264
O O8 0.148685 0.000000 0.555689
O O9 0.375432 0.790285 0.887532
O O10 0.286629 0.000000 0.011688
O O11 0.250000 0.750000 0.000000
O O12 0.255695 0.776506 0.153831
O O13 0.374342 0.210401 0.155127
O O14 0.368966 0.000000 0.268354
O O15 0.460399 0.000000 0.788096
O O16 0.460873 0.773602 0.886715
O O17 0.289992 0.500000 0.699045
O O18 0.955868 0.500000 0.984294
O O19 0.000000 0.721640 0.000000
#
# Coordination Sequence:
#
# PCOD9198603 Si02
#       7
#     8   8   8   8   8   8   8
#     4  10  21  37  56  78 107 145 183 219 268 329
#     4   9  17  30  49  72  98 129 167 212 256 301
#     4  10  20  36  58  82 107 138 180 226 274 325
#     4   9  17  30  49  72  99 131 168 209 254 302
#     4  10  21  36  57  84 112 143 181 228 276 321
#     4   9  18  33  54  75 100 138 179 213 256 319
#     4   9  18  32  51  75 106 143 179 212 257 318
#
# _framework density 19.980343999999999
#
# number of rings (size 3 to 8) (size 9 to 14) (size 15 to 20)
#    0.000    2.571    0.000    1.714    2.000    5.429 
#    0.000    2.143    0.000    4.286    0.000    0.000 
#    0.000    0.000    0.000    0.000    0.000    0.000 
#
# Total GULP energy -156006.950477 kJ/mol
# GULP energy per Si atom -5571.676803 kJ/mol
# Density = 1.993487 g / cm^3
# Si number density = 19.980344 Si / 1000 Ang^3
#
#
#
# Elastic Constant Matrix: (Units=GPa)
#
#
# Indices 1 2 3 4 5 6 
#
# 1 40.2020 5.7894 -1.1144 -0.0001 10.1493 0.0000
# 2 5.7894 10.3974 10.1694 -0.0006 -0.7278 0.0003
# 3 -1.1144 10.1694 84.2967 -0.0002 1.3057 0.0001
# 4 -0.0001 -0.0006 -0.0002 25.9579 0.0001 7.1407
# 5 10.1493 -0.7278 1.3057 0.0001 27.4686 0.0000
# 6 0.0000 0.0003 0.0001 7.1407 0.0000 15.9930
#
#
#
# Elastic Compliance Matrix: (Units=1/GPa)
#
#
# Indices 1 2 3 4 5 6 
#
# 1 0.031108 -0.021273 0.003167 -0.000001 -0.012208 0.000001
# 2 -0.021273 0.123931 -0.015416 0.000004 0.011876 -0.000004
# 3 0.003167 -0.015416 0.013799 0.000000 -0.002234 0.000000
# 4 -0.000001 0.000004 0.000000 0.043918 0.000000 -0.019609
# 5 -0.012208 0.011876 -0.002234 0.000000 0.041337 0.000000
# 6 0.000001 -0.000004 0.000000 -0.019609 0.000000 0.071283
#
#
# Mechanical properties :
#
#
# Convention : Reuss Voigt Hill
#
# Bulk Modulus (GPa) = 9.82376 18.28722 14.05549
# Shear Modulus (GPa) = 11.72742 21.88733 16.80738
#
# Velocity S-wave (km/s) = 2.42533 3.31334 2.90348
# Velocity P-wave (km/s) = 3.57356 4.87956 4.27671
#
# Compressibility (1/GPa) = 0.10179400
#
# Stress axis : x y z
#
# Youngs Moduli (GPa) = 32.14659 8.06898 72.46853
#
# Poissons Ratio (x) = 0.17165 -0.22948
# Poissons Ratio (y) = 0.68384 1.11718
# Poissons Ratio (z) = -0.10180 0.12439
#
# Static dielectric constant tensor:
#      x y z
#    x 1.759510 0.000000 0.000640 
#    y 0.000000 1.717050 0.000000 
#    z 0.000640 0.000000 1.728750 
# 
# From -- ./inp_files/182440.got.cif
#   From: 2010.05.17/outbox.cif.g08.bks.cpg/sg12_92_cif.got.tgz:182440.got - 2010.06.03 13:09:07.
