data_PCOD9198685
_publ_section_title
;
Structure prediction by ZEFSAII (Michael W. Deem and Ramdas Pophale) SiO2 
 PCOD9198685
Probable space group: C 2/M
;
_chemical_formula_sum "Si O2"
_cell_formula_units_Z 56
_cell_length_a 26.256723
_cell_length_b 16.927625
_cell_length_c 9.026898
_cell_angle_alpha 90.000000
_cell_angle_beta 134.516127
_cell_angle_gamma 90.000000
_cell_volume 2860.862478
_symmetry_space_group_name_H-M "C 2/M"
_symmetry_group_IT_number 12
_symmetry_cell_setting 'monoclinic'
loop_
_space_group_symop_operation_xyz
x,y,z
-x,y,-z
-x,-y,-z
x,-y,z
1/2+x,1/2+y,z
1/2-x,1/2+y,-z
1/2-x,1/2-y,-z
1/2+x,1/2-y,z
loop_
_atom_site_type_symbol
_atom_site_label
_atom_site_fract_x
_atom_site_fract_y
_atom_site_fract_z
Si Si1 0.334137 0.586909 0.926721
Si Si2 0.422438 0.311705 0.892672
Si Si3 0.260211 0.904732 0.974873
Si Si4 0.075502 0.591891 0.719475
Si Si5 0.570406 0.121539 0.059181
Si Si6 0.202615 0.196930 0.587761
Si Si7 0.293798 0.862579 0.512533
O O1 0.366638 0.500000 0.007603
O O2 0.390789 0.648100 0.975643
O O3 0.270581 0.585972 0.676697
O O4 0.290960 0.605964 0.987778
O O5 0.426484 0.217535 0.926933
O O6 0.367821 0.328133 0.646256
O O7 0.500000 0.339908 0.000000
O O8 0.222812 0.852666 0.771845
O O9 0.261229 0.000000 0.942917
O O10 0.344204 0.879544 0.162866
O O11 0.075371 0.500000 0.673498
O O12 0.000000 0.626178 0.500000
O O13 0.073200 0.597699 0.893642
O O14 0.635894 0.093596 0.294144
O O15 0.500000 0.095690 0.000000
O O16 0.268250 0.180241 0.610783
O O17 0.195133 0.291713 0.582971
#
# Coordination Sequence:
#
# PCOD9198685 Si02
#       7
#     8   8   8   8   8   8   8
#     4  10  22  36  55  83 114 147 189 237 284 337
#     4   9  20  40  60  82 113 144 188 242 291 338
#     4  10  21  37  55  81 118 152 188 232 278 339
#     4  10  22  38  54  79 120 161 189 223 276 334
#     4  10  20  36  58  83 113 148 189 237 280 330
#     4   9  17  34  58  80 107 144 184 232 285 332
#     4   9  18  33  54  82 108 141 189 236 276 330
#
# _framework density 19.574518000000001
#
# number of rings (size 3 to 8) (size 9 to 14) (size 15 to 20)
#    0.000    2.429    1.429    0.857    2.000    4.000 
#    0.000    0.714    0.000    1.714    0.000    0.000 
#    0.000    0.000    0.000    0.000    0.000    0.000 
#
# Total GULP energy -155939.270615 kJ/mol
# GULP energy per Si atom -5569.259665 kJ/mol
# Density = 1.952997 g / cm^3
# Si number density = 19.574518 Si / 1000 Ang^3
#
#
#
# Elastic Constant Matrix: (Units=GPa)
#
#
# Indices 1 2 3 4 5 6 
#
# 1 105.3748 35.8158 24.1106 0.0000 16.7870 0.0000
# 2 35.8158 57.6168 29.8357 0.0000 -4.6902 0.0000
# 3 24.1106 29.8357 71.6069 0.0000 17.1696 0.0000
# 4 0.0000 0.0000 0.0000 26.8826 0.0000 -6.7311
# 5 16.7870 -4.6902 17.1696 0.0000 37.1721 0.0000
# 6 0.0000 0.0000 0.0000 -6.7311 0.0000 24.0278
#
#
#
# Elastic Compliance Matrix: (Units=1/GPa)
#
#
# Indices 1 2 3 4 5 6 
#
# 1 0.013884 -0.010076 0.001498 0.000000 -0.008233 0.000000
# 2 -0.010076 0.031738 -0.013362 0.000000 0.014727 0.000000
# 3 0.001498 -0.013362 0.022035 0.000000 -0.012540 0.000000
# 4 0.000000 0.000000 0.000000 0.040005 0.000000 0.011207
# 5 -0.008233 0.014727 -0.012540 0.000000 0.038270 0.000000
# 6 0.000000 0.000000 0.000000 0.011207 0.000000 0.044758
#
#
# Mechanical properties :
#
#
# Convention : Reuss Voigt Hill
#
# Bulk Modulus (GPa) = 42.06066 46.01362 44.03714
# Shear Modulus (GPa) = 20.61889 27.27225 23.94557
#
# Velocity S-wave (km/s) = 3.24906 3.73668 3.50137
# Velocity P-wave (km/s) = 5.96735 6.49423 6.23636
#
# Compressibility (1/GPa) = 0.02377519
#
# Stress axis : x y z
#
# Youngs Moduli (GPa) = 72.02762 31.50834 45.38184
#
# Poissons Ratio (x) = 0.31748 -0.06796
# Poissons Ratio (y) = 0.72575 0.60640
# Poissons Ratio (z) = -0.10787 0.42102
#
# Static dielectric constant tensor:
#      x y z
#    x 1.708640 0.000000 0.020310 
#    y 0.000000 1.720030 0.000000 
#    z 0.020310 0.000000 1.697710 
# 
# From -- ./inp_files/98173.got.cif
#   From: 2010.05.17/outbox.cif.g08.bks.cpg/sg12_50_cif.got.tgz:98173.got - 2010.06.03 13:09:07.
