data_PCOD9198087
_publ_section_title
;
Structure prediction by ZEFSAII (Michael W. Deem and Ramdas Pophale) SiO2 
 PCOD9198087
Probable space group: C 2/M
;
_chemical_formula_sum "Si O2"
_cell_formula_units_Z 56
_cell_length_a 30.171278
_cell_length_b 8.623263
_cell_length_c 21.041287
_cell_angle_alpha 90.000000
_cell_angle_beta 32.332581
_cell_angle_gamma 90.000000
_cell_volume 2927.896816
_symmetry_space_group_name_H-M "C 2/M"
_symmetry_group_IT_number 12
_symmetry_cell_setting 'monoclinic'
loop_
_space_group_symop_operation_xyz
x,y,z
-x,y,-z
-x,-y,-z
x,-y,z
1/2+x,1/2+y,z
1/2-x,1/2+y,-z
1/2-x,1/2-y,-z
1/2+x,1/2-y,z
loop_
_atom_site_type_symbol
_atom_site_label
_atom_site_fract_x
_atom_site_fract_y
_atom_site_fract_z
Si Si1 0.989373 0.313207 0.307808
Si Si2 0.046156 0.687563 0.790469
Si Si3 0.146200 0.813637 0.435170
Si Si4 0.617437 0.314994 0.943575
Si Si5 0.828593 0.312628 0.255036
Si Si6 0.330509 0.185833 0.866949
Si Si7 0.207682 0.186364 0.223158
O O1 0.988947 0.500000 0.308401
O O2 0.084253 0.262379 0.202917
O O3 0.955034 0.259822 0.281112
O O4 0.931445 0.256123 0.434701
O O5 0.041594 0.500000 0.796485
O O6 0.126351 0.732628 0.734524
O O7 0.965073 0.751654 0.923789
O O8 0.232427 0.767050 0.365056
O O9 0.157297 0.768992 0.347864
O O10 0.140685 0.000000 0.444114
O O11 0.619785 0.500000 0.943621
O O12 0.623993 0.259198 0.862664
O O13 0.698641 0.245714 0.879709
O O14 0.832226 0.500000 0.244215
O O15 0.328788 0.243686 0.796655
O O16 0.327479 0.000000 0.872037
O O17 0.250000 0.250000 0.000000
O O18 0.209276 0.000000 0.217193
#
# Coordination Sequence:
#
# PCOD9198087 Si02
#       7
#     8   8   8   8   8   8   8
#     4  10  23  39  56  81 113 147 184 230 280 332
#     4  10  20  36  56  78 111 155 193 227 278 337
#     4   9  20  38  58  81 109 144 189 235 279 330
#     4  11  21  33  54  86 117 144 183 235 287 336
#     4   9  19  36  57  80 110 151 192 229 275 334
#     4  11  23  39  60  88 118 148 185 229 280 335
#     4  10  21  39  61  83 111 149 189 230 280 336
#
# _framework density 19.126358
#
# number of rings (size 3 to 8) (size 9 to 14) (size 15 to 20)
#    0.000    2.000    0.000    4.286    0.000    9.143 
#    0.000    2.857    0.000    0.000    0.000    0.000 
#    0.000    0.000    0.000    0.000    0.000    0.000 
#
# Total GULP energy -156422.693151 kJ/mol
# GULP energy per Si atom -5586.524755 kJ/mol
# Density = 1.908283 g / cm^3
# Si number density = 19.126358 Si / 1000 Ang^3
#
#
#
# Elastic Constant Matrix: (Units=GPa)
#
#
# Indices 1 2 3 4 5 6 
#
# 1 107.2258 21.0539 24.4365 -0.0054 17.4665 0.0032
# 2 21.0539 22.0710 11.9179 0.0035 1.8243 -0.0012
# 3 24.4365 11.9179 98.1710 0.0007 8.1261 0.0008
# 4 -0.0054 0.0035 0.0007 28.7297 -0.0021 1.6406
# 5 17.4665 1.8243 8.1261 -0.0021 7.5993 0.0012
# 6 0.0032 -0.0012 0.0008 1.6406 0.0012 23.3004
#
#
#
# Elastic Compliance Matrix: (Units=1/GPa)
#
#
# Indices 1 2 3 4 5 6 
#
# 1 0.018556 -0.014665 0.000439 0.000003 -0.039598 -0.000001
# 2 -0.014665 0.060316 -0.005775 -0.000008 0.025401 0.000005
# 3 0.000439 -0.005775 0.011790 0.000000 -0.012231 0.000000
# 4 0.000003 -0.000008 0.000000 0.034948 0.000006 -0.002461
# 5 -0.039598 0.025401 -0.012231 0.000006 0.229585 -0.000005
# 6 -0.000001 0.000005 0.000000 -0.002461 -0.000005 0.043091
#
#
# Mechanical properties :
#
#
# Convention : Reuss Voigt Hill
#
# Bulk Modulus (GPa) = 19.73880 38.03159 28.88519
# Shear Modulus (GPa) = 10.98483 23.26318 17.12400
#
# Velocity S-wave (km/s) = 2.39912 3.49132 2.99542
# Velocity P-wave (km/s) = 4.24464 6.01498 5.20562
#
# Compressibility (1/GPa) = 0.05066165
#
# Stress axis : x y z
#
# Youngs Moduli (GPa) = 53.89143 16.57939 84.81464
#
# Poissons Ratio (x) = 0.24313 -0.03725
# Poissons Ratio (y) = 0.79031 0.48977
# Poissons Ratio (z) = -0.02367 0.09574
#
# Static dielectric constant tensor:
#      x y z
#    x 1.681660 0.000000 -0.007740 
#    y 0.000000 1.649230 0.000000 
#    z -0.007740 0.000000 1.626090 
# 
# From -- ./inp_files/329448.got.cif
#   From: 2010.05.17/outbox.cif.g08.bks.cpg/sg12_165_cif.got.tgz:329448.got - 2010.06.03 13:09:07.
