data_PCOD9198932
_publ_section_title
;
Structure prediction by ZEFSAII (Michael W. Deem and Ramdas Pophale) SiO2 
 PCOD9198932
Probable space group: C 2/M
;
_chemical_formula_sum "Si O2"
_cell_formula_units_Z 48
_cell_length_a 20.632042
_cell_length_b 10.221805
_cell_length_c 27.153397
_cell_angle_alpha 90.000000
_cell_angle_beta 20.049570
_cell_angle_gamma 90.000000
_cell_volume 1963.254459
_symmetry_space_group_name_H-M "C 2/M"
_symmetry_group_IT_number 12
_symmetry_cell_setting 'monoclinic'
loop_
_space_group_symop_operation_xyz
x,y,z
-x,y,-z
-x,-y,-z
x,-y,z
1/2+x,1/2+y,z
1/2-x,1/2+y,-z
1/2-x,1/2-y,-z
1/2+x,1/2-y,z
loop_
_atom_site_type_symbol
_atom_site_label
_atom_site_fract_x
_atom_site_fract_y
_atom_site_fract_z
Si Si1 0.080650 0.661402 0.141804
Si Si2 0.010824 0.714719 0.932728
Si Si3 0.985015 0.000000 0.070110
Si Si4 0.107368 0.854663 0.207805
Si Si5 0.313804 0.354642 0.611738
Si Si6 0.051427 0.221152 0.361227
Si Si7 0.548197 0.000000 0.407098
O O1 0.103397 0.500000 0.127771
O O2 0.072282 0.814844 0.289500
O O3 0.038152 0.734972 0.223606
O O4 0.163980 0.632166 0.961736
O O5 0.940819 0.860407 0.967474
O O6 0.101660 0.693153 0.762358
O O7 0.237841 0.697237 0.764280
O O8 0.000000 0.705690 0.000000
O O9 0.773855 0.000000 0.240754
O O10 0.000000 0.000000 0.000000
O O11 0.027625 0.000000 0.253566
O O12 0.250000 0.750000 0.000000
O O13 0.500000 0.283370 0.500000
O O14 0.307483 0.500000 0.637582
O O15 0.385803 0.361537 0.504110
O O16 0.993654 0.370335 0.415366
O O17 0.500000 0.000000 0.500000
#
# Coordination Sequence:
#
# PCOD9198932 Si02
#       7
#     8   8   4   8   8   8   4
#     4  11  27  51  76 106 147 197 247 306 385 458
#     4   8  17  31  57  96 138 184 237 298 363 429
#     4   8  14  30  54  86 138 194 238 302 366 436
#     4  11  24  41  69 105 147 194 250 308 374 459
#     4  10  23  45  74 105 140 187 245 306 371 444
#     4  10  21  39  65 103 146 191 246 308 373 445
#     4  10  20  36  58  98 158 196 248 311 390 457
#
# _framework density 24.449199
#
# number of rings (size 3 to 8) (size 9 to 14) (size 15 to 20)
#    0.000    2.167    0.000    2.500    4.667    4.333 
#    3.000    0.000    0.000    0.000    0.000    0.000 
#    0.000    0.000    0.000    0.000    0.000    0.000 
#
# Total GULP energy -133734.463406 kJ/mol
# GULP energy per Si atom -5572.269309 kJ/mol
# Density = 2.439355 g / cm^3
# Si number density = 24.449199 Si / 1000 Ang^3
#
#
#
# Elastic Constant Matrix: (Units=GPa)
#
#
# Indices 1 2 3 4 5 6 
#
# 1 104.5153 47.9721 26.9839 -0.0016 -8.2097 -0.0094
# 2 47.9721 203.1541 34.7766 0.0151 6.3043 0.0063
# 3 26.9839 34.7766 129.4626 0.0035 -7.8568 0.0097
# 4 -0.0016 0.0151 0.0035 25.7994 0.0046 2.5519
# 5 -8.2097 6.3043 -7.8568 0.0046 38.4393 -0.0043
# 6 -0.0094 0.0063 0.0097 2.5519 -0.0043 21.4929
#
#
#
# Elastic Compliance Matrix: (Units=1/GPa)
#
#
# Indices 1 2 3 4 5 6 
#
# 1 0.011301 -0.002483 -0.001536 0.000001 0.002507 0.000007
# 2 -0.002483 0.005756 -0.001132 -0.000003 -0.001706 -0.000002
# 3 -0.001536 -0.001132 0.008445 0.000000 0.001584 -0.000004
# 4 0.000001 -0.000003 0.000000 0.039221 -0.000005 -0.004657
# 5 0.002507 -0.001706 0.001584 -0.000005 0.027154 0.000007
# 6 0.000007 -0.000002 -0.000004 -0.004657 0.000007 0.047080
#
#
# Mechanical properties :
#
#
# Convention : Reuss Voigt Hill
#
# Bulk Modulus (GPa) = 65.79759 72.95524 69.37642
# Shear Modulus (GPa) = 32.39891 38.97294 35.68592
#
# Velocity S-wave (km/s) = 3.64421 3.99687 3.82461
# Velocity P-wave (km/s) = 6.68412 7.15572 6.92393
#
# Compressibility (1/GPa) = 0.01519812
#
# Stress axis : x y z
#
# Youngs Moduli (GPa) = 88.48413 173.74628 118.41864
#
# Poissons Ratio (x) = 0.43150 0.18193
# Poissons Ratio (y) = 0.21975 0.13404
# Poissons Ratio (z) = 0.13594 0.19667
#
# Static dielectric constant tensor:
#      x y z
#    x 2.002280 0.000000 0.056930 
#    y 0.000000 1.982430 0.000010 
#    z 0.056930 0.000010 2.007100 
# 
# From -- ./inp_files/369273.got.cif
#   From: 2010.05.17/outbox.cif.g08.bks.cpg/sg12_185_cif.got.tgz:369273.got - 2010.06.03 13:09:07.
