data_PCOD9198515
_publ_section_title
;
Structure prediction by ZEFSAII (Michael W. Deem and Ramdas Pophale) SiO2 
 PCOD9198515
Probable space group: C 2/M
;
_chemical_formula_sum "Si O2"
_cell_formula_units_Z 40
_cell_length_a 7.319197
_cell_length_b 17.524448
_cell_length_c 14.311864
_cell_angle_alpha 90.000000
_cell_angle_beta 60.728653
_cell_angle_gamma 90.000000
_cell_volume 1601.315016
_symmetry_space_group_name_H-M "C 2/M"
_symmetry_group_IT_number 12
_symmetry_cell_setting 'monoclinic'
loop_
_space_group_symop_operation_xyz
x,y,z
-x,y,-z
-x,-y,-z
x,-y,z
1/2+x,1/2+y,z
1/2-x,1/2+y,-z
1/2-x,1/2-y,-z
1/2+x,1/2-y,z
loop_
_atom_site_type_symbol
_atom_site_label
_atom_site_fract_x
_atom_site_fract_y
_atom_site_fract_z
Si Si1 0.378253 0.382761 0.742436
Si Si2 0.803660 0.839224 0.479415
Si Si3 0.975363 0.416392 0.310435
Si Si4 0.479702 0.199470 0.849233
Si Si5 0.860976 0.869114 0.948136
O O1 0.603976 0.364295 0.643503
O O2 0.231193 0.424947 0.704897
O O3 0.380569 0.413662 0.846517
O O4 0.231441 0.307148 0.785710
O O5 0.750000 0.750000 0.500000
O O6 0.614575 0.888482 0.568199
O O7 0.000000 0.850269 0.500000
O O8 0.078438 0.500000 0.288324
O O9 0.083407 0.344255 0.231739
O O10 0.433517 0.283356 0.899635
O O11 0.368691 0.143205 0.951432
O O12 0.000000 0.896399 0.000000
#
# Coordination Sequence:
#
# PCOD9198515 Si02
#       5
#     8   8   8   8   8
#     4   9  20  33  52  86 109 148 195 228 283 342
#     4  10  20  36  57  90 119 144 188 243 290 338
#     4   9  20  38  61  82 113 154 196 234 281 350
#     4   9  19  33  53  83 109 147 193 233 287 339
#     4  11  19  32  56  82 119 143 186 248 295 330
#
# _framework density 24.979469000000002
#
# number of rings (size 3 to 8) (size 9 to 14) (size 15 to 20)
#    1.200    1.200    0.000    4.200    0.000    3.600 
#    0.000    2.000    0.000    3.000    0.000    0.000 
#    0.000    0.000    0.000    0.000    0.000    0.000 
#
# Total GULP energy -111366.966334 kJ/mol
# GULP energy per Si atom -5568.348317 kJ/mol
# Density = 2.492261 g / cm^3
# Si number density = 24.979469 Si / 1000 Ang^3
#
#
#
# Elastic Constant Matrix: (Units=GPa)
#
#
# Indices 1 2 3 4 5 6 
#
# 1 36.4436 4.0475 22.1560 0.0000 13.0394 0.0000
# 2 4.0475 107.0085 32.7089 0.0000 -3.7406 0.0000
# 3 22.1560 32.7089 188.5304 0.0000 3.1122 0.0000
# 4 0.0000 0.0000 0.0000 -24.1363 0.0000 -6.2230
# 5 13.0394 -3.7406 3.1122 0.0000 36.4285 0.0000
# 6 0.0000 0.0000 0.0000 -6.2230 0.0000 3.2909
#
#
#
# Elastic Compliance Matrix: (Units=1/GPa)
#
#
# Indices 1 2 3 4 5 6 
#
# 1 0.034018 -0.000572 -0.003702 0.000000 -0.011919 0.000000
# 2 -0.000572 0.009927 -0.001678 0.000000 0.001367 0.000000
# 3 -0.003702 -0.001678 0.006020 0.000000 0.000638 0.000000
# 4 0.000000 0.000000 0.000000 -0.027852 0.000000 -0.052667
# 5 -0.011919 0.001367 0.000638 0.000000 0.031803 0.000000
# 6 0.000000 0.000000 0.000000 -0.052667 0.000000 0.204276
#
#
# Mechanical properties :
#
#
# Convention : Reuss Voigt Hill
#
# Bulk Modulus (GPa) = 26.27246 49.97857 38.12551
# Shear Modulus (GPa) = 17.68143 21.32130 19.50137
#
# Velocity S-wave (km/s) = 2.66341 2.92473 2.79712
# Velocity P-wave (km/s) = 4.47200 5.60863 5.07225
#
# Compressibility (1/GPa) = 0.03806267
#
# Stress axis : x y z
#
# Youngs Moduli (GPa) = 29.39589 100.73235 166.11980
#
# Poissons Ratio (x) = 0.05760 0.61495
# Poissons Ratio (y) = 0.01681 0.27870
# Poissons Ratio (z) = 0.10882 0.16900
#
# Static dielectric constant tensor:
#      x y z
#    x 2.081410 0.000000 0.039880 
#    y 0.000000 3.081000 0.000000 
#    z 0.039880 0.000000 1.997930 
# 
# From -- ./inp_files/196775.got.cif
#   From: 2010.05.17/outbox.cif.g08.bks.cpg/sg12_99_cif.got.tgz:196775.got - 2010.06.03 13:09:07.
