data_PCOD9198623
_publ_section_title
;
Structure prediction by ZEFSAII (Michael W. Deem and Ramdas Pophale) SiO2 
 PCOD9198623
Probable space group: C 2/M
;
_chemical_formula_sum "Si O2"
_cell_formula_units_Z 48
_cell_length_a 18.408057
_cell_length_b 7.718759
_cell_length_c 15.980656
_cell_angle_alpha 90.000000
_cell_angle_beta 89.572197
_cell_angle_gamma 90.000000
_cell_volume 2270.585859
_symmetry_space_group_name_H-M "C 2/M"
_symmetry_group_IT_number 12
_symmetry_cell_setting 'monoclinic'
loop_
_space_group_symop_operation_xyz
x,y,z
-x,y,-z
-x,-y,-z
x,-y,z
1/2+x,1/2+y,z
1/2-x,1/2+y,-z
1/2-x,1/2-y,-z
1/2+x,1/2-y,z
loop_
_atom_site_type_symbol
_atom_site_label
_atom_site_fract_x
_atom_site_fract_y
_atom_site_fract_z
Si Si1 0.709571 0.706526 0.914112
Si Si2 0.794059 0.706908 0.415681
Si Si3 0.793662 0.205382 0.744586
Si Si4 0.537535 0.705243 0.582972
Si Si5 0.459297 0.712780 0.751148
Si Si6 0.956765 0.212041 0.082844
O O1 0.706579 0.500000 0.907240
O O2 0.752399 0.770773 0.832360
O O3 0.626607 0.771551 0.916375
O O4 0.750000 0.750000 0.000000
O O5 0.798553 0.500000 0.408884
O O6 0.750000 0.750000 0.500000
O O7 0.752144 0.775614 0.333692
O O8 0.876207 0.773028 0.419469
O O9 0.875915 0.272740 0.749269
O O10 0.800640 0.000000 0.729666
O O11 0.500000 0.778810 0.500000
O O12 0.521872 0.500000 0.583760
O O13 0.502174 0.773143 0.668596
O O14 0.459255 0.500000 0.752487
O O15 0.500828 0.767374 0.834486
O O16 0.955788 0.000000 0.082186
O O17 0.000000 0.267466 0.000000
#
# Coordination Sequence:
#
# PCOD9198623 Si02
#       6
#     8   8   8   8   8   8
#     4  11  22  36  57  84 113 146 185 232 284 338
#     4  11  23  38  58  85 118 154 192 237 290 347
#     4  10  21  38  59  83 112 147 187 232 283 338
#     4  10  20  36  58  82 110 147 192 237 282 338
#     4   9  17  32  55  79 104 139 184 230 274 327
#     4   9  17  30  51  77 102 134 179 225 266 317
#
# _framework density 21.139917000000001
#
# number of rings (size 3 to 8) (size 9 to 14) (size 15 to 20)
#    0.000    2.000    0.000    4.000    0.000    8.333 
#    0.000    0.833    0.000   11.000    0.000    0.000 
#    0.000    0.000    0.000    0.000    0.000    0.000 
#
# Total GULP energy -134150.617421 kJ/mol
# GULP energy per Si atom -5589.609059 kJ/mol
# Density = 2.109180 g / cm^3
# Si number density = 21.139917 Si / 1000 Ang^3
#
#
#
# Elastic Constant Matrix: (Units=GPa)
#
#
# Indices 1 2 3 4 5 6 
#
# 1 215.5810 -19.1568 134.7701 0.0000 6.5511 0.0000
# 2 -19.1568 24.5986 -13.0387 0.0000 6.2885 0.0000
# 3 134.7701 -13.0387 235.9585 0.0000 9.1042 0.0000
# 4 0.0000 0.0000 0.0000 9.8926 0.0000 -6.3662
# 5 6.5511 6.2885 9.1042 0.0000 47.8376 0.0000
# 6 0.0000 0.0000 0.0000 -6.3662 0.0000 21.7920
#
#
#
# Elastic Compliance Matrix: (Units=1/GPa)
#
#
# Indices 1 2 3 4 5 6 
#
# 1 0.007554 0.003925 -0.004068 0.000000 -0.000776 0.000000
# 2 0.003925 0.045695 0.000540 0.000000 -0.006647 0.000000
# 3 -0.004068 0.000540 0.006621 0.000000 -0.000774 0.000000
# 4 0.000000 0.000000 0.000000 0.124489 0.000000 0.036368
# 5 -0.000776 -0.006647 -0.000774 0.000000 0.022031 0.000000
# 6 0.000000 0.000000 0.000000 0.036368 0.000000 0.056513
#
#
# Mechanical properties :
#
#
# Convention : Reuss Voigt Hill
#
# Bulk Modulus (GPa) = 16.48428 75.69859 46.09144
# Shear Modulus (GPa) = 17.70975 40.80866 29.25920
#
# Velocity S-wave (km/s) = 2.89751 4.39841 3.72435
# Velocity P-wave (km/s) = 4.35990 7.85371 6.35175
#
# Compressibility (1/GPa) = 0.06066386
#
# Stress axis : x y z
#
# Youngs Moduli (GPa) = 132.38239 21.88435 151.03505
#
# Poissons Ratio (x) = -0.08590 0.61435
# Poissons Ratio (y) = -0.51962 -0.08150
# Poissons Ratio (z) = 0.53848 -0.01181
#
# Static dielectric constant tensor:
#      x y z
#    x 1.716570 0.000000 0.004080 
#    y 0.000000 1.789980 0.000000 
#    z 0.004080 0.000000 1.739280 
# 
# From -- ./inp_files/221578.got.cif
#   From: 2010.05.17/outbox.cif.g08.bks.cpg/sg12_111_cif.got.tgz:221578.got - 2010.06.03 13:09:07.
