data_PCOD9198418
_publ_section_title
;
Structure prediction by ZEFSAII (Michael W. Deem and Ramdas Pophale) SiO2 
 PCOD9198418
Probable space group: C 2/M
;
_chemical_formula_sum "Si O2"
_cell_formula_units_Z 64
_cell_length_a 21.120234
_cell_length_b 13.933403
_cell_length_c 12.241194
_cell_angle_alpha 90.000000
_cell_angle_beta 71.830382
_cell_angle_gamma 90.000000
_cell_volume 3422.679090
_symmetry_space_group_name_H-M "C 2/M"
_symmetry_group_IT_number 12
_symmetry_cell_setting 'monoclinic'
loop_
_space_group_symop_operation_xyz
x,y,z
-x,y,-z
-x,-y,-z
x,-y,z
1/2+x,1/2+y,z
1/2-x,1/2+y,-z
1/2-x,1/2-y,-z
1/2+x,1/2-y,z
loop_
_atom_site_type_symbol
_atom_site_label
_atom_site_fract_x
_atom_site_fract_y
_atom_site_fract_z
Si Si1 0.929333 0.116046 0.491445
Si Si2 0.811205 0.884396 0.719501
Si Si3 0.074801 0.741439 0.925877
Si Si4 0.609469 0.282393 0.146704
Si Si5 0.967343 0.885199 0.233335
Si Si6 0.163718 0.384283 0.722243
Si Si7 0.411284 0.884575 0.448197
Si Si8 0.065020 0.615117 0.319129
O O1 0.867677 0.142821 0.600334
O O2 0.927611 0.141654 0.365020
O O3 0.000000 0.151801 0.500000
O O4 0.931984 0.000000 0.493554
O O5 0.830923 0.834231 0.822142
O O6 0.738642 0.857517 0.714394
O O7 0.813374 0.000000 0.731467
O O8 0.063905 0.833571 0.854282
O O9 0.112791 0.662607 0.834799
O O10 0.113666 0.768988 0.014936
O O11 0.000000 0.709355 0.000000
O O12 0.542733 0.345834 0.204254
O O13 0.597407 0.179073 0.208538
O O14 0.968603 0.000000 0.222114
O O15 0.158595 0.500000 0.729274
O O16 0.142359 0.352704 0.611750
O O17 0.406534 0.855708 0.577066
O O18 0.485911 0.863045 0.366056
O O19 0.408015 0.000000 0.454016
O O20 0.072711 0.500000 0.300502
#
# Coordination Sequence:
#
# PCOD9198418 Si02
#       8
#     8   8   8   8   8   8   8   8
#     4   9  16  31  56  84 112 138 176 228 276 332
#     4  10  21  36  57  85 112 146 184 227 287 342
#     4  10  23  37  54  83 110 146 197 237 270 321
#     4  11  21  33  54  82 112 147 189 231 269 326
#     4  10  20  36  57  83 116 146 180 233 286 327
#     4  10  21  39  59  79 113 150 183 231 287 337
#     4   8  15  31  54  78 106 140 178 226 281 338
#     4   9  18  32  53  82 110 139 181 232 284 327
#
# _framework density 18.698802000000001
#
# number of rings (size 3 to 8) (size 9 to 14) (size 15 to 20)
#    0.000    2.375    1.250    2.625    0.000    7.000 
#    0.000    2.500    0.000    2.250    0.000    0.000 
#    0.000    0.000    0.000    0.000    0.000    0.000 
#
# Total GULP energy -178635.069096 kJ/mol
# GULP energy per Si atom -5582.345909 kJ/mol
# Density = 1.865624 g / cm^3
# Si number density = 18.698802 Si / 1000 Ang^3
#
#
#
# Elastic Constant Matrix: (Units=GPa)
#
#
# Indices 1 2 3 4 5 6 
#
# 1 119.8450 44.6014 63.3298 0.0000 33.3207 0.0000
# 2 44.6014 82.6779 23.4248 0.0000 7.3174 0.0000
# 3 63.3298 23.4248 95.5398 0.0000 26.7288 0.0000
# 4 0.0000 0.0000 0.0000 27.3705 0.0000 2.8794
# 5 33.3207 7.3174 26.7288 0.0000 34.1282 0.0000
# 6 0.0000 0.0000 0.0000 2.8794 0.0000 18.5781
#
#
#
# Elastic Compliance Matrix: (Units=1/GPa)
#
#
# Indices 1 2 3 4 5 6 
#
# 1 0.017219 -0.006409 -0.007073 0.000000 -0.009898 0.000000
# 2 -0.006409 0.015387 -0.000451 0.000000 0.003311 0.000000
# 3 -0.007073 -0.000451 0.017041 0.000000 -0.006343 0.000000
# 4 0.000000 0.000000 0.000000 0.037141 0.000000 -0.005757
# 5 -0.009898 0.003311 -0.006343 0.000000 0.043223 0.000000
# 6 0.000000 0.000000 0.000000 -0.005757 0.000000 0.054719
#
#
# Mechanical properties :
#
#
# Convention : Reuss Voigt Hill
#
# Bulk Modulus (GPa) = 45.91250 62.30830 54.11040
# Shear Modulus (GPa) = 22.74214 27.12913 24.93563
#
# Velocity S-wave (km/s) = 3.49124 3.81313 3.65573
# Velocity P-wave (km/s) = 6.39208 7.26506 6.84251
#
# Compressibility (1/GPa) = 0.02178056
#
# Stress axis : x y z
#
# Youngs Moduli (GPa) = 58.07599 64.98951 58.68291
#
# Poissons Ratio (x) = 0.41650 0.41509
# Poissons Ratio (y) = 0.37220 0.02646
# Poissons Ratio (z) = 0.41079 0.02930
#
# Static dielectric constant tensor:
#      x y z
#    x 1.633990 0.000000 0.022740 
#    y 0.000000 1.666290 0.000000 
#    z 0.022740 0.000000 1.638840 
# 
# From -- ./inp_files/167262.got.cif
#   From: 2010.05.17/outbox.cif.g08.bks.cpg/sg12_84_cif.got.tgz:167262.got - 2010.06.03 13:09:07.
