data_PCOD9198343
_publ_section_title
;
Structure prediction by ZEFSAII (Michael W. Deem and Ramdas Pophale) SiO2 
 PCOD9198343
Probable space group: C 2/M
;
_chemical_formula_sum "Si O2"
_cell_formula_units_Z 64
_cell_length_a 20.004910
_cell_length_b 8.357768
_cell_length_c 23.064571
_cell_angle_alpha 90.000000
_cell_angle_beta 55.147181
_cell_angle_gamma 90.000000
_cell_volume 3164.578269
_symmetry_space_group_name_H-M "C 2/M"
_symmetry_group_IT_number 12
_symmetry_cell_setting 'monoclinic'
loop_
_space_group_symop_operation_xyz
x,y,z
-x,y,-z
-x,-y,-z
x,-y,z
1/2+x,1/2+y,z
1/2-x,1/2+y,-z
1/2-x,1/2-y,-z
1/2+x,1/2-y,z
loop_
_atom_site_type_symbol
_atom_site_label
_atom_site_fract_x
_atom_site_fract_y
_atom_site_fract_z
Si Si1 0.982585 0.684950 0.253778
Si Si2 0.262568 0.810216 0.863223
Si Si3 0.166922 0.181829 0.470699
Si Si4 0.071953 0.316300 0.422971
Si Si5 0.395811 0.315851 0.717206
Si Si6 0.587718 0.191399 0.983146
Si Si7 0.841349 0.188293 0.398799
Si Si8 0.112355 0.189448 0.101744
O O1 0.968141 0.500000 0.246463
O O2 0.044597 0.700370 0.276893
O O3 0.030690 0.771921 0.178566
O O4 0.902066 0.769343 0.317266
O O5 0.307365 0.721941 0.787691
O O6 0.167807 0.765606 0.913592
O O7 0.312482 0.758211 0.896889
O O8 0.875265 0.000000 0.909788
O O9 0.146387 0.303743 0.430420
O O10 0.122959 0.216663 0.553974
O O11 0.262605 0.200705 0.434333
O O12 0.147722 0.000000 0.462922
O O13 0.053439 0.500000 0.416747
O O14 0.092675 0.218159 0.355801
O O15 0.000000 0.251853 0.500000
O O16 0.417114 0.500000 0.720024
O O17 0.591334 0.000000 0.975184
O O18 0.500000 0.244383 0.000000
O O19 0.599645 0.235908 0.044838
O O20 0.820003 0.000000 0.408356
O O21 0.227898 0.500000 0.147633
#
# Coordination Sequence:
#
# PCOD9198343 Si02
#       8
#     8   8   8   8   8   8   8   8
#     4  11  21  36  59  87 118 151 193 241 293 346
#     4  11  22  40  66  93 124 161 205 252 303 361
#     4  10  21  36  55  80 110 148 193 241 293 352
#     4  11  23  38  57  83 116 154 197 245 297 352
#     4  11  22  38  60  87 119 154 198 245 297 352
#     4  11  24  43  65  92 127 163 201 248 305 364
#     4  10  20  36  57  81 112 149 192 240 293 349
#     4  11  22  39  64  93 124 158 205 250 297 357
#
# _framework density 20.223863999999999
#
# number of rings (size 3 to 8) (size 9 to 14) (size 15 to 20)
#    0.000    1.250    0.000    8.625    0.000    5.500 
#    2.250    0.000    0.000    0.000    0.000    0.000 
#    0.000    0.000    0.000    0.000    0.000    0.000 
#
# Total GULP energy -178734.047790 kJ/mol
# GULP energy per Si atom -5585.438993 kJ/mol
# Density = 2.017783 g / cm^3
# Si number density = 20.223864 Si / 1000 Ang^3
#
#
#
# Elastic Constant Matrix: (Units=GPa)
#
#
# Indices 1 2 3 4 5 6 
#
# 1 52.7592 7.3726 37.8806 -0.0001 -2.3493 -0.0001
# 2 7.3726 77.5179 2.2549 -0.0005 0.0779 -0.0007
# 3 37.8806 2.2549 97.4998 -0.0001 -5.7812 -0.0001
# 4 -0.0001 -0.0005 -0.0001 7.7963 0.0001 -5.9255
# 5 -2.3493 0.0779 -5.7812 0.0001 26.3079 0.0000
# 6 -0.0001 -0.0007 -0.0001 -5.9255 0.0000 27.5979
#
#
#
# Elastic Compliance Matrix: (Units=1/GPa)
#
#
# Indices 1 2 3 4 5 6 
#
# 1 0.026669 -0.002237 -0.010302 0.000000 0.000124 0.000000
# 2 -0.002237 0.013097 0.000559 0.000001 -0.000116 0.000001
# 3 -0.010302 0.000559 0.014379 0.000000 0.002238 0.000000
# 4 0.000000 0.000001 0.000000 0.153279 0.000000 0.032910
# 5 0.000124 -0.000116 0.002238 0.000000 0.038515 0.000000
# 6 0.000000 0.000001 0.000000 0.032910 0.000000 0.043301
#
#
# Mechanical properties :
#
#
# Convention : Reuss Voigt Hill
#
# Bulk Modulus (GPa) = 33.12906 35.86589 34.49748
# Shear Modulus (GPa) = 15.46738 24.35833 19.91285
#
# Velocity S-wave (km/s) = 2.76852 3.47426 3.14127
# Velocity P-wave (km/s) = 5.16104 5.81953 5.50015
#
# Compressibility (1/GPa) = 0.03018498
#
# Stress axis : x y z
#
# Youngs Moduli (GPa) = 37.49647 76.35427 69.54637
#
# Poissons Ratio (x) = 0.17080 0.71650
# Poissons Ratio (y) = 0.08388 -0.03890
# Poissons Ratio (z) = 0.38630 -0.04271
#
# Static dielectric constant tensor:
#      x y z
#    x 1.769330 0.000000 -0.020090 
#    y 0.000000 1.675660 0.000000 
#    z -0.020090 0.000000 1.736930 
# 
# From -- ./inp_files/345929.got.cif
#   From: 2010.05.17/outbox.cif.g08.bks.cpg/sg12_173_cif.got.tgz:345929.got - 2010.06.03 13:09:07.
