data_PCOD9198544
_publ_section_title
;
Structure prediction by ZEFSAII (Michael W. Deem and Ramdas Pophale) SiO2 
 PCOD9198544
Probable space group: C 2/M
;
_chemical_formula_sum "Si O2"
_cell_formula_units_Z 36
_cell_length_a 13.578195
_cell_length_b 10.201844
_cell_length_c 22.029027
_cell_angle_alpha 90.000000
_cell_angle_beta 141.880031
_cell_angle_gamma 90.000000
_cell_volume 1883.733323
_symmetry_space_group_name_H-M "C 2/M"
_symmetry_group_IT_number 12
_symmetry_cell_setting 'monoclinic'
loop_
_space_group_symop_operation_xyz
x,y,z
-x,y,-z
-x,-y,-z
x,-y,z
1/2+x,1/2+y,z
1/2-x,1/2+y,-z
1/2-x,1/2-y,-z
1/2+x,1/2-y,z
loop_
_atom_site_type_symbol
_atom_site_label
_atom_site_fract_x
_atom_site_fract_y
_atom_site_fract_z
Si Si1 0.357531 0.355535 0.186122
Si Si2 0.848013 0.648478 0.468749
Si Si3 0.392055 0.352846 0.068149
Si Si4 0.571074 0.847794 0.349730
Si Si5 0.500000 0.765948 0.000000
O O1 0.387997 0.500000 0.227623
O O2 0.449899 0.347933 0.165920
O O3 0.416979 0.234613 0.254824
O O4 0.167224 0.343854 0.081912
O O5 0.783655 0.500000 0.427519
O O6 0.718685 0.761821 0.396183
O O7 0.905980 0.654207 0.566611
O O8 0.000000 0.666162 0.500000
O O9 0.331316 0.500000 0.029108
O O10 0.499328 0.316535 0.062446
O O11 0.250000 0.250000 0.000000
O O12 0.567963 0.000000 0.328557
#
# Coordination Sequence:
#
# PCOD9198544 Si02
#       5
#     8   8   8   8   4
#     4  10  21  37  55  78 111 148 183 222 272 326
#     4   9  19  38  61  82 108 143 179 219 271 327
#     4   9  19  34  53  75 101 136 178 224 270 315
#     4  10  21  36  56  84 113 141 179 225 270 320
#     4  10  20  36  58  80 104 142 192 234 268 310
#
# _framework density 19.110986
#
# number of rings (size 3 to 8) (size 9 to 14) (size 15 to 20)
#    0.000    2.444    0.000    1.333    0.000    8.444 
#    0.000    6.667    0.000    0.000    0.000    0.000 
#    0.000    0.000    0.000    0.000    0.000    0.000 
#
# Total GULP energy -100220.486942 kJ/mol
# GULP energy per Si atom -5567.804830 kJ/mol
# Density = 1.906749 g / cm^3
# Si number density = 19.110986 Si / 1000 Ang^3
#
#
#
# Elastic Constant Matrix: (Units=GPa)
#
#
# Indices 1 2 3 4 5 6 
#
# 1 89.0090 40.9596 12.7206 0.0000 16.3490 0.0000
# 2 40.9596 172.7590 54.2075 0.0000 7.1119 0.0000
# 3 12.7206 54.2075 75.3631 0.0000 13.1821 0.0000
# 4 0.0000 0.0000 0.0000 26.4898 0.0000 0.9457
# 5 16.3490 7.1119 13.1821 0.0000 12.9249 0.0000
# 6 0.0000 0.0000 0.0000 0.9457 0.0000 15.3741
#
#
#
# Elastic Compliance Matrix: (Units=1/GPa)
#
#
# Indices 1 2 3 4 5 6 
#
# 1 0.016977 -0.004455 0.004462 0.000000 -0.023575 0.000000
# 2 -0.004455 0.008674 -0.006862 0.000000 0.007861 0.000000
# 3 0.004462 -0.006862 0.021639 0.000000 -0.023938 0.000000
# 4 0.000000 0.000000 0.000000 0.037833 0.000000 -0.002327
# 5 -0.023575 0.007861 -0.023938 0.000000 0.127279 0.000000
# 6 0.000000 0.000000 0.000000 -0.002327 0.000000 0.065187
#
#
# Mechanical properties :
#
#
# Convention : Reuss Voigt Hill
#
# Bulk Modulus (GPa) = 29.77899 61.43404 45.60651
# Shear Modulus (GPa) = 16.52927 26.24067 21.38497
#
# Velocity S-wave (km/s) = 2.94412 3.70951 3.34876
# Velocity P-wave (km/s) = 5.21278 7.11077 6.23443
#
# Compressibility (1/GPa) = 0.03358073
#
# Stress axis : x y z
#
# Youngs Moduli (GPa) = 58.90243 115.28419 46.21289
#
# Poissons Ratio (x) = 0.51357 -0.20621
# Poissons Ratio (y) = 0.26240 0.31713
# Poissons Ratio (z) = -0.26284 0.79111
#
# Static dielectric constant tensor:
#      x y z
#    x 1.685880 0.000000 -0.019800 
#    y 0.000000 1.670180 0.000000 
#    z -0.019800 0.000000 1.686660 
# 
# From -- ./inp_files/210953.got.cif
#   From: 2010.05.17/outbox.cif.g08.bks.cpg/sg12_106_cif.got.tgz:210953.got - 2010.06.03 13:09:07.
