data_PCOD9198264
_publ_section_title
;
Structure prediction by ZEFSAII (Michael W. Deem and Ramdas Pophale) SiO2 
 PCOD9198264
Probable space group: C 2/M
;
_chemical_formula_sum "Si O2"
_cell_formula_units_Z 64
_cell_length_a 14.987878
_cell_length_b 7.999410
_cell_length_c 30.688589
_cell_angle_alpha 90.000000
_cell_angle_beta 59.607505
_cell_angle_gamma 90.000000
_cell_volume 3173.762203
_symmetry_space_group_name_H-M "C 2/M"
_symmetry_group_IT_number 12
_symmetry_cell_setting 'monoclinic'
loop_
_space_group_symop_operation_xyz
x,y,z
-x,y,-z
-x,-y,-z
x,-y,z
1/2+x,1/2+y,z
1/2-x,1/2+y,-z
1/2-x,1/2-y,-z
1/2+x,1/2-y,z
loop_
_atom_site_type_symbol
_atom_site_label
_atom_site_fract_x
_atom_site_fract_y
_atom_site_fract_z
Si Si1 0.168666 0.202069 0.578699
Si Si2 0.399335 0.201409 0.498395
Si Si3 0.524767 0.204421 0.861506
Si Si4 0.418735 0.798870 0.055777
Si Si5 0.644642 0.804705 0.231639
Si Si6 0.307252 0.798432 0.876842
Si Si7 0.687247 0.804748 0.747886
Si Si8 0.919240 0.804889 0.307909
O O1 0.287777 0.261489 0.544163
O O2 0.104717 0.253479 0.551698
O O3 0.118490 0.260957 0.636150
O O4 0.171767 0.000000 0.579145
O O5 0.500000 0.263034 0.500000
O O6 0.399548 0.000000 0.501660
O O7 0.555650 0.263414 0.901869
O O8 0.409561 0.257238 0.876912
O O9 0.605342 0.258484 0.804442
O O10 0.527685 0.000000 0.861073
O O11 0.300202 0.755093 0.075636
O O12 0.427368 0.000000 0.054624
O O13 0.500000 0.735712 0.000000
O O14 0.684480 0.736952 0.175267
O O15 0.701704 0.717674 0.257569
O O16 0.521977 0.783878 0.265055
O O17 0.670808 0.000000 0.227305
O O18 0.310449 0.000000 0.874455
O O19 0.668524 0.714822 0.707000
O O20 0.666750 0.000000 0.745645
O O21 0.944884 0.000000 0.306334
#
# Coordination Sequence:
#
# PCOD9198264 Si02
#       8
#     8   8   8   8   8   8   8   8
#     4   9  20  37  55  82 118 150 187 236 284 335
#     4   9  18  35  60  85 111 150 194 233 283 338
#     4   9  18  35  56  78 108 143 179 225 280 339
#     4  10  21  37  57  82 111 144 183 230 285 344
#     4  11  22  37  57  84 112 148 196 240 287 346
#     4  10  20  36  57  79 106 142 183 230 282 336
#     4  11  21  37  59  83 113 152 191 235 291 346
#     4  11  23  38  56  84 122 157 193 241 288 339
#
# _framework density 20.165341999999999
#
# number of rings (size 3 to 8) (size 9 to 14) (size 15 to 20)
#    0.000    2.000    2.500    1.125    0.000    3.500 
#    0.000    1.875    0.000    0.000    0.000    0.000 
#    0.000    0.000    0.000    0.000    0.000    0.000 
#
# Total GULP energy -178695.100233 kJ/mol
# GULP energy per Si atom -5584.221882 kJ/mol
# Density = 2.011944 g / cm^3
# Si number density = 20.165342 Si / 1000 Ang^3
#
#
#
# Elastic Constant Matrix: (Units=GPa)
#
#
# Indices 1 2 3 4 5 6 
#
# 1 92.0587 0.6915 -7.2533 0.0000 5.0140 0.0000
# 2 0.6915 16.9565 7.8371 0.0001 0.1911 0.0000
# 3 -7.2533 7.8371 51.5954 0.0000 11.2228 0.0000
# 4 0.0000 0.0001 0.0000 14.6525 0.0000 -2.9904
# 5 5.0140 0.1911 11.2228 0.0000 20.0817 0.0000
# 6 0.0000 0.0000 0.0000 -2.9904 0.0000 24.4887
#
#
#
# Elastic Compliance Matrix: (Units=1/GPa)
#
#
# Indices 1 2 3 4 5 6 
#
# 1 0.011335 -0.001710 0.002806 0.000000 -0.004382 0.000000
# 2 -0.001710 0.064212 -0.011331 0.000000 0.006148 0.000000
# 3 0.002806 -0.011331 0.024619 0.000000 -0.014351 0.000000
# 4 0.000000 0.000000 0.000000 0.069992 0.000000 0.008547
# 5 -0.004382 0.006148 -0.014351 0.000000 0.058853 0.000000
# 6 0.000000 0.000000 0.000000 0.008547 0.000000 0.041879
#
#
# Mechanical properties :
#
#
# Convention : Reuss Voigt Hill
#
# Bulk Modulus (GPa) = 12.54756 18.12901 15.33828
# Shear Modulus (GPa) = 15.72697 22.46692 19.09695
#
# Velocity S-wave (km/s) = 2.79570 3.34149 3.08070
# Velocity P-wave (km/s) = 4.08131 4.88846 4.50301
#
# Compressibility (1/GPa) = 0.07969678
#
# Stress axis : x y z
#
# Youngs Moduli (GPa) = 88.22004 15.57340 40.61919
#
# Poissons Ratio (x) = 0.02663 -0.11400
# Poissons Ratio (y) = 0.15085 0.46027
# Poissons Ratio (z) = -0.24759 0.17647
#
# Static dielectric constant tensor:
#      x y z
#    x 1.690870 0.000000 0.002640 
#    y 0.000000 1.720210 0.000000 
#    z 0.002640 0.000000 1.699780 
# 
# From -- ./inp_files/338801.got.cif
#   From: 2010.05.17/outbox.cif.g08.bks.cpg/sg12_170_cif.got.tgz:338801.got - 2010.06.03 13:09:07.
