data_PCOD9198701
_publ_section_title
;
Structure prediction by ZEFSAII (Michael W. Deem and Ramdas Pophale) SiO2 
 PCOD9198701
Probable space group: C 2/M
;
_chemical_formula_sum "Si O2"
_cell_formula_units_Z 56
_cell_length_a 15.136342
_cell_length_b 16.001640
_cell_length_c 9.416959
_cell_angle_alpha 90.000000
_cell_angle_beta 75.798285
_cell_angle_gamma 90.000000
_cell_volume 2211.139532
_symmetry_space_group_name_H-M "C 2/M"
_symmetry_group_IT_number 12
_symmetry_cell_setting 'monoclinic'
loop_
_space_group_symop_operation_xyz
x,y,z
-x,y,-z
-x,-y,-z
x,-y,z
1/2+x,1/2+y,z
1/2-x,1/2+y,-z
1/2-x,1/2-y,-z
1/2+x,1/2-y,z
loop_
_atom_site_type_symbol
_atom_site_label
_atom_site_fract_x
_atom_site_fract_y
_atom_site_fract_z
Si Si1 0.940838 0.404451 0.313591
Si Si2 0.262195 0.099976 0.531715
Si Si3 0.066538 0.099031 0.640439
Si Si4 0.401644 0.681875 0.070871
Si Si5 0.134020 0.145181 0.226933
Si Si6 0.329720 0.861693 0.106143
Si Si7 0.857341 0.655693 0.769002
O O1 0.945665 0.500000 0.358369
O O2 0.851671 0.362829 0.419930
O O3 0.913759 0.399028 0.159355
O O4 0.038054 0.366300 0.307611
O O5 0.161144 0.133497 0.533654
O O6 0.286890 0.116565 0.686288
O O7 0.261217 0.000000 0.507844
O O8 0.083575 0.126981 0.796635
O O9 0.960009 0.121169 0.657523
O O10 0.070495 0.000000 0.623535
O O11 0.336008 0.760550 0.118057
O O12 0.500000 0.723222 0.000000
O O13 0.379181 0.630779 0.938111
O O14 0.234329 0.107271 0.211865
O O15 0.143691 0.244537 0.235195
O O16 0.336281 0.876475 0.935871
#
# Coordination Sequence:
#
# PCOD9198701 Si02
#       7
#     8   8   8   8   8   8   8
#     4  11  24  40  58  86 122 153 187 239 296 344
#     4  10  22  41  62  83 114 155 195 240 289 336
#     4  10  20  36  58  83 114 155 199 236 279 342
#     4   9  17  33  55  83 117 151 190 240 292 331
#     4  10  21  35  56  87 120 153 190 238 287 334
#     4  11  21  37  60  86 121 156 187 231 289 350
#     4  11  21  39  64  87 114 151 195 239 288 344
#
# _framework density 25.326307
#
# number of rings (size 3 to 8) (size 9 to 14) (size 15 to 20)
#    0.000    1.714    0.000    7.286    0.000    6.000 
#    0.000    8.571    0.000    2.571    0.000    0.000 
#    0.000    0.000    0.000    0.000    0.000    0.000 
#
# Total GULP energy -156566.771893 kJ/mol
# GULP energy per Si atom -5591.670425 kJ/mol
# Density = 2.526866 g / cm^3
# Si number density = 25.326307 Si / 1000 Ang^3
#
#
#
# Elastic Constant Matrix: (Units=GPa)
#
#
# Indices 1 2 3 4 5 6 
#
# 1 226.3818 15.9200 43.7833 0.0000 -38.6602 0.0000
# 2 15.9200 31.3814 1.8795 0.0000 -11.5559 0.0000
# 3 43.7833 1.8795 72.0988 0.0000 -16.3197 0.0000
# 4 0.0000 0.0000 0.0000 17.7161 0.0000 -7.6902
# 5 -38.6602 -11.5559 -16.3197 0.0000 55.5568 0.0000
# 6 0.0000 0.0000 0.0000 -7.6902 0.0000 15.5918
#
#
#
# Elastic Compliance Matrix: (Units=1/GPa)
#
#
# Indices 1 2 3 4 5 6 
#
# 1 0.005516 -0.001641 -0.002694 0.000000 0.002706 0.000000
# 2 -0.001641 0.035038 0.001579 0.000000 0.006610 0.000000
# 3 -0.002694 0.001579 0.016191 0.000000 0.003210 0.000000
# 4 0.000000 0.000000 0.000000 0.071823 0.000000 0.035424
# 5 0.002706 0.006610 0.003210 0.000000 0.022200 0.000000
# 6 0.000000 0.000000 0.000000 0.035424 0.000000 0.081608
#
#
# Mechanical properties :
#
#
# Convention : Reuss Voigt Hill
#
# Bulk Modulus (GPa) = 19.51853 50.33639 34.92746
# Shear Modulus (GPa) = 19.61047 35.65823 27.63435
#
# Velocity S-wave (km/s) = 2.78567 3.75634 3.30681
# Velocity P-wave (km/s) = 4.25090 6.22348 5.32925
#
# Compressibility (1/GPa) = 0.05123337
#
# Stress axis : x y z
#
# Youngs Moduli (GPa) = 181.29596 28.54062 61.76098
#
# Poissons Ratio (x) = 0.04682 0.16641
# Poissons Ratio (y) = 0.29742 -0.09753
# Poissons Ratio (z) = 0.48849 -0.04507
#
# Static dielectric constant tensor:
#      x y z
#    x 2.039370 0.000000 -0.020900 
#    y 0.000000 1.904870 0.000000 
#    z -0.020900 0.000000 2.095340 
# 
# From -- ./inp_files/145466.got.cif
#   From: 2010.05.17/outbox.cif.g08.bks.cpg/sg12_73_cif.got.tgz:145466.got - 2010.06.03 13:09:07.
