data_PCOD9198874
_publ_section_title
;
Structure prediction by ZEFSAII (Michael W. Deem and Ramdas Pophale) SiO2 
 PCOD9198874
Probable space group: C 2/M
;
_chemical_formula_sum "Si O2"
_cell_formula_units_Z 56
_cell_length_a 14.724891
_cell_length_b 14.228716
_cell_length_c 17.721242
_cell_angle_alpha 90.000000
_cell_angle_beta 44.501952
_cell_angle_gamma 90.000000
_cell_volume 2602.488459
_symmetry_space_group_name_H-M "C 2/M"
_symmetry_group_IT_number 12
_symmetry_cell_setting 'monoclinic'
loop_
_space_group_symop_operation_xyz
x,y,z
-x,y,-z
-x,-y,-z
x,-y,z
1/2+x,1/2+y,z
1/2-x,1/2+y,-z
1/2-x,1/2-y,-z
1/2+x,1/2-y,z
loop_
_atom_site_type_symbol
_atom_site_label
_atom_site_fract_x
_atom_site_fract_y
_atom_site_fract_z
Si Si1 0.109171 0.613303 0.991439
Si Si2 0.385115 0.614286 0.871438
Si Si3 0.354218 0.389077 0.060192
Si Si4 0.574692 0.237943 0.522024
Si Si5 0.536169 0.103682 0.767289
Si Si6 0.139784 0.208065 0.651885
Si Si7 0.368670 0.895481 0.714270
O O1 0.114434 0.500000 0.976811
O O2 0.051923 0.627461 0.108778
O O3 0.258798 0.644263 0.897758
O O4 0.000000 0.652728 0.000000
O O5 0.391928 0.500000 0.868468
O O6 0.522370 0.653094 0.761511
O O7 0.352053 0.647223 0.976232
O O8 0.315892 0.500000 0.078070
O O9 0.265222 0.349023 0.179594
O O10 0.500000 0.385371 0.000000
O O11 0.500000 0.294779 0.500000
O O12 0.709976 0.183838 0.424446
O O13 0.607453 0.291115 0.581321
O O14 0.463034 0.163565 0.607382
O O15 0.633558 0.186097 0.689096
O O16 0.443830 0.098607 0.749610
O O17 0.594210 0.000000 0.745550
O O18 0.347231 0.000000 0.695904
#
# Coordination Sequence:
#
# PCOD9198874 Si02
#       7
#     8   8   8   8   8   8   8
#     4   9  17  31  53  83 118 154 192 234 279 333
#     4  10  20  36  58  87 126 155 182 237 295 344
#     4   9  17  30  52  85 124 155 183 227 285 354
#     4  10  23  41  56  76 114 152 193 254 287 329
#     4   9  17  35  58  78 108 147 187 235 285 341
#     4  10  23  40  59  84 112 151 197 242 291 346
#     4   9  17  33  57  82 111 152 192 228 285 353
#
# _framework density 21.517866999999999
#
# number of rings (size 3 to 8) (size 9 to 14) (size 15 to 20)
#    0.000    2.571    1.429    0.000    2.000    2.571 
#    0.000    2.857    0.000    0.857    0.000    0.000 
#    0.000    0.000    0.000    0.000    0.000    0.000 
#
# Total GULP energy -156093.170002 kJ/mol
# GULP energy per Si atom -5574.756072 kJ/mol
# Density = 2.146889 g / cm^3
# Si number density = 21.517867 Si / 1000 Ang^3
#
#
#
# Elastic Constant Matrix: (Units=GPa)
#
#
# Indices 1 2 3 4 5 6 
#
# 1 106.2487 6.6978 50.4663 0.0000 -14.2389 0.0000
# 2 6.6978 50.4791 26.7107 0.0000 -1.9108 0.0000
# 3 50.4663 26.7107 132.3146 0.0000 -38.6521 0.0000
# 4 0.0000 0.0000 0.0000 -1.5904 0.0000 -14.1008
# 5 -14.2389 -1.9108 -38.6521 0.0000 24.1481 0.0000
# 6 0.0000 0.0000 0.0000 -14.1008 0.0000 1.2777
#
#
#
# Elastic Compliance Matrix: (Units=1/GPa)
#
#
# Indices 1 2 3 4 5 6 
#
# 1 0.011540 0.001013 -0.004874 0.000000 -0.000916 0.000000
# 2 0.001013 0.023681 -0.008349 0.000000 -0.010892 0.000000
# 3 -0.004874 -0.008349 0.018913 0.000000 0.026738 0.000000
# 4 0.000000 0.000000 0.000000 -0.006361 0.000000 -0.070200
# 5 -0.000916 -0.010892 0.026738 0.000000 0.082807 0.000000
# 6 0.000000 0.000000 0.000000 -0.070200 0.000000 0.007918
#
#
# Mechanical properties :
#
#
# Convention : Reuss Voigt Hill
#
# Bulk Modulus (GPa) = 33.65282 50.75466 42.20374
# Shear Modulus (GPa) = 28.93159 18.44492 23.68825
#
# Velocity S-wave (km/s) = 3.67077 2.93096 3.32153
# Velocity P-wave (km/s) = 5.79996 5.92389 5.86225
#
# Compressibility (1/GPa) = 0.02971519
#
# Stress axis : x y z
#
# Youngs Moduli (GPa) = 86.65388 42.22753 52.87423
#
# Poissons Ratio (x) = -0.04278 0.25769
# Poissons Ratio (y) = -0.08778 0.44144
# Poissons Ratio (z) = 0.42232 0.35255
#
# Static dielectric constant tensor:
#      x y z
#    x 1.839010 0.000000 0.049850 
#    y 0.000000 1.832130 0.000000 
#    z 0.049850 0.000000 1.850820 
# 
# From -- ./inp_files/271391.got.cif
#   From: 2010.05.17/outbox.cif.g08.bks.cpg/sg12_136_cif.got.tgz:271391.got - 2010.06.03 13:09:07.
