data_PCOD9198292
_publ_section_title
;
Structure prediction by ZEFSAII (Michael W. Deem and Ramdas Pophale) SiO2 
 PCOD9198292
Probable space group: C 2/M
;
_chemical_formula_sum "Si O2"
_cell_formula_units_Z 40
_cell_length_a 18.562202
_cell_length_b 7.616413
_cell_length_c 13.992024
_cell_angle_alpha 90.000000
_cell_angle_beta 70.475370
_cell_angle_gamma 90.000000
_cell_volume 1864.407824
_symmetry_space_group_name_H-M "C 2/M"
_symmetry_group_IT_number 12
_symmetry_cell_setting 'monoclinic'
loop_
_space_group_symop_operation_xyz
x,y,z
-x,y,-z
-x,-y,-z
x,-y,z
1/2+x,1/2+y,z
1/2-x,1/2+y,-z
1/2-x,1/2-y,-z
1/2+x,1/2-y,z
loop_
_atom_site_type_symbol
_atom_site_label
_atom_site_fract_x
_atom_site_fract_y
_atom_site_fract_z
Si Si1 0.221551 0.215492 0.800832
Si Si2 0.477744 0.290719 0.405511
Si Si3 0.417561 0.707377 0.006579
Si Si4 0.113070 0.710124 0.199127
Si Si5 0.317003 0.710754 0.395914
O O1 0.154023 0.276485 0.900992
O O2 0.304591 0.274019 0.800180
O O3 0.204060 0.274056 0.700733
O O4 0.222888 0.000000 0.800906
O O5 0.500000 0.219096 0.500000
O O6 0.466984 0.500000 0.421593
O O7 0.546041 0.263015 0.300926
O O8 0.397951 0.220270 0.399180
O O9 0.420132 0.500000 0.027814
O O10 0.500000 0.782136 0.000000
O O11 0.403790 0.727657 0.900384
O O12 0.115553 0.500000 0.195481
O O13 0.323742 0.500000 0.385079
O O14 0.250000 0.750000 0.500000
#
# Coordination Sequence:
#
# PCOD9198292 Si02
#       5
#     8   8   8   8   8
#     4   9  19  35  54  78 108 143 180 218 267 324
#     4  10  21  37  57  81 109 144 186 225 263 317
#     4  10  20  37  60  80 104 143 184 221 267 323
#     4  11  22  35  54  81 112 142 176 224 275 321
#     4  10  20  36  57  80 108 141 179 222 267 318
#
# _framework density 21.454532
#
# number of rings (size 3 to 8) (size 9 to 14) (size 15 to 20)
#    0.000    2.000    0.000    3.600    0.000    4.800 
#    0.000    3.000    0.000    0.000    0.000    0.000 
#    0.000    0.000    0.000    0.000    0.000    0.000 
#
# Total GULP energy -111808.742206 kJ/mol
# GULP energy per Si atom -5590.437110 kJ/mol
# Density = 2.140570 g / cm^3
# Si number density = 21.454532 Si / 1000 Ang^3
#
#
#
# Elastic Constant Matrix: (Units=GPa)
#
#
# Indices 1 2 3 4 5 6 
#
# 1 264.0997 -5.0895 140.8791 0.0000 8.4026 0.0000
# 2 -5.0895 35.3633 -25.9149 0.0000 3.7982 0.0000
# 3 140.8791 -25.9149 226.4589 0.0000 22.4582 0.0000
# 4 0.0000 0.0000 0.0000 19.2971 0.0000 -8.6551
# 5 8.4026 3.7982 22.4582 0.0000 76.7399 0.0000
# 6 0.0000 0.0000 0.0000 -8.6551 0.0000 -9.5120
#
#
#
# Elastic Compliance Matrix: (Units=1/GPa)
#
#
# Indices 1 2 3 4 5 6 
#
# 1 0.005818 -0.002102 -0.003921 0.000000 0.000614 0.000000
# 2 -0.002102 0.032153 0.005275 0.000000 -0.002905 0.000000
# 3 -0.003921 0.005275 0.007664 0.000000 -0.002075 0.000000
# 4 0.000000 0.000000 0.000000 0.036802 0.000000 -0.033487
# 5 0.000614 -0.002905 -0.002075 0.000000 0.013715 0.000000
# 6 0.000000 0.000000 0.000000 -0.033487 0.000000 -0.074660
#
#
# Mechanical properties :
#
#
# Convention : Reuss Voigt Hill
#
# Bulk Modulus (GPa) = 22.65503 82.85238 52.75370
# Shear Modulus (GPa) = 132.62633 45.04148 88.83391
#
# Velocity S-wave (km/s) = 7.87093 4.58688 6.44170
# Velocity P-wave (km/s) = 9.65322 8.17032 8.94256
#
# Compressibility (1/GPa) = 0.04414032
#
# Stress axis : x y z
#
# Youngs Moduli (GPa) = 171.88573 31.10118 130.47542
#
# Poissons Ratio (x) = 0.06537 0.51155
# Poissons Ratio (y) = 0.36128 -0.68827
# Poissons Ratio (z) = 0.67391 -0.16406
#
# Static dielectric constant tensor:
#      x y z
#    x 1.759050 0.000000 0.012460 
#    y 0.000000 1.813580 0.000000 
#    z 0.012460 0.000000 1.729950 
# 
# From -- ./inp_files/151675.got.cif
#   From: 2010.05.17/outbox.cif.g08.bks.cpg/sg12_76_cif.got.tgz:151675.got - 2010.06.03 13:09:07.
