data_PCOD9198785
_publ_section_title
;
Structure prediction by ZEFSAII (Michael W. Deem and Ramdas Pophale) SiO2 
 PCOD9198785
Probable space group: C 2/M
;
_chemical_formula_sum "Si O2"
_cell_formula_units_Z 56
_cell_length_a 27.721811
_cell_length_b 18.886132
_cell_length_c 8.089617
_cell_angle_alpha 90.000000
_cell_angle_beta 43.239614
_cell_angle_gamma 90.000000
_cell_volume 2901.452405
_symmetry_space_group_name_H-M "C 2/M"
_symmetry_group_IT_number 12
_symmetry_cell_setting 'monoclinic'
loop_
_space_group_symop_operation_xyz
x,y,z
-x,y,-z
-x,-y,-z
x,-y,z
1/2+x,1/2+y,z
1/2-x,1/2+y,-z
1/2-x,1/2-y,-z
1/2+x,1/2-y,z
loop_
_atom_site_type_symbol
_atom_site_label
_atom_site_fract_x
_atom_site_fract_y
_atom_site_fract_z
Si Si1 0.282293 0.297255 0.658622
Si Si2 0.924655 0.809551 0.103767
Si Si3 0.780796 0.419772 0.410764
Si Si4 0.137383 0.920843 0.966177
Si Si5 0.932524 0.701392 0.778694
Si Si6 0.819702 0.204307 0.940643
Si Si7 0.939652 0.583724 0.021641
O O1 0.359019 0.291157 0.385941
O O2 0.240301 0.358618 0.666613
O O3 0.290183 0.311439 0.834122
O O4 0.238335 0.224054 0.774235
O O5 0.907883 0.886298 0.067663
O O6 0.925897 0.753771 0.951380
O O7 0.000000 0.808199 0.000000
O O8 0.782977 0.500000 0.330680
O O9 0.717911 0.422360 0.699889
O O10 0.859136 0.406590 0.285659
O O11 0.115677 0.000000 0.063543
O O12 0.136159 0.863817 0.115077
O O13 0.867169 0.724602 0.827065
O O14 0.939301 0.625253 0.848518
O O15 0.000000 0.715306 0.500000
O O16 0.951731 0.500000 0.967375
O O17 0.000000 0.609210 0.000000
#
# Coordination Sequence:
#
# PCOD9198785 Si02
#       7
#     8   8   8   8   8   8   8
#     4  10  20  36  58  85 114 150 192 230 288 341
#     4  10  21  36  60  85 114 152 190 236 282 344
#     4   9  18  35  57  82 113 149 192 233 281 342
#     4   9  20  36  57  83 114 150 188 235 287 340
#     4  11  22  37  57  84 116 149 188 239 286 338
#     4  10  21  35  57  84 116 145 190 238 283 342
#     4  10  21  37  56  80 112 153 197 236 282 339
#
# _framework density 19.300678999999999
#
# number of rings (size 3 to 8) (size 9 to 14) (size 15 to 20)
#    0.000    2.143    1.429    1.286    2.000    2.857 
#    2.571    0.000    0.000   14.571    0.000    0.000 
#    0.000    0.000    0.000    0.000    0.000    0.000 
#
# Total GULP energy -156041.459218 kJ/mol
# GULP energy per Si atom -5572.909258 kJ/mol
# Density = 1.925675 g / cm^3
# Si number density = 19.300679 Si / 1000 Ang^3
#
#
#
# Elastic Constant Matrix: (Units=GPa)
#
#
# Indices 1 2 3 4 5 6 
#
# 1 87.5297 21.7546 17.3579 0.0000 -19.8202 0.0000
# 2 21.7546 86.4542 9.0897 0.0000 2.5457 0.0000
# 3 17.3579 9.0897 70.7097 0.0000 -16.1449 0.0000
# 4 0.0000 0.0000 0.0000 10.4350 0.0000 -4.8193
# 5 -19.8202 2.5457 -16.1449 0.0000 26.8081 0.0000
# 6 0.0000 0.0000 0.0000 -4.8193 0.0000 18.4215
#
#
#
# Elastic Compliance Matrix: (Units=1/GPa)
#
#
# Indices 1 2 3 4 5 6 
#
# 1 0.015085 -0.004058 -0.000634 0.000000 0.011156 0.000000
# 2 -0.004058 0.012945 -0.001894 0.000000 -0.005370 0.000000
# 3 -0.000634 -0.001894 0.016783 0.000000 0.009819 0.000000
# 4 0.000000 0.000000 0.000000 0.109001 0.000000 0.028516
# 5 0.011156 -0.005370 0.009819 0.000000 0.051974 0.000000
# 6 0.000000 0.000000 0.000000 0.028516 0.000000 0.061744
#
#
# Mechanical properties :
#
#
# Convention : Reuss Voigt Hill
#
# Bulk Modulus (GPa) = 31.60397 37.89976 34.75186
# Shear Modulus (GPa) = 17.16729 24.23236 20.69983
#
# Velocity S-wave (km/s) = 2.98563 3.54717 3.27845
# Velocity P-wave (km/s) = 5.31934 6.03786 5.68995
#
# Compressibility (1/GPa) = 0.03164160
#
# Stress axis : x y z
#
# Youngs Moduli (GPa) = 66.29005 77.24909 59.58289
#
# Poissons Ratio (x) = 0.31346 0.03779
# Poissons Ratio (y) = 0.26899 0.11286
# Poissons Ratio (z) = 0.04204 0.14632
#
# Static dielectric constant tensor:
#      x y z
#    x 1.690300 0.000000 -0.032930 
#    y 0.000000 1.703900 0.000000 
#    z -0.032930 0.000000 1.692330 
# 
# From -- ./inp_files/105947.got.cif
#   From: 2010.05.17/outbox.cif.g08.bks.cpg/sg12_53_cif.got.tgz:105947.got - 2010.06.03 13:09:07.
