data_PCOD9198106
_publ_section_title
;
Structure prediction by ZEFSAII (Michael W. Deem and Ramdas Pophale) SiO2 
 PCOD9198106
Probable space group: C 2/M
;
_chemical_formula_sum "Si O2"
_cell_formula_units_Z 64
_cell_length_a 14.807535
_cell_length_b 8.810498
_cell_length_c 33.931008
_cell_angle_alpha 90.000000
_cell_angle_beta 51.788103
_cell_angle_gamma 90.000000
_cell_volume 3478.183378
_symmetry_space_group_name_H-M "C 2/M"
_symmetry_group_IT_number 12
_symmetry_cell_setting 'monoclinic'
loop_
_space_group_symop_operation_xyz
x,y,z
-x,y,-z
-x,-y,-z
x,-y,z
1/2+x,1/2+y,z
1/2-x,1/2+y,-z
1/2-x,1/2-y,-z
1/2+x,1/2-y,z
loop_
_atom_site_type_symbol
_atom_site_label
_atom_site_fract_x
_atom_site_fract_y
_atom_site_fract_z
Si Si1 0.147896 0.682708 0.001440
Si Si2 0.332526 0.182488 0.364334
Si Si3 0.884928 0.316709 0.080685
Si Si4 0.395003 0.681797 0.622004
Si Si5 0.649586 0.318026 0.553578
Si Si6 0.957955 0.181649 0.257366
Si Si7 0.199242 0.682218 0.189465
Si Si8 0.227278 0.681689 0.272471
O O1 0.154043 0.500000 0.001757
O O2 0.018924 0.727027 0.049880
O O3 0.250000 0.750000 0.000000
O O4 0.152932 0.724716 0.953720
O O5 0.208607 0.224974 0.379027
O O6 0.342536 0.256547 0.404163
O O7 0.425822 0.244058 0.308064
O O8 0.341010 0.000000 0.364654
O O9 0.878622 0.500000 0.085300
O O10 0.801440 0.241762 0.134691
O O11 0.392804 0.500000 0.625961
O O12 0.521542 0.726488 0.573708
O O13 0.365540 0.748599 0.672774
O O14 0.657859 0.500000 0.551065
O O15 0.750000 0.250000 0.500000
O O16 0.852068 0.219425 0.256967
O O17 0.077355 0.247851 0.209874
O O18 0.964279 0.000000 0.259661
O O19 0.194433 0.500000 0.189384
O O20 0.217279 0.730837 0.230103
O O21 0.214477 0.500000 0.277117
#
# Coordination Sequence:
#
# PCOD9198106 Si02
#       8
#     8   8   8   8   8   8   8   8
#     4   9  19  37  60  81 105 140 183 225 270 320
#     4  10  20  37  58  80 106 138 176 221 265 314
#     4   9  20  38  55  77 110 146 179 217 269 327
#     4   9  20  37  57  78 104 138 176 215 262 317
#     4  11  23  38  55  79 107 139 177 219 269 323
#     4  10  20  36  56  79 108 144 179 214 262 321
#     4  11  22  35  53  81 113 144 179 224 267 309
#     4   9  20  36  54  77 107 140 176 215 260 312
#
# _framework density 18.400409
#
# number of rings (size 3 to 8) (size 9 to 14) (size 15 to 20)
#    0.000    2.250    0.000    3.000    0.000    7.500 
#    0.000    7.500    0.000    0.000    0.000    0.000 
#    0.000    0.000    0.000    0.000    0.000    0.000 
#
# Total GULP energy -178666.813865 kJ/mol
# GULP energy per Si atom -5583.337933 kJ/mol
# Density = 1.835853 g / cm^3
# Si number density = 18.400409 Si / 1000 Ang^3
#
#
#
# Elastic Constant Matrix: (Units=GPa)
#
#
# Indices 1 2 3 4 5 6 
#
# 1 92.0869 25.9662 39.4105 0.0000 -18.3880 0.0000
# 2 25.9662 31.4390 22.6330 0.0000 -8.9691 0.0000
# 3 39.4105 22.6330 82.7672 0.0000 -28.6372 0.0000
# 4 0.0000 0.0000 0.0000 36.8971 0.0000 -1.0906
# 5 -18.3880 -8.9691 -28.6372 0.0000 22.2680 0.0000
# 6 0.0000 0.0000 0.0000 -1.0906 0.0000 27.8227
#
#
#
# Elastic Compliance Matrix: (Units=1/GPa)
#
#
# Indices 1 2 3 4 5 6 
#
# 1 0.015913 -0.009336 -0.003205 0.000000 0.005259 0.000000
# 2 -0.009336 0.045246 -0.007728 0.000000 0.000577 0.000000
# 3 -0.003205 -0.007728 0.024735 0.000000 0.026050 0.000000
# 4 0.000000 0.000000 0.000000 0.027134 0.000000 0.001064
# 5 0.005259 0.000577 0.026050 0.000000 0.082984 0.000000
# 6 0.000000 0.000000 0.000000 0.001064 0.000000 0.035984
#
#
# Mechanical properties :
#
#
# Convention : Reuss Voigt Hill
#
# Bulk Modulus (GPa) = 22.04712 42.47916 32.26314
# Shear Modulus (GPa) = 17.38216 25.28312 21.33264
#
# Velocity S-wave (km/s) = 3.07687 3.71084 3.40863
# Velocity P-wave (km/s) = 4.96293 6.44178 5.75010
#
# Compressibility (1/GPa) = 0.04535740
#
# Stress axis : x y z
#
# Youngs Moduli (GPa) = 62.83996 22.10131 40.42913
#
# Poissons Ratio (x) = 0.20633 0.12957
# Poissons Ratio (y) = 0.58666 0.31242
# Poissons Ratio (z) = 0.20140 0.17079
#
# Static dielectric constant tensor:
#      x y z
#    x 1.652710 0.000000 -0.010380 
#    y 0.000000 1.615450 0.000000 
#    z -0.010380 0.000000 1.599660 
# 
# From -- ./inp_files/375440.got.cif
#   From: 2010.05.17/outbox.cif.g08.bks.cpg/sg12_188_cif.got.tgz:375440.got - 2010.06.03 13:09:07.
