data_PCOD9198836
_publ_section_title
;
Structure prediction by ZEFSAII (Michael W. Deem and Ramdas Pophale) SiO2 
 PCOD9198836
Probable space group: C 2/M
;
_chemical_formula_sum "Si O2"
_cell_formula_units_Z 48
_cell_length_a 14.345854
_cell_length_b 14.585737
_cell_length_c 13.309259
_cell_angle_alpha 90.000000
_cell_angle_beta 131.843508
_cell_angle_gamma 90.000000
_cell_volume 2074.661466
_symmetry_space_group_name_H-M "C 2/M"
_symmetry_group_IT_number 12
_symmetry_cell_setting 'monoclinic'
loop_
_space_group_symop_operation_xyz
x,y,z
-x,y,-z
-x,-y,-z
x,-y,z
1/2+x,1/2+y,z
1/2-x,1/2+y,-z
1/2-x,1/2-y,-z
1/2+x,1/2-y,z
loop_
_atom_site_type_symbol
_atom_site_label
_atom_site_fract_x
_atom_site_fract_y
_atom_site_fract_z
Si Si1 0.637938 0.098258 0.645368
Si Si2 0.730200 0.707459 0.742373
Si Si3 0.499501 0.103722 0.253159
Si Si4 0.471165 0.611041 0.251715
Si Si5 0.882953 0.245333 0.037350
Si Si6 0.731264 0.391406 0.534400
O O1 0.500000 0.095196 0.500000
O O2 0.698891 0.194960 0.669185
O O3 0.612082 0.102177 0.746661
O O4 0.700493 0.000000 0.664562
O O5 0.623593 0.663068 0.738968
O O6 0.737570 0.639591 0.654301
O O7 0.847959 0.731388 0.898139
O O8 0.467467 0.174969 0.144911
O O9 0.628735 0.129628 0.402292
O O10 0.514144 0.000000 0.225202
O O11 0.456707 0.500000 0.246619
O O12 0.442182 0.650242 0.119550
O O13 0.609998 0.641456 0.387094
O O14 0.750000 0.250000 0.000000
O O15 0.717441 0.500000 0.521671
#
# Coordination Sequence:
#
# PCOD9198836 Si02
#       6
#     8   8   8   8   8   8
#     4  10  20  36  59  86 115 151 199 245 283 340
#     4  11  21  37  57  89 121 154 200 239 297 354
#     4  10  21  39  61  87 117 150 197 246 296 346
#     4  10  20  36  58  86 119 157 201 244 294 355
#     4  10  21  36  54  85 117 155 197 231 294 352
#     4  10  22  38  62  91 119 152 192 252 307 347
#
# _framework density 23.136303999999999
#
# number of rings (size 3 to 8) (size 9 to 14) (size 15 to 20)
#    0.000    1.833    3.333    2.000    0.000    6.667 
#    0.000    1.667    0.000    0.000    0.000    2.333 
#    0.000    0.000    0.000    0.000    0.000    0.000 
#
# Total GULP energy -134006.137909 kJ/mol
# GULP energy per Si atom -5583.589080 kJ/mol
# Density = 2.308365 g / cm^3
# Si number density = 23.136304 Si / 1000 Ang^3
#
#
#
# Elastic Constant Matrix: (Units=GPa)
#
#
# Indices 1 2 3 4 5 6 
#
# 1 60.9446 16.9424 21.8419 0.0000 -3.9622 0.0000
# 2 16.9424 113.3313 46.7406 0.0000 4.3089 0.0000
# 3 21.8419 46.7406 147.0684 0.0000 5.1531 0.0000
# 4 0.0000 0.0000 0.0000 54.7511 0.0000 -1.4830
# 5 -3.9622 4.3089 5.1531 0.0000 30.7720 0.0000
# 6 0.0000 0.0000 0.0000 -1.4830 0.0000 12.7139
#
#
#
# Elastic Compliance Matrix: (Units=1/GPa)
#
#
# Indices 1 2 3 4 5 6 
#
# 1 0.017900 -0.001897 -0.002158 0.000000 0.002932 0.000000
# 2 -0.001897 0.010380 -0.002975 0.000000 -0.001200 0.000000
# 3 -0.002158 -0.002975 0.008108 0.000000 -0.001219 0.000000
# 4 0.000000 0.000000 0.000000 0.018322 0.000000 0.002137
# 5 0.002932 -0.001200 -0.001219 0.000000 0.033247 0.000000
# 6 0.000000 0.000000 0.000000 0.002137 0.000000 0.078903
#
#
# Mechanical properties :
#
#
# Convention : Reuss Voigt Hill
#
# Bulk Modulus (GPa) = 44.78880 54.71044 49.74962
# Shear Modulus (GPa) = 26.54439 35.36870 30.95654
#
# Velocity S-wave (km/s) = 3.39086 3.91411 3.66185
# Velocity P-wave (km/s) = 5.89333 6.64269 6.27920
#
# Compressibility (1/GPa) = 0.02232701
#
# Stress axis : x y z
#
# Youngs Moduli (GPa) = 55.86639 96.33968 123.33009
#
# Poissons Ratio (x) = 0.18279 0.26616
# Poissons Ratio (y) = 0.10600 0.36692
# Poissons Ratio (z) = 0.12057 0.28662
#
# Static dielectric constant tensor:
#      x y z
#    x 2.023620 0.000000 -0.013980 
#    y 0.000000 1.862390 0.000000 
#    z -0.013980 0.000000 1.876530 
# 
# From -- ./inp_files/166543.got.cif
#   From: 2010.05.17/outbox.cif.g08.bks.cpg/sg12_84_cif.got.tgz:166543.got - 2010.06.03 13:09:07.
