data_PCOD9198048
_publ_section_title
;
Structure prediction by ZEFSAII (Michael W. Deem and Ramdas Pophale) SiO2 
 PCOD9198048
Probable space group: C 2/M
;
_chemical_formula_sum "Si O2"
_cell_formula_units_Z 64
_cell_length_a 25.394719
_cell_length_b 7.912634
_cell_length_c 12.800799
_cell_angle_alpha 90.000000
_cell_angle_beta 80.387999
_cell_angle_gamma 90.000000
_cell_volume 2536.070613
_symmetry_space_group_name_H-M "C 2/M"
_symmetry_group_IT_number 12
_symmetry_cell_setting 'monoclinic'
loop_
_space_group_symop_operation_xyz
x,y,z
-x,y,-z
-x,-y,-z
x,-y,z
1/2+x,1/2+y,z
1/2-x,1/2+y,-z
1/2-x,1/2-y,-z
1/2+x,1/2-y,z
loop_
_atom_site_type_symbol
_atom_site_label
_atom_site_fract_x
_atom_site_fract_y
_atom_site_fract_z
Si Si1 0.685951 0.691348 0.329718
Si Si2 0.297380 0.297576 0.350464
Si Si3 0.408385 0.202513 0.388351
Si Si4 0.177652 0.300825 0.108587
Si Si5 0.945747 0.704769 0.145354
Si Si6 0.165481 0.801946 0.889770
Si Si7 0.555724 0.207120 0.177518
Si Si8 0.568800 0.194303 0.400525
O O1 0.668823 0.500000 0.353635
O O2 0.737484 0.731613 0.382108
O O3 0.702433 0.714256 0.202150
O O4 0.633385 0.803765 0.363156
O O5 0.295543 0.500000 0.350640
O O6 0.345311 0.243312 0.409908
O O7 0.315898 0.234068 0.228831
O O8 0.429783 0.258222 0.268991
O O9 0.437670 0.270168 0.482049
O O10 0.414122 0.000000 0.388619
O O11 0.180986 0.500000 0.127759
O O12 0.115601 0.241551 0.131396
O O13 0.193005 0.271247 0.983549
O O14 0.943730 0.500000 0.137286
O O15 0.898454 0.772178 0.089379
O O16 0.007518 0.757446 0.118050
O O17 0.176649 0.000000 0.887030
O O18 0.546160 0.266333 0.300239
O O19 0.555758 0.000000 0.178174
O O20 0.550390 0.000000 0.409572
#
# Coordination Sequence:
#
# PCOD9198048 Si02
#       8
#     8   8   8   8   8   8   8   8
#     4  11  22  36  55  78 103 132 170 213 256 305
#     4  10  21  37  55  74 102 137 171 211 258 307
#     4   9  18  32  53  79 105 135 173 216 256 298
#     4  10  20  36  56  77 104 137 171 209 255 304
#     4   9  17  32  53  77 105 137 174 214 255 298
#     4  10  21  36  53  76 104 135 172 212 256 305
#     4   8  16  31  52  77 104 136 173 211 252 301
#     4   9  18  34  53  76 107 139 172 210 255 305
#
# _framework density 25.235890000000001
#
# number of rings (size 3 to 8) (size 9 to 14) (size 15 to 20)
#    0.000    2.500    0.000    3.000    0.000    4.000 
#    0.000    8.125    0.000    0.000    0.000    7.000 
#    0.000    0.000    0.000    0.000    0.000    0.000 
#
# Total GULP energy -178884.513638 kJ/mol
# GULP energy per Si atom -5590.141051 kJ/mol
# Density = 2.517845 g / cm^3
# Si number density = 25.235890 Si / 1000 Ang^3
#
#
#
# Elastic Constant Matrix: (Units=GPa)
#
#
# Indices 1 2 3 4 5 6 
#
# 1 111.1924 -2.8251 8.9018 0.0000 27.9087 0.0000
# 2 -2.8251 34.4188 4.3503 0.0000 4.7391 0.0000
# 3 8.9018 4.3503 114.5784 0.0000 25.3316 0.0000
# 4 0.0000 0.0000 0.0000 14.4059 0.0000 3.6323
# 5 27.9087 4.7391 25.3316 0.0000 43.4150 0.0000
# 6 0.0000 0.0000 0.0000 3.6323 0.0000 8.5268
#
#
#
# Elastic Compliance Matrix: (Units=1/GPa)
#
#
# Indices 1 2 3 4 5 6 
#
# 1 0.010902 0.001852 0.000777 0.000000 -0.007664 0.000000
# 2 0.001852 0.029834 -0.000337 0.000000 -0.004250 0.000000
# 3 0.000777 -0.000337 0.010083 0.000000 -0.006346 0.000000
# 4 0.000000 0.000000 0.000000 0.077769 0.000000 -0.033129
# 5 -0.007664 -0.004250 -0.006346 0.000000 0.032127 0.000000
# 6 0.000000 0.000000 0.000000 -0.033129 0.000000 0.131389
#
#
# Mechanical properties :
#
#
# Convention : Reuss Voigt Hill
#
# Bulk Modulus (GPa) = 18.04975 31.22707 24.63841
# Shear Modulus (GPa) = 16.34057 29.92039 23.13048
#
# Velocity S-wave (km/s) = 2.54739 3.44703 3.03078
# Velocity P-wave (km/s) = 3.97746 5.31447 4.69382
#
# Compressibility (1/GPa) = 0.05540244
#
# Stress axis : x y z
#
# Youngs Moduli (GPa) = 91.72818 33.51914 99.17616
#
# Poissons Ratio (x) = -0.06207 -0.07706
# Poissons Ratio (y) = -0.16986 0.03341
# Poissons Ratio (z) = -0.07127 0.01129
#
# Static dielectric constant tensor:
#      x y z
#    x 2.027790 0.000000 -0.075000 
#    y 0.000000 1.909340 0.000000 
#    z -0.075000 0.000000 2.055050 
# 
# From -- ./inp_files/244063.got.cif
#   From: 2010.05.17/outbox.cif.g08.bks.cpg/sg12_123_cif.got.tgz:244063.got - 2010.06.03 13:09:07.
