data_PCOD9199295
_publ_section_title
;
Structure prediction by ZEFSAII (Michael W. Deem and Ramdas Pophale) SiO2 
 PCOD9199295
Probable space group: C 2/M
;
_chemical_formula_sum "Si O2"
_cell_formula_units_Z 48
_cell_length_a 29.221246
_cell_length_b 7.450292
_cell_length_c 11.138072
_cell_angle_alpha 90.000000
_cell_angle_beta 71.896813
_cell_angle_gamma 90.000000
_cell_volume 2304.801131
_symmetry_space_group_name_H-M "C 2/M"
_symmetry_group_IT_number 12
_symmetry_cell_setting 'monoclinic'
loop_
_space_group_symop_operation_xyz
x,y,z
-x,y,-z
-x,-y,-z
x,-y,z
1/2+x,1/2+y,z
1/2-x,1/2+y,-z
1/2-x,1/2-y,-z
1/2+x,1/2-y,z
loop_
_atom_site_type_symbol
_atom_site_label
_atom_site_fract_x
_atom_site_fract_y
_atom_site_fract_z
Si Si1 0.640390 0.500000 0.190981
Si Si2 0.423968 0.783255 0.125593
Si Si3 0.914455 0.000000 0.510425
Si Si4 0.260318 0.500000 0.767543
Si Si5 0.187017 0.000000 0.532427
Si Si6 0.474310 0.214640 0.332821
Si Si7 0.925800 0.285674 0.858536
Si Si8 0.316871 0.203624 0.273621
O O1 0.611409 0.500000 0.340765
O O2 0.696911 0.500000 0.173212
O O3 0.621085 0.674559 0.137861
O O4 0.450558 0.727478 0.224824
O O5 0.367742 0.732879 0.180358
O O6 0.427686 0.000000 0.123470
O O7 0.442173 0.729794 0.979506
O O8 0.947513 0.827771 0.455803
O O9 0.869520 0.000000 0.454242
O O10 0.284620 0.500000 0.615268
O O11 0.224283 0.670853 0.792556
O O12 0.198222 0.170277 0.606092
O O13 0.530742 0.251268 0.268683
O O14 0.467904 0.000000 0.354377
O O15 0.917285 0.500000 0.865998
O O16 0.325562 0.000000 0.313362
#
# Coordination Sequence:
#
# PCOD9199295 Si02
#       8
#     4   8   4   4   4   8   8   8
#     4  11  25  44  53  78 122 161 201 239 263 329
#     4   9  17  35  61  89 118 139 184 243 296 343
#     4  11  23  35  57  86 120 155 191 232 283 345
#     4   9  22  39  55  81 116 147 193 239 281 333
#     4  11  18  34  57  86 114 146 182 232 299 351
#     4  10  20  36  59  92 116 146 188 238 300 341
#     4  10  22  39  61  80 115 161 195 233 281 338
#     4   9  19  34  57  85 113 138 178 238 295 341
#
# _framework density 20.826091000000002
#
# number of rings (size 3 to 8) (size 9 to 14) (size 15 to 20)
#    0.500    1.667    1.667    1.500    0.000    5.333 
#    1.500    5.833    0.000    0.000    0.000    0.000 
#    0.000    0.000    0.000    0.000    0.000    0.000 
#
# Total GULP energy -133914.480051 kJ/mol
# GULP energy per Si atom -5579.770002 kJ/mol
# Density = 2.077869 g / cm^3
# Si number density = 20.826091 Si / 1000 Ang^3
#
#
#
# Elastic Constant Matrix: (Units=GPa)
#
#
# Indices 1 2 3 4 5 6 
#
# 1 96.3011 18.7823 -4.6245 0.0000 8.6440 0.0000
# 2 18.7823 63.8114 1.5450 0.0000 3.0392 0.0000
# 3 -4.6245 1.5450 41.3830 0.0000 5.7715 0.0000
# 4 0.0000 0.0000 0.0000 14.7417 0.0000 2.8108
# 5 8.6440 3.0392 5.7715 0.0000 30.5428 0.0000
# 6 0.0000 0.0000 0.0000 2.8108 0.0000 22.7398
#
#
#
# Elastic Compliance Matrix: (Units=1/GPa)
#
#
# Indices 1 2 3 4 5 6 
#
# 1 0.011398 -0.003245 0.001848 0.000000 -0.003252 0.000000
# 2 -0.003245 0.016675 -0.000906 0.000000 -0.000570 0.000000
# 3 0.001848 -0.000906 0.025127 0.000000 -0.005181 0.000000
# 4 0.000000 0.000000 0.000000 0.069472 0.000000 -0.008587
# 5 -0.003252 -0.000570 -0.005181 0.000000 0.034697 0.000000
# 6 0.000000 0.000000 0.000000 -0.008587 0.000000 0.045037
#
#
# Mechanical properties :
#
#
# Convention : Reuss Voigt Hill
#
# Bulk Modulus (GPa) = 20.57764 25.87790 23.22777
# Shear Modulus (GPa) = 22.40049 25.99104 24.19577
#
# Velocity S-wave (km/s) = 3.28319 3.53654 3.41222
# Velocity P-wave (km/s) = 4.92692 5.39712 5.16737
#
# Compressibility (1/GPa) = 0.04859645
#
# Stress axis : x y z
#
# Youngs Moduli (GPa) = 87.73785 59.96901 39.79712
#
# Poissons Ratio (x) = 0.19458 -0.07356
# Poissons Ratio (y) = 0.28468 0.03604
# Poissons Ratio (z) = -0.16217 0.05431
#
# Static dielectric constant tensor:
#      x y z
#    x 1.774030 0.000000 -0.002800 
#    y 0.000000 1.750330 0.000000 
#    z -0.002800 0.000000 1.736360 
# 
# From -- ./inp_files/179245.got.cif
#   From: 2010.05.17/outbox.cif.g08.bks.cpg/sg12_90_cif.got.tgz:179245.got - 2010.06.03 13:09:07.
