data_PCOD9199307
_publ_section_title
;
Structure prediction by ZEFSAII (Michael W. Deem and Ramdas Pophale) SiO2 
 PCOD9199307
Probable space group: C 2/M
;
_chemical_formula_sum "Si O2"
_cell_formula_units_Z 44
_cell_length_a 23.295840
_cell_length_b 13.013946
_cell_length_c 7.898145
_cell_angle_alpha 90.000000
_cell_angle_beta 104.311935
_cell_angle_gamma 90.000000
_cell_volume 2320.172291
_symmetry_space_group_name_H-M "C 2/M"
_symmetry_group_IT_number 12
_symmetry_cell_setting 'monoclinic'
loop_
_space_group_symop_operation_xyz
x,y,z
-x,y,-z
-x,-y,-z
x,-y,z
1/2+x,1/2+y,z
1/2-x,1/2+y,-z
1/2-x,1/2-y,-z
1/2+x,1/2-y,z
loop_
_atom_site_type_symbol
_atom_site_label
_atom_site_fract_x
_atom_site_fract_y
_atom_site_fract_z
Si Si1 0.648443 0.724327 0.419887
Si Si2 0.751585 0.812716 0.274300
Si Si3 0.546815 0.880442 0.380788
Si Si4 0.735021 0.388434 0.067453
Si Si5 0.398586 0.618510 0.940367
Si Si6 0.500000 0.220480 0.000000
O O1 0.694815 0.796837 0.350725
O O2 0.689884 0.662247 0.578682
O O3 0.599421 0.800247 0.457584
O O4 0.618520 0.646797 0.265398
O O5 0.740641 0.882371 0.104239
O O6 0.762420 0.700076 0.200619
O O7 0.500000 0.872913 0.500000
O O8 0.520991 0.845572 0.177767
O O9 0.565712 0.000000 0.383894
O O10 0.744121 0.500000 0.150745
O O11 0.664037 0.369585 0.008041
O O12 0.418008 0.500000 0.971610
O O13 0.447434 0.702833 0.022396
#
# Coordination Sequence:
#
# PCOD9199307 Si02
#       6
#     8   8   8   8   8   4
#     4   9  19  34  54  75 105 140 172 223 265 320
#     4   9  18  33  52  76 104 138 176 211 268 318
#     4  10  22  38  56  81 109 142 186 228 268 318
#     4   9  18  31  49  75 105 134 171 216 262 319
#     4   9  18  33  53  78 104 136 173 215 270 321
#     4  10  20  36  60  76 106 148 176 222 272 320
#
# _framework density 18.964108
#
# number of rings (size 3 to 8) (size 9 to 14) (size 15 to 20)
#    0.000    2.727    0.000    0.545    2.545    2.182 
#    0.000    3.636    0.000    2.727    0.000    0.000 
#    0.000    0.000    0.000    0.000    0.000    0.000 
#
# Total GULP energy -122572.039577 kJ/mol
# GULP energy per Si atom -5571.456344 kJ/mol
# Density = 1.892094 g / cm^3
# Si number density = 18.964108 Si / 1000 Ang^3
#
#
#
# Elastic Constant Matrix: (Units=GPa)
#
#
# Indices 1 2 3 4 5 6 
#
# 1 20.0100 -1.6835 2.9185 0.0000 -9.6816 0.0000
# 2 -1.6835 53.3607 -11.7228 0.0000 -5.9966 0.0000
# 3 2.9185 -11.7228 20.9202 0.0000 -5.9530 0.0000
# 4 0.0000 0.0000 0.0000 -4.0137 0.0000 -2.4191
# 5 -9.6816 -5.9966 -5.9530 0.0000 23.2003 0.0000
# 6 0.0000 0.0000 0.0000 -2.4191 0.0000 16.9824
#
#
#
# Elastic Compliance Matrix: (Units=1/GPa)
#
#
# Indices 1 2 3 4 5 6 
#
# 1 0.064077 0.005830 0.002552 0.000000 0.028901 0.000000
# 2 0.005830 0.023927 0.016231 0.000000 0.012782 0.000000
# 3 0.002552 0.016231 0.062608 0.000000 0.021325 0.000000
# 4 0.000000 0.000000 0.000000 -0.229449 0.000000 -0.032684
# 5 0.028901 0.012782 0.021325 0.000000 0.063939 0.000000
# 6 0.000000 0.000000 0.000000 -0.032684 0.000000 0.054229
#
#
# Mechanical properties :
#
#
# Convention : Reuss Voigt Hill
#
# Bulk Modulus (GPa) = 5.00406 8.14615 6.57510
# Shear Modulus (GPa) = 88.15878 14.21905 51.18892
#
# Velocity S-wave (km/s) = 6.82555 2.74120 5.20107
# Velocity P-wave (km/s) = 8.04748 3.78467 6.28831
#
# Compressibility (1/GPa) = 0.19983782
#
# Stress axis : x y z
#
# Youngs Moduli (GPa) = 15.60633 41.79442 15.97237
#
# Poissons Ratio (x) = -0.24367 -0.04076
# Poissons Ratio (y) = -0.09099 -0.25925
# Poissons Ratio (z) = -0.03982 -0.67838
#
# Static dielectric constant tensor:
#      x y z
#    x 1.665760 0.000000 -0.001130 
#    y 0.000000 1.637920 0.000000 
#    z -0.001130 0.000000 1.662500 
# 
# From -- ./inp_files/94589.got.cif
#   From: 2010.05.17/outbox.cif.g08.bks.cpg/sg12_48_cif.got.tgz:94589.got - 2010.06.03 13:09:07.
