data_PCOD9199451
_publ_section_title
;
Structure prediction by ZEFSAII (Michael W. Deem and Ramdas Pophale) SiO2 
 PCOD9199451
Probable space group: C 2/M
;
_chemical_formula_sum "Si O2"
_cell_formula_units_Z 48
_cell_length_a 11.807021
_cell_length_b 19.050017
_cell_length_c 11.516508
_cell_angle_alpha 90.000000
_cell_angle_beta 64.434211
_cell_angle_gamma 90.000000
_cell_volume 2336.719375
_symmetry_space_group_name_H-M "C 2/M"
_symmetry_group_IT_number 12
_symmetry_cell_setting 'monoclinic'
loop_
_space_group_symop_operation_xyz
x,y,z
-x,y,-z
-x,-y,-z
x,-y,z
1/2+x,1/2+y,z
1/2-x,1/2+y,-z
1/2-x,1/2-y,-z
1/2+x,1/2-y,z
loop_
_atom_site_type_symbol
_atom_site_label
_atom_site_fract_x
_atom_site_fract_y
_atom_site_fract_z
Si Si1 0.625955 0.577703 0.368473
Si Si2 0.357791 0.282412 0.037355
Si Si3 0.284457 0.829486 0.454112
Si Si4 0.280713 0.376613 0.261678
Si Si5 0.940186 0.923104 0.871891
Si Si6 0.989186 0.423021 0.644266
O O1 0.500000 0.578943 0.500000
O O2 0.683585 0.500000 0.361887
O O3 0.707808 0.640632 0.380399
O O4 0.596297 0.584741 0.246581
O O5 0.300965 0.301802 0.188657
O O6 0.500000 0.250869 0.000000
O O7 0.250000 0.250000 0.000000
O O8 0.386542 0.357735 0.965319
O O9 0.250000 0.750000 0.500000
O O10 0.242850 0.869530 0.590420
O O11 0.426176 0.855117 0.364688
O O12 0.409251 0.418280 0.189232
O O13 0.156138 0.410452 0.263315
O O14 0.898121 0.000000 0.930749
O O15 0.029875 0.500000 0.671656
O O16 0.000000 0.427155 0.500000
#
# Coordination Sequence:
#
# PCOD9199451 Si02
#       6
#     8   8   8   8   8   8
#     4  10  20  36  60  87 121 159 196 248 308 364
#     4  10  24  43  65  90 124 166 209 259 315 372
#     4  11  23  35  56  88 123 160 199 245 302 377
#     4  10  21  38  59  89 116 157 203 254 307 356
#     4  10  21  39  64  92 120 158 209 257 304 367
#     4   9  19  35  55  81 116 150 189 243 300 353
#
# _framework density 20.541620000000002
#
# number of rings (size 3 to 8) (size 9 to 14) (size 15 to 20)
#    0.000    2.000    1.667    1.000    2.333    9.667 
#    0.000    0.000    0.000    0.500    0.000    0.000 
#    0.000    0.000    0.000    0.000    0.000    0.000 
#
# Total GULP energy -133729.495232 kJ/mol
# GULP energy per Si atom -5572.062301 kJ/mol
# Density = 2.049487 g / cm^3
# Si number density = 20.541620 Si / 1000 Ang^3
#
#
#
# Elastic Constant Matrix: (Units=GPa)
#
#
# Indices 1 2 3 4 5 6 
#
# 1 145.3212 70.4676 23.9508 0.0000 -5.4013 0.0000
# 2 70.4676 116.8171 3.7741 0.0000 -8.2698 0.0000
# 3 23.9508 3.7741 47.7605 0.0000 3.3500 0.0000
# 4 0.0000 0.0000 0.0000 15.9653 0.0000 3.0911
# 5 -5.4013 -8.2698 3.3500 0.0000 34.0488 0.0000
# 6 0.0000 0.0000 0.0000 3.0911 0.0000 28.0143
#
#
#
# Elastic Compliance Matrix: (Units=1/GPa)
#
#
# Indices 1 2 3 4 5 6 
#
# 1 0.010773 -0.006291 -0.004952 0.000000 0.000668 0.000000
# 2 -0.006291 0.012418 0.002046 0.000000 0.001817 0.000000
# 3 -0.004952 0.002046 0.023442 0.000000 -0.002595 0.000000
# 4 0.000000 0.000000 0.000000 0.064003 0.000000 -0.007062
# 5 0.000668 0.001817 -0.002595 0.000000 0.030172 0.000000
# 6 0.000000 0.000000 0.000000 -0.007062 0.000000 0.036475
#
#
# Mechanical properties :
#
#
# Convention : Reuss Voigt Hill
#
# Bulk Modulus (GPa) = 35.41318 56.25376 45.83347
# Shear Modulus (GPa) = 24.37947 29.71943 27.04945
#
# Velocity S-wave (km/s) = 3.44878 3.80780 3.63273
# Velocity P-wave (km/s) = 5.75638 6.83938 6.32112
#
# Compressibility (1/GPa) = 0.02823807
#
# Stress axis : x y z
#
# Youngs Moduli (GPa) = 92.82423 80.52814 42.65937
#
# Poissons Ratio (x) = 0.50663 0.21126
# Poissons Ratio (y) = 0.58399 -0.08729
# Poissons Ratio (z) = 0.45968 -0.16478
#
# Static dielectric constant tensor:
#      x y z
#    x 1.778720 0.000000 -0.011230 
#    y 0.000000 1.769470 0.000000 
#    z -0.011230 0.000000 1.733520 
# 
# From -- ./inp_files/132998.got.cif
#   From: 2010.05.17/outbox.cif.g08.bks.cpg/sg12_67_cif.got.tgz:132998.got - 2010.06.03 13:09:07.
