data_PCOD9199547
_publ_section_title
;
Structure prediction by ZEFSAII (Michael W. Deem and Ramdas Pophale) SiO2 
 PCOD9199547
Probable space group: C 2/M
;
_chemical_formula_sum "Si O2"
_cell_formula_units_Z 56
_cell_length_a 28.262922
_cell_length_b 14.287882
_cell_length_c 8.257908
_cell_angle_alpha 90.000000
_cell_angle_beta 126.811715
_cell_angle_gamma 90.000000
_cell_volume 2669.779259
_symmetry_space_group_name_H-M "C 2/M"
_symmetry_group_IT_number 12
_symmetry_cell_setting 'monoclinic'
loop_
_space_group_symop_operation_xyz
x,y,z
-x,y,-z
-x,-y,-z
x,-y,z
1/2+x,1/2+y,z
1/2-x,1/2+y,-z
1/2-x,1/2-y,-z
1/2+x,1/2-y,z
loop_
_atom_site_type_symbol
_atom_site_label
_atom_site_fract_x
_atom_site_fract_y
_atom_site_fract_z
Si Si1 0.855339 0.895139 0.050479
Si Si2 0.192208 0.106858 0.682713
Si Si3 0.434122 0.895270 0.287304
Si Si4 0.241409 0.227017 0.293566
Si Si5 0.356317 0.110197 0.447225
Si Si6 0.084560 0.784382 0.299558
Si Si7 0.456934 0.709571 0.149777
O O1 0.828679 0.890825 0.174934
O O2 0.923382 0.865493 0.190231
O O3 0.847718 0.000000 0.971218
O O4 0.820392 0.820738 0.870396
O O5 0.247747 0.175104 0.774772
O O6 0.139214 0.152514 0.469543
O O7 0.203849 0.000000 0.659068
O O8 0.500000 0.895309 0.500000
O O9 0.385948 0.878475 0.330369
O O10 0.435767 0.811704 0.163801
O O11 0.423922 0.000000 0.199849
O O12 0.250000 0.250000 0.500000
O O13 0.291233 0.154598 0.330466
O O14 0.395339 0.176304 0.643349
O O15 0.356592 0.000000 0.485668
O O16 0.027518 0.796918 0.296785
O O17 0.063924 0.806435 0.076916
#
# Coordination Sequence:
#
# PCOD9199547 Si02
#       7
#     8   8   8   8   8   8   8
#     4  11  24  41  63  91 120 159 205 250 301 359
#     4  10  23  42  64  87 117 155 201 254 304 361
#     4  10  20  36  60  89 121 160 202 248 304 362
#     4  11  23  41  64  90 123 161 199 251 307 365
#     4  10  20  37  62  88 120 161 203 251 306 363
#     4  10  22  37  57  89 123 162 202 248 309 362
#     4  11  22  37  59  86 125 164 201 251 304 362
#
# _framework density 20.975517
#
# number of rings (size 3 to 8) (size 9 to 14) (size 15 to 20)
#    0.000    1.571    1.429    4.286    0.000    4.000 
#    0.000    6.429    0.000    0.000    0.000    0.000 
#    0.000    0.000    0.000    0.000    0.000    0.000 
#
# Total GULP energy -156496.255085 kJ/mol
# GULP energy per Si atom -5589.151967 kJ/mol
# Density = 2.092778 g / cm^3
# Si number density = 20.975517 Si / 1000 Ang^3
#
#
#
# Elastic Constant Matrix: (Units=GPa)
#
#
# Indices 1 2 3 4 5 6 
#
# 1 100.2323 35.3684 -8.0226 0.0000 10.1912 0.0000
# 2 35.3684 141.1380 18.6413 0.0000 2.2250 0.0000
# 3 -8.0226 18.6413 37.7637 0.0000 4.1663 0.0000
# 4 0.0000 0.0000 0.0000 16.5132 0.0000 9.7239
# 5 10.1912 2.2250 4.1663 0.0000 27.3767 0.0000
# 6 0.0000 0.0000 0.0000 9.7239 0.0000 -15.8998
#
#
#
# Elastic Compliance Matrix: (Units=1/GPa)
#
#
# Indices 1 2 3 4 5 6 
#
# 1 0.012152 -0.003616 0.004916 0.000000 -0.004978 0.000000
# 2 -0.003616 0.008656 -0.005199 0.000000 0.001434 0.000000
# 3 0.004916 -0.005199 0.030763 0.000000 -0.006089 0.000000
# 4 0.000000 0.000000 0.000000 0.044523 0.000000 0.027229
# 5 -0.004978 0.001434 -0.006089 0.000000 0.039191 0.000000
# 6 0.000000 0.000000 0.000000 0.027229 0.000000 -0.046241
#
#
# Mechanical properties :
#
#
# Convention : Reuss Voigt Hill
#
# Bulk Modulus (GPa) = 22.84543 41.23426 32.03985
# Shear Modulus (GPa) = 44.86986 21.14113 33.00550
#
# Velocity S-wave (km/s) = 4.63012 3.17818 3.97107
# Velocity P-wave (km/s) = 6.28483 5.75923 6.02776
#
# Compressibility (1/GPa) = 0.04377242
#
# Stress axis : x y z
#
# Youngs Moduli (GPa) = 82.28794 115.53304 32.50660
#
# Poissons Ratio (x) = 0.41778 -0.15980
# Poissons Ratio (y) = 0.29757 0.16900
# Poissons Ratio (z) = -0.40452 0.60066
#
# Static dielectric constant tensor:
#      x y z
#    x 1.768570 0.000000 0.003870 
#    y 0.000000 1.739640 0.000000 
#    z 0.003870 0.000000 1.734940 
# 
# From -- ./inp_files/104722.got.cif
#   From: 2010.05.17/outbox.cif.g08.bks.cpg/sg12_53_cif.got.tgz:104722.got - 2010.06.03 13:09:07.
