data_PCOD9199100
_publ_section_title
;
Structure prediction by ZEFSAII (Michael W. Deem and Ramdas Pophale) SiO2 
 PCOD9199100
Probable space group: C 2/M
;
_chemical_formula_sum "Si O2"
_cell_formula_units_Z 48
_cell_length_a 14.510877
_cell_length_b 8.861849
_cell_length_c 16.439435
_cell_angle_alpha 90.000000
_cell_angle_beta 78.621014
_cell_angle_gamma 90.000000
_cell_volume 2072.445950
_symmetry_space_group_name_H-M "C 2/M"
_symmetry_group_IT_number 12
_symmetry_cell_setting 'monoclinic'
loop_
_space_group_symop_operation_xyz
x,y,z
-x,y,-z
-x,-y,-z
x,-y,z
1/2+x,1/2+y,z
1/2-x,1/2+y,-z
1/2-x,1/2-y,-z
1/2+x,1/2-y,z
loop_
_atom_site_type_symbol
_atom_site_label
_atom_site_fract_x
_atom_site_fract_y
_atom_site_fract_z
Si Si1 0.610239 0.673573 0.067634
Si Si2 0.279816 0.325224 0.122905
Si Si3 0.881434 0.175966 0.450001
Si Si4 0.553324 0.324755 0.309058
Si Si5 0.705575 0.824349 0.378957
Si Si6 0.446339 0.176735 0.178720
O O1 0.581441 0.500000 0.085286
O O2 0.688782 0.724880 0.119373
O O3 0.520396 0.778560 0.095126
O O4 0.659499 0.683131 0.971450
O O5 0.253173 0.500000 0.140718
O O6 0.350075 0.266265 0.179481
O O7 0.813026 0.206490 0.384904
O O8 0.848984 0.283300 0.527815
O O9 0.986892 0.190310 0.400369
O O10 0.865239 0.000000 0.477145
O O11 0.553313 0.500000 0.285891
O O12 0.655897 0.269567 0.317181
O O13 0.502126 0.228924 0.249012
O O14 0.695430 0.000000 0.361760
O O15 0.427473 0.000000 0.182594
#
# Coordination Sequence:
#
# PCOD9199100 Si02
#       6
#     8   8   8   8   8   8
#     4  10  21  39  63  89 116 150 193 238 287 343
#     4  10  21  39  63  89 117 150 191 239 288 341
#     4   9  20  38  59  82 110 147 186 227 280 339
#     4  11  23  39  57  79 113 153 191 232 284 344
#     4  10  20  36  59  86 113 142 184 235 283 336
#     4  12  25  39  57  84 119 156 195 239 290 346
#
# _framework density 23.161037
#
# number of rings (size 3 to 8) (size 9 to 14) (size 15 to 20)
#    0.000    1.667    0.000    4.500    0.000    9.333 
#    0.000    5.000    0.000    0.000    0.000    0.000 
#    0.000    0.000    0.000    0.000    0.000    0.000 
#
# Total GULP energy -134377.225803 kJ/mol
# GULP energy per Si atom -5599.051075 kJ/mol
# Density = 2.310832 g / cm^3
# Si number density = 23.161037 Si / 1000 Ang^3
#
#
#
# Elastic Constant Matrix: (Units=GPa)
#
#
# Indices 1 2 3 4 5 6 
#
# 1 90.1897 8.8006 -0.9199 0.0000 19.5880 0.0000
# 2 8.8006 69.9412 3.1285 0.0000 12.8866 0.0000
# 3 -0.9199 3.1285 61.7832 0.0000 9.6194 0.0000
# 4 0.0000 0.0000 0.0000 29.9702 0.0000 7.7754
# 5 19.5880 12.8866 9.6194 0.0000 39.0585 0.0000
# 6 0.0000 0.0000 0.0000 7.7754 0.0000 32.0647
#
#
#
# Elastic Compliance Matrix: (Units=1/GPa)
#
#
# Indices 1 2 3 4 5 6 
#
# 1 0.012543 -0.000446 0.001212 0.000000 -0.006442 0.000000
# 2 -0.000446 0.015239 -0.000031 0.000000 -0.004797 0.000000
# 3 0.001212 -0.000031 0.016948 0.000000 -0.004772 0.000000
# 4 0.000000 0.000000 0.000000 0.035606 0.000000 -0.008634
# 5 -0.006442 -0.004797 -0.004772 0.000000 0.031591 0.000000
# 6 0.000000 0.000000 0.000000 -0.008634 0.000000 0.033281
#
#
# Mechanical properties :
#
#
# Convention : Reuss Voigt Hill
#
# Bulk Modulus (GPa) = 21.64489 27.10360 24.37424
# Shear Modulus (GPa) = 31.41936 34.27901 32.84919
#
# Velocity S-wave (km/s) = 3.68715 3.85129 3.77011
# Velocity P-wave (km/s) = 5.24332 5.61286 5.43124
#
# Compressibility (1/GPa) = 0.04620029
#
# Stress axis : x y z
#
# Youngs Moduli (GPa) = 79.72798 65.62121 59.00332
#
# Poissons Ratio (x) = 0.02924 -0.07153
# Poissons Ratio (y) = 0.03552 0.00186
# Poissons Ratio (z) = -0.09665 0.00206
#
# Static dielectric constant tensor:
#      x y z
#    x 1.843530 0.000000 -0.012440 
#    y 0.000000 1.770200 0.000000 
#    z -0.012440 0.000000 1.935210 
# 
# From -- ./inp_files/267694.got.cif
#   From: 2010.05.17/outbox.cif.g08.bks.cpg/sg12_134_cif.got.tgz:267694.got - 2010.06.03 13:09:07.
