data_PCOD9199658
_publ_section_title
;
Structure prediction by ZEFSAII (Michael W. Deem and Ramdas Pophale) SiO2 
 PCOD9199658
Probable space group: C 2/M
;
_chemical_formula_sum "Si O2"
_cell_formula_units_Z 48
_cell_length_a 9.079635
_cell_length_b 16.379242
_cell_length_c 20.958786
_cell_angle_alpha 90.000000
_cell_angle_beta 51.110670
_cell_angle_gamma 90.000000
_cell_volume 2426.100941
_symmetry_space_group_name_H-M "C 2/M"
_symmetry_group_IT_number 12
_symmetry_cell_setting 'monoclinic'
loop_
_space_group_symop_operation_xyz
x,y,z
-x,y,-z
-x,-y,-z
x,-y,z
1/2+x,1/2+y,z
1/2-x,1/2+y,-z
1/2-x,1/2-y,-z
1/2+x,1/2-y,z
loop_
_atom_site_type_symbol
_atom_site_label
_atom_site_fract_x
_atom_site_fract_y
_atom_site_fract_z
Si Si1 0.205519 0.709768 0.443078
Si Si2 0.869555 0.186956 0.663525
Si Si3 0.412237 0.594218 0.953112
Si Si4 0.510110 0.144016 0.066606
Si Si5 0.285361 0.294552 0.177629
Si Si6 0.465836 0.912236 0.214638
O O1 0.250000 0.750000 0.500000
O O2 0.164549 0.774301 0.397293
O O3 0.412511 0.670084 0.376000
O O4 0.000000 0.663939 0.500000
O O5 0.781553 0.251259 0.738975
O O6 0.739820 0.107303 0.702462
O O7 0.364967 0.500000 0.949459
O O8 0.555057 0.635128 0.863944
O O9 0.500000 0.590840 0.000000
O O10 0.234464 0.653297 0.011031
O O11 0.381415 0.224435 0.107980
O O12 0.452298 0.090040 0.142182
O O13 0.500000 0.105740 0.000000
O O14 0.104181 0.338918 0.196804
O O15 0.541403 0.000000 0.215063
#
# Coordination Sequence:
#
# PCOD9199658 Si02
#       6
#     8   8   8   8   8   8
#     4   9  18  35  63  96 122 148 188 235 282 346
#     4  10  20  36  60  96 118 153 195 243 284 351
#     4  11  22  37  55  78 115 160 206 250 304 356
#     4  11  25  37  57  82 115 156 211 264 300 337
#     4  11  22  35  59  83 114 154 207 245 296 345
#     4  11  23  39  59  85 122 162 199 243 301 361
#
# _framework density 19.784832000000002
#
# number of rings (size 3 to 8) (size 9 to 14) (size 15 to 20)
#    0.000    1.500    3.333    2.000    4.667    1.333 
#    0.000    0.000    0.000    6.000    0.000    0.000 
#    0.000    0.000    0.000    0.000    0.000    0.000 
#
# Total GULP energy -133628.660061 kJ/mol
# GULP energy per Si atom -5567.860836 kJ/mol
# Density = 1.973980 g / cm^3
# Si number density = 19.784832 Si / 1000 Ang^3
#
#
#
# Elastic Constant Matrix: (Units=GPa)
#
#
# Indices 1 2 3 4 5 6 
#
# 1 103.7769 27.1337 35.7446 0.0000 -19.0434 0.0000
# 2 27.1337 85.6417 19.0831 0.0000 -8.8258 0.0000
# 3 35.7446 19.0831 89.9189 0.0001 -10.7888 0.0001
# 4 0.0000 0.0000 0.0001 2.1061 0.0000 -4.7937
# 5 -19.0434 -8.8258 -10.7888 0.0000 53.5572 -0.0001
# 6 0.0000 0.0000 0.0001 -4.7937 -0.0001 26.6176
#
#
#
# Elastic Compliance Matrix: (Units=1/GPa)
#
#
# Indices 1 2 3 4 5 6 
#
# 1 0.012267 -0.002688 -0.003931 0.000001 0.003127 0.000000
# 2 -0.002688 0.012969 -0.001580 0.000000 0.000863 0.000000
# 3 -0.003931 -0.001580 0.013138 -0.000001 0.000988 0.000000
# 4 0.000001 0.000000 -0.000001 0.804653 0.000000 0.144915
# 5 0.003127 0.000863 0.000988 0.000000 0.020125 0.000000
# 6 0.000000 0.000000 0.000000 0.144915 0.000000 0.063668
#
#
# Mechanical properties :
#
#
# Convention : Reuss Voigt Hill
#
# Bulk Modulus (GPa) = 45.50550 49.25113 47.37832
# Shear Modulus (GPa) = 5.26016 29.61459 17.43737
#
# Velocity S-wave (km/s) = 1.63232 3.87309 2.97198
# Velocity P-wave (km/s) = 5.15778 6.70437 5.98127
#
# Compressibility (1/GPa) = 0.02197536
#
# Stress axis : x y z
#
# Youngs Moduli (GPa) = 81.52251 77.10488 76.11765
#
# Poissons Ratio (x) = 0.20728 0.29918
# Poissons Ratio (y) = 0.21916 0.12028
# Poissons Ratio (z) = 0.32042 0.12184
#
# Static dielectric constant tensor:
#      x y z
#    x 1.874610 0.000000 0.012650 
#    y 0.000000 1.706120 0.000000 
#    z 0.012650 0.000000 1.790800 
# 
# From -- ./inp_files/300629.got.cif
#   From: 2010.05.17/outbox.cif.g08.bks.cpg/sg12_151_cif.got.tgz:300629.got - 2010.06.03 13:09:07.
