data_PCOD9199441
_publ_section_title
;
Structure prediction by ZEFSAII (Michael W. Deem and Ramdas Pophale) SiO2 
 PCOD9199441
Probable space group: C 2/M
;
_chemical_formula_sum "Si O2"
_cell_formula_units_Z 56
_cell_length_a 19.326176
_cell_length_b 8.692191
_cell_length_c 18.635106
_cell_angle_alpha 90.000000
_cell_angle_beta 63.434599
_cell_angle_gamma 90.000000
_cell_volume 2799.952903
_symmetry_space_group_name_H-M "C 2/M"
_symmetry_group_IT_number 12
_symmetry_cell_setting 'monoclinic'
loop_
_space_group_symop_operation_xyz
x,y,z
-x,y,-z
-x,-y,-z
x,-y,z
1/2+x,1/2+y,z
1/2-x,1/2+y,-z
1/2-x,1/2-y,-z
1/2+x,1/2-y,z
loop_
_atom_site_type_symbol
_atom_site_label
_atom_site_fract_x
_atom_site_fract_y
_atom_site_fract_z
Si Si1 0.856751 0.184916 0.802435
Si Si2 0.632703 0.183002 0.741222
Si Si3 0.336128 0.315052 0.969388
Si Si4 0.760963 0.682258 0.574979
Si Si5 0.421558 0.318560 0.493076
Si Si6 0.183616 0.815443 0.865321
Si Si7 0.010758 0.682973 0.680290
O O1 0.770629 0.245656 0.825441
O O2 0.923472 0.256072 0.722696
O O3 0.857129 0.000000 0.796082
O O4 0.876413 0.230833 0.876294
O O5 0.701300 0.243883 0.658274
O O6 0.639714 0.259151 0.815461
O O7 0.553597 0.216213 0.735505
O O8 0.640571 0.000000 0.744958
O O9 0.333922 0.500000 0.969530
O O10 0.358116 0.268996 0.040178
O O11 0.250000 0.250000 0.000000
O O12 0.750015 0.500000 0.577926
O O13 0.750000 0.750000 0.500000
O O14 0.848428 0.725424 0.555773
O O15 0.500000 0.289136 0.500000
O O16 0.403975 0.500000 0.504044
O O17 0.440074 0.266550 0.403783
O O18 0.190401 0.000000 0.860982
O O19 0.012801 0.500000 0.667018
#
# Coordination Sequence:
#
# PCOD9199441 Si02
#       7
#     8   8   8   8   8   8   8
#     4  10  20  36  60  87 119 155 193 241 294 348
#     4  11  24  41  60  85 118 155 198 243 291 345
#     4   8  16  32  55  84 115 150 191 237 289 344
#     4  12  24  41  65  89 117 155 197 240 289 346
#     4  11  25  43  64  89 119 153 194 242 293 347
#     4  10  20  36  60  89 118 151 196 243 290 348
#     4  11  24  41  60  84 118 156 196 242 293 347
#
# _framework density 20.000336000000001
#
# number of rings (size 3 to 8) (size 9 to 14) (size 15 to 20)
#    0.000    1.571    1.429    3.429    2.000    4.000 
#    0.000    0.714    0.000    4.286    0.000    0.000 
#    0.000    0.000    0.000    0.000    0.000    0.000 
#
# Total GULP energy -156390.186898 kJ/mol
# GULP energy per Si atom -5585.363818 kJ/mol
# Density = 1.995481 g / cm^3
# Si number density = 20.000336 Si / 1000 Ang^3
#
#
#
# Elastic Constant Matrix: (Units=GPa)
#
#
# Indices 1 2 3 4 5 6 
#
# 1 45.0943 21.1609 -4.2582 0.0000 11.1349 0.0000
# 2 21.1609 25.9394 -4.4515 0.0000 8.4884 0.0000
# 3 -4.2582 -4.4515 25.2052 0.0000 11.3574 0.0000
# 4 0.0000 0.0000 0.0000 22.7975 0.0000 7.0214
# 5 11.1349 8.4884 11.3574 0.0000 39.6308 0.0000
# 6 0.0000 0.0000 0.0000 7.0214 0.0000 28.0984
#
#
#
# Elastic Compliance Matrix: (Units=1/GPa)
#
#
# Indices 1 2 3 4 5 6 
#
# 1 0.036857 -0.027589 0.003855 0.000000 -0.005551 0.000000
# 2 -0.027589 0.066184 0.011394 0.000000 -0.009690 0.000000
# 3 0.003855 0.011394 0.050439 0.000000 -0.017978 0.000000
# 4 0.000000 0.000000 0.000000 0.047522 0.000000 -0.011875
# 5 -0.005551 -0.009690 -0.017978 0.000000 0.034020 0.000000
# 6 0.000000 0.000000 0.000000 -0.011875 0.000000 0.038557
#
#
# Mechanical properties :
#
#
# Convention : Reuss Voigt Hill
#
# Bulk Modulus (GPa) = 7.76393 13.46016 10.61205
# Shear Modulus (GPa) = 14.65452 23.69120 19.17286
#
# Velocity S-wave (km/s) = 2.70981 3.44545 3.09953
# Velocity P-wave (km/s) = 3.69879 4.75108 4.25757
#
# Compressibility (1/GPa) = 0.12880072
#
# Stress axis : x y z
#
# Youngs Moduli (GPa) = 27.13191 15.10934 19.82597
#
# Poissons Ratio (x) = 0.41685 -0.07644
# Poissons Ratio (y) = 0.74854 -0.22589
# Poissons Ratio (z) = -0.10461 -0.17215
#
# Static dielectric constant tensor:
#      x y z
#    x 1.705100 0.000000 0.041140 
#    y 0.000000 1.673790 0.000000 
#    z 0.041140 0.000000 1.716290 
# 
# From -- ./inp_files/275704.got.cif
#   From: 2010.05.17/outbox.cif.g08.bks.cpg/sg12_138_cif.got.tgz:275704.got - 2010.06.03 13:09:07.
