data_PCOD9199973
_publ_section_title
;
Structure prediction by ZEFSAII (Michael W. Deem and Ramdas Pophale) SiO2 
 PCOD9199973
Probable space group: C 2/M
;
_chemical_formula_sum "Si O2"
_cell_formula_units_Z 56
_cell_length_a 7.584004
_cell_length_b 32.274149
_cell_length_c 11.444755
_cell_angle_alpha 90.000000
_cell_angle_beta 114.110873
_cell_angle_gamma 90.000000
_cell_volume 2556.906631
_symmetry_space_group_name_H-M "C 2/M"
_symmetry_group_IT_number 12
_symmetry_cell_setting 'monoclinic'
loop_
_space_group_symop_operation_xyz
x,y,z
-x,y,-z
-x,-y,-z
x,-y,z
1/2+x,1/2+y,z
1/2-x,1/2+y,-z
1/2-x,1/2-y,-z
1/2+x,1/2-y,z
loop_
_atom_site_type_symbol
_atom_site_label
_atom_site_fract_x
_atom_site_fract_y
_atom_site_fract_z
Si Si1 0.246343 0.632080 0.833357
Si Si2 0.258954 0.789889 0.323378
Si Si3 0.713117 0.881075 0.317434
Si Si4 0.785687 0.546073 0.499773
Si Si5 0.922722 0.045420 0.797139
Si Si6 0.215305 0.705456 0.401483
Si Si7 0.728721 0.092560 0.065302
O O1 0.317689 0.673143 0.782169
O O2 0.325425 0.587872 0.812173
O O3 0.017056 0.627206 0.752089
O O4 0.276310 0.627517 0.981154
O O5 0.232752 0.740189 0.304381
O O6 0.196193 0.790556 0.443507
O O7 0.488078 0.796321 0.370714
O O8 0.747550 0.917861 0.417179
O O9 0.795014 0.837674 0.378836
O O10 0.780514 0.891339 0.207001
O O11 0.786251 0.500000 0.554080
O O12 0.625412 0.546211 0.354423
O O13 0.000000 0.551933 0.500000
O O14 0.139075 0.051740 0.904891
O O15 0.848312 0.000000 0.815000
O O16 0.500000 0.083856 0.000000
#
# Coordination Sequence:
#
# PCOD9199973 Si02
#       7
#     8   8   8   8   8   8   8
#     4  10  20  38  61  82 116 162 206 248 296 357
#     4   9  18  33  55  86 119 152 192 249 305 362
#     4  10  20  37  61  86 120 159 198 248 311 365
#     4  10  20  36  62  93 122 153 197 253 313 371
#     4  11  23  39  62  90 117 156 210 257 304 367
#     4   9  18  32  56  87 118 152 197 248 305 363
#     4  10  24  41  56  82 119 163 207 251 299 357
#
# _framework density 21.901463
#
# number of rings (size 3 to 8) (size 9 to 14) (size 15 to 20)
#    0.000    2.143    1.429    1.286    2.000    3.714 
#    0.000    7.857    0.000    3.429    0.000    0.000 
#    0.000    0.000    0.000    0.000    0.000    0.000 
#
# Total GULP energy -155905.960657 kJ/mol
# GULP energy per Si atom -5568.070023 kJ/mol
# Density = 2.185161 g / cm^3
# Si number density = 21.901463 Si / 1000 Ang^3
#
#
#
# Elastic Constant Matrix: (Units=GPa)
#
#
# Indices 1 2 3 4 5 6 
#
# 1 49.0713 30.0918 19.7948 0.0000 4.6303 0.0000
# 2 30.0918 189.8079 74.4083 0.0000 -27.0616 0.0000
# 3 19.7948 74.4083 100.3969 0.0000 -8.8291 0.0000
# 4 0.0000 0.0000 0.0000 34.8866 0.0000 -0.6351
# 5 4.6303 -27.0616 -8.8291 0.0000 27.8511 0.0000
# 6 0.0000 0.0000 0.0000 -0.6351 0.0000 23.8976
#
#
#
# Elastic Compliance Matrix: (Units=1/GPa)
#
#
# Indices 1 2 3 4 5 6 
#
# 1 0.024859 -0.004226 -0.002565 0.000000 -0.009052 0.000000
# 2 -0.004226 0.009114 -0.005227 0.000000 0.007901 0.000000
# 3 -0.002565 -0.005227 0.014330 0.000000 -0.000109 0.000000
# 4 0.000000 0.000000 0.000000 0.028678 0.000000 0.000762
# 5 -0.009052 0.007901 -0.000109 0.000000 0.045053 0.000000
# 6 0.000000 0.000000 0.000000 0.000762 0.000000 0.041866
#
#
# Mechanical properties :
#
#
# Convention : Reuss Voigt Hill
#
# Bulk Modulus (GPa) = 41.20773 65.31843 53.26308
# Shear Modulus (GPa) = 25.50696 31.65914 28.58305
#
# Velocity S-wave (km/s) = 3.41636 3.80613 3.61650
# Velocity P-wave (km/s) = 5.86668 7.01456 6.46614
#
# Compressibility (1/GPa) = 0.02426729
#
# Stress axis : x y z
#
# Youngs Moduli (GPa) = 40.22679 109.72220 69.78217
#
# Poissons Ratio (x) = 0.46370 0.17901
# Poissons Ratio (y) = 0.17000 0.36472
# Poissons Ratio (z) = 0.10319 0.57348
#
# Static dielectric constant tensor:
#      x y z
#    x 1.876320 0.000000 0.006710 
#    y 0.000000 1.872010 0.000000 
#    z 0.006710 0.000000 1.832360 
# 
# From -- ./inp_files/124369.got.cif
#   From: 2010.05.17/outbox.cif.g08.bks.cpg/sg12_63_cif.got.tgz:124369.got - 2010.06.03 13:09:07.
