data_PCOD9199585
_publ_section_title
;
Structure prediction by ZEFSAII (Michael W. Deem and Ramdas Pophale) SiO2 
 PCOD9199585
Probable space group: C 2/M
;
_chemical_formula_sum "Si O2"
_cell_formula_units_Z 40
_cell_length_a 21.847796
_cell_length_b 7.626272
_cell_length_c 18.705368
_cell_angle_alpha 90.000000
_cell_angle_beta 148.888995
_cell_angle_gamma 90.000000
_cell_volume 1610.359278
_symmetry_space_group_name_H-M "C 2/M"
_symmetry_group_IT_number 12
_symmetry_cell_setting 'monoclinic'
loop_
_space_group_symop_operation_xyz
x,y,z
-x,y,-z
-x,-y,-z
x,-y,z
1/2+x,1/2+y,z
1/2-x,1/2+y,-z
1/2-x,1/2-y,-z
1/2+x,1/2-y,z
loop_
_atom_site_type_symbol
_atom_site_label
_atom_site_fract_x
_atom_site_fract_y
_atom_site_fract_z
Si Si1 0.877231 0.204596 0.849361
Si Si2 0.250000 0.709558 0.084644
Si Si3 0.010044 0.209302 0.343621
Si Si4 0.010043 0.709302 0.176467
Si Si5 0.622769 0.795404 0.594900
O O1 0.750000 0.282499 0.743692
O O2 0.892916 0.214913 0.779487
O O3 0.875872 0.000000 0.868388
O O4 0.000000 0.286622 0.000000
O O5 0.250000 0.500000 0.094088
O O6 0.378863 0.776564 0.237090
O O7 0.250000 0.750000 0.000000
O O8 0.121137 0.776565 0.979365
O O9 0.107084 0.285089 0.493655
O O10 0.025876 0.249999 0.275876
O O11 0.010953 0.000000 0.351685
O O12 0.010952 0.500000 0.170222
O O13 0.500000 0.713378 0.500000
O O14 0.624128 0.000000 0.616645
#
# Coordination Sequence:
#
# PCOD9199585 Si02
#       5
#     8   8   8   8   8
#     4  10  23  42  62  87 119 157 199 245 298 355
#     4   8  16  30  50  82 118 150 187 232 283 340
#     4  10  20  36  60  90 122 157 198 245 297 351
#     4  10  20  36  60  90 122 157 198 245 297 351
#     4  10  23  42  62  87 119 157 199 245 298 355
#
# _framework density 24.839178
#
# number of rings (size 3 to 8) (size 9 to 14) (size 15 to 20)
#    0.000    2.400    0.000    1.200    2.800    4.000 
#    0.000    0.000    0.000    0.000    0.000    0.000 
#    0.000    0.000    0.000    0.000    0.000    0.000 
#
# Total GULP energy -111754.616369 kJ/mol
# GULP energy per Si atom -5587.730818 kJ/mol
# Density = 2.478264 g / cm^3
# Si number density = 24.839178 Si / 1000 Ang^3
#
#
#
# Elastic Constant Matrix: (Units=GPa)
#
#
# Indices 1 2 3 4 5 6 
#
# 1 116.5344 9.7087 57.2809 0.0000 20.9295 0.0000
# 2 9.7087 92.7410 9.4982 0.0000 -0.1763 0.0000
# 3 57.2809 9.4982 176.0720 0.0000 28.6155 0.0000
# 4 0.0000 0.0000 0.0000 12.7898 0.0000 -9.9996
# 5 20.9295 -0.1763 28.6155 0.0000 48.5994 0.0000
# 6 0.0000 0.0000 0.0000 -9.9996 0.0000 24.8066
#
#
#
# Elastic Compliance Matrix: (Units=1/GPa)
#
#
# Indices 1 2 3 4 5 6 
#
# 1 0.010606 -0.000814 -0.002946 0.000000 -0.002836 0.000000
# 2 -0.000814 0.010913 -0.000428 0.000000 0.000642 0.000000
# 3 -0.002946 -0.000428 0.007138 0.000000 -0.002936 0.000000
# 4 0.000000 0.000000 0.000000 0.114169 0.000000 0.046022
# 5 -0.002836 0.000642 -0.002936 0.000000 0.023529 0.000000
# 6 0.000000 0.000000 0.000000 0.046022 0.000000 0.058863
#
#
# Mechanical properties :
#
#
# Convention : Reuss Voigt Hill
#
# Bulk Modulus (GPa) = 49.30623 59.81367 54.55995
# Shear Modulus (GPa) = 20.80260 37.82980 29.31620
#
# Velocity S-wave (km/s) = 2.89708 3.90678 3.43919
# Velocity P-wave (km/s) = 5.57531 6.66958 6.14684
#
# Compressibility (1/GPa) = 0.02028141
#
# Stress axis : x y z
#
# Youngs Moduli (GPa) = 94.28417 91.63370 140.09449
#
# Poissons Ratio (x) = 0.07459 0.41267
# Poissons Ratio (y) = 0.07675 0.06000
# Poissons Ratio (z) = 0.27773 0.03924
#
# Static dielectric constant tensor:
#      x y z
#    x 1.983870 0.000000 0.025460 
#    y 0.000000 1.894920 0.000000 
#    z 0.025460 0.000000 2.014460 
# 
# From -- ./inp_files/324429.got.cif
#   From: 2010.05.17/outbox.cif.g08.bks.cpg/sg12_163_cif.got.tgz:324429.got - 2010.06.03 13:09:07.
