data_PCOD9199123
_publ_section_title
;
Structure prediction by ZEFSAII (Michael W. Deem and Ramdas Pophale) SiO2 
 PCOD9199123
Probable space group: C 2/M
;
_chemical_formula_sum "Si O2"
_cell_formula_units_Z 48
_cell_length_a 16.303211
_cell_length_b 8.995335
_cell_length_c 14.586592
_cell_angle_alpha 90.000000
_cell_angle_beta 78.698266
_cell_angle_gamma 90.000000
_cell_volume 2097.684074
_symmetry_space_group_name_H-M "C 2/M"
_symmetry_group_IT_number 12
_symmetry_cell_setting 'monoclinic'
loop_
_space_group_symop_operation_xyz
x,y,z
-x,y,-z
-x,-y,-z
x,-y,z
1/2+x,1/2+y,z
1/2-x,1/2+y,-z
1/2-x,1/2-y,-z
1/2+x,1/2-y,z
loop_
_atom_site_type_symbol
_atom_site_label
_atom_site_fract_x
_atom_site_fract_y
_atom_site_fract_z
Si Si1 0.592983 0.826361 0.886025
Si Si2 0.284644 0.669733 0.772920
Si Si3 0.335412 0.175628 0.448668
Si Si4 0.905470 0.671565 0.628383
Si Si5 0.454729 0.675987 0.283135
Si Si6 0.339579 0.674985 0.960125
O O1 0.689675 0.813656 0.828500
O O2 0.540367 0.743722 0.819737
O O3 0.595823 0.755304 0.986566
O O4 0.571988 0.000000 0.894949
O O5 0.293815 0.500000 0.736654
O O6 0.315647 0.786589 0.691802
O O7 0.344119 0.686944 0.849470
O O8 0.250000 0.250000 0.500000
O O9 0.374625 0.253619 0.352061
O O10 0.324341 0.000000 0.434362
O O11 0.927011 0.500000 0.642131
O O12 0.898314 0.692239 0.521304
O O13 0.969713 0.775444 0.667509
O O14 0.448421 0.500000 0.278580
O O15 0.337308 0.500000 0.983195
O O16 0.250000 0.750000 0.000000
#
# Coordination Sequence:
#
# PCOD9199123 Si02
#       6
#     8   8   8   8   8   8
#     4  10  20  36  59  86 117 152 193 242 291 342
#     4   9  19  35  57  85 116 151 190 236 286 337
#     4  11  24  42  64  90 118 149 190 237 284 337
#     4  11  24  40  59  84 116 153 191 235 285 340
#     4  12  25  40  60  85 116 154 192 235 289 346
#     4   9  17  31  53  83 117 152 193 240 289 338
#
# _framework density 22.882377999999999
#
# number of rings (size 3 to 8) (size 9 to 14) (size 15 to 20)
#    0.000    1.667    0.000    6.000    0.000   11.333 
#    0.000    0.833    0.000    5.000    0.000    0.000 
#    0.000    0.000    0.000    0.000    0.000    0.000 
#
# Total GULP energy -134329.324172 kJ/mol
# GULP energy per Si atom -5597.055174 kJ/mol
# Density = 2.283030 g / cm^3
# Si number density = 22.882378 Si / 1000 Ang^3
#
#
#
# Elastic Constant Matrix: (Units=GPa)
#
#
# Indices 1 2 3 4 5 6 
#
# 1 72.0691 19.3481 12.1917 0.0000 11.1160 0.0000
# 2 19.3481 143.4756 72.0927 0.0000 13.8199 0.0000
# 3 12.1917 72.0927 131.7208 0.0000 16.5084 0.0000
# 4 0.0000 0.0000 0.0000 36.3657 0.0000 2.2772
# 5 11.1160 13.8199 16.5084 0.0000 38.6832 0.0000
# 6 0.0000 0.0000 0.0000 2.2772 0.0000 25.8414
#
#
#
# Elastic Compliance Matrix: (Units=1/GPa)
#
#
# Indices 1 2 3 4 5 6 
#
# 1 0.014888 -0.001645 -0.000016 0.000000 -0.003684 0.000000
# 2 -0.001645 0.009854 -0.005133 0.000000 -0.000857 0.000000
# 3 -0.000016 -0.005133 0.010747 0.000000 -0.002748 0.000000
# 4 0.000000 0.000000 0.000000 0.027651 0.000000 -0.002437
# 5 -0.003684 -0.000857 -0.002748 0.000000 0.028388 0.000000
# 6 0.000000 0.000000 0.000000 -0.002437 0.000000 0.038912
#
#
# Mechanical properties :
#
#
# Convention : Reuss Voigt Hill
#
# Bulk Modulus (GPa) = 45.66134 61.61450 53.63792
# Shear Modulus (GPa) = 33.04054 36.42026 34.73040
#
# Velocity S-wave (km/s) = 3.80403 3.99385 3.90010
# Velocity P-wave (km/s) = 6.26836 6.94643 6.61609
#
# Compressibility (1/GPa) = 0.02190037
#
# Stress axis : x y z
#
# Youngs Moduli (GPa) = 67.16801 101.48631 93.04695
#
# Poissons Ratio (x) = 0.16692 0.00150
# Poissons Ratio (y) = 0.11048 0.47764
# Poissons Ratio (z) = 0.00108 0.52097
#
# Static dielectric constant tensor:
#      x y z
#    x 1.921670 0.000000 0.020140 
#    y 0.000000 1.764870 0.000000 
#    z 0.020140 0.000000 1.796990 
# 
# From -- ./inp_files/236839.got.cif
#   From: 2010.05.17/outbox.cif.g08.bks.cpg/sg12_119_cif.got.tgz:236839.got - 2010.06.03 13:09:07.
