data_PCOD9199803
_publ_section_title
;
Structure prediction by ZEFSAII (Michael W. Deem and Ramdas Pophale) SiO2 
 PCOD9199803
Probable space group: C 2/M
;
_chemical_formula_sum "Si O2"
_cell_formula_units_Z 48
_cell_length_a 16.744506
_cell_length_b 19.597247
_cell_length_c 9.327074
_cell_angle_alpha 90.000000
_cell_angle_beta 124.802802
_cell_angle_gamma 90.000000
_cell_volume 2513.160037
_symmetry_space_group_name_H-M "C 2/M"
_symmetry_group_IT_number 12
_symmetry_cell_setting 'monoclinic'
loop_
_space_group_symop_operation_xyz
x,y,z
-x,y,-z
-x,-y,-z
x,-y,z
1/2+x,1/2+y,z
1/2-x,1/2+y,-z
1/2-x,1/2-y,-z
1/2+x,1/2-y,z
loop_
_atom_site_type_symbol
_atom_site_label
_atom_site_fract_x
_atom_site_fract_y
_atom_site_fract_z
Si Si1 0.646830 0.243595 0.471614
Si Si2 0.444785 0.607225 0.592804
Si Si3 0.935070 0.500000 0.792730
Si Si4 0.219082 0.000000 0.530807
Si Si5 0.109884 0.639272 0.676603
Si Si6 0.553131 0.500000 0.901780
Si Si7 0.498550 0.143860 0.826656
Si Si8 0.231247 0.500000 0.756737
O O1 0.750000 0.250000 0.500000
O O2 0.588733 0.314810 0.423281
O O3 0.654705 0.201739 0.629857
O O4 0.580930 0.196988 0.303517
O O5 0.500000 0.600295 0.500000
O O6 0.344989 0.564714 0.493991
O O7 0.513673 0.567405 0.777740
O O8 0.822233 0.500000 0.713311
O O9 0.962161 0.568881 0.741340
O O10 0.000000 0.500000 0.000000
O O11 0.239590 0.000000 0.381595
O O12 0.169567 0.569049 0.721328
O O13 0.000000 0.633115 0.500000
O O14 0.094667 0.656054 0.829919
O O15 0.500000 0.500000 0.000000
O O16 0.668857 0.500000 0.048328
O O17 0.500000 0.144945 0.000000
#
# Coordination Sequence:
#
# PCOD9199803 Si02
#       8
#     8   8   4   4   8   4   8   4
#     4  11  23  41  66  89 120 170 216 255 311 382
#     4  11  23  44  64  89 126 169 214 263 312 374
#     4  10  20  36  61  91 130 158 205 263 315 375
#     4  11  20  38  66  89 119 168 214 251 312 379
#     4  10  21  39  65  92 126 164 212 256 316 381
#     4  11  24  42  65  96 129 168 212 264 317 372
#     4  10  21  40  58  91 125 160 197 255 324 363
#     4  12  21  39  67  99 128 164 216 261 316 385
#
# _framework density 19.099461000000002
#
# number of rings (size 3 to 8) (size 9 to 14) (size 15 to 20)
#    0.000    1.333    1.667    7.250    0.000    0.667 
#   15.000    0.833    0.000    0.000    0.000    0.000 
#    0.000    0.000    0.000    0.000    0.000    0.000 
#
# Total GULP energy -133874.581061 kJ/mol
# GULP energy per Si atom -5578.107544 kJ/mol
# Density = 1.905599 g / cm^3
# Si number density = 19.099461 Si / 1000 Ang^3
#
#
#
# Elastic Constant Matrix: (Units=GPa)
#
#
# Indices 1 2 3 4 5 6 
#
# 1 157.7247 61.8097 69.5088 0.0000 -22.1732 0.0000
# 2 61.8097 152.8029 58.1255 0.0000 -13.6854 0.0000
# 3 69.5088 58.1255 94.7066 0.0000 -13.9091 0.0000
# 4 0.0000 0.0000 0.0000 30.3820 0.0000 -6.2815
# 5 -22.1732 -13.6854 -13.9091 0.0000 47.8639 0.0000
# 6 0.0000 0.0000 0.0000 -6.2815 0.0000 36.6408
#
#
#
# Elastic Compliance Matrix: (Units=1/GPa)
#
#
# Indices 1 2 3 4 5 6 
#
# 1 0.009914 -0.001515 -0.005992 0.000000 0.002419 0.000000
# 2 -0.001515 0.008811 -0.004209 0.000000 0.000595 0.000000
# 3 -0.005992 -0.004209 0.017711 0.000000 0.001168 0.000000
# 4 0.000000 0.000000 0.000000 0.034124 0.000000 0.005850
# 5 0.002419 0.000595 0.001168 0.000000 0.022522 0.000000
# 6 0.000000 0.000000 0.000000 0.005850 0.000000 0.028295
#
#
# Mechanical properties :
#
#
# Convention : Reuss Voigt Hill
#
# Bulk Modulus (GPa) = 76.88567 87.12469 82.00518
# Shear Modulus (GPa) = 33.52478 37.36337 35.44408
#
# Velocity S-wave (km/s) = 4.19414 4.42775 4.31253
# Velocity P-wave (km/s) = 7.98732 8.47675 8.23567
#
# Compressibility (1/GPa) = 0.01300633
#
# Stress axis : x y z
#
# Youngs Moduli (GPa) = 100.86544 113.48984 56.46153
#
# Poissons Ratio (x) = 0.17188 0.33830
# Poissons Ratio (y) = 0.15276 0.23765
# Poissons Ratio (z) = 0.60435 0.47768
#
# Static dielectric constant tensor:
#      x y z
#    x 1.664030 0.000000 -0.069240 
#    y 0.000000 1.687370 0.000000 
#    z -0.069240 0.000000 1.555000 
# 
# From -- ./inp_files/63688.got.cif
#   From: 2010.05.17/outbox.cif.g08.bks.cpg/sg12_32_cif.got.tgz:63688.got - 2010.06.03 13:09:07.
