data_PCOD9199909
_publ_section_title
;
Structure prediction by ZEFSAII (Michael W. Deem and Ramdas Pophale) SiO2 
 PCOD9199909
Probable space group: C 2/M
;
_chemical_formula_sum "Si O2"
_cell_formula_units_Z 40
_cell_length_a 15.506307
_cell_length_b 10.379101
_cell_length_c 14.926486
_cell_angle_alpha 90.000000
_cell_angle_beta 134.529104
_cell_angle_gamma 90.000000
_cell_volume 1712.579931
_symmetry_space_group_name_H-M "C 2/M"
_symmetry_group_IT_number 12
_symmetry_cell_setting 'monoclinic'
loop_
_space_group_symop_operation_xyz
x,y,z
-x,y,-z
-x,-y,-z
x,-y,z
1/2+x,1/2+y,z
1/2-x,1/2+y,-z
1/2-x,1/2-y,-z
1/2+x,1/2-y,z
loop_
_atom_site_type_symbol
_atom_site_label
_atom_site_fract_x
_atom_site_fract_y
_atom_site_fract_z
Si Si1 0.553137 0.500000 0.764245
Si Si2 0.642659 0.500000 0.023829
Si Si3 0.276210 0.147161 0.442282
Si Si4 0.830943 0.500000 0.893664
Si Si5 0.419629 0.000000 0.152778
Si Si6 0.202190 0.222682 0.196519
Si Si7 0.022323 0.721564 0.674340
O O1 0.692739 0.500000 0.831268
O O2 0.498281 0.368294 0.686521
O O3 0.557960 0.500000 0.875469
O O4 0.779524 0.500000 0.083682
O O5 0.634889 0.625378 0.080525
O O6 0.250000 0.250000 0.500000
O O7 0.203720 0.176597 0.299365
O O8 0.420211 0.168974 0.533743
O O9 0.256284 0.000000 0.455099
O O10 0.842954 0.367935 0.848397
O O11 0.914777 0.500000 0.042577
O O12 0.477327 0.126542 0.239480
O O13 0.343207 0.217879 0.268176
#
# Coordination Sequence:
#
# PCOD9199909 Si02
#       7
#     4   4   8   4   4   8   8
#     4   9  18  31  55  94 126 147 178 231 292 339
#     4   9  16  31  57  90 122 149 184 231 284 339
#     4  12  27  43  60  80 112 155 196 241 291 341
#     4   9  18  31  55  94 126 147 178 231 292 339
#     4   9  16  31  57  90 122 149 184 231 284 339
#     4  10  20  36  62  90 117 150 191 237 282 336
#     4  10  20  36  62  90 117 150 191 237 282 336
#
# _framework density 23.356573000000001
#
# number of rings (size 3 to 8) (size 9 to 14) (size 15 to 20)
#    0.000    2.000    2.000    1.800    2.800    5.600 
#    0.000    3.000    0.000    7.200    0.000    0.000 
#    0.000    0.000    0.000    0.000    0.000    0.000 
#
# Total GULP energy -111971.713093 kJ/mol
# GULP energy per Si atom -5598.585655 kJ/mol
# Density = 2.330341 g / cm^3
# Si number density = 23.356573 Si / 1000 Ang^3
#
#
#
# Elastic Constant Matrix: (Units=GPa)
#
#
# Indices 1 2 3 4 5 6 
#
# 1 77.1023 32.9820 19.6472 0.0000 7.0834 0.0000
# 2 32.9820 216.9156 44.6831 0.0000 -16.2066 0.0000
# 3 19.6472 44.6831 81.5543 0.0000 -15.3881 0.0000
# 4 0.0000 0.0000 0.0000 41.3408 0.0000 43.2049
# 5 7.0834 -16.2066 -15.3881 0.0000 27.3763 0.0000
# 6 0.0000 0.0000 0.0000 43.2049 0.0000 250.7689
#
#
#
# Elastic Compliance Matrix: (Units=1/GPa)
#
#
# Indices 1 2 3 4 5 6 
#
# 1 0.015589 -0.002105 -0.004025 0.000000 -0.007542 0.000000
# 2 -0.002105 0.005548 -0.002025 0.000000 0.002691 0.000000
# 3 -0.004025 -0.002025 0.016009 0.000000 0.008841 0.000000
# 4 0.000000 0.000000 0.000000 0.029501 0.000000 -0.005083
# 5 -0.007542 0.002691 0.008841 0.000000 0.045042 0.000000
# 6 0.000000 0.000000 0.000000 -0.005083 0.000000 0.004863
#
#
# Mechanical properties :
#
#
# Convention : Reuss Voigt Hill
#
# Bulk Modulus (GPa) = 47.99383 63.35520 55.67451
# Shear Modulus (GPa) = 35.76320 82.44785 59.10552
#
# Velocity S-wave (km/s) = 3.91728 5.94779 5.03594
# Velocity P-wave (km/s) = 6.40726 8.62279 7.59623
#
# Compressibility (1/GPa) = 0.02083601
#
# Stress axis : x y z
#
# Youngs Moduli (GPa) = 64.14913 180.23581 62.46346
#
# Poissons Ratio (x) = 0.37931 0.25144
# Poissons Ratio (y) = 0.13500 0.12650
# Poissons Ratio (z) = 0.25823 0.36501
#
# Static dielectric constant tensor:
#      x y z
#    x 1.968130 0.000000 0.049180 
#    y 0.000000 1.807920 0.000000 
#    z 0.049180 0.000000 1.816220 
# 
# From -- ./inp_files/230664.got.cif
#   From: 2010.05.17/outbox.cif.g08.bks.cpg/sg12_116_cif.got.tgz:230664.got - 2010.06.03 13:09:07.
