data_PCOD9199698
_publ_section_title
;
Structure prediction by ZEFSAII (Michael W. Deem and Ramdas Pophale) SiO2 
 PCOD9199698
Probable space group: C 2/M
;
_chemical_formula_sum "Si O2"
_cell_formula_units_Z 64
_cell_length_a 33.257421
_cell_length_b 14.285798
_cell_length_c 14.132975
_cell_angle_alpha 90.000000
_cell_angle_beta 147.416195
_cell_angle_gamma 90.000000
_cell_volume 3616.085527
_symmetry_space_group_name_H-M "C 2/M"
_symmetry_group_IT_number 12
_symmetry_cell_setting 'monoclinic'
loop_
_space_group_symop_operation_xyz
x,y,z
-x,y,-z
-x,-y,-z
x,-y,z
1/2+x,1/2+y,z
1/2-x,1/2+y,-z
1/2-x,1/2-y,-z
1/2+x,1/2-y,z
loop_
_atom_site_type_symbol
_atom_site_label
_atom_site_fract_x
_atom_site_fract_y
_atom_site_fract_z
Si Si1 0.180847 0.287354 0.491785
Si Si2 0.232606 0.738067 0.147194
Si Si3 0.741403 0.393289 0.520485
Si Si4 0.005940 0.109217 0.259236
Si Si5 0.139055 0.890796 0.667409
Si Si6 0.510522 0.781964 0.133458
Si Si7 0.371172 0.608016 0.139880
Si Si8 0.129438 0.392409 0.064735
O O1 0.220414 0.278277 0.671003
O O2 0.228982 0.356448 0.521198
O O3 0.185277 0.184391 0.450711
O O4 0.094554 0.315147 0.323027
O O5 0.289543 0.674498 0.201592
O O6 0.167745 0.672104 0.061652
O O7 0.194616 0.820903 0.014343
O O8 0.713286 0.500000 0.461771
O O9 0.812241 0.390586 0.731874
O O10 0.080457 0.129394 0.467869
O O11 0.999936 0.180864 0.161405
O O12 0.937470 0.122143 0.196378
O O13 0.007433 0.000000 0.233534
O O14 0.104016 0.879054 0.702070
O O15 0.160507 0.000000 0.699890
O O16 0.500000 0.777730 0.000000
O O17 0.448164 0.849560 0.054144
O O18 0.346586 0.500000 0.082343
O O19 0.121729 0.500000 0.019068
#
# Coordination Sequence:
#
# PCOD9199698 Si02
#       8
#     8   8   8   8   8   8   8   8
#     4  10  21  34  53  81 109 146 186 224 280 331
#     4  11  20  36  58  82 116 143 181 232 284 334
#     4   9  19  36  55  77 105 143 188 233 273 321
#     4  10  21  38  58  83 115 149 186 230 278 331
#     4  10  20  36  61  88 110 143 190 233 274 332
#     4  12  22  37  56  81 117 148 189 232 272 327
#     4  10  21  37  59  86 115 146 182 227 285 340
#     4  10  21  36  56  79 106 148 192 232 274 320
#
# _framework density 17.698696000000002
#
# number of rings (size 3 to 8) (size 9 to 14) (size 15 to 20)
#    0.000    1.750    3.750    1.125    0.000    4.000 
#    0.000    1.250    0.000    0.000    0.000    0.875 
#    0.000    0.000    0.000    0.000    0.000    0.000 
#
# Total GULP energy -178642.146090 kJ/mol
# GULP energy per Si atom -5582.567065 kJ/mol
# Density = 1.765841 g / cm^3
# Si number density = 17.698696 Si / 1000 Ang^3
#
#
#
# Elastic Constant Matrix: (Units=GPa)
#
#
# Indices 1 2 3 4 5 6 
#
# 1 41.8958 11.8062 13.5662 0.0000 5.8629 0.0000
# 2 11.8062 64.2395 27.5372 0.0000 1.8521 0.0000
# 3 13.5662 27.5372 48.2153 0.0000 11.3512 0.0000
# 4 0.0000 0.0000 0.0000 28.5126 0.0000 0.4621
# 5 5.8629 1.8521 11.3512 0.0000 27.5897 0.0000
# 6 0.0000 0.0000 0.0000 0.4621 0.0000 22.5930
#
#
#
# Elastic Compliance Matrix: (Units=1/GPa)
#
#
# Indices 1 2 3 4 5 6 
#
# 1 0.026768 -0.002558 -0.005284 0.000000 -0.003343 0.000000
# 2 -0.002558 0.021230 -0.012399 0.000000 0.004220 0.000000
# 3 -0.005284 -0.012399 0.031942 0.000000 -0.011187 0.000000
# 4 0.000000 0.000000 0.000000 0.035084 0.000000 -0.000718
# 5 -0.003343 0.004220 -0.011187 0.000000 0.041275 0.000000
# 6 0.000000 0.000000 0.000000 -0.000718 0.000000 0.044276
#
#
# Mechanical properties :
#
#
# Convention : Reuss Voigt Hill
#
# Bulk Modulus (GPa) = 25.34275 28.90774 27.12524
# Shear Modulus (GPa) = 19.66880 22.50182 21.08531
#
# Velocity S-wave (km/s) = 3.33725 3.56951 3.45534
# Velocity P-wave (km/s) = 5.40368 5.77558 5.59272
#
# Compressibility (1/GPa) = 0.03945902
#
# Stress axis : x y z
#
# Youngs Moduli (GPa) = 37.35756 47.10277 31.30687
#
# Poissons Ratio (x) = 0.12050 0.16541
# Poissons Ratio (y) = 0.09557 0.38817
# Poissons Ratio (z) = 0.19738 0.58402
#
# Static dielectric constant tensor:
#      x y z
#    x 1.602970 0.000000 0.006270 
#    y 0.000000 1.593000 0.000000 
#    z 0.006270 0.000000 1.581650 
# 
# From -- ./inp_files/183863.got.cif
#   From: 2010.05.17/outbox.cif.g08.bks.cpg/sg12_92_cif.got.tgz:183863.got - 2010.06.03 13:09:07.
