data_PCOD9199002
_publ_section_title
;
Structure prediction by ZEFSAII (Michael W. Deem and Ramdas Pophale) SiO2 
 PCOD9199002
Probable space group: C 2/M
;
_chemical_formula_sum "Si O2"
_cell_formula_units_Z 64
_cell_length_a 16.591817
_cell_length_b 9.170496
_cell_length_c 33.691754
_cell_angle_alpha 90.000000
_cell_angle_beta 145.438451
_cell_angle_gamma 90.000000
_cell_volume 2908.147652
_symmetry_space_group_name_H-M "C 2/M"
_symmetry_group_IT_number 12
_symmetry_cell_setting 'monoclinic'
loop_
_space_group_symop_operation_xyz
x,y,z
-x,y,-z
-x,-y,-z
x,-y,z
1/2+x,1/2+y,z
1/2-x,1/2+y,-z
1/2-x,1/2-y,-z
1/2+x,1/2-y,z
loop_
_atom_site_type_symbol
_atom_site_label
_atom_site_fract_x
_atom_site_fract_y
_atom_site_fract_z
Si Si1 0.801786 0.171022 0.336669
Si Si2 0.249975 0.831347 0.041727
Si Si3 0.422210 0.331758 0.910401
Si Si4 0.792485 0.829306 0.775878
Si Si5 0.328923 0.329928 0.148315
Si Si6 0.285080 0.829490 0.413927
Si Si7 0.874475 0.828233 0.526307
Si Si8 0.457900 0.668006 0.282936
O O1 0.703817 0.236702 0.262567
O O2 0.789305 0.256919 0.372650
O O3 0.968109 0.187540 0.391656
O O4 0.774401 0.000000 0.331566
O O5 0.085107 0.822148 0.988940
O O6 0.286562 0.000000 0.051085
O O7 0.250000 0.750000 0.000000
O O8 0.343718 0.759253 0.114006
O O9 0.373667 0.500000 0.897275
O O10 0.408488 0.304230 0.857419
O O11 0.316722 0.223002 0.889624
O O12 0.646482 0.780541 0.738402
O O13 0.792278 0.000000 0.765868
O O14 0.322613 0.500000 0.135872
O O15 0.444159 0.308988 0.229824
O O16 0.375533 0.743740 0.483144
O O17 0.120621 0.820091 0.361028
O O18 0.323437 0.000000 0.427716
O O19 0.750000 0.750000 0.500000
O O20 0.844063 0.000000 0.511084
O O21 0.409465 0.500000 0.271033
#
# Coordination Sequence:
#
# PCOD9199002 Si02
#       8
#     8   8   8   8   8   8   8   8
#     4  11  24  40  57  82 118 152 182 225 281 331
#     4  11  23  38  55  78 112 148 184 229 280 331
#     4   9  20  38  58  81 111 146 183 229 280 326
#     4  10  20  36  60  86 110 143 189 231 271 327
#     4  10  20  36  59  84 111 144 184 228 274 329
#     4  11  23  39  60  85 114 149 188 228 274 329
#     4  11  24  41  61  85 114 148 186 230 278 327
#     4   9  20  38  58  83 115 147 180 226 280 327
#
# _framework density 22.007135999999999
#
# number of rings (size 3 to 8) (size 9 to 14) (size 15 to 20)
#    0.000    1.750    0.000    3.750    0.000   12.000 
#    0.000    5.000    0.000    0.000    0.000    0.000 
#    0.000    0.000    0.000    0.000    0.000    0.000 
#
# Total GULP energy -179027.279473 kJ/mol
# GULP energy per Si atom -5594.602484 kJ/mol
# Density = 2.195705 g / cm^3
# Si number density = 22.007136 Si / 1000 Ang^3
#
#
#
# Elastic Constant Matrix: (Units=GPa)
#
#
# Indices 1 2 3 4 5 6 
#
# 1 48.9646 20.1432 2.3350 0.0000 -13.7369 0.0000
# 2 20.1432 108.3374 49.9496 0.0000 -17.3839 0.0000
# 3 2.3350 49.9496 103.7164 0.0000 -18.1218 0.0000
# 4 0.0000 0.0000 0.0000 33.0315 0.0000 -12.9436
# 5 -13.7369 -17.3839 -18.1218 0.0000 37.7676 0.0000
# 6 0.0000 0.0000 0.0000 -12.9436 0.0000 33.9079
#
#
#
# Elastic Compliance Matrix: (Units=1/GPa)
#
#
# Indices 1 2 3 4 5 6 
#
# 1 0.024521 -0.004683 0.003149 0.000000 0.008274 0.000000
# 2 -0.004683 0.013072 -0.005934 0.000000 0.001466 0.000000
# 3 0.003149 -0.005934 0.013263 0.000000 0.004778 0.000000
# 4 0.000000 0.000000 0.000000 0.035599 0.000000 0.013589
# 5 0.008274 0.001466 0.004778 0.000000 0.032455 0.000000
# 6 0.000000 0.000000 0.000000 0.013589 0.000000 0.034679
#
#
# Mechanical properties :
#
#
# Convention : Reuss Voigt Hill
#
# Bulk Modulus (GPa) = 27.83961 45.09710 36.46835
# Shear Modulus (GPa) = 27.70092 33.51410 30.60751
#
# Velocity S-wave (km/s) = 3.55170 3.90664 3.73339
# Velocity P-wave (km/s) = 5.43113 6.39418 5.93223
#
# Compressibility (1/GPa) = 0.03592005
#
# Stress axis : x y z
#
# Youngs Moduli (GPa) = 40.78189 76.49697 75.39510
#
# Poissons Ratio (x) = 0.35827 -0.23743
# Poissons Ratio (y) = 0.19100 0.44739
# Poissons Ratio (z) = -0.12843 0.45393
#
# Static dielectric constant tensor:
#      x y z
#    x 1.840860 0.000000 -0.007200 
#    y 0.000000 1.737290 0.000000 
#    z -0.007200 0.000000 1.798270 
# 
# From -- ./inp_files/378448.got.cif
#   From: 2010.05.17/outbox.cif.g08.bks.cpg/sg12_190_cif.got.tgz:378448.got - 2010.06.03 13:09:07.
