data_PCOD9199480
_publ_section_title
;
Structure prediction by ZEFSAII (Michael W. Deem and Ramdas Pophale) SiO2 
 PCOD9199480
Probable space group: C 2/M
;
_chemical_formula_sum "Si O2"
_cell_formula_units_Z 40
_cell_length_a 12.114831
_cell_length_b 12.028667
_cell_length_c 20.657051
_cell_angle_alpha 90.000000
_cell_angle_beta 30.852422
_cell_angle_gamma 90.000000
_cell_volume 1543.744325
_symmetry_space_group_name_H-M "C 2/M"
_symmetry_group_IT_number 12
_symmetry_cell_setting 'monoclinic'
loop_
_space_group_symop_operation_xyz
x,y,z
-x,y,-z
-x,-y,-z
x,-y,z
1/2+x,1/2+y,z
1/2-x,1/2+y,-z
1/2-x,1/2-y,-z
1/2+x,1/2-y,z
loop_
_atom_site_type_symbol
_atom_site_label
_atom_site_fract_x
_atom_site_fract_y
_atom_site_fract_z
Si Si1 0.245410 0.116198 0.938802
Si Si2 0.600257 0.178192 0.281328
Si Si3 0.261923 0.119794 0.650519
Si Si4 0.455165 0.832704 0.094539
Si Si5 0.254584 0.131197 0.381620
O O1 0.336487 0.128313 0.820575
O O2 0.431558 0.115645 0.899855
O O3 0.128152 0.000000 0.004115
O O4 0.082762 0.215985 0.029074
O O5 0.704290 0.121080 0.289944
O O6 0.703819 0.302379 0.229724
O O7 0.346921 0.149771 0.407689
O O8 0.500000 0.119005 0.500000
O O9 0.168588 0.244215 0.684139
O O10 0.155114 0.000000 0.686138
O O11 0.500000 0.880345 0.000000
O O12 0.000000 0.138182 0.500000
O O13 0.299426 0.000000 0.340421
#
# Coordination Sequence:
#
# PCOD9199480 Si02
#       5
#     8   8   8   8   8
#     4  10  20  36  60  88 117 151 192 238 292 356
#     4  11  21  38  61  83 117 161 199 239 296 362
#     4  10  22  39  59  85 117 155 201 250 297 347
#     4   9  21  38  57  86 117 148 191 240 291 352
#     4  10  22  39  59  84 115 154 201 249 296 349
#
# _framework density 25.911028999999999
#
# number of rings (size 3 to 8) (size 9 to 14) (size 15 to 20)
#    0.000    2.000    0.000    3.000    0.000    8.800 
#    0.000    4.000    0.000    4.800    0.000    0.000 
#    0.000    0.000    0.000    0.000    0.000    0.000 
#
# Total GULP energy -111341.494843 kJ/mol
# GULP energy per Si atom -5567.074742 kJ/mol
# Density = 2.585205 g / cm^3
# Si number density = 25.911029 Si / 1000 Ang^3
#
#
#
# Elastic Constant Matrix: (Units=GPa)
#
#
# Indices 1 2 3 4 5 6 
#
# 1 115.9696 55.9031 18.0981 0.0886 -2.7550 -0.0436
# 2 55.9031 256.6650 24.0462 -0.0050 2.0247 0.0023
# 3 18.0981 24.0462 65.1696 0.1654 7.7645 -0.0836
# 4 0.0886 -0.0050 0.1654 -123.0686 -0.0942 59.4797
# 5 -2.7550 2.0247 7.7645 -0.0942 48.1458 0.0468
# 6 -0.0436 0.0023 -0.0836 59.4797 0.0468 -27.7934
#
#
#
# Elastic Compliance Matrix: (Units=1/GPa)
#
#
# Indices 1 2 3 4 5 6 
#
# 1 0.009932 -0.001970 -0.002150 0.000003 0.000998 -0.000001
# 2 -0.001970 0.004426 -0.001071 -0.000005 -0.000126 -0.000005
# 3 -0.002150 -0.001071 0.016666 0.000055 -0.002766 0.000065
# 4 0.000003 -0.000005 0.000055 0.236856 -0.000038 0.506888
# 5 0.000998 -0.000126 -0.002766 -0.000038 0.021279 -0.000038
# 6 -0.000001 -0.000005 0.000065 0.506888 -0.000038 1.048795
#
#
# Mechanical properties :
#
#
# Convention : Reuss Voigt Hill
#
# Bulk Modulus (GPa) = 48.44409 70.43323 59.43866
# Shear Modulus (GPa) = 3.68944 2.10723 2.89833
#
# Velocity S-wave (km/s) = 1.19456 0.90278 1.05877
# Velocity P-wave (km/s) = 4.54308 5.32245 4.94813
#
# Compressibility (1/GPa) = 0.02064235
#
# Stress axis : x y z
#
# Youngs Moduli (GPa) = 100.68813 225.91331 60.00067
#
# Poissons Ratio (x) = 0.44496 0.12902
# Poissons Ratio (y) = 0.19831 0.06428
# Poissons Ratio (z) = 0.21651 0.24202
#
# Static dielectric constant tensor:
#      x y z
#    x 2.108080 0.000000 -0.168310 
#    y 0.000000 2.074000 0.000000 
#    z -0.168310 0.000000 2.513040 
# 
# From -- ./inp_files/304553.got.cif
#   From: 2010.05.17/outbox.cif.g08.bks.cpg/sg12_153_cif.got.tgz:304553.got - 2010.06.03 13:09:07.
