data_PCOD9199713
_publ_section_title
;
Structure prediction by ZEFSAII (Michael W. Deem and Ramdas Pophale) SiO2 
 PCOD9199713
Probable space group: C 2/M
;
_chemical_formula_sum "Si O2"
_cell_formula_units_Z 64
_cell_length_a 19.839056
_cell_length_b 8.347805
_cell_length_c 19.837981
_cell_angle_alpha 90.000000
_cell_angle_beta 120.021736
_cell_angle_gamma 90.000000
_cell_volume 2844.632955
_symmetry_space_group_name_H-M "C 2/M"
_symmetry_group_IT_number 12
_symmetry_cell_setting 'monoclinic'
loop_
_space_group_symop_operation_xyz
x,y,z
-x,y,-z
-x,-y,-z
x,-y,z
1/2+x,1/2+y,z
1/2-x,1/2+y,-z
1/2-x,1/2-y,-z
1/2+x,1/2-y,z
loop_
_atom_site_type_symbol
_atom_site_label
_atom_site_fract_x
_atom_site_fract_y
_atom_site_fract_z
Si Si1 0.077457 0.695025 0.501603
Si Si2 0.829229 0.306290 0.575468
Si Si3 0.008489 0.815566 0.841400
Si Si4 0.255478 0.309914 0.926143
Si Si5 0.600314 0.806988 0.769607
Si Si6 0.820542 0.692455 0.323902
Si Si7 0.922182 0.686284 0.995173
Si Si8 0.155522 0.689952 0.261633
O O1 0.072106 0.500000 0.497236
O O2 0.099897 0.746778 0.437749
O O3 0.148328 0.736987 0.586958
O O4 0.000000 0.753870 0.500000
O O5 0.828510 0.500000 0.576116
O O6 0.750000 0.250000 0.500000
O O7 0.836797 0.253669 0.656516
O O8 0.918340 0.776148 0.807558
O O9 0.031003 0.772289 0.776203
O O10 0.061024 0.708238 0.916942
O O11 0.025817 0.000000 0.864157
O O12 0.252246 0.500000 0.925403
O O13 0.180530 0.255255 0.846572
O O14 0.250000 0.250000 0.000000
O O15 0.338723 0.259889 0.937877
O O16 0.614200 0.766355 0.698708
O O17 0.591198 0.000000 0.769626
O O18 0.810479 0.500000 0.316006
O O19 0.737747 0.771494 0.268853
O O20 0.918283 0.500000 0.975032
O O21 0.000000 0.757565 0.000000
O O22 0.140738 0.500000 0.253108
#
# Coordination Sequence:
#
# PCOD9199713 Si02
#       8
#     8   8   8   8   8   8   8   8
#     4   9  18  33  58  89 119 155 203 254 302 358
#     4  10  20  36  61  88 118 156 201 252 305 365
#     4  12  26  43  65  91 123 164 209 254 304 368
#     4  11  22  39  64  92 124 162 206 253 302 364
#     4  10  23  41  63  91 124 162 205 255 310 367
#     4  10  21  39  63  90 123 163 208 254 303 370
#     4  11  25  44  66  94 128 162 202 256 313 366
#     4  11  24  40  61  89 127 166 204 256 314 368
#
# _framework density 22.498508000000001
#
# number of rings (size 3 to 8) (size 9 to 14) (size 15 to 20)
#    0.000    1.500    2.500    2.250    3.500    2.500 
#    0.000    0.000    0.000    0.750    0.000    0.000 
#    0.000    0.000    0.000    0.000    0.000    0.000 
#
# Total GULP energy -178961.077618 kJ/mol
# GULP energy per Si atom -5592.533676 kJ/mol
# Density = 2.244730 g / cm^3
# Si number density = 22.498508 Si / 1000 Ang^3
#
#
#
# Elastic Constant Matrix: (Units=GPa)
#
#
# Indices 1 2 3 4 5 6 
#
# 1 107.8233 1.9162 -13.1614 0.0000 2.3954 0.0000
# 2 1.9162 12.3325 -4.4734 0.0000 3.1060 0.0000
# 3 -13.1614 -4.4734 28.2948 0.0000 -2.3657 0.0000
# 4 0.0000 0.0000 0.0000 13.6422 0.0000 3.4778
# 5 2.3954 3.1060 -2.3657 0.0000 38.2855 0.0000
# 6 0.0000 0.0000 0.0000 3.4778 0.0000 32.4294
#
#
#
# Elastic Compliance Matrix: (Units=1/GPa)
#
#
# Indices 1 2 3 4 5 6 
#
# 1 0.009838 0.000222 0.004582 0.000000 -0.000350 0.000000
# 2 0.000222 0.087500 0.013411 0.000000 -0.006284 0.000000
# 3 0.004582 0.013411 0.039684 0.000000 0.001077 0.000000
# 4 0.000000 0.000000 0.000000 0.075362 0.000000 -0.008082
# 5 -0.000350 -0.006284 0.001077 0.000000 0.026718 0.000000
# 6 0.000000 0.000000 0.000000 -0.008082 0.000000 0.031703
#
#
# Mechanical properties :
#
#
# Convention : Reuss Voigt Hill
#
# Bulk Modulus (GPa) = 5.76534 13.00149 9.38341
# Shear Modulus (GPa) = 17.11208 27.81602 22.46405
#
# Velocity S-wave (km/s) = 2.76087 3.51999 3.16328
# Velocity P-wave (km/s) = 3.56809 4.72354 4.18588
#
# Compressibility (1/GPa) = 0.17345040
#
# Stress axis : x y z
#
# Youngs Moduli (GPa) = 101.65139 11.42863 25.19922
#
# Poissons Ratio (x) = -0.00253 -0.11546
# Poissons Ratio (y) = -0.02253 -0.33796
# Poissons Ratio (z) = -0.46574 -0.15327
#
# Static dielectric constant tensor:
#      x y z
#    x 1.863180 0.000000 -0.026700 
#    y 0.000000 1.780510 0.000000 
#    z -0.026700 0.000000 1.797460 
# 
# From -- ./inp_files/320086.got.cif
#   From: 2010.05.17/outbox.cif.g08.bks.cpg/sg12_161_cif.got.tgz:320086.got - 2010.06.03 13:09:07.
