data_PCOD9199059
_publ_section_title
;
Structure prediction by ZEFSAII (Michael W. Deem and Ramdas Pophale) SiO2 
 PCOD9199059
Probable space group: C 2/M
;
_chemical_formula_sum "Si O2"
_cell_formula_units_Z 56
_cell_length_a 8.770682
_cell_length_b 10.906831
_cell_length_c 31.676201
_cell_angle_alpha 90.000000
_cell_angle_beta 115.908146
_cell_angle_gamma 90.000000
_cell_volume 2725.612517
_symmetry_space_group_name_H-M "C 2/M"
_symmetry_group_IT_number 12
_symmetry_cell_setting 'monoclinic'
loop_
_space_group_symop_operation_xyz
x,y,z
-x,y,-z
-x,-y,-z
x,-y,z
1/2+x,1/2+y,z
1/2-x,1/2+y,-z
1/2-x,1/2-y,-z
1/2+x,1/2-y,z
loop_
_atom_site_type_symbol
_atom_site_label
_atom_site_fract_x
_atom_site_fract_y
_atom_site_fract_z
Si Si1 0.652662 0.139601 0.548054
Si Si2 0.810163 0.361750 0.672820
Si Si3 0.702079 0.636669 0.023221
Si Si4 0.750957 0.281417 0.191116
Si Si5 0.426917 0.638238 0.746371
Si Si6 0.568876 0.864730 0.868467
Si Si7 0.484749 0.776285 0.609925
O O1 0.500000 0.184690 0.500000
O O2 0.586630 0.144658 0.588251
O O3 0.819595 0.221143 0.567375
O O4 0.690899 0.000000 0.540259
O O5 0.830390 0.500000 0.692200
O O6 0.868512 0.250041 0.709599
O O7 0.613625 0.331898 0.639057
O O8 0.919220 0.347518 0.643122
O O9 0.758903 0.500000 0.015369
O O10 0.787164 0.656492 0.079243
O O11 0.500000 0.633837 0.000000
O O12 0.750000 0.750000 0.000000
O O13 0.687384 0.350286 0.225239
O O14 0.582641 0.231127 0.148380
O O15 0.853508 0.357650 0.169005
O O16 0.877871 0.170990 0.219290
O O17 0.411355 0.500000 0.727251
O O18 0.498214 0.000000 0.867457
#
# Coordination Sequence:
#
# PCOD9199059 Si02
#       7
#     8   8   8   8   8   8   8
#     4  10  20  36  59  85 114 149 188 232 282 334
#     4  11  24  40  60  85 116 155 194 235 285 341
#     4  10  21  37  58  86 118 152 192 236 283 338
#     4  10  22  38  59  84 114 148 190 237 288 342
#     4  11  24  40  60  87 116 148 191 241 290 342
#     4  10  20  37  59  82 113 152 190 232 284 340
#     4  10  22  38  58  84 117 149 191 236 280 335
#
# _framework density 20.545839999999998
#
# number of rings (size 3 to 8) (size 9 to 14) (size 15 to 20)
#    0.000    1.714    0.000    3.857    0.000    9.429 
#    0.000    3.571    0.000    6.857    0.000    0.000 
#    0.000    0.000    0.000    0.000    0.000    0.000 
#
# Total GULP energy -156348.693047 kJ/mol
# GULP energy per Si atom -5583.881895 kJ/mol
# Density = 2.049908 g / cm^3
# Si number density = 20.545840 Si / 1000 Ang^3
#
#
#
# Elastic Constant Matrix: (Units=GPa)
#
#
# Indices 1 2 3 4 5 6 
#
# 1 63.8946 19.6277 0.4840 0.0000 6.6662 0.0000
# 2 19.6277 128.8300 36.9249 0.0000 2.5109 0.0000
# 3 0.4840 36.9249 67.4463 0.0000 9.7234 0.0000
# 4 0.0000 0.0000 0.0000 27.1923 0.0000 -0.2948
# 5 6.6662 2.5109 9.7234 0.0000 28.9380 0.0000
# 6 0.0000 0.0000 0.0000 -0.2948 0.0000 6.5363
#
#
#
# Elastic Compliance Matrix: (Units=1/GPa)
#
#
# Indices 1 2 3 4 5 6 
#
# 1 0.017063 -0.003156 0.002241 0.000000 -0.004410 0.000000
# 2 -0.003156 0.009815 -0.005604 0.000000 0.001759 0.000000
# 3 0.002241 -0.005604 0.018793 0.000000 -0.006345 0.000000
# 4 0.000000 0.000000 0.000000 0.036793 0.000000 0.001659
# 5 -0.004410 0.001759 -0.006345 0.000000 0.037552 0.000000
# 6 0.000000 0.000000 0.000000 0.001659 0.000000 0.153066
#
#
# Mechanical properties :
#
#
# Convention : Reuss Voigt Hill
#
# Bulk Modulus (GPa) = 30.64344 41.58269 36.11306
# Shear Modulus (GPa) = 16.83509 26.07562 21.45535
#
# Velocity S-wave (km/s) = 2.86561 3.56637 3.23502
# Velocity P-wave (km/s) = 5.08881 6.10259 5.61861
#
# Compressibility (1/GPa) = 0.03263342
#
# Stress axis : x y z
#
# Youngs Moduli (GPa) = 58.60498 101.88464 53.21014
#
# Poissons Ratio (x) = 0.32156 -0.11925
# Poissons Ratio (y) = 0.18496 0.29821
# Poissons Ratio (z) = -0.13134 0.57099
#
# Static dielectric constant tensor:
#      x y z
#    x 1.707720 0.000000 0.009920 
#    y 0.000000 1.655730 0.000000 
#    z 0.009920 0.000000 1.739250 
# 
# From -- ./inp_files/355861.got.cif
#   From: 2010.05.17/outbox.cif.g08.bks.cpg/sg12_178_cif.got.tgz:355861.got - 2010.06.03 13:09:07.
