data_PCOD9199427
_publ_section_title
;
Structure prediction by ZEFSAII (Michael W. Deem and Ramdas Pophale) SiO2 
 PCOD9199427
Probable space group: C 2/M
;
_chemical_formula_sum "Si O2"
_cell_formula_units_Z 48
_cell_length_a 27.112103
_cell_length_b 13.972873
_cell_length_c 13.244486
_cell_angle_alpha 90.000000
_cell_angle_beta 23.152738
_cell_angle_gamma 90.000000
_cell_volume 1972.783480
_symmetry_space_group_name_H-M "C 2/M"
_symmetry_group_IT_number 12
_symmetry_cell_setting 'monoclinic'
loop_
_space_group_symop_operation_xyz
x,y,z
-x,y,-z
-x,-y,-z
x,-y,z
1/2+x,1/2+y,z
1/2-x,1/2+y,-z
1/2-x,1/2-y,-z
1/2+x,1/2-y,z
loop_
_atom_site_type_symbol
_atom_site_label
_atom_site_fract_x
_atom_site_fract_y
_atom_site_fract_z
Si Si1 0.455844 0.890999 0.184120
Si Si2 0.369459 0.725156 0.703255
Si Si3 0.328177 0.390552 0.355070
Si Si4 0.378299 0.614323 0.048830
Si Si5 0.853738 0.113595 0.533621
Si Si6 0.897216 0.385148 0.506615
O O1 0.308451 0.897325 0.439136
O O2 0.475138 0.854297 0.260264
O O3 0.508995 0.000000 0.085413
O O4 0.500000 0.841376 0.000000
O O5 0.500000 0.677992 0.500000
O O6 0.316428 0.663420 0.707954
O O7 0.423865 0.823197 0.552744
O O8 0.250000 0.750000 0.000000
O O9 0.372678 0.500000 0.290668
O O10 0.400055 0.348672 0.121908
O O11 0.311878 0.349805 0.499494
O O12 0.369947 0.500000 0.076961
O O13 0.247204 0.641172 0.247034
O O14 0.496873 0.630601 0.755879
O O15 0.825023 0.000000 0.593169
O O16 0.907921 0.500000 0.496889
#
# Coordination Sequence:
#
# PCOD9199427 Si02
#       6
#     8   8   8   8   8   8
#     4   8  14  27  50  81 117 152 182 217 270 346
#     4  12  28  46  62  84 114 150 204 264 300 332
#     4   8  14  26  50  86 119 144 176 222 279 348
#     4   8  14  30  59  91 121 151 182 223 284 359
#     4  10  20  36  60  87 117 153 190 234 292 351
#     4   9  19  38  62  85 114 154 193 234 293 353
#
# _framework density 24.331102000000001
#
# number of rings (size 3 to 8) (size 9 to 14) (size 15 to 20)
#    0.000    2.833    0.000    3.500    0.000    4.667 
#    0.000    6.667    0.000    0.000    0.000    0.000 
#    0.000    0.000    0.000    0.000    0.000    0.000 
#
# Total GULP energy -133756.147510 kJ/mol
# GULP energy per Si atom -5573.172813 kJ/mol
# Density = 2.427572 g / cm^3
# Si number density = 24.331102 Si / 1000 Ang^3
#
#
#
# Elastic Constant Matrix: (Units=GPa)
#
#
# Indices 1 2 3 4 5 6 
#
# 1 112.7201 26.1636 24.1433 0.0000 35.5771 0.0000
# 2 26.1636 92.1265 11.8532 0.0000 24.0664 0.0000
# 3 24.1433 11.8532 105.2566 0.0000 54.3008 0.0000
# 4 0.0000 0.0000 0.0000 -15.7738 0.0000 12.7285
# 5 35.5771 24.0664 54.3008 0.0000 49.5710 0.0000
# 6 0.0000 0.0000 0.0000 12.7285 0.0000 35.3409
#
#
#
# Elastic Compliance Matrix: (Units=1/GPa)
#
#
# Indices 1 2 3 4 5 6 
#
# 1 0.012173 -0.000673 0.003730 0.000000 -0.012496 0.000000
# 2 -0.000673 0.013222 0.003973 0.000000 -0.010289 0.000000
# 3 0.003730 0.003973 0.024314 0.000000 -0.031240 0.000000
# 4 0.000000 0.000000 0.000000 -0.049120 0.000000 0.017691
# 5 -0.012496 -0.010289 -0.031240 0.000000 0.068357 0.000000
# 6 0.000000 0.000000 0.000000 0.017691 0.000000 0.021924
#
#
# Mechanical properties :
#
#
# Convention : Reuss Voigt Hill
#
# Bulk Modulus (GPa) = 15.68133 48.26926 31.97530
# Shear Modulus (GPa) = 50.98671 30.35717 40.67194
#
# Velocity S-wave (km/s) = 4.58267 3.53607 4.09296
# Velocity P-wave (km/s) = 5.87027 6.04593 5.95875
#
# Compressibility (1/GPa) = 0.06377009
#
# Stress axis : x y z
#
# Youngs Moduli (GPa) = 82.15129 75.63009 41.12874
#
# Poissons Ratio (x) = 0.05087 -0.15341
# Poissons Ratio (y) = 0.05526 -0.16341
# Poissons Ratio (z) = -0.30643 -0.30050
#
# Static dielectric constant tensor:
#      x y z
#    x 1.956600 0.000000 0.000920 
#    y 0.000000 1.976720 0.000000 
#    z 0.000920 0.000000 2.062030 
# 
# From -- ./inp_files/183679.got.cif
#   From: 2010.05.17/outbox.cif.g08.bks.cpg/sg12_92_cif.got.tgz:183679.got - 2010.06.03 13:09:07.
