data_PCOD9199314
_publ_section_title
;
Structure prediction by ZEFSAII (Michael W. Deem and Ramdas Pophale) SiO2 
 PCOD9199314
Probable space group: C 2/M
;
_chemical_formula_sum "Si O2"
_cell_formula_units_Z 56
_cell_length_a 16.552131
_cell_length_b 8.950841
_cell_length_c 30.040314
_cell_angle_alpha 90.000000
_cell_angle_beta 139.742824
_cell_angle_gamma 90.000000
_cell_volume 2876.089047
_symmetry_space_group_name_H-M "C 2/M"
_symmetry_group_IT_number 12
_symmetry_cell_setting 'monoclinic'
loop_
_space_group_symop_operation_xyz
x,y,z
-x,y,-z
-x,-y,-z
x,-y,z
1/2+x,1/2+y,z
1/2-x,1/2+y,-z
1/2-x,1/2-y,-z
1/2+x,1/2-y,z
loop_
_atom_site_type_symbol
_atom_site_label
_atom_site_fract_x
_atom_site_fract_y
_atom_site_fract_z
Si Si1 0.058089 0.321736 0.155911
Si Si2 0.238731 0.172512 0.542097
Si Si3 0.608744 0.320099 0.080772
Si Si4 0.834480 0.821842 0.309894
Si Si5 0.616696 0.181568 0.837958
Si Si6 0.506007 0.835635 0.554188
Si Si7 0.988225 0.681482 0.692066
O O1 0.042507 0.500000 0.142697
O O2 0.074537 0.246637 0.114598
O O3 0.189927 0.299250 0.236728
O O4 0.946314 0.268413 0.141919
O O5 0.250000 0.250000 0.500000
O O6 0.095235 0.204769 0.488889
O O7 0.345700 0.227757 0.620824
O O8 0.261501 0.000000 0.547970
O O9 0.615554 0.500000 0.088472
O O10 0.742882 0.270128 0.116743
O O11 0.500000 0.283937 0.000000
O O12 0.874602 0.730544 0.370602
O O13 0.921680 0.757553 0.306690
O O14 0.855507 0.000000 0.323920
O O15 0.530118 0.222983 0.759384
O O16 0.618753 0.000000 0.841179
O O17 0.500000 0.864127 0.500000
O O18 0.475884 0.000000 0.562755
O O19 0.000947 0.500000 0.694188
#
# Coordination Sequence:
#
# PCOD9199314 Si02
#       7
#     8   8   8   8   8   8   8
#     4  10  22  39  61  90 122 160 202 248 303 358
#     4  11  22  35  56  82 108 145 196 246 298 361
#     4  10  21  39  65  94 124 161 201 241 293 361
#     4  11  22  36  59  85 113 150 200 255 304 360
#     4   9  19  38  61  86 121 161 198 240 297 363
#     4  11  25  41  55  77 114 158 202 251 312 364
#     4  10  20  36  60  81 109 154 196 240 300 363
#
# _framework density 19.470884999999999
#
# number of rings (size 3 to 8) (size 9 to 14) (size 15 to 20)
#    0.000    1.714    2.857    1.286    2.000    3.143 
#    0.000    1.429    0.000    0.000    0.000    0.000 
#    0.000    0.000    0.000    0.000    0.000    0.000 
#
# Total GULP energy -155905.144825 kJ/mol
# GULP energy per Si atom -5568.040887 kJ/mol
# Density = 1.942657 g / cm^3
# Si number density = 19.470885 Si / 1000 Ang^3
#
#
#
# Elastic Constant Matrix: (Units=GPa)
#
#
# Indices 1 2 3 4 5 6 
#
# 1 90.0618 33.7844 76.9550 0.0000 -20.6158 0.0000
# 2 33.7844 38.7987 43.5037 0.0000 -4.4748 0.0000
# 3 76.9550 43.5037 150.8291 0.0000 -2.8756 0.0000
# 4 0.0000 0.0000 0.0000 24.4258 0.0000 -6.5916
# 5 -20.6158 -4.4748 -2.8756 0.0000 21.8932 0.0000
# 6 0.0000 0.0000 0.0000 -6.5916 0.0000 22.5241
#
#
#
# Elastic Compliance Matrix: (Units=1/GPa)
#
#
# Indices 1 2 3 4 5 6 
#
# 1 0.031988 -0.010469 -0.012800 0.000000 0.026301 0.000000
# 2 -0.010469 0.042424 -0.006935 0.000000 -0.002098 0.000000
# 3 -0.012800 -0.006935 0.014942 0.000000 -0.011508 0.000000
# 4 0.000000 0.000000 0.000000 0.044451 0.000000 0.013008
# 5 0.026301 -0.002098 -0.011508 0.000000 0.068502 0.000000
# 6 0.000000 0.000000 0.000000 0.013008 0.000000 0.048204
#
#
# Mechanical properties :
#
#
# Convention : Reuss Voigt Hill
#
# Bulk Modulus (GPa) = 34.54663 65.35288 49.94976
# Shear Modulus (GPa) = 15.59745 22.13174 18.86460
#
# Velocity S-wave (km/s) = 2.83338 3.37509 3.11603
# Velocity P-wave (km/s) = 5.33716 6.98753 6.21735
#
# Compressibility (1/GPa) = 0.02894638
#
# Stress axis : x y z
#
# Youngs Moduli (GPa) = 31.26189 23.57166 66.92761
#
# Poissons Ratio (x) = 0.24676 0.85666
# Poissons Ratio (y) = 0.32727 0.46415
# Poissons Ratio (z) = 0.40014 0.16347
#
# Static dielectric constant tensor:
#      x y z
#    x 1.655240 0.000000 -0.017040 
#    y 0.000000 1.640980 0.000000 
#    z -0.017040 0.000000 1.646590 
# 
# From -- ./inp_files/377738.got.cif
#   From: 2010.05.17/outbox.cif.g08.bks.cpg/sg12_189_cif.got.tgz:377738.got - 2010.06.03 13:09:07.
