data_PCOD9199837
_publ_section_title
;
Structure prediction by ZEFSAII (Michael W. Deem and Ramdas Pophale) SiO2 
 PCOD9199837
Probable space group: C 2/M
;
_chemical_formula_sum "Si O2"
_cell_formula_units_Z 40
_cell_length_a 12.555018
_cell_length_b 14.782860
_cell_length_c 11.946752
_cell_angle_alpha 90.000000
_cell_angle_beta 133.121761
_cell_angle_gamma 90.000000
_cell_volume 1618.417745
_symmetry_space_group_name_H-M "C 2/M"
_symmetry_group_IT_number 12
_symmetry_cell_setting 'monoclinic'
loop_
_space_group_symop_operation_xyz
x,y,z
-x,y,-z
-x,-y,-z
x,-y,z
1/2+x,1/2+y,z
1/2-x,1/2+y,-z
1/2-x,1/2-y,-z
1/2+x,1/2-y,z
loop_
_atom_site_type_symbol
_atom_site_label
_atom_site_fract_x
_atom_site_fract_y
_atom_site_fract_z
Si Si1 0.464029 0.600793 0.093713
Si Si2 0.651631 0.893879 0.239289
Si Si3 0.156743 0.662258 0.900145
Si Si4 0.224195 0.107395 0.421938
Si Si5 0.861269 0.254359 0.343531
O O1 0.523997 0.500000 0.123134
O O2 0.555292 0.632090 0.267852
O O3 0.500000 0.648721 0.000000
O O4 0.292430 0.595293 0.986920
O O5 0.480520 0.869757 0.126729
O O6 0.724792 0.877404 0.414702
O O7 0.740061 0.821453 0.229604
O O8 0.669261 0.000000 0.222578
O O9 0.098096 0.687733 0.735588
O O10 0.250000 0.750000 0.000000
O O11 0.305012 0.171996 0.392613
O O12 0.254088 0.000000 0.426278
O O13 0.000000 0.208027 0.500000
#
# Coordination Sequence:
#
# PCOD9199837 Si02
#       5
#     8   8   8   8   8
#     4  10  20  36  61  93 131 166 210 270 337 396
#     4  11  26  47  70  99 138 182 233 279 335 413
#     4  12  26  41  68  98 135 176 225 280 343 399
#     4  10  21  39  68 101 135 174 221 281 343 403
#     4  12  25  43  70  99 136 179 233 285 341 401
#
# _framework density 24.715499999999999
#
# number of rings (size 3 to 8) (size 9 to 14) (size 15 to 20)
#    0.000    1.000    4.000    2.400    2.800    1.600 
#    0.000    3.000    0.000    0.000    0.000    0.000 
#    0.000    0.000    0.000    0.000    0.000    0.000 
#
# Total GULP energy -111738.104232 kJ/mol
# GULP energy per Si atom -5586.905212 kJ/mol
# Density = 2.465925 g / cm^3
# Si number density = 24.715500 Si / 1000 Ang^3
#
#
#
# Elastic Constant Matrix: (Units=GPa)
#
#
# Indices 1 2 3 4 5 6 
#
# 1 70.0120 30.2600 15.4117 0.0000 27.9206 0.0000
# 2 30.2600 105.2081 1.3908 0.0000 -0.9185 0.0000
# 3 15.4117 1.3908 131.7622 0.0000 23.6517 0.0000
# 4 0.0000 0.0000 0.0000 25.9769 0.0000 15.1767
# 5 27.9206 -0.9185 23.6517 0.0000 41.0238 0.0000
# 6 0.0000 0.0000 0.0000 15.1767 0.0000 6.1675
#
#
#
# Elastic Compliance Matrix: (Units=1/GPa)
#
#
# Indices 1 2 3 4 5 6 
#
# 1 0.023851 -0.007008 0.000252 0.000000 -0.016535 0.000000
# 2 -0.007008 0.011569 -0.000229 0.000000 0.005160 0.000000
# 3 0.000252 -0.000229 0.008471 0.000000 -0.005061 0.000000
# 4 0.000000 0.000000 0.000000 -0.087958 0.000000 0.216443
# 5 -0.016535 0.005160 -0.005061 0.000000 0.038663 0.000000
# 6 0.000000 0.000000 0.000000 0.216443 0.000000 -0.370472
#
#
# Mechanical properties :
#
#
# Convention : Reuss Voigt Hill
#
# Bulk Modulus (GPa) = 33.42039 44.56749 38.99394
# Shear Modulus (GPa) = -14.20715 31.96163 8.87724
#
# Velocity S-wave (km/s) = -2.40016 3.59998 1.89725
# Velocity P-wave (km/s) = 2.42289 5.94569 4.53991
#
# Compressibility (1/GPa) = 0.02992186
#
# Stress axis : x y z
#
# Youngs Moduli (GPa) = 41.92769 86.44099 118.05389
#
# Poissons Ratio (x) = 0.60575 -0.02979
# Poissons Ratio (y) = 0.29381 0.02700
# Poissons Ratio (z) = -0.01058 0.01977
#
# Static dielectric constant tensor:
#      x y z
#    x 1.986530 0.000000 -0.025730 
#    y 0.000000 1.683700 0.000000 
#    z -0.025730 0.000000 2.041830 
# 
# From -- ./inp_files/215074.got.cif
#   From: 2010.05.17/outbox.cif.g08.bks.cpg/sg12_108_cif.got.tgz:215074.got - 2010.06.03 13:09:07.
