data_PCOD9199668
_publ_section_title
;
Structure prediction by ZEFSAII (Michael W. Deem and Ramdas Pophale) SiO2 
 PCOD9199668
Probable space group: C 2/M
;
_chemical_formula_sum "Si O2"
_cell_formula_units_Z 44
_cell_length_a 12.010025
_cell_length_b 24.108702
_cell_length_c 8.321829
_cell_angle_alpha 90.000000
_cell_angle_beta 96.089326
_cell_angle_gamma 90.000000
_cell_volume 2395.957880
_symmetry_space_group_name_H-M "C 2/M"
_symmetry_group_IT_number 12
_symmetry_cell_setting 'monoclinic'
loop_
_space_group_symop_operation_xyz
x,y,z
-x,y,-z
-x,-y,-z
x,-y,z
1/2+x,1/2+y,z
1/2-x,1/2+y,-z
1/2-x,1/2-y,-z
1/2+x,1/2-y,z
loop_
_atom_site_type_symbol
_atom_site_label
_atom_site_fract_x
_atom_site_fract_y
_atom_site_fract_z
Si Si1 0.635971 0.201252 0.308500
Si Si2 0.819518 0.000000 0.898368
Si Si3 0.000000 0.386281 0.500000
Si Si4 0.333675 0.897520 0.225843
Si Si5 0.179778 0.176778 0.420175
Si Si6 0.500000 0.840589 0.000000
Si Si7 0.500000 0.408413 0.500000
Si Si8 0.942818 0.000000 0.248517
O O1 0.562306 0.156129 0.391170
O O2 0.759464 0.185800 0.396935
O O3 0.626025 0.264883 0.361286
O O4 0.587602 0.194650 0.121970
O O5 0.749318 0.055135 0.847320
O O6 0.933023 0.000000 0.810650
O O7 0.856049 0.000000 0.090048
O O8 0.088913 0.419939 0.616926
O O9 0.267812 0.845671 0.299437
O O10 0.417718 0.877014 0.099783
O O11 0.087393 0.130011 0.422414
O O12 0.435883 0.447183 0.363550
#
# Coordination Sequence:
#
# PCOD9199668 Si02
#       8
#     8   4   4   8   8   4   4   4
#     4   9  19  36  57  87 117 149 188 232 282 343
#     4  11  22  42  58  85 120 148 188 251 290 332
#     4   8  17  37  59  82 117 149 189 236 280 340
#     4  10  21  38  59  83 115 156 187 241 287 334
#     4  10  20  36  61  84 115 155 189 226 283 348
#     4  10  22  39  58  86 120 147 192 242 286 336
#     4  11  21  40  61  88 105 158 197 227 282 354
#     4  10  24  40  60  85 116 151 194 242 282 341
#
# _framework density 18.364263000000001
#
# number of rings (size 3 to 8) (size 9 to 14) (size 15 to 20)
#    0.000    2.182    1.818    0.545    2.545    2.909 
#    3.273    0.000    0.000    0.000    0.000    0.000 
#    0.000    0.000    0.000    0.000    0.000    0.000 
#
# Total GULP energy -122498.471212 kJ/mol
# GULP energy per Si atom -5568.112328 kJ/mol
# Density = 1.832246 g / cm^3
# Si number density = 18.364263 Si / 1000 Ang^3
#
#
#
# Elastic Constant Matrix: (Units=GPa)
#
#
# Indices 1 2 3 4 5 6 
#
# 1 59.7571 27.1748 34.6032 0.0000 8.1301 0.0000
# 2 27.1748 83.3115 39.3144 0.0000 23.1784 0.0000
# 3 34.6032 39.3144 113.1780 0.0000 31.3464 0.0000
# 4 0.0000 0.0000 0.0000 -1.9291 0.0000 6.2788
# 5 8.1301 23.1784 31.3464 0.0000 38.1906 0.0000
# 6 0.0000 0.0000 0.0000 6.2788 0.0000 16.8956
#
#
#
# Elastic Compliance Matrix: (Units=1/GPa)
#
#
# Indices 1 2 3 4 5 6 
#
# 1 0.022096 -0.005396 -0.005805 0.000000 0.003336 0.000000
# 2 -0.005396 0.016813 -0.002177 0.000000 -0.007268 0.000000
# 3 -0.005805 -0.002177 0.013795 0.000000 -0.008765 0.000000
# 4 0.000000 0.000000 0.000000 -0.234605 0.000000 0.087185
# 5 0.003336 -0.007268 -0.008765 0.000000 0.037080 0.000000
# 6 0.000000 0.000000 0.000000 0.087185 0.000000 0.026787
#
#
# Mechanical properties :
#
#
# Convention : Reuss Voigt Hill
#
# Bulk Modulus (GPa) = 38.54156 50.93682 44.73919
# Shear Modulus (GPa) = -60.51179 20.97502 -19.76839
#
# Velocity S-wave (km/s) = -5.74651 3.38326 -3.28450
# Velocity P-wave (km/s) = 4.79552 6.56194 3.16718
#
# Compressibility (1/GPa) = 0.02594602
#
# Stress axis : x y z
#
# Youngs Moduli (GPa) = 45.25712 59.47848 72.49247
#
# Poissons Ratio (x) = 0.32094 0.42083
# Poissons Ratio (y) = 0.24421 0.15785
# Poissons Ratio (z) = 0.26273 0.12951
#
# Static dielectric constant tensor:
#      x y z
#    x 1.655730 0.000000 0.009720 
#    y 0.000000 1.594850 0.000000 
#    z 0.009720 0.000000 1.661700 
# 
# From -- ./inp_files/49447.got.cif
#   From: 2010.05.17/outbox.cif.g08.bks.cpg/sg12_25_cif.got.tgz:49447.got - 2010.06.03 13:09:07.
