data_PCOD9199124
_publ_section_title
;
Structure prediction by ZEFSAII (Michael W. Deem and Ramdas Pophale) SiO2 
 PCOD9199124
Probable space group: C 2/M
;
_chemical_formula_sum "Si O2"
_cell_formula_units_Z 64
_cell_length_a 18.993941
_cell_length_b 8.985238
_cell_length_c 30.726724
_cell_angle_alpha 90.000000
_cell_angle_beta 38.702687
_cell_angle_gamma 90.000000
_cell_volume 3278.951174
_symmetry_space_group_name_H-M "C 2/M"
_symmetry_group_IT_number 12
_symmetry_cell_setting 'monoclinic'
loop_
_space_group_symop_operation_xyz
x,y,z
-x,y,-z
-x,-y,-z
x,-y,z
1/2+x,1/2+y,z
1/2-x,1/2+y,-z
1/2-x,1/2-y,-z
1/2+x,1/2-y,z
loop_
_atom_site_type_symbol
_atom_site_label
_atom_site_fract_x
_atom_site_fract_y
_atom_site_fract_z
Si Si1 0.550299 0.820714 0.300326
Si Si2 0.689934 0.675030 0.070123
Si Si3 0.532322 0.173290 0.845262
Si Si4 0.788984 0.319838 0.435792
Si Si5 0.782923 0.325849 0.853665
Si Si6 0.707161 0.679367 0.298673
Si Si7 0.370407 0.681141 0.567555
Si Si8 0.577885 0.830779 0.920467
O O1 0.419386 0.778940 0.365051
O O2 0.607626 0.780187 0.226664
O O3 0.623017 0.749962 0.304129
O O4 0.558140 0.000000 0.300239
O O5 0.703511 0.500000 0.060437
O O6 0.559434 0.724341 0.132806
O O7 0.736436 0.735162 0.093160
O O8 0.750000 0.750000 0.000000
O O9 0.661991 0.213845 0.773912
O O10 0.513023 0.183028 0.906465
O O11 0.516332 0.000000 0.839754
O O12 0.782668 0.500000 0.441589
O O13 0.750000 0.250000 0.500000
O O14 0.708699 0.271887 0.434475
O O15 0.789502 0.500000 0.860599
O O16 0.676942 0.288098 0.874474
O O17 0.696319 0.500000 0.300879
O O18 0.675627 0.726027 0.362929
O O19 0.500000 0.729736 0.500000
O O20 0.370024 0.500000 0.567216
O O21 0.625509 0.000000 0.897907
O O22 0.500000 0.813552 0.000000
#
# Coordination Sequence:
#
# PCOD9199124 Si02
#       8
#     8   8   8   8   8   8   8   8
#     4  10  22  38  59  87 123 161 195 245 305 357
#     4  12  26  43  63  87 119 158 203 254 308 365
#     4  10  21  37  59  88 120 156 200 246 300 360
#     4  10  21  38  60  87 120 158 200 247 301 355
#     4  11  23  39  61  88 120 159 202 247 300 362
#     4  10  20  36  62  88 116 158 201 244 291 353
#     4   9  18  33  57  88 117 152 198 243 287 344
#     4  10  20  36  59  86 117 153 194 244 298 351
#
# _framework density 19.518436999999999
#
# number of rings (size 3 to 8) (size 9 to 14) (size 15 to 20)
#    0.000    1.750    1.250    3.000    1.750    4.250 
#    0.000    0.625    0.000    2.250    0.000    0.000 
#    0.000    0.000    0.000    0.000    0.000    0.000 
#
# Total GULP energy -178762.880869 kJ/mol
# GULP energy per Si atom -5586.340027 kJ/mol
# Density = 1.947401 g / cm^3
# Si number density = 19.518437 Si / 1000 Ang^3
#
#
#
# Elastic Constant Matrix: (Units=GPa)
#
#
# Indices 1 2 3 4 5 6 
#
# 1 98.0130 30.4622 36.5466 0.0000 1.3341 0.0000
# 2 30.4622 43.6439 29.2492 0.0000 0.3727 -0.0005
# 3 36.5466 29.2492 98.1345 0.0000 5.3766 0.0000
# 4 0.0000 0.0000 0.0000 22.8984 0.0000 -0.5919
# 5 1.3341 0.3727 5.3766 0.0000 34.3003 -0.0001
# 6 0.0000 -0.0005 0.0000 -0.5919 -0.0001 32.9339
#
#
#
# Elastic Compliance Matrix: (Units=1/GPa)
#
#
# Indices 1 2 3 4 5 6 
#
# 1 0.013617 -0.007630 -0.002797 0.000000 -0.000008 0.000000
# 2 -0.007630 0.032944 -0.007035 0.000000 0.001041 0.000001
# 3 -0.002797 -0.007035 0.013433 0.000000 -0.001920 0.000000
# 4 0.000000 0.000000 0.000000 0.043691 0.000000 0.000785
# 5 -0.000008 0.001041 -0.001920 0.000000 0.029444 0.000000
# 6 0.000000 0.000001 0.000000 0.000785 0.000000 0.030378
#
#
# Mechanical properties :
#
#
# Convention : Reuss Voigt Hill
#
# Bulk Modulus (GPa) = 39.88504 48.03414 43.95959
# Shear Modulus (GPa) = 24.17943 27.59542 25.88742
#
# Velocity S-wave (km/s) = 3.52348 3.76415 3.64580
# Velocity P-wave (km/s) = 6.08540 6.59961 6.34771
#
# Compressibility (1/GPa) = 0.02507206
#
# Stress axis : x y z
#
# Youngs Moduli (GPa) = 73.43771 30.35478 74.44110
#
# Poissons Ratio (x) = 0.23161 0.20818
# Poissons Ratio (y) = 0.56033 0.52366
# Poissons Ratio (z) = 0.20537 0.21353
#
# Static dielectric constant tensor:
#      x y z
#    x 1.672470 0.000000 -0.005770 
#    y 0.000000 1.663830 0.000000 
#    z -0.005770 0.000000 1.687310 
# 
# From -- ./inp_files/378229.got.cif
#   From: 2010.05.17/outbox.cif.g08.bks.cpg/sg12_190_cif.got.tgz:378229.got - 2010.06.03 13:09:07.
