data_PCOD9199725
_publ_section_title
;
Structure prediction by ZEFSAII (Michael W. Deem and Ramdas Pophale) SiO2 
 PCOD9199725
Probable space group: C 2/M
;
_chemical_formula_sum "Si O2"
_cell_formula_units_Z 42
_cell_length_a 29.932722
_cell_length_b 7.639607
_cell_length_c 8.940179
_cell_angle_alpha 90.000000
_cell_angle_beta 111.593591
_cell_angle_gamma 90.000000
_cell_volume 1900.908593
_symmetry_space_group_name_H-M "C 2/M"
_symmetry_group_IT_number 12
_symmetry_cell_setting 'monoclinic'
loop_
_space_group_symop_operation_xyz
x,y,z
-x,y,-z
-x,-y,-z
x,-y,z
1/2+x,1/2+y,z
1/2-x,1/2+y,-z
1/2-x,1/2-y,-z
1/2+x,1/2-y,z
loop_
_atom_site_type_symbol
_atom_site_label
_atom_site_fract_x
_atom_site_fract_y
_atom_site_fract_z
Si Si1 0.173810 0.212036 0.564145
Si Si2 0.500000 0.500000 0.500000
Si Si3 0.068719 0.293885 0.519776
Si Si4 0.041621 0.700774 0.150528
Si Si5 0.233835 0.292266 0.146313
Si Si6 0.642202 0.702916 0.199314
O O1 0.126385 0.273700 0.593875
O O2 0.224012 0.275633 0.692862
O O3 0.166479 0.268436 0.383474
O O4 0.174100 0.000000 0.569216
O O5 0.540145 0.656893 0.584992
O O6 0.057491 0.500000 0.527586
O O7 0.053373 0.230381 0.331371
O O8 0.027312 0.500000 0.161047
O O9 0.091350 0.704233 0.120922
O O10 0.000000 0.785559 0.000000
O O11 0.230807 0.500000 0.161815
O O12 0.181617 0.219983 0.120768
O O13 0.250000 0.250000 0.000000
O O14 0.630160 0.500000 0.206030
#
# Coordination Sequence:
#
# PCOD9199725 Si02
#       6
#     8   2   8   8   8   8
#     4   9  19  39  63  85 115 154 201 252 299 351
#     4  12  22  40  58  86 132 152 210 250 294 354
#     4  10  21  38  62  88 117 163 203 247 300 358
#     4   9  19  38  61  87 117 149 198 252 295 350
#     4  11  23  39  58  85 123 157 193 245 303 360
#     4  10  20  36  61  89 114 151 200 242 298 361
#
# _framework density 22.094698999999999
#
# number of rings (size 3 to 8) (size 9 to 14) (size 15 to 20)
#    0.000    2.095    0.952    2.000    1.333    2.667 
#    3.429    0.000    0.000    0.000    0.000    0.000 
#    0.000    0.000    0.000    0.000    0.000    0.000 
#
# Total GULP energy -117003.069439 kJ/mol
# GULP energy per Si atom -5571.574735 kJ/mol
# Density = 2.204441 g / cm^3
# Si number density = 22.094699 Si / 1000 Ang^3
#
#
#
# Elastic Constant Matrix: (Units=GPa)
#
#
# Indices 1 2 3 4 5 6 
#
# 1 99.3256 2.0115 17.9714 0.0000 7.5323 0.0000
# 2 2.0115 98.5748 -4.3470 0.0000 1.4977 0.0000
# 3 17.9714 -4.3470 50.9082 0.0000 23.7731 0.0000
# 4 0.0000 0.0000 0.0000 11.9509 0.0000 2.3766
# 5 7.5323 1.4977 23.7731 0.0000 26.9321 0.0000
# 6 0.0000 0.0000 0.0000 2.3766 0.0000 18.4427
#
#
#
# Elastic Compliance Matrix: (Units=1/GPa)
#
#
# Indices 1 2 3 4 5 6 
#
# 1 0.010777 -0.000413 -0.004156 0.000000 0.000678 0.000000
# 2 -0.000413 0.010281 0.002104 0.000000 -0.002313 0.000000
# 3 -0.004156 0.002104 0.035390 0.000000 -0.030193 0.000000
# 4 0.000000 0.000000 0.000000 0.085876 0.000000 -0.011067
# 5 0.000678 -0.002313 -0.030193 0.000000 0.063721 0.000000
# 6 0.000000 0.000000 0.000000 -0.011067 0.000000 0.055648
#
#
# Mechanical properties :
#
#
# Convention : Reuss Voigt Hill
#
# Bulk Modulus (GPa) = 19.41118 31.12005 25.26562
# Shear Modulus (GPa) = 17.61825 27.00998 22.31411
#
# Velocity S-wave (km/s) = 2.82689 3.50017 3.18139
# Velocity P-wave (km/s) = 4.41130 5.51818 4.99549
#
# Compressibility (1/GPa) = 0.05151670
#
# Stress axis : x y z
#
# Youngs Moduli (GPa) = 92.79129 97.26714 28.25676
#
# Poissons Ratio (x) = 0.04022 0.11744
# Poissons Ratio (y) = 0.03837 -0.05946
# Poissons Ratio (z) = 0.38565 -0.20467
#
# Static dielectric constant tensor:
#      x y z
#    x 1.821570 0.000000 -0.015200 
#    y 0.000000 1.883560 0.000000 
#    z -0.015200 0.000000 1.857190 
# 
# From -- ./inp_files/108904.got.cif
#   From: 2010.05.17/outbox.cif.g08.bks.cpg/sg12_55_cif.got.tgz:108904.got - 2010.06.03 13:09:07.
