data_PCOD9199671
_publ_section_title
;
Structure prediction by ZEFSAII (Michael W. Deem and Ramdas Pophale) SiO2 
 PCOD9199671
Probable space group: C 2/M
;
_chemical_formula_sum "Si O2"
_cell_formula_units_Z 64
_cell_length_a 23.105242
_cell_length_b 11.464430
_cell_length_c 23.668140
_cell_angle_alpha 90.000000
_cell_angle_beta 148.838535
_cell_angle_gamma 90.000000
_cell_volume 3244.119604
_symmetry_space_group_name_H-M "C 2/M"
_symmetry_group_IT_number 12
_symmetry_cell_setting 'monoclinic'
loop_
_space_group_symop_operation_xyz
x,y,z
-x,y,-z
-x,-y,-z
x,-y,z
1/2+x,1/2+y,z
1/2-x,1/2+y,-z
1/2-x,1/2-y,-z
1/2+x,1/2-y,z
loop_
_atom_site_type_symbol
_atom_site_label
_atom_site_fract_x
_atom_site_fract_y
_atom_site_fract_z
Si Si1 0.151734 0.867197 0.764914
Si Si2 0.603686 0.371242 0.985791
Si Si3 0.822569 0.697559 0.111525
Si Si4 0.667471 0.636281 0.428077
Si Si5 0.061650 0.865893 0.464790
Si Si6 0.378534 0.801594 0.899709
Si Si7 0.286100 0.861025 0.705761
Si Si8 0.468815 0.769595 0.777770
O O1 0.145131 0.796856 0.816872
O O2 0.277627 0.864797 0.847593
O O3 0.063788 0.817500 0.645351
O O4 0.119068 0.000000 0.748318
O O5 0.555320 0.500000 0.946064
O O6 0.731825 0.376489 0.070190
O O7 0.604410 0.313458 0.048087
O O8 0.535619 0.290638 0.885201
O O9 0.939050 0.657085 0.180970
O O10 0.750000 0.750000 0.000000
O O11 0.708974 0.500000 0.455094
O O12 0.750000 0.750000 0.500000
O O13 0.606544 0.636119 0.437900
O O14 0.584234 0.671611 0.307599
O O15 0.162174 0.816809 0.586234
O O16 0.051345 0.000000 0.475434
O O17 0.336625 0.792430 0.800851
O O18 0.500000 0.860993 0.000000
O O19 0.368351 0.842888 0.721252
O O20 0.282476 0.000000 0.716105
#
# Coordination Sequence:
#
# PCOD9199671 Si02
#       8
#     8   8   8   8   8   8   8   8
#     4  10  20  36  61  85 114 155 196 244 302 359
#     4  10  22  41  60  82 115 158 206 252 303 368
#     4   9  20  34  53  86 121 147 191 240 295 364
#     4  11  21  35  60  91 128 164 205 254 307 373
#     4   9  19  36  58  87 118 158 200 245 302 364
#     4  11  23  42  57  85 115 152 203 253 311 368
#     4  11  23  38  58  88 125 159 199 257 312 370
#     4  11  20  37  59  91 122 158 200 244 306 373
#
# _framework density 19.728003000000001
#
# number of rings (size 3 to 8) (size 9 to 14) (size 15 to 20)
#    0.000    1.750    3.750    0.750    0.000    4.250 
#    0.000    1.875    0.000    0.000    0.000    3.500 
#    0.000    0.000    0.000    0.000    0.000    0.000 
#
# Total GULP energy -178204.385540 kJ/mol
# GULP energy per Si atom -5568.887048 kJ/mol
# Density = 1.968310 g / cm^3
# Si number density = 19.728003 Si / 1000 Ang^3
#
#
#
# Elastic Constant Matrix: (Units=GPa)
#
#
# Indices 1 2 3 4 5 6 
#
# 1 86.0294 17.0278 38.9006 0.0000 -3.8026 0.0000
# 2 17.0278 56.1960 19.8747 0.0001 4.7449 0.0000
# 3 38.9006 19.8747 147.9989 0.0001 -0.8858 0.0000
# 4 0.0000 0.0001 0.0001 14.8895 0.0001 5.2596
# 5 -3.8026 4.7449 -0.8858 0.0001 34.7804 0.0000
# 6 0.0000 0.0000 0.0000 5.2596 0.0000 -8.4363
#
#
#
# Elastic Compliance Matrix: (Units=1/GPa)
#
#
# Indices 1 2 3 4 5 6 
#
# 1 0.013779 -0.003208 -0.003180 0.000000 0.001863 0.000000
# 2 -0.003208 0.019669 -0.001817 0.000000 -0.003080 0.000000
# 3 -0.003180 -0.001817 0.007837 0.000000 0.000100 0.000000
# 4 0.000000 0.000000 0.000000 0.055040 0.000000 0.034315
# 5 0.001863 -0.003080 0.000100 0.000000 0.029378 0.000000
# 6 0.000000 0.000000 0.000000 0.034315 0.000000 -0.097141
#
#
# Mechanical properties :
#
#
# Convention : Reuss Voigt Hill
#
# Bulk Modulus (GPa) = 40.19781 49.09228 44.64504
# Shear Modulus (GPa) = 93.87271 22.54145 58.20708
#
# Velocity S-wave (km/s) = 6.90556 3.38392 5.43772
# Velocity P-wave (km/s) = 9.16529 6.34086 7.88064
#
# Compressibility (1/GPa) = 0.02487697
#
# Stress axis : x y z
#
# Youngs Moduli (GPa) = 72.57383 50.84020 127.59732
#
# Poissons Ratio (x) = 0.16309 0.40574
# Poissons Ratio (y) = 0.23281 0.23180
# Poissons Ratio (z) = 0.23077 0.09236
#
# Static dielectric constant tensor:
#      x y z
#    x 1.734370 0.000000 0.025360 
#    y 0.000000 1.656700 0.000000 
#    z 0.025360 0.000000 1.768370 
# 
# From -- ./inp_files/349394.got.cif
#   From: 2010.05.17/outbox.cif.g08.bks.cpg/sg12_175_cif.got.tgz:349394.got - 2010.06.03 13:09:07.
