data_PCOD9199855
_publ_section_title
;
Structure prediction by ZEFSAII (Michael W. Deem and Ramdas Pophale) SiO2 
 PCOD9199855
Probable space group: C 2/M
;
_chemical_formula_sum "Si O2"
_cell_formula_units_Z 48
_cell_length_a 11.434222
_cell_length_b 14.623359
_cell_length_c 26.289075
_cell_angle_alpha 90.000000
_cell_angle_beta 29.154580
_cell_angle_gamma 90.000000
_cell_volume 2141.447291
_symmetry_space_group_name_H-M "C 2/M"
_symmetry_group_IT_number 12
_symmetry_cell_setting 'monoclinic'
loop_
_space_group_symop_operation_xyz
x,y,z
-x,y,-z
-x,-y,-z
x,-y,z
1/2+x,1/2+y,z
1/2-x,1/2+y,-z
1/2-x,1/2-y,-z
1/2+x,1/2-y,z
loop_
_atom_site_type_symbol
_atom_site_label
_atom_site_fract_x
_atom_site_fract_y
_atom_site_fract_z
Si Si1 0.256960 0.603145 0.899416
Si Si2 0.485201 0.609642 0.713443
Si Si3 0.737717 0.264572 0.443123
Si Si4 0.455070 0.106659 0.188520
Si Si5 0.114326 0.844822 0.040527
Si Si6 0.934697 0.388342 0.745083
O O1 0.208217 0.500000 0.897985
O O2 0.446379 0.638549 0.786924
O O3 0.347137 0.599906 0.921941
O O4 0.000000 0.652793 0.000000
O O5 0.524358 0.500000 0.694733
O O6 0.686640 0.667308 0.609590
O O7 0.235561 0.639241 0.780625
O O8 0.500000 0.291168 0.500000
O O9 0.750000 0.250000 0.500000
O O10 0.938358 0.339774 0.350498
O O11 0.421078 0.140005 0.258548
O O12 0.406706 0.000000 0.209662
O O13 0.726665 0.117156 0.065798
O O14 0.830689 0.849171 0.142883
O O15 0.250000 0.750000 0.000000
O O16 0.924758 0.500000 0.744529
#
# Coordination Sequence:
#
# PCOD9199855 Si02
#       6
#     8   8   8   8   8   8
#     4  10  20  36  61  95 134 177 214 256 320 405
#     4  10  22  42  71 101 137 177 221 278 349 418
#     4  12  29  50  72  98 132 172 239 308 363 410
#     4  10  20  40  65  97 139 180 216 259 324 413
#     4  12  24  35  62  99 143 180 215 265 325 403
#     4  11  26  45  70  98 135 183 232 281 339 410
#
# _framework density 22.414746999999998
#
# number of rings (size 3 to 8) (size 9 to 14) (size 15 to 20)
#    0.000    1.167    1.667    4.000    4.667    2.667 
#    0.000    0.000    0.000    0.000    0.000    0.000 
#    0.000    0.000    0.000    0.000    0.000    0.000 
#
# Total GULP energy -133868.222113 kJ/mol
# GULP energy per Si atom -5577.842588 kJ/mol
# Density = 2.236373 g / cm^3
# Si number density = 22.414747 Si / 1000 Ang^3
#
#
#
# Elastic Constant Matrix: (Units=GPa)
#
#
# Indices 1 2 3 4 5 6 
#
# 1 82.3091 8.6864 37.3485 0.0014 22.9916 0.0027
# 2 8.6864 92.8725 18.0467 0.0329 8.0926 -0.0168
# 3 37.3485 18.0467 93.8749 0.0967 23.9725 -0.0222
# 4 0.0014 0.0329 0.0967 30.4091 -0.0220 8.4649
# 5 22.9916 8.0926 23.9725 -0.0220 52.0216 -0.0001
# 6 0.0027 -0.0168 -0.0222 8.4649 -0.0001 9.8908
#
#
#
# Elastic Compliance Matrix: (Units=1/GPa)
#
#
# Indices 1 2 3 4 5 6 
#
# 1 0.015747 -0.000086 -0.005072 0.000022 -0.004609 -0.000034
# 2 -0.000086 0.011219 -0.001912 -0.000014 -0.000826 0.000027
# 3 -0.005072 -0.001912 0.014042 -0.000070 -0.003932 0.000090
# 4 0.000022 -0.000014 -0.000070 0.043170 0.000043 -0.036947
# 5 -0.004609 -0.000826 -0.003932 0.000043 0.023200 -0.000046
# 6 -0.000034 0.000027 0.000090 -0.036947 -0.000046 0.132725
#
#
# Mechanical properties :
#
#
# Convention : Reuss Voigt Hill
#
# Bulk Modulus (GPa) = 37.21587 44.13553 40.67570
# Shear Modulus (GPa) = 18.99708 32.12928 25.56318
#
# Velocity S-wave (km/s) = 2.91439 3.79013 3.38074
# Velocity P-wave (km/s) = 5.28812 6.23591 5.78147
#
# Compressibility (1/GPa) = 0.02687026
#
# Stress axis : x y z
#
# Youngs Moduli (GPa) = 63.50357 89.13494 71.21549
#
# Poissons Ratio (x) = 0.00764 0.36117
# Poissons Ratio (y) = 0.00544 0.13613
# Poissons Ratio (z) = 0.32206 0.17039
#
# Static dielectric constant tensor:
#      x y z
#    x 1.849880 -0.000030 -0.078640 
#    y -0.000030 1.877900 -0.000030 
#    z -0.078640 -0.000030 1.803910 
# 
# From -- ./inp_files/358339.got.cif
#   From: 2010.05.17/outbox.cif.g08.bks.cpg/sg12_180_cif.got.tgz:358339.got - 2010.06.03 13:09:07.
