data_PCOD9199715
_publ_section_title
;
Structure prediction by ZEFSAII (Michael W. Deem and Ramdas Pophale) SiO2 
 PCOD9199715
Probable space group: C 2/M
;
_chemical_formula_sum "Si O2"
_cell_formula_units_Z 64
_cell_length_a 11.542062
_cell_length_b 24.334911
_cell_length_c 11.692920
_cell_angle_alpha 90.000000
_cell_angle_beta 94.427482
_cell_angle_gamma 90.000000
_cell_volume 3274.448779
_symmetry_space_group_name_H-M "C 2/M"
_symmetry_group_IT_number 12
_symmetry_cell_setting 'monoclinic'
loop_
_space_group_symop_operation_xyz
x,y,z
-x,y,-z
-x,-y,-z
x,-y,z
1/2+x,1/2+y,z
1/2-x,1/2+y,-z
1/2-x,1/2-y,-z
1/2+x,1/2-y,z
loop_
_atom_site_type_symbol
_atom_site_label
_atom_site_fract_x
_atom_site_fract_y
_atom_site_fract_z
Si Si1 0.635316 0.436395 0.756220
Si Si2 0.755583 0.256081 0.364288
Si Si3 0.036229 0.142067 0.132916
Si Si4 0.755042 0.882351 0.704910
Si Si5 0.650166 0.936353 0.065933
Si Si6 0.944918 0.619178 0.162231
Si Si7 0.632148 0.565324 0.505745
Si Si8 0.497962 0.242162 0.244659
O O1 0.592851 0.500000 0.745598
O O2 0.538253 0.393675 0.783983
O O3 0.726231 0.433480 0.865563
O O4 0.684827 0.421599 0.634629
O O5 0.750000 0.250000 0.500000
O O6 0.750192 0.320222 0.337272
O O7 0.628787 0.233579 0.309110
O O8 0.883914 0.241509 0.316766
O O9 0.016294 0.206080 0.161602
O O10 0.164497 0.121751 0.176186
O O11 0.000000 0.131415 0.000000
O O12 0.629578 0.901066 0.736365
O O13 0.805409 0.914686 0.602422
O O14 0.561107 0.915437 0.155294
O O15 0.629642 0.000000 0.031111
O O16 0.625650 0.896166 0.958389
O O17 0.966171 0.684344 0.180873
O O18 0.500000 0.587182 0.500000
O O19 0.626877 0.500000 0.497061
#
# Coordination Sequence:
#
# PCOD9199715 Si02
#       8
#     8   8   8   8   8   8   8   8
#     4  10  22  40  61  91 121 159 211 255 311 379
#     4  10  22  40  61  89 125 167 211 256 310 375
#     4  11  23  38  59  89 124 160 203 260 307 370
#     4  10  22  38  57  89 122 153 204 252 310 365
#     4  10  22  40  65  89 119 165 212 252 308 370
#     4  10  21  40  60  86 123 162 204 255 304 365
#     4  10  20  36  61  88 119 157 195 246 311 376
#     4  10  24  39  60  95 124 166 214 255 316 377
#
# _framework density 19.545273999999999
#
# number of rings (size 3 to 8) (size 9 to 14) (size 15 to 20)
#    0.000    1.875    1.250    1.875    5.250    1.250 
#    0.000    4.375    0.000    2.250    0.000    0.000 
#    0.000    0.000    0.000    0.000    0.000    0.000 
#
# Total GULP energy -178149.880983 kJ/mol
# GULP energy per Si atom -5567.183781 kJ/mol
# Density = 1.950079 g / cm^3
# Si number density = 19.545274 Si / 1000 Ang^3
#
#
#
# Elastic Constant Matrix: (Units=GPa)
#
#
# Indices 1 2 3 4 5 6 
#
# 1 81.1430 31.9721 24.3503 0.0000 -15.3583 0.0000
# 2 31.9721 57.5144 33.6567 0.0000 -1.8123 0.0000
# 3 24.3503 33.6567 86.9528 0.0000 -4.3046 0.0000
# 4 0.0000 0.0000 0.0000 75.6215 0.0000 7.8910
# 5 -15.3583 -1.8123 -4.3046 0.0000 36.1086 0.0000
# 6 0.0000 0.0000 0.0000 7.8910 0.0000 25.1689
#
#
#
# Elastic Compliance Matrix: (Units=1/GPa)
#
#
# Indices 1 2 3 4 5 6 
#
# 1 0.017429 -0.008811 -0.001132 0.000000 0.006836 0.000000
# 2 -0.008811 0.026933 -0.008124 0.000000 -0.003364 0.000000
# 3 -0.001132 -0.008124 0.015007 0.000000 0.000900 0.000000
# 4 0.000000 0.000000 0.000000 0.013671 0.000000 -0.004286
# 5 0.006836 -0.003364 0.000900 0.000000 0.030540 0.000000
# 6 0.000000 0.000000 0.000000 -0.004286 0.000000 0.041075
#
#
# Mechanical properties :
#
#
# Convention : Reuss Voigt Hill
#
# Bulk Modulus (GPa) = 43.03899 45.06316 44.05108
# Shear Modulus (GPa) = 26.52029 36.42187 31.47108
#
# Velocity S-wave (km/s) = 3.68756 4.32147 4.01704
# Velocity P-wave (km/s) = 6.34025 6.92863 6.64096
#
# Compressibility (1/GPa) = 0.02323475
#
# Stress axis : x y z
#
# Youngs Moduli (GPa) = 57.37471 37.12900 66.63725
#
# Poissons Ratio (x) = 0.32715 0.07543
# Poissons Ratio (y) = 0.50553 0.54137
# Poissons Ratio (z) = 0.06495 0.30164
#
# Static dielectric constant tensor:
#      x y z
#    x 1.795700 0.000000 0.083990 
#    y 0.000000 1.669540 0.000000 
#    z 0.083990 0.000000 2.096430 
# 
# From -- ./inp_files/135396.got.cif
#   From: 2010.05.17/outbox.cif.g08.bks.cpg/sg12_68_cif.got.tgz:135396.got - 2010.06.03 13:09:07.
