data_PCOD9199256
_publ_section_title
;
Structure prediction by ZEFSAII (Michael W. Deem and Ramdas Pophale) SiO2 
 PCOD9199256
Probable space group: C 2/M
;
_chemical_formula_sum "Si O2"
_cell_formula_units_Z 56
_cell_length_a 25.873046
_cell_length_b 8.679604
_cell_length_c 14.904573
_cell_angle_alpha 90.000000
_cell_angle_beta 121.624673
_cell_angle_gamma 90.000000
_cell_volume 2850.048705
_symmetry_space_group_name_H-M "C 2/M"
_symmetry_group_IT_number 12
_symmetry_cell_setting 'monoclinic'
loop_
_space_group_symop_operation_xyz
x,y,z
-x,y,-z
-x,-y,-z
x,-y,z
1/2+x,1/2+y,z
1/2-x,1/2+y,-z
1/2-x,1/2-y,-z
1/2+x,1/2-y,z
loop_
_atom_site_type_symbol
_atom_site_label
_atom_site_fract_x
_atom_site_fract_y
_atom_site_fract_z
Si Si1 0.543657 0.685921 0.620754
Si Si2 0.506974 0.686199 0.231026
Si Si3 0.226413 0.185360 0.071768
Si Si4 0.385556 0.816889 0.777969
Si Si5 0.756417 0.184940 0.605175
Si Si6 0.325455 0.185658 0.309343
Si Si7 0.408076 0.313937 0.990133
O O1 0.500000 0.736513 0.500000
O O2 0.544909 0.500000 0.622684
O O3 0.518202 0.734957 0.694736
O O4 0.610932 0.744824 0.662072
O O5 0.512920 0.500000 0.236613
O O6 0.570810 0.759699 0.262006
O O7 0.458836 0.727640 0.109184
O O8 0.273021 0.232337 0.191765
O O9 0.157945 0.233120 0.032380
O O10 0.226208 0.000000 0.067543
O O11 0.250000 0.250000 0.000000
O O12 0.318987 0.744059 0.705694
O O13 0.414288 0.759297 0.897881
O O14 0.380874 0.000000 0.773251
O O15 0.750000 0.250000 0.500000
O O16 0.699598 0.231924 0.615855
O O17 0.758411 0.000000 0.605018
O O18 0.330180 0.000000 0.311819
O O19 0.409178 0.500000 0.980723
#
# Coordination Sequence:
#
# PCOD9199256 Si02
#       7
#     8   8   8   8   8   8   8
#     4  10  23  42  64  92 122 160 210 256 303 366
#     4  10  22  40  63  89 124 170 210 254 314 372
#     4  10  20  36  59  89 123 161 201 248 304 365
#     4  12  25  40  62  94 127 163 208 260 313 364
#     4  11  24  44  67  94 127 163 207 253 309 374
#     4  10  22  41  64  90 125 161 198 250 311 364
#     4  10  20  39  62  86 123 168 208 250 313 380
#
# _framework density 19.648786999999999
#
# number of rings (size 3 to 8) (size 9 to 14) (size 15 to 20)
#    0.000    1.571    1.429    3.000    2.000    6.571 
#    0.000    0.000    0.000    0.000    0.000    0.000 
#    0.000    0.000    0.000    0.000    0.000    0.000 
#
# Total GULP energy -156537.102702 kJ/mol
# GULP energy per Si atom -5590.610811 kJ/mol
# Density = 1.960407 g / cm^3
# Si number density = 19.648787 Si / 1000 Ang^3
#
#
#
# Elastic Constant Matrix: (Units=GPa)
#
#
# Indices 1 2 3 4 5 6 
#
# 1 150.9258 27.5291 31.5738 0.0000 -21.3832 0.0000
# 2 27.5291 26.1864 20.3421 0.0000 -7.5571 0.0000
# 3 31.5738 20.3421 74.4219 0.0000 -23.3536 0.0000
# 4 0.0000 0.0000 0.0000 21.7044 0.0000 -4.6803
# 5 -21.3832 -7.5571 -23.3536 0.0000 40.2996 0.0000
# 6 0.0000 0.0000 0.0000 -4.6803 0.0000 32.5257
#
#
#
# Elastic Compliance Matrix: (Units=1/GPa)
#
#
# Indices 1 2 3 4 5 6 
#
# 1 0.008552 -0.007682 -0.000680 0.000000 0.002703 0.000000
# 2 -0.007682 0.055481 -0.012125 0.000000 -0.000699 0.000000
# 3 -0.000680 -0.012125 0.019817 0.000000 0.008849 0.000000
# 4 0.000000 0.000000 0.000000 0.047549 0.000000 0.006842
# 5 0.002703 -0.000699 0.008849 0.000000 0.031245 0.000000
# 6 0.000000 0.000000 0.000000 0.006842 0.000000 0.031729
#
#
# Mechanical properties :
#
#
# Convention : Reuss Voigt Hill
#
# Bulk Modulus (GPa) = 23.32364 45.60267 34.46316
# Shear Modulus (GPa) = 20.02881 30.37856 25.20368
#
# Velocity S-wave (km/s) = 3.19618 3.93629 3.58538
# Velocity P-wave (km/s) = 5.05141 6.62710 5.89216
#
# Compressibility (1/GPa) = 0.04287496
#
# Stress axis : x y z
#
# Youngs Moduli (GPa) = 116.92739 18.02415 50.46298
#
# Poissons Ratio (x) = 0.13847 0.03433
# Poissons Ratio (y) = 0.89827 0.61186
# Poissons Ratio (z) = 0.07955 0.21854
#
# Static dielectric constant tensor:
#      x y z
#    x 1.672780 0.000000 -0.004050 
#    y 0.000000 1.665470 0.000000 
#    z -0.004050 0.000000 1.677480 
# 
# From -- ./inp_files/239003.got.cif
#   From: 2010.05.17/outbox.cif.g08.bks.cpg/sg12_120_cif.got.tgz:239003.got - 2010.06.03 13:09:07.
