data_PCOD9199649
_publ_section_title
;
Structure prediction by ZEFSAII (Michael W. Deem and Ramdas Pophale) SiO2 
 PCOD9199649
Probable space group: C 2/M
;
_chemical_formula_sum "Si O2"
_cell_formula_units_Z 40
_cell_length_a 9.736860
_cell_length_b 28.194490
_cell_length_c 7.225832
_cell_angle_alpha 90.000000
_cell_angle_beta 123.810473
_cell_angle_gamma 90.000000
_cell_volume 1648.203312
_symmetry_space_group_name_H-M "C 2/M"
_symmetry_group_IT_number 12
_symmetry_cell_setting 'monoclinic'
loop_
_space_group_symop_operation_xyz
x,y,z
-x,y,-z
-x,-y,-z
x,-y,z
1/2+x,1/2+y,z
1/2-x,1/2+y,-z
1/2-x,1/2-y,-z
1/2+x,1/2-y,z
loop_
_atom_site_type_symbol
_atom_site_label
_atom_site_fract_x
_atom_site_fract_y
_atom_site_fract_z
Si Si1 0.381293 0.845978 0.681742
Si Si2 0.903795 0.948047 0.122874
Si Si3 0.715638 0.805369 0.987051
Si Si4 0.967673 0.149987 0.681939
Si Si5 0.517490 0.946388 0.735936
O O1 0.330976 0.822165 0.838911
O O2 0.224809 0.840826 0.429420
O O3 0.413437 0.902216 0.733776
O O4 0.554908 0.822718 0.755022
O O5 0.990311 0.905494 0.292725
O O6 0.920123 0.000000 0.221922
O O7 0.709344 0.939840 0.936280
O O8 0.000000 0.949247 0.000000
O O9 0.890873 0.829822 0.080062
O O10 0.750000 0.750000 0.000000
O O11 0.000000 0.170074 0.500000
O O12 0.500000 0.943989 0.500000
O O13 0.466128 0.000000 0.753089
#
# Coordination Sequence:
#
# PCOD9199649 Si02
#       5
#     8   8   8   8   8
#     4  10  21  41  67  93 128 170 211 269 330 388
#     4  10  20  36  60  93 134 174 213 257 316 391
#     4  10  22  43  64  88 125 162 218 277 330 386
#     4  10  21  39  65  92 126 162 211 262 324 392
#     4  10  20  37  64 100 137 174 216 262 320 395
#
# _framework density 24.26885
#
# number of rings (size 3 to 8) (size 9 to 14) (size 15 to 20)
#    0.000    2.000    2.000    1.200    0.000    3.600 
#    3.600    8.000    0.000    0.000    0.000    0.000 
#    0.000    0.000    0.000    0.000    0.000    0.000 
#
# Total GULP energy -111798.468285 kJ/mol
# GULP energy per Si atom -5589.923414 kJ/mol
# Density = 2.421361 g / cm^3
# Si number density = 24.268850 Si / 1000 Ang^3
#
#
#
# Elastic Constant Matrix: (Units=GPa)
#
#
# Indices 1 2 3 4 5 6 
#
# 1 112.9454 56.8397 68.9990 0.0000 28.2048 0.0000
# 2 56.8397 171.7080 52.9972 0.0000 28.0797 0.0000
# 3 68.9990 52.9972 165.0436 0.0000 56.2854 0.0000
# 4 0.0000 0.0000 0.0000 -11.7572 0.0000 -23.9501
# 5 28.2048 28.0797 56.2854 0.0000 65.5865 0.0000
# 6 0.0000 0.0000 0.0000 -23.9501 0.0000 28.5209
#
#
#
# Elastic Compliance Matrix: (Units=1/GPa)
#
#
# Indices 1 2 3 4 5 6 
#
# 1 0.013124 -0.002898 -0.004319 0.000000 -0.000697 0.000000
# 2 -0.002898 0.007196 -0.000670 0.000000 -0.001260 0.000000
# 3 -0.004319 -0.000670 0.010389 0.000000 -0.006772 0.000000
# 4 0.000000 0.000000 0.000000 -0.031379 0.000000 -0.026350
# 5 -0.000697 -0.001260 -0.006772 0.000000 0.021898 0.000000
# 6 0.000000 0.000000 0.000000 -0.026350 0.000000 0.012935
#
#
# Mechanical properties :
#
#
# Convention : Reuss Voigt Hill
#
# Bulk Modulus (GPa) = 66.94527 89.70766 78.32646
# Shear Modulus (GPa) = 91.05144 34.52747 62.78946
#
# Velocity S-wave (km/s) = 6.13182 3.77597 5.09201
# Velocity P-wave (km/s) = 8.81913 7.48699 8.18022
#
# Compressibility (1/GPa) = 0.01493758
#
# Stress axis : x y z
#
# Youngs Moduli (GPa) = 76.19376 138.97168 96.25704
#
# Poissons Ratio (x) = 0.40268 0.41570
# Poissons Ratio (y) = 0.22078 0.06445
# Poissons Ratio (z) = 0.32905 0.09304
#
# Static dielectric constant tensor:
#      x y z
#    x 2.006440 0.000000 -0.086490 
#    y 0.000000 2.397360 0.000000 
#    z -0.086490 0.000000 2.076020 
# 
# From -- ./inp_files/54443.got.cif
#   From: 2010.05.17/outbox.cif.g08.bks.cpg/sg12_28_cif.got.tgz:54443.got - 2010.06.03 13:09:07.
