data_PCOD9199963
_publ_section_title
;
Structure prediction by ZEFSAII (Michael W. Deem and Ramdas Pophale) SiO2 
 PCOD9199963
Probable space group: C 2/M
;
_chemical_formula_sum "Si O2"
_cell_formula_units_Z 48
_cell_length_a 14.885046
_cell_length_b 31.627839
_cell_length_c 8.442930
_cell_angle_alpha 90.000000
_cell_angle_beta 151.256851
_cell_angle_gamma 90.000000
_cell_volume 1911.406929
_symmetry_space_group_name_H-M "C 2/M"
_symmetry_group_IT_number 12
_symmetry_cell_setting 'monoclinic'
loop_
_space_group_symop_operation_xyz
x,y,z
-x,y,-z
-x,-y,-z
x,-y,z
1/2+x,1/2+y,z
1/2-x,1/2+y,-z
1/2-x,1/2-y,-z
1/2+x,1/2-y,z
loop_
_atom_site_type_symbol
_atom_site_label
_atom_site_fract_x
_atom_site_fract_y
_atom_site_fract_z
Si Si1 0.815543 0.169053 0.989786
Si Si2 0.766475 0.417433 0.299005
Si Si3 0.711667 0.079783 0.319633
Si Si4 0.321195 0.739359 0.782618
Si Si5 0.687638 0.950797 0.957530
Si Si6 0.752688 0.830288 0.246617
O O1 0.788340 0.130359 0.828632
O O2 0.729531 0.210463 0.773615
O O3 0.731516 0.156997 0.030377
O O4 0.030899 0.178415 0.371652
O O5 0.699014 0.428968 0.371586
O O6 0.712587 0.442381 0.055934
O O7 0.991591 0.424857 0.655318
O O8 0.700133 0.130409 0.275516
O O9 0.500000 0.062323 0.000000
O O10 0.793976 0.062238 0.282696
O O11 0.250000 0.750000 0.500000
O O12 0.354196 0.785928 0.903974
O O13 0.500000 0.712906 0.000000
O O14 0.639661 0.000000 0.891673
#
# Coordination Sequence:
#
# PCOD9199963 Si02
#       6
#     8   8   8   8   8   8
#     4  11  24  41  62  88 127 172 218 263 318 390
#     4  10  20  36  62  92 124 168 203 259 319 382
#     4  10  21  37  62  95 126 165 209 261 317 384
#     4  12  24  43  63  93 129 169 223 275 320 376
#     4  10  21  40  63  98 132 160 210 269 328 391
#     4  11  23  43  62  89 129 172 219 265 322 378
#
# _framework density 25.112393000000001
#
# number of rings (size 3 to 8) (size 9 to 14) (size 15 to 20)
#    0.000    1.333    3.333    3.000    0.000    5.000 
#    0.000    0.000    0.000    3.000    0.000   11.667 
#    0.000    0.000    0.000    0.000    0.000    0.000 
#
# Total GULP energy -133943.742709 kJ/mol
# GULP energy per Si atom -5580.989280 kJ/mol
# Density = 2.505524 g / cm^3
# Si number density = 25.112393 Si / 1000 Ang^3
#
#
#
# Elastic Constant Matrix: (Units=GPa)
#
#
# Indices 1 2 3 4 5 6 
#
# 1 126.8337 20.8782 65.3690 0.0000 -61.3070 0.0000
# 2 20.8782 99.4108 31.5966 0.0000 -6.6530 0.0000
# 3 65.3690 31.5966 120.3445 0.0000 -46.9087 0.0000
# 4 0.0000 0.0000 0.0000 1.7147 0.0000 -3.6829
# 5 -61.3070 -6.6530 -46.9087 0.0000 59.9228 0.0000
# 6 0.0000 0.0000 0.0000 -3.6829 0.0000 19.2633
#
#
#
# Elastic Compliance Matrix: (Units=1/GPa)
#
#
# Indices 1 2 3 4 5 6 
#
# 1 0.016755 -0.001593 -0.002979 0.000000 0.014633 0.000000
# 2 -0.001593 0.011220 -0.003210 0.000000 -0.002896 0.000000
# 3 -0.002979 -0.003210 0.013590 0.000000 0.007234 0.000000
# 4 0.000000 0.000000 0.000000 0.989560 0.000000 0.189191
# 5 0.014633 -0.002896 0.007234 0.000000 0.037001 0.000000
# 6 0.000000 0.000000 0.000000 0.189191 0.000000 0.088083
#
#
# Mechanical properties :
#
#
# Convention : Reuss Voigt Hill
#
# Bulk Modulus (GPa) = 38.45780 64.69740 51.57760
# Shear Modulus (GPa) = 4.23571 31.42983 17.83277
#
# Velocity S-wave (km/s) = 1.30014 3.54159 2.66770
# Velocity P-wave (km/s) = 4.19539 6.52249 5.48380
#
# Compressibility (1/GPa) = 0.02600253
#
# Stress axis : x y z
#
# Youngs Moduli (GPa) = 59.68340 89.12578 73.58208
#
# Poissons Ratio (x) = 0.14195 0.21921
# Poissons Ratio (y) = 0.09506 0.23618
# Poissons Ratio (z) = 0.17780 0.28607
#
# Static dielectric constant tensor:
#      x y z
#    x 2.047250 0.000000 0.004640 
#    y 0.000000 1.932550 0.000000 
#    z 0.004640 0.000000 2.088290 
# 
# From -- ./inp_files/80868.got.cif
#   From: 2010.05.17/outbox.cif.g08.bks.cpg/sg12_41_cif.got.tgz:80868.got - 2010.06.03 13:09:07.
