data_PCOD9199283
_publ_section_title
;
Structure prediction by ZEFSAII (Michael W. Deem and Ramdas Pophale) SiO2 
 PCOD9199283
Probable space group: C 2/M
;
_chemical_formula_sum "Si O2"
_cell_formula_units_Z 36
_cell_length_a 13.583709
_cell_length_b 7.877014
_cell_length_c 13.739387
_cell_angle_alpha 90.000000
_cell_angle_beta 116.444415
_cell_angle_gamma 90.000000
_cell_volume 1316.280166
_symmetry_space_group_name_H-M "C 2/M"
_symmetry_group_IT_number 12
_symmetry_cell_setting 'monoclinic'
loop_
_space_group_symop_operation_xyz
x,y,z
-x,y,-z
-x,-y,-z
x,-y,z
1/2+x,1/2+y,z
1/2-x,1/2+y,-z
1/2-x,1/2-y,-z
1/2+x,1/2-y,z
loop_
_atom_site_type_symbol
_atom_site_label
_atom_site_fract_x
_atom_site_fract_y
_atom_site_fract_z
Si Si1 0.320891 0.000000 0.361153
Si Si2 0.606052 0.700186 0.976674
Si Si3 0.454452 0.190400 0.743189
Si Si4 0.743502 0.687704 0.794359
Si Si5 0.612896 0.683528 0.489009
O O1 0.320348 0.848373 0.276727
O O2 0.323152 0.848758 0.446614
O O3 0.626312 0.500000 0.987397
O O4 0.560776 0.755534 0.851875
O O5 0.500000 0.731590 0.000000
O O6 0.706404 0.790687 0.075381
O O7 0.352544 0.192946 0.773275
O O8 0.422914 0.305351 0.638746
O O9 0.466269 0.000000 0.711030
O O10 0.692286 0.500000 0.763603
O O11 0.500000 0.693925 0.500000
O O12 0.664578 0.500000 0.532881
#
# Coordination Sequence:
#
# PCOD9199283 Si02
#       5
#     4   8   8   8   8
#     4  12  23  40  61  86 126 158 188 240 303 364
#     4   9  16  30  56  86 122 156 193 237 288 350
#     4  10  20  36  59  91 121 155 201 245 288 345
#     4  10  21  36  56  94 128 155 186 235 307 361
#     4  11  25  44  63  85 111 158 211 249 283 337
#
# _framework density 27.349800999999999
#
# number of rings (size 3 to 8) (size 9 to 14) (size 15 to 20)
#    0.000    1.778    2.222    2.333    3.111    3.556 
#    0.000    0.000    0.000    1.333    0.000    0.000 
#    0.000    0.000    0.000    0.000    0.000    0.000 
#
# Total GULP energy -100474.492792 kJ/mol
# GULP energy per Si atom -5581.916266 kJ/mol
# Density = 2.728755 g / cm^3
# Si number density = 27.349801 Si / 1000 Ang^3
#
#
#
# Elastic Constant Matrix: (Units=GPa)
#
#
# Indices 1 2 3 4 5 6 
#
# 1 94.0772 21.2760 10.2413 0.0000 1.1094 0.0000
# 2 21.2760 239.8529 97.0175 0.0000 19.7521 0.0000
# 3 10.2413 97.0175 240.4666 0.0000 -2.0490 0.0000
# 4 0.0000 0.0000 0.0000 61.2118 0.0000 3.6734
# 5 1.1094 19.7521 -2.0490 0.0000 35.1258 0.0000
# 6 0.0000 0.0000 0.0000 3.6734 0.0000 21.1804
#
#
#
# Elastic Compliance Matrix: (Units=1/GPa)
#
#
# Indices 1 2 3 4 5 6 
#
# 1 0.010850 -0.000946 -0.000079 0.000000 0.000184 0.000000
# 2 -0.000946 0.005383 -0.002158 0.000000 -0.003123 0.000000
# 3 -0.000079 -0.002158 0.005046 0.000000 0.001510 0.000000
# 4 0.000000 0.000000 0.000000 0.016509 0.000000 -0.002863
# 5 0.000184 -0.003123 0.001510 0.000000 0.030308 0.000000
# 6 0.000000 0.000000 0.000000 -0.002863 0.000000 0.047710
#
#
# Mechanical properties :
#
#
# Convention : Reuss Voigt Hill
#
# Bulk Modulus (GPa) = 67.05601 92.38516 79.72058
# Shear Modulus (GPa) = 39.32619 53.22772 46.27695
#
# Velocity S-wave (km/s) = 3.79607 4.41634 4.11790
# Velocity P-wave (km/s) = 6.61700 7.73679 7.19870
#
# Compressibility (1/GPa) = 0.01491291
#
# Stress axis : x y z
#
# Youngs Moduli (GPa) = 92.16710 185.76004 198.19358
#
# Poissons Ratio (x) = 0.17567 0.01565
# Poissons Ratio (y) = 0.08716 0.42775
# Poissons Ratio (z) = 0.00728 0.40092
#
# Static dielectric constant tensor:
#      x y z
#    x 2.280500 0.000000 -0.056280 
#    y 0.000000 1.492020 0.000000 
#    z -0.056280 0.000000 2.084860 
# 
# From -- ./inp_files/162810.got.cif
#   From: 2010.05.17/outbox.cif.g08.bks.cpg/sg12_82_cif.got.tgz:162810.got - 2010.06.03 13:09:07.
