data_PCOD9199951
_publ_section_title
;
Structure prediction by ZEFSAII (Michael W. Deem and Ramdas Pophale) SiO2 
 PCOD9199951
Probable space group: C 2/M
;
_chemical_formula_sum "Si O2"
_cell_formula_units_Z 42
_cell_length_a 26.199763
_cell_length_b 7.930783
_cell_length_c 10.465173
_cell_angle_alpha 90.000000
_cell_angle_beta 107.507119
_cell_angle_gamma 90.000000
_cell_volume 2073.778301
_symmetry_space_group_name_H-M "C 2/M"
_symmetry_group_IT_number 12
_symmetry_cell_setting 'monoclinic'
loop_
_space_group_symop_operation_xyz
x,y,z
-x,y,-z
-x,-y,-z
x,-y,z
1/2+x,1/2+y,z
1/2-x,1/2+y,-z
1/2-x,1/2-y,-z
1/2+x,1/2-y,z
loop_
_atom_site_type_symbol
_atom_site_label
_atom_site_fract_x
_atom_site_fract_y
_atom_site_fract_z
Si Si1 0.414446 0.302448 0.721810
Si Si2 0.411804 0.202604 0.003578
Si Si3 0.209099 0.300758 0.078295
Si Si4 0.207464 0.199792 0.361684
Si Si5 0.000000 0.000000 0.500000
Si Si6 0.021520 0.692805 0.690093
O O1 0.418340 0.500000 0.685083
O O2 0.353497 0.237184 0.661967
O O3 0.458348 0.203607 0.674970
O O4 0.428201 0.286398 0.882436
O O5 0.448594 0.229401 0.153544
O O6 0.411536 0.000000 0.979675
O O7 0.351403 0.264398 0.986528
O O8 0.205151 0.500000 0.071247
O O9 0.225776 0.251556 0.234018
O O10 0.250000 0.250000 0.000000
O O11 0.250000 0.250000 0.500000
O O12 0.202273 0.000000 0.358207
O O13 0.031818 0.847414 0.602819
O O14 0.035297 0.500000 0.660338
#
# Coordination Sequence:
#
# PCOD9199951 Si02
#       6
#     8   8   8   8   2   8
#     4  10  20  36  62  92 118 148 197 254 304 359
#     4   9  20  37  61  89 116 148 196 248 304 362
#     4  10  20  38  59  86 120 155 199 250 300 360
#     4  10  21  38  59  87 121 157 202 251 302 360
#     4  12  26  44  58  86 128 160 210 246 292 364
#     4  11  23  42  63  87 121 163 199 248 302 360
#
# _framework density 20.252889
#
# number of rings (size 3 to 8) (size 9 to 14) (size 15 to 20)
#    0.000    1.905    0.952    2.571    1.333    5.333 
#    3.429    0.000    0.000    0.000    0.000    0.000 
#    0.000    0.000    0.000    0.000    0.000    0.000 
#
# Total GULP energy -116966.228661 kJ/mol
# GULP energy per Si atom -5569.820412 kJ/mol
# Density = 2.020679 g / cm^3
# Si number density = 20.252889 Si / 1000 Ang^3
#
#
#
# Elastic Constant Matrix: (Units=GPa)
#
#
# Indices 1 2 3 4 5 6 
#
# 1 60.1725 8.8217 40.1087 0.0000 -2.2672 0.0000
# 2 8.8217 84.3256 21.7371 0.0000 1.6627 0.0000
# 3 40.1087 21.7371 94.9493 0.0000 17.8163 0.0000
# 4 0.0000 0.0000 0.0000 38.8930 0.0000 -1.2297
# 5 -2.2672 1.6627 17.8163 0.0000 17.3943 0.0000
# 6 0.0000 0.0000 0.0000 -1.2297 0.0000 19.5501
#
#
#
# Elastic Compliance Matrix: (Units=1/GPa)
#
#
# Indices 1 2 3 4 5 6 
#
# 1 0.027509 0.000713 -0.015404 0.000000 0.019295 0.000000
# 2 0.000713 0.012687 -0.003708 0.000000 0.002678 0.000000
# 3 -0.015404 -0.003708 0.022528 0.000000 -0.024728 0.000000
# 4 0.000000 0.000000 0.000000 0.025763 0.000000 0.001620
# 5 0.019295 0.002678 -0.024728 0.000000 0.085077 0.000000
# 6 0.000000 0.000000 0.000000 0.001620 0.000000 0.051253
#
#
# Mechanical properties :
#
#
# Convention : Reuss Voigt Hill
#
# Bulk Modulus (GPa) = 38.57302 42.30915 40.44109
# Shear Modulus (GPa) = 18.50086 26.41948 22.46017
#
# Velocity S-wave (km/s) = 3.02568 3.61568 3.33376
# Velocity P-wave (km/s) = 5.59405 6.19408 5.90169
#
# Compressibility (1/GPa) = 0.02592485
#
# Stress axis : x y z
#
# Youngs Moduli (GPa) = 36.35135 78.81901 44.38952
#
# Poissons Ratio (x) = -0.05616 0.68379
# Poissons Ratio (y) = -0.02590 0.16460
# Poissons Ratio (z) = 0.55996 0.29226
#
# Static dielectric constant tensor:
#      x y z
#    x 1.786710 0.000000 0.002940 
#    y 0.000000 1.743140 0.000000 
#    z 0.002940 0.000000 1.712010 
# 
# From -- ./inp_files/108307.got.cif
#   From: 2010.05.17/outbox.cif.g08.bks.cpg/sg12_55_cif.got.tgz:108307.got - 2010.06.03 13:09:07.
