data_PCOD9199412
_publ_section_title
;
Structure prediction by ZEFSAII (Michael W. Deem and Ramdas Pophale) SiO2 
 PCOD9199412
Probable space group: C 2/M
;
_chemical_formula_sum "Si O2"
_cell_formula_units_Z 48
_cell_length_a 14.074784
_cell_length_b 28.010111
_cell_length_c 8.368175
_cell_angle_alpha 90.000000
_cell_angle_beta 44.662612
_cell_angle_gamma 90.000000
_cell_volume 2318.995198
_symmetry_space_group_name_H-M "C 2/M"
_symmetry_group_IT_number 12
_symmetry_cell_setting 'monoclinic'
loop_
_space_group_symop_operation_xyz
x,y,z
-x,y,-z
-x,-y,-z
x,-y,z
1/2+x,1/2+y,z
1/2-x,1/2+y,-z
1/2-x,1/2-y,-z
1/2+x,1/2-y,z
loop_
_atom_site_type_symbol
_atom_site_label
_atom_site_fract_x
_atom_site_fract_y
_atom_site_fract_z
Si Si1 0.613094 0.053566 0.498592
Si Si2 0.220487 0.698581 0.460636
Si Si3 0.975217 0.855495 0.223234
Si Si4 0.392478 0.552361 0.987184
Si Si5 0.976254 0.357773 0.840532
Si Si6 0.268345 0.695303 0.024050
O O1 0.500000 0.048363 0.500000
O O2 0.752603 0.067714 0.241306
O O3 0.547843 0.094492 0.685858
O O4 0.635874 0.000000 0.542903
O O5 0.250000 0.750000 0.500000
O O6 0.320767 0.660167 0.425998
O O7 0.241862 0.693793 0.245908
O O8 0.066653 0.686081 0.673773
O O9 0.000000 0.853646 0.000000
O O10 0.035078 0.906869 0.202888
O O11 0.075211 0.818291 0.185222
O O12 0.369040 0.500000 0.940359
O O13 0.500000 0.546311 0.000000
O O14 0.827987 0.342890 0.952981
O O15 0.000000 0.360072 0.000000
O O16 0.250000 0.750000 0.000000
#
# Coordination Sequence:
#
# PCOD9199412 Si02
#       6
#     8   8   8   8   8   8
#     4  10  20  36  60  87 113 146 191 242 297 351
#     4  11  22  38  59  84 115 149 191 243 296 350
#     4   9  18  33  55  81 110 139 178 235 292 341
#     4   9  16  29  53  84 111 136 174 226 285 345
#     4  12  24  38  56  82 119 160 197 234 283 346
#     4  11  22  38  59  83 112 148 193 243 295 348
#
# _framework density 20.698619999999998
#
# number of rings (size 3 to 8) (size 9 to 14) (size 15 to 20)
#    0.000    1.667    0.000    7.500    0.000    1.667 
#    0.000    2.500    0.000    0.000    0.000    0.000 
#    0.000   44.000    0.000    0.000    0.000    0.000 
#
# Total GULP energy -133730.470656 kJ/mol
# GULP energy per Si atom -5572.102944 kJ/mol
# Density = 2.065151 g / cm^3
# Si number density = 20.698620 Si / 1000 Ang^3
#
#
#
# Elastic Constant Matrix: (Units=GPa)
#
#
# Indices 1 2 3 4 5 6 
#
# 1 93.5612 21.7017 31.4353 0.0000 -13.6316 0.0000
# 2 21.7017 111.8211 0.5372 0.0000 9.6015 0.0000
# 3 31.4353 0.5372 34.4181 0.0000 -8.9281 0.0000
# 4 0.0000 0.0000 0.0000 25.6236 0.0000 -8.0191
# 5 -13.6316 9.6015 -8.9281 0.0000 34.9353 0.0000
# 6 0.0000 0.0000 0.0000 -8.0191 0.0000 29.7895
#
#
#
# Elastic Compliance Matrix: (Units=1/GPa)
#
#
# Indices 1 2 3 4 5 6 
#
# 1 0.016910 -0.003547 -0.014378 0.000000 0.003899 0.000000
# 2 -0.003547 0.009927 0.002162 0.000000 -0.003560 0.000000
# 3 -0.014378 0.002162 0.043421 0.000000 0.004893 0.000000
# 4 0.000000 0.000000 0.000000 0.042617 0.000000 0.011472
# 5 0.003899 -0.003560 0.004893 0.000000 0.032374 0.000000
# 6 0.000000 0.000000 0.000000 0.011472 0.000000 0.036657
#
#
# Mechanical properties :
#
#
# Convention : Reuss Voigt Hill
#
# Bulk Modulus (GPa) = 25.81909 38.57208 32.19558
# Shear Modulus (GPa) = 22.09034 30.47808 26.28421
#
# Velocity S-wave (km/s) = 3.27040 3.84144 3.56737
# Velocity P-wave (km/s) = 5.17316 6.19283 5.70582
#
# Compressibility (1/GPa) = 0.03873103
#
# Stress axis : x y z
#
# Youngs Moduli (GPa) = 59.13759 100.73927 23.03008
#
# Poissons Ratio (x) = 0.35737 0.33112
# Poissons Ratio (y) = 0.20979 -0.04978
# Poissons Ratio (z) = 0.85025 -0.21776
#
# Static dielectric constant tensor:
#      x y z
#    x 1.714570 0.000000 -0.030260 
#    y 0.000000 1.849130 0.000000 
#    z -0.030260 0.000000 1.668430 
# 
# From -- ./inp_files/67338.got.cif
#   From: 2010.05.17/outbox.cif.g08.bks.cpg/sg12_34_cif.got.tgz:67338.got - 2010.06.03 13:09:07.
