data_PCOD9199823
_publ_section_title
;
Structure prediction by ZEFSAII (Michael W. Deem and Ramdas Pophale) SiO2 
 PCOD9199823
Probable space group: C 2/M
;
_chemical_formula_sum "Si O2"
_cell_formula_units_Z 56
_cell_length_a 14.208275
_cell_length_b 21.859758
_cell_length_c 9.079449
_cell_angle_alpha 90.000000
_cell_angle_beta 95.924292
_cell_angle_gamma 90.000000
_cell_volume 2804.919993
_symmetry_space_group_name_H-M "C 2/M"
_symmetry_group_IT_number 12
_symmetry_cell_setting 'monoclinic'
loop_
_space_group_symop_operation_xyz
x,y,z
-x,y,-z
-x,-y,-z
x,-y,z
1/2+x,1/2+y,z
1/2-x,1/2+y,-z
1/2-x,1/2-y,-z
1/2+x,1/2-y,z
loop_
_atom_site_type_symbol
_atom_site_label
_atom_site_fract_x
_atom_site_fract_y
_atom_site_fract_z
Si Si1 0.848799 0.071252 0.583777
Si Si2 0.606241 0.726210 0.010024
Si Si3 0.500000 0.660428 0.500000
Si Si4 0.500000 0.859720 0.500000
Si Si5 0.668661 0.072826 0.359523
Si Si6 0.254060 0.856023 0.201443
Si Si7 0.608822 0.866432 0.047417
Si Si8 0.614582 0.763499 0.677230
O O1 0.774051 0.084895 0.439630
O O2 0.789621 0.087460 0.719959
O O3 0.939945 0.115228 0.594056
O O4 0.874787 0.000000 0.581086
O O5 0.676383 0.679781 0.095414
O O6 0.610657 0.793579 0.082926
O O7 0.500000 0.702808 0.000000
O O8 0.627310 0.739023 0.843476
O O9 0.579547 0.705925 0.578714
O O10 0.411887 0.898301 0.546813
O O11 0.533100 0.814288 0.636397
O O12 0.652702 0.098840 0.193228
O O13 0.655944 0.000000 0.357191
O O14 0.292935 0.805934 0.326975
O O15 0.334056 0.874483 0.096246
O O16 0.500000 0.883789 0.000000
#
# Coordination Sequence:
#
# PCOD9199823 Si02
#       8
#     8   8   4   4   8   8   8   8
#     4  11  26  45  65  91 129 178 220 262 311 372
#     4  10  20  36  61  92 129 162 202 263 331 385
#     4  11  25  42  70  94 129 167 218 270 316 385
#     4  11  19  40  60  92 139 153 208 262 322 391
#     4  11  24  39  62  90 124 176 218 259 308 375
#     4  11  22  41  66  94 130 163 212 270 314 389
#     4  10  22  39  61  91 131 164 204 265 328 384
#     4  10  21  37  62 102 124 160 202 263 338 374
#
# _framework density 19.964919999999999
#
# number of rings (size 3 to 8) (size 9 to 14) (size 15 to 20)
#    0.000    1.429    1.429    5.571    4.000    2.571 
#    0.000    0.000    0.000    1.286    0.000    0.000 
#    0.000    0.000    0.000    0.000    0.000    0.000 
#
# Total GULP energy -156234.600687 kJ/mol
# GULP energy per Si atom -5579.807167 kJ/mol
# Density = 1.991948 g / cm^3
# Si number density = 19.964920 Si / 1000 Ang^3
#
#
#
# Elastic Constant Matrix: (Units=GPa)
#
#
# Indices 1 2 3 4 5 6 
#
# 1 65.4352 24.4433 10.3514 0.0000 -11.6221 0.0000
# 2 24.4433 83.5661 32.7445 0.0000 4.3926 0.0000
# 3 10.3514 32.7445 68.5167 0.0000 5.4006 0.0000
# 4 0.0000 0.0000 0.0000 49.7344 0.0000 -2.1008
# 5 -11.6221 4.3926 5.4006 0.0000 31.4631 0.0000
# 6 0.0000 0.0000 0.0000 -2.1008 0.0000 19.3782
#
#
#
# Elastic Compliance Matrix: (Units=1/GPa)
#
#
# Indices 1 2 3 4 5 6 
#
# 1 0.018919 -0.005642 -0.000786 0.000000 0.007911 0.000000
# 2 -0.005642 0.016429 -0.006745 0.000000 -0.003220 0.000000
# 3 -0.000786 -0.006745 0.018131 0.000000 -0.002461 0.000000
# 4 0.000000 0.000000 0.000000 0.020199 0.000000 0.002190
# 5 0.007911 -0.003220 -0.002461 0.000000 0.035577 0.000000
# 6 0.000000 0.000000 0.000000 0.002190 0.000000 0.051842
#
#
# Mechanical properties :
#
#
# Convention : Reuss Voigt Hill
#
# Bulk Modulus (GPa) = 36.85427 39.17736 38.01581
# Shear Modulus (GPa) = 25.44675 30.11372 27.78023
#
# Velocity S-wave (km/s) = 3.57399 3.88794 3.73426
# Velocity P-wave (km/s) = 5.96077 6.31034 6.13805
#
# Compressibility (1/GPa) = 0.02713390
#
# Stress axis : x y z
#
# Youngs Moduli (GPa) = 52.85633 60.86706 55.15327
#
# Poissons Ratio (x) = 0.34341 0.04332
# Poissons Ratio (y) = 0.29821 0.37203
# Poissons Ratio (z) = 0.04152 0.41057
#
# Static dielectric constant tensor:
#      x y z
#    x 1.740910 0.000000 -0.006100 
#    y 0.000000 1.689130 0.000000 
#    z -0.006100 0.000000 1.723680 
# 
# From -- ./inp_files/64120.got.cif
#   From: 2010.05.17/outbox.cif.g08.bks.cpg/sg12_33_cif.got.tgz:64120.got - 2010.06.03 13:09:07.
