data_PCOD9199515
_publ_section_title
;
Structure prediction by ZEFSAII (Michael W. Deem and Ramdas Pophale) SiO2 
 PCOD9199515
Probable space group: C 2/M
;
_chemical_formula_sum "Si O2"
_cell_formula_units_Z 48
_cell_length_a 18.764157
_cell_length_b 11.672857
_cell_length_c 14.123582
_cell_angle_alpha 90.000000
_cell_angle_beta 137.281020
_cell_angle_gamma 90.000000
_cell_volume 2098.644570
_symmetry_space_group_name_H-M "C 2/M"
_symmetry_group_IT_number 12
_symmetry_cell_setting 'monoclinic'
loop_
_space_group_symop_operation_xyz
x,y,z
-x,y,-z
-x,-y,-z
x,-y,z
1/2+x,1/2+y,z
1/2-x,1/2+y,-z
1/2-x,1/2-y,-z
1/2+x,1/2-y,z
loop_
_atom_site_type_symbol
_atom_site_label
_atom_site_fract_x
_atom_site_fract_y
_atom_site_fract_z
Si Si1 0.256181 0.700102 0.866538
Si Si2 0.112939 0.825652 0.591595
Si Si3 0.318678 0.128749 0.676670
Si Si4 0.608132 0.372079 0.165045
Si Si5 0.379505 0.875046 0.096302
Si Si6 0.089916 0.626797 0.423175
O O1 0.167542 0.787550 0.742417
O O2 0.296627 0.628499 0.817725
O O3 0.208838 0.632569 0.908161
O O4 0.353225 0.775758 0.997942
O O5 0.206750 0.877520 0.620144
O O6 0.086262 0.714674 0.503256
O O7 0.000000 0.881464 0.500000
O O8 0.373611 0.248321 0.765038
O O9 0.314906 0.137693 0.558690
O O10 0.368056 0.000000 0.742534
O O11 0.608808 0.500000 0.214220
O O12 0.500000 0.367266 0.000000
O O13 0.488838 0.860274 0.256869
O O14 0.375683 0.000000 0.046852
O O15 0.089548 0.500000 0.462990
#
# Coordination Sequence:
#
# PCOD9199515 Si02
#       6
#     8   8   8   8   8   8
#     4  10  21  36  58  89 126 161 208 261 321 376
#     4  11  22  39  61  92 128 167 218 268 318 375
#     4  10  23  41  62  91 131 172 211 260 322 389
#     4  10  21  38  63  93 126 165 215 267 318 378
#     4  10  20  36  60  88 121 161 209 262 319 381
#     4  10  21  39  65  95 125 164 215 267 324 385
#
# _framework density 22.871905999999999
#
# number of rings (size 3 to 8) (size 9 to 14) (size 15 to 20)
#    0.000    1.833    1.667    2.000    0.000    7.000 
#    0.000    0.833    0.000    0.000    0.000    0.000 
#    0.000    0.000    0.000    0.000    0.000    0.000 
#
# Total GULP energy -133845.783532 kJ/mol
# GULP energy per Si atom -5576.907647 kJ/mol
# Density = 2.281985 g / cm^3
# Si number density = 22.871906 Si / 1000 Ang^3
#
#
#
# Elastic Constant Matrix: (Units=GPa)
#
#
# Indices 1 2 3 4 5 6 
#
# 1 76.2204 26.4331 -3.0965 0.0000 7.7747 0.0000
# 2 26.4331 181.4104 40.7377 0.0000 -5.5693 0.0000
# 3 -3.0965 40.7377 52.3174 0.0000 15.0721 0.0000
# 4 0.0000 0.0000 0.0000 14.5209 0.0000 2.6866
# 5 7.7747 -5.5693 15.0721 0.0000 35.6054 0.0000
# 6 0.0000 0.0000 0.0000 2.6866 0.0000 21.5344
#
#
#
# Elastic Compliance Matrix: (Units=1/GPa)
#
#
# Indices 1 2 3 4 5 6 
#
# 1 0.015254 -0.003663 0.005557 0.000000 -0.006256 0.000000
# 2 -0.003663 0.008017 -0.008030 0.000000 0.005453 0.000000
# 3 0.005557 -0.008030 0.030075 0.000000 -0.015200 0.000000
# 4 0.000000 0.000000 0.000000 0.070493 0.000000 -0.008795
# 5 -0.006256 0.005453 -0.015200 0.000000 0.036739 0.000000
# 6 0.000000 0.000000 0.000000 -0.008795 0.000000 0.047535
#
#
# Mechanical properties :
#
#
# Convention : Reuss Voigt Hill
#
# Bulk Modulus (GPa) = 24.34612 48.67742 36.51177
# Shear Modulus (GPa) = 21.36070 30.72374 26.04222
#
# Velocity S-wave (km/s) = 3.05934 3.66908 3.37799
# Velocity P-wave (km/s) = 4.81114 6.26724 5.58683
#
# Compressibility (1/GPa) = 0.04107430
#
# Stress axis : x y z
#
# Youngs Moduli (GPa) = 65.55691 124.74028 33.25053
#
# Poissons Ratio (x) = 0.45687 -0.18478
# Poissons Ratio (y) = 0.24011 0.26700
# Poissons Ratio (z) = -0.36430 1.00166
#
# Static dielectric constant tensor:
#      x y z
#    x 1.867860 0.000000 0.061680 
#    y 0.000000 1.859160 0.000000 
#    z 0.061680 0.000000 1.847160 
# 
# From -- ./inp_files/232865.got.cif
#   From: 2010.05.17/outbox.cif.g08.bks.cpg/sg12_117_cif.got.tgz:232865.got - 2010.06.03 13:09:07.
