data_PCOD9199882
_publ_section_title
;
Structure prediction by ZEFSAII (Michael W. Deem and Ramdas Pophale) SiO2 
 PCOD9199882
Probable space group: C 2/M
;
_chemical_formula_sum "Si O2"
_cell_formula_units_Z 52
_cell_length_a 17.929068
_cell_length_b 21.058977
_cell_length_c 8.678193
_cell_angle_alpha 90.000000
_cell_angle_beta 55.400855
_cell_angle_gamma 90.000000
_cell_volume 2697.121744
_symmetry_space_group_name_H-M "C 2/M"
_symmetry_group_IT_number 12
_symmetry_cell_setting 'monoclinic'
loop_
_space_group_symop_operation_xyz
x,y,z
-x,y,-z
-x,-y,-z
x,-y,z
1/2+x,1/2+y,z
1/2-x,1/2+y,-z
1/2-x,1/2-y,-z
1/2+x,1/2-y,z
loop_
_atom_site_type_symbol
_atom_site_label
_atom_site_fract_x
_atom_site_fract_y
_atom_site_fract_z
Si Si1 0.794130 0.160561 0.380192
Si Si2 0.339381 0.425675 0.061366
Si Si3 0.399760 0.369263 0.684961
Si Si4 0.354198 0.749679 0.567152
Si Si5 0.359691 0.925794 0.859527
Si Si6 0.500000 0.844352 0.500000
Si Si7 0.730809 0.074200 0.716245
O O1 0.736607 0.209041 0.343042
O O2 0.855979 0.203118 0.418286
O O3 0.728464 0.120566 0.572438
O O4 0.845291 0.110391 0.215188
O O5 0.360495 0.500000 0.048068
O O6 0.397890 0.391640 0.862159
O O7 0.234925 0.419861 0.123477
O O8 0.500000 0.370924 0.500000
O O9 0.360469 0.298263 0.703972
O O10 0.330820 0.415176 0.672806
O O11 0.435646 0.798513 0.477609
O O12 0.436282 0.885690 0.685567
O O13 0.384615 0.000000 0.829365
O O14 0.336621 0.908436 0.064076
O O15 0.718356 0.000000 0.691297
#
# Coordination Sequence:
#
# PCOD9199882 Si02
#       7
#     8   8   8   8   8   4   8
#     4  10  20  40  56  87 115 153 189 234 281 343
#     4  10  20  36  62  87 109 148 194 235 289 340
#     4  10  20  37  57  85 114 147 193 239 279 341
#     4  10  22  37  58  82 120 154 191 226 287 337
#     4   9  19  35  58  88 116 149 191 234 283 338
#     4  12  19  38  60  88 111 154 194 240 270 336
#     4   9  19  37  59  82 114 153 189 230 288 344
#
# _framework density 19.279812
#
# number of rings (size 3 to 8) (size 9 to 14) (size 15 to 20)
#    0.000    2.154    2.308    2.077    0.000    1.846 
#    5.538    5.385    0.000    6.462    0.000    0.000 
#    0.000    0.000    0.000    0.000    0.000    0.000 
#
# Total GULP energy -145066.723197 kJ/mol
# GULP energy per Si atom -5579.489354 kJ/mol
# Density = 1.923593 g / cm^3
# Si number density = 19.279812 Si / 1000 Ang^3
#
#
#
# Elastic Constant Matrix: (Units=GPa)
#
#
# Indices 1 2 3 4 5 6 
#
# 1 27.1870 28.2739 28.5824 0.0000 -2.2930 0.0000
# 2 28.2739 123.8043 88.9658 0.0000 6.9762 0.0000
# 3 28.5824 88.9658 121.0946 0.0000 3.4542 0.0000
# 4 0.0000 0.0000 0.0000 10.6401 0.0000 11.7720
# 5 -2.2930 6.9762 3.4542 0.0000 19.3264 0.0000
# 6 0.0000 0.0000 0.0000 11.7720 0.0000 28.4217
#
#
#
# Elastic Compliance Matrix: (Units=1/GPa)
#
#
# Indices 1 2 3 4 5 6 
#
# 1 0.053119 -0.007394 -0.007399 0.000000 0.010294 0.000000
# 2 -0.007394 0.018445 -0.011651 0.000000 -0.005453 0.000000
# 3 -0.007399 -0.011651 0.018564 0.000000 0.000010 0.000000
# 4 0.000000 0.000000 0.000000 0.173485 0.000000 -0.071856
# 5 0.010294 -0.005453 0.000010 0.000000 0.054931 0.000000
# 6 0.000000 0.000000 0.000000 -0.071856 0.000000 0.064947
#
#
# Mechanical properties :
#
#
# Convention : Reuss Voigt Hill
#
# Bulk Modulus (GPa) = 26.85258 62.63667 44.74463
# Shear Modulus (GPa) = 11.14102 20.09521 15.61811
#
# Velocity S-wave (km/s) = 2.40648 3.23196 2.84927
# Velocity P-wave (km/s) = 4.65613 6.81808 5.83805
#
# Compressibility (1/GPa) = 0.03724036
#
# Stress axis : x y z
#
# Youngs Moduli (GPa) = 18.82554 54.21447 53.86866
#
# Poissons Ratio (x) = 0.40086 0.39859
# Poissons Ratio (y) = 0.13920 0.62760
# Poissons Ratio (z) = 0.13930 0.63163
#
# Static dielectric constant tensor:
#      x y z
#    x 1.698030 0.000000 0.019510 
#    y 0.000000 1.674950 0.000000 
#    z 0.019510 0.000000 1.656980 
# 
# From -- ./inp_files/88380.got.cif
#   From: 2010.05.17/outbox.cif.g08.bks.cpg/sg12_45_cif.got.tgz:88380.got - 2010.06.03 13:09:07.
