data_PCOD9199814
_publ_section_title
;
Structure prediction by ZEFSAII (Michael W. Deem and Ramdas Pophale) SiO2 
 PCOD9199814
Probable space group: C 2/M
;
_chemical_formula_sum "Si O2"
_cell_formula_units_Z 64
_cell_length_a 9.563120
_cell_length_b 18.315401
_cell_length_c 23.047313
_cell_angle_alpha 90.000000
_cell_angle_beta 54.490526
_cell_angle_gamma 90.000000
_cell_volume 3286.027082
_symmetry_space_group_name_H-M "C 2/M"
_symmetry_group_IT_number 12
_symmetry_cell_setting 'monoclinic'
loop_
_space_group_symop_operation_xyz
x,y,z
-x,y,-z
-x,-y,-z
x,-y,z
1/2+x,1/2+y,z
1/2-x,1/2+y,-z
1/2-x,1/2-y,-z
1/2+x,1/2-y,z
loop_
_atom_site_type_symbol
_atom_site_label
_atom_site_fract_x
_atom_site_fract_y
_atom_site_fract_z
Si Si1 0.816627 0.910945 0.019953
Si Si2 0.052673 0.321552 0.320394
Si Si3 0.127981 0.087667 0.741033
Si Si4 0.358566 0.822491 0.485473
Si Si5 0.952827 0.412142 0.149160
Si Si6 0.243391 0.672899 0.702607
Si Si7 0.704438 0.588349 0.106958
Si Si8 0.422893 0.413066 0.381975
O O1 0.791908 0.885222 0.959780
O O2 0.817495 0.000000 0.018774
O O3 0.652642 0.891187 0.098404
O O4 0.000000 0.886765 0.000000
O O5 0.197102 0.382167 0.274054
O O6 0.159921 0.247233 0.303565
O O7 0.956371 0.342391 0.403124
O O8 0.906657 0.313212 0.307412
O O9 0.109928 0.109735 0.677594
O O10 0.963436 0.113780 0.817243
O O11 0.128296 0.000000 0.741970
O O12 0.500000 0.806985 0.500000
O O13 0.250000 0.750000 0.500000
O O14 0.229648 0.882733 0.541731
O O15 0.936660 0.500000 0.163157
O O16 0.844366 0.368436 0.222385
O O17 0.870154 0.396426 0.106113
O O18 0.396148 0.621245 0.642558
O O19 0.693066 0.500000 0.106749
O O20 0.430369 0.500000 0.381762
#
# Coordination Sequence:
#
# PCOD9199814 Si02
#       8
#     8   8   8   8   8   8   8   8
#     4   9  18  31  52  90 130 161 202 254 308 366
#     4  12  26  42  64  92 121 165 212 259 308 382
#     4  10  21  39  64  96 124 157 204 261 318 369
#     4  12  24  42  67  89 122 165 212 259 311 373
#     4  10  20  36  61  92 125 163 207 256 311 370
#     4  12  25  42  64  91 125 166 212 260 313 369
#     4   9  17  32  58  87 123 163 199 245 306 370
#     4  11  23  42  66  94 129 164 206 263 320 370
#
# _framework density 19.476407999999999
#
# number of rings (size 3 to 8) (size 9 to 14) (size 15 to 20)
#    0.000    1.375    3.750    2.250    1.750    3.250 
#    0.000    0.625    0.000    0.750    0.000    0.000 
#    0.000    0.000    0.000    0.000    0.000    0.000 
#
# Total GULP energy -178775.394151 kJ/mol
# GULP energy per Si atom -5586.731067 kJ/mol
# Density = 1.943208 g / cm^3
# Si number density = 19.476408 Si / 1000 Ang^3
#
#
#
# Elastic Constant Matrix: (Units=GPa)
#
#
# Indices 1 2 3 4 5 6 
#
# 1 144.6760 26.3341 38.6709 -0.0002 -16.2759 0.0002
# 2 26.3341 37.6917 22.9466 -0.0001 -5.1913 0.0001
# 3 38.6709 22.9466 109.5645 -0.0003 -17.6702 0.0001
# 4 -0.0002 -0.0001 -0.0003 13.8346 0.0002 -10.5367
# 5 -16.2759 -5.1913 -17.6702 0.0002 36.2394 -0.0001
# 6 0.0002 0.0001 0.0001 -10.5367 -0.0001 23.1236
#
#
#
# Elastic Compliance Matrix: (Units=1/GPa)
#
#
# Indices 1 2 3 4 5 6 
#
# 1 0.008448 -0.004579 -0.001646 0.000000 0.002336 0.000000
# 2 -0.004579 0.032951 -0.005270 0.000000 0.000094 0.000000
# 3 -0.001646 -0.005270 0.011473 0.000000 0.004100 0.000000
# 4 0.000000 0.000000 0.000000 0.110700 0.000000 0.050443
# 5 0.002336 0.000094 0.004100 0.000000 0.030656 0.000000
# 6 0.000000 0.000000 0.000000 0.050443 0.000000 0.066231
#
#
# Mechanical properties :
#
#
# Convention : Reuss Voigt Hill
#
# Bulk Modulus (GPa) = 33.46375 51.98171 42.72273
# Shear Modulus (GPa) = 17.04100 28.23822 22.63961
#
# Velocity S-wave (km/s) = 2.96117 3.81184 3.41312
# Velocity P-wave (km/s) = 5.37684 6.79125 6.12501
#
# Compressibility (1/GPa) = 0.02988308
#
# Stress axis : x y z
#
# Youngs Moduli (GPa) = 118.36875 30.34783 87.16124
#
# Poissons Ratio (x) = 0.13895 0.14348
# Poissons Ratio (y) = 0.54196 0.45933
# Poissons Ratio (z) = 0.19486 0.15993
#
# Static dielectric constant tensor:
#      x y z
#    x 1.683780 0.000000 -0.007810 
#    y 0.000000 1.670340 0.000000 
#    z -0.007810 0.000000 1.732820 
# 
# From -- ./inp_files/333711.got.cif
#   From: 2010.05.17/outbox.cif.g08.bks.cpg/sg12_167_cif.got.tgz:333711.got - 2010.06.03 13:09:07.
