data_PCOD9199891
_publ_section_title
;
Structure prediction by ZEFSAII (Michael W. Deem and Ramdas Pophale) SiO2 
 PCOD9199891
Probable space group: C 2/M
;
_chemical_formula_sum "Si O2"
_cell_formula_units_Z 52
_cell_length_a 17.448305
_cell_length_b 7.360153
_cell_length_c 20.726393
_cell_angle_alpha 90.000000
_cell_angle_beta 50.998786
_cell_angle_gamma 90.000000
_cell_volume 2068.516350
_symmetry_space_group_name_H-M "C 2/M"
_symmetry_group_IT_number 12
_symmetry_cell_setting 'monoclinic'
loop_
_space_group_symop_operation_xyz
x,y,z
-x,y,-z
-x,-y,-z
x,-y,z
1/2+x,1/2+y,z
1/2-x,1/2+y,-z
1/2-x,1/2-y,-z
1/2+x,1/2-y,z
loop_
_atom_site_type_symbol
_atom_site_label
_atom_site_fract_x
_atom_site_fract_y
_atom_site_fract_z
Si Si1 0.053597 0.781050 0.385269
Si Si2 0.812763 0.500000 0.640934
Si Si3 0.081230 0.718626 0.120534
Si Si4 0.690874 0.289687 0.195263
Si Si5 0.858691 0.214557 0.415668
Si Si6 0.109140 0.277852 0.963365
Si Si7 0.638594 0.204896 0.732268
O O1 0.103404 0.661424 0.413151
O O2 0.120080 0.715003 0.288008
O O3 0.943322 0.737564 0.421163
O O4 0.060134 0.000000 0.392291
O O5 0.727309 0.341411 0.695699
O O6 0.083318 0.500000 0.121031
O O7 0.137775 0.780920 0.154085
O O8 0.125934 0.777915 0.028678
O O9 0.965957 0.769262 0.184240
O O10 0.700831 0.500000 0.206749
O O11 0.800516 0.213078 0.128441
O O12 0.750000 0.250000 0.500000
O O13 0.874814 0.304276 0.338091
O O14 0.867680 0.000000 0.398345
O O15 0.110668 0.500000 0.960867
O O16 0.000000 0.222276 0.000000
O O17 0.658763 0.000000 0.745758
#
# Coordination Sequence:
#
# PCOD9199891 Si02
#       7
#     8   4   8   8   8   8   8
#     4  10  24  43  68 103 136 181 230 280 342 409
#     4  12  26  42  71 103 148 178 222 284 352 403
#     4  10  21  36  61  89 127 170 224 278 334 397
#     4  10  20  36  62  88 126 168 224 280 332 398
#     4  11  23  44  74 107 138 177 232 283 334 408
#     4   9  19  35  55  85 123 172 220 272 340 397
#     4  11  24  43  69 103 138 183 230 279 341 409
#
# _framework density 25.138791000000001
#
# number of rings (size 3 to 8) (size 9 to 14) (size 15 to 20)
#    0.000    1.692    2.308    1.385    6.462    0.000 
#    0.000    1.538    0.000    4.615    0.000    0.000 
#    0.000    0.000    0.000    0.000    0.000    0.000 
#
# Total GULP energy -145102.534829 kJ/mol
# GULP energy per Si atom -5580.866724 kJ/mol
# Density = 2.508157 g / cm^3
# Si number density = 25.138791 Si / 1000 Ang^3
#
#
#
# Elastic Constant Matrix: (Units=GPa)
#
#
# Indices 1 2 3 4 5 6 
#
# 1 97.6087 24.7127 50.3373 -0.0003 -20.3059 0.0011
# 2 24.7127 123.5256 10.5602 -0.0004 -23.3564 0.0028
# 3 50.3373 10.5602 146.9111 -0.0001 -18.9938 0.0002
# 4 -0.0003 -0.0004 -0.0001 5.6681 0.0001 -7.1634
# 5 -20.3059 -23.3564 -18.9938 0.0001 59.5843 -0.0003
# 6 0.0011 0.0028 0.0002 -7.1634 -0.0003 -10.7336
#
#
#
# Elastic Compliance Matrix: (Units=1/GPa)
#
#
# Indices 1 2 3 4 5 6 
#
# 1 0.013360 -0.001845 -0.004120 0.000001 0.002517 0.000000
# 2 -0.001845 0.009004 0.000375 0.000002 0.003020 0.000001
# 3 -0.004120 0.000375 0.008374 0.000000 0.001413 0.000000
# 4 0.000001 0.000002 0.000000 0.095705 0.000000 -0.063872
# 5 0.002517 0.003020 0.001413 0.000000 0.019275 0.000000
# 6 0.000000 0.000001 0.000000 -0.063872 0.000000 -0.050539
#
#
# Mechanical properties :
#
#
# Convention : Reuss Voigt Hill
#
# Bulk Modulus (GPa) = 51.12604 59.91841 55.52222
# Shear Modulus (GPa) = 44.29595 29.73276 37.01435
#
# Velocity S-wave (km/s) = 4.20224 3.44284 3.84135
# Velocity P-wave (km/s) = 6.62772 6.30007 6.46598
#
# Compressibility (1/GPa) = 0.01955951
#
# Stress axis : x y z
#
# Youngs Moduli (GPa) = 74.84937 111.06734 119.41642
#
# Poissons Ratio (x) = 0.20490 0.49196
# Poissons Ratio (y) = 0.13808 -0.04483
# Poissons Ratio (z) = 0.30836 -0.04169
#
# Static dielectric constant tensor:
#      x y z
#    x 2.016020 0.000000 0.060570 
#    y 0.000000 2.044680 0.000000 
#    z 0.060570 0.000000 1.952400 
# 
# From -- ./inp_files/362653.got.cif
#   From: 2010.05.17/outbox.cif.g08.bks.cpg/sg12_182_cif.got.tgz:362653.got - 2010.06.03 13:09:07.
