data_PCOD9199801
_publ_section_title
;
Structure prediction by ZEFSAII (Michael W. Deem and Ramdas Pophale) SiO2 
 PCOD9199801
Probable space group: C 2/M
;
_chemical_formula_sum "Si O2"
_cell_formula_units_Z 56
_cell_length_a 7.674136
_cell_length_b 29.142330
_cell_length_c 13.416433
_cell_angle_alpha 90.000000
_cell_angle_beta 106.424987
_cell_angle_gamma 90.000000
_cell_volume 2878.033286
_symmetry_space_group_name_H-M "C 2/M"
_symmetry_group_IT_number 12
_symmetry_cell_setting 'monoclinic'
loop_
_space_group_symop_operation_xyz
x,y,z
-x,y,-z
-x,-y,-z
x,-y,z
1/2+x,1/2+y,z
1/2-x,1/2+y,-z
1/2-x,1/2-y,-z
1/2+x,1/2-y,z
loop_
_atom_site_type_symbol
_atom_site_label
_atom_site_fract_x
_atom_site_fract_y
_atom_site_fract_z
Si Si1 0.301901 0.710742 0.931513
Si Si2 0.858061 0.194349 0.385655
Si Si3 0.785802 0.887694 0.964165
Si Si4 0.813747 0.788076 0.702432
Si Si5 0.676159 0.951903 0.099796
Si Si6 0.999042 0.362541 0.619061
Si Si7 0.420495 0.052893 0.232753
O O1 0.199654 0.662021 0.926067
O O2 0.317471 0.725583 0.819525
O O3 0.500000 0.698020 0.000000
O O4 0.250000 0.750000 0.000000
O O5 0.992650 0.195087 0.310614
O O6 0.305705 0.157451 0.628965
O O7 0.000000 0.190058 0.500000
O O8 0.755920 0.243608 0.369058
O O9 0.715291 0.923196 0.868813
O O10 0.748141 0.904610 0.070076
O O11 0.000000 0.889840 0.000000
O O12 0.660875 0.827152 0.671238
O O13 0.608243 0.949193 0.200728
O O14 0.782447 0.000000 0.102311
O O15 0.500000 0.956436 0.000000
O O16 0.000000 0.364736 0.500000
O O17 0.049297 0.411883 0.673035
O O18 0.369755 0.000000 0.247852
#
# Coordination Sequence:
#
# PCOD9199801 Si02
#       7
#     8   8   8   8   8   8   8
#     4  11  25  40  55  89 136 177 214 259 321 399
#     4  12  24  41  70  98 129 171 224 283 331 395
#     4  10  20  36  61  91 128 166 218 267 318 390
#     4  12  23  42  66  98 137 178 222 267 331 401
#     4   8  16  32  55  82 112 153 204 254 307 375
#     4  12  25  43  69  97 131 172 223 282 342 400
#     4  10  22  42  65  91 127 173 223 273 337 397
#
# _framework density 19.457732
#
# number of rings (size 3 to 8) (size 9 to 14) (size 15 to 20)
#    0.000    1.286    4.286    3.000    0.000    6.571 
#    0.000    0.000    0.000    0.429    0.000    0.000 
#    0.000    0.000    0.000    0.000    0.000    0.000 
#
# Total GULP energy -155889.473289 kJ/mol
# GULP energy per Si atom -5567.481189 kJ/mol
# Density = 1.941345 g / cm^3
# Si number density = 19.457732 Si / 1000 Ang^3
#
#
#
# Elastic Constant Matrix: (Units=GPa)
#
#
# Indices 1 2 3 4 5 6 
#
# 1 87.9345 42.5568 28.8857 0.0000 -9.5328 0.0000
# 2 42.5568 134.5418 38.4802 0.0000 -1.4979 0.0000
# 3 28.8857 38.4802 97.5311 0.0000 -11.7854 0.0000
# 4 0.0000 0.0000 0.0000 -40.1904 0.0000 18.4896
# 5 -9.5328 -1.4979 -11.7854 0.0000 26.7968 0.0000
# 6 0.0000 0.0000 0.0000 18.4896 0.0000 3.9975
#
#
#
# Elastic Compliance Matrix: (Units=1/GPa)
#
#
# Indices 1 2 3 4 5 6 
#
# 1 0.014413 -0.003866 -0.002271 0.000000 0.003913 0.000000
# 2 -0.003866 0.009443 -0.002834 0.000000 -0.002094 0.000000
# 3 -0.002271 -0.002834 0.012596 0.000000 0.004574 0.000000
# 4 0.000000 0.000000 0.000000 -0.007955 0.000000 0.036793
# 5 0.003913 -0.002094 0.004574 0.000000 0.040604 0.000000
# 6 0.000000 0.000000 0.000000 0.036793 0.000000 0.079977
#
#
# Mechanical properties :
#
#
# Convention : Reuss Voigt Hill
#
# Bulk Modulus (GPa) = 54.01992 59.98365 57.00179
# Shear Modulus (GPa) = 28.87019 12.12643 20.49831
#
# Velocity S-wave (km/s) = 3.85611 2.49914 3.24926
# Velocity P-wave (km/s) = 6.90283 6.26276 6.59057
#
# Compressibility (1/GPa) = 0.01851169
#
# Stress axis : x y z
#
# Youngs Moduli (GPa) = 69.38108 105.90312 79.38876
#
# Poissons Ratio (x) = 0.40943 0.18026
# Poissons Ratio (y) = 0.26823 0.22495
# Poissons Ratio (z) = 0.15754 0.30008
#
# Static dielectric constant tensor:
#      x y z
#    x 1.196390 0.000000 0.334020 
#    y 0.000000 2.061500 0.000000 
#    z 0.334020 0.000000 1.452510 
# 
# From -- ./inp_files/124358.got.cif
#   From: 2010.05.17/outbox.cif.g08.bks.cpg/sg12_63_cif.got.tgz:124358.got - 2010.06.03 13:09:07.
