data_PCOD9199663
_publ_section_title
;
Structure prediction by ZEFSAII (Michael W. Deem and Ramdas Pophale) SiO2 
 PCOD9199663
Probable space group: C 2/M
;
_chemical_formula_sum "Si O2"
_cell_formula_units_Z 40
_cell_length_a 15.661029
_cell_length_b 26.291594
_cell_length_c 7.465207
_cell_angle_alpha 90.000000
_cell_angle_beta 38.007351
_cell_angle_gamma 90.000000
_cell_volume 1892.746068
_symmetry_space_group_name_H-M "C 2/M"
_symmetry_group_IT_number 12
_symmetry_cell_setting 'monoclinic'
loop_
_space_group_symop_operation_xyz
x,y,z
-x,y,-z
-x,-y,-z
x,-y,z
1/2+x,1/2+y,z
1/2-x,1/2+y,-z
1/2-x,1/2-y,-z
1/2+x,1/2-y,z
loop_
_atom_site_type_symbol
_atom_site_label
_atom_site_fract_x
_atom_site_fract_y
_atom_site_fract_z
Si Si1 0.888977 0.409166 0.435719
Si Si2 0.890527 0.000000 0.449960
Si Si3 0.198447 0.000000 0.827298
Si Si4 0.154827 0.811545 0.303572
Si Si5 0.193919 0.411451 0.837400
Si Si6 0.647029 0.201157 0.357759
O O1 0.793089 0.449781 0.697045
O O2 0.857762 0.419611 0.279363
O O3 0.850265 0.350277 0.533028
O O4 0.054846 0.415742 0.187370
O O5 0.849668 0.000000 0.303950
O O6 0.815612 0.951871 0.663452
O O7 0.056722 0.000000 0.174610
O O8 0.238645 0.856204 0.258180
O O9 0.155300 0.758957 0.416615
O O10 0.000000 0.825523 0.500000
O O11 0.233435 0.802556 0.986817
O O12 0.500000 0.200056 0.500000
#
# Coordination Sequence:
#
# PCOD9199663 Si02
#       6
#     8   4   4   8   8   8
#     4  10  20  36  61  82 110 146 189 226 268 330
#     4   9  19  35  55  81 117 142 177 228 284 326
#     4   9  19  35  55  83 111 147 179 225 282 327
#     4  10  22  37  58  81 113 148 182 226 281 327
#     4  10  20  37  58  85 110 145 187 229 270 325
#     4  10  20  39  58  80 111 151 185 221 276 336
#
# _framework density 21.133317000000002
#
# number of rings (size 3 to 8) (size 9 to 14) (size 15 to 20)
#    0.000    2.200    2.000    0.600    2.800    3.200 
#    0.000    2.000    0.000    0.000    0.000    0.000 
#    0.000    0.000    0.000    0.000    0.000    0.000 
#
# Total GULP energy -111573.765754 kJ/mol
# GULP energy per Si atom -5578.688288 kJ/mol
# Density = 2.108522 g / cm^3
# Si number density = 21.133317 Si / 1000 Ang^3
#
#
#
# Elastic Constant Matrix: (Units=GPa)
#
#
# Indices 1 2 3 4 5 6 
#
# 1 42.2016 24.5131 29.8171 0.0000 -19.7180 0.0000
# 2 24.5131 162.7300 68.8841 0.0000 -28.6014 0.0000
# 3 29.8171 68.8841 170.6260 0.0000 -47.2522 0.0000
# 4 0.0000 0.0000 0.0000 33.3960 0.0000 -5.1731
# 5 -19.7180 -28.6014 -47.2522 0.0000 29.9563 0.0000
# 6 0.0000 0.0000 0.0000 -5.1731 0.0000 44.4666
#
#
#
# Elastic Compliance Matrix: (Units=1/GPa)
#
#
# Indices 1 2 3 4 5 6 
#
# 1 0.034570 -0.001602 0.000859 0.000000 0.022579 0.000000
# 2 -0.001602 0.007794 -0.001949 0.000000 0.003312 0.000000
# 3 0.000859 -0.001949 0.010900 0.000000 0.015898 0.000000
# 4 0.000000 0.000000 0.000000 0.030493 0.000000 0.003547
# 5 0.022579 0.003312 0.015898 0.000000 0.076483 0.000000
# 6 0.000000 0.000000 0.000000 0.003547 0.000000 0.022902
#
#
# Mechanical properties :
#
#
# Convention : Reuss Voigt Hill
#
# Bulk Modulus (GPa) = 20.88648 69.10959 44.99803
# Shear Modulus (GPa) = 24.45145 38.38666 31.41906
#
# Velocity S-wave (km/s) = 3.40517 4.26655 3.85997
# Velocity P-wave (km/s) = 5.03636 7.55275 6.41907
#
# Compressibility (1/GPa) = 0.04787786
#
# Stress axis : x y z
#
# Youngs Moduli (GPa) = 28.92718 128.30811 91.73993
#
# Poissons Ratio (x) = 0.20561 -0.07879
# Poissons Ratio (y) = 0.04636 0.17883
# Poissons Ratio (z) = -0.02484 0.25011
#
# Static dielectric constant tensor:
#      x y z
#    x 1.752580 0.000000 0.026990 
#    y 0.000000 1.810760 0.000000 
#    z 0.026990 0.000000 1.745370 
# 
# From -- ./inp_files/79781.got.cif
#   From: 2010.05.17/outbox.cif.g08.bks.cpg/sg12_40_cif.got.tgz:79781.got - 2010.06.03 13:09:07.
