data_PCOD9199595
_publ_section_title
;
Structure prediction by ZEFSAII (Michael W. Deem and Ramdas Pophale) SiO2 
 PCOD9199595
Probable space group: C 2/M
;
_chemical_formula_sum "Si O2"
_cell_formula_units_Z 64
_cell_length_a 17.213499
_cell_length_b 15.315182
_cell_length_c 17.915945
_cell_angle_alpha 90.000000
_cell_angle_beta 40.837939
_cell_angle_gamma 90.000000
_cell_volume 3088.565382
_symmetry_space_group_name_H-M "C 2/M"
_symmetry_group_IT_number 12
_symmetry_cell_setting 'monoclinic'
loop_
_space_group_symop_operation_xyz
x,y,z
-x,y,-z
-x,-y,-z
x,-y,z
1/2+x,1/2+y,z
1/2-x,1/2+y,-z
1/2-x,1/2-y,-z
1/2+x,1/2-y,z
loop_
_atom_site_type_symbol
_atom_site_label
_atom_site_fract_x
_atom_site_fract_y
_atom_site_fract_z
Si Si1 0.409269 0.401766 0.635911
Si Si2 0.257571 0.769687 0.314545
Si Si3 0.976622 0.269961 0.937778
Si Si4 0.414648 0.842414 0.834533
Si Si5 0.256792 0.599803 0.388934
Si Si6 0.475013 0.644404 0.754520
Si Si7 0.346423 0.597356 0.998196
Si Si8 0.828093 0.403757 0.383838
O O1 0.500000 0.392981 0.500000
O O2 0.358736 0.500000 0.668285
O O3 0.313552 0.325782 0.693543
O O4 0.463982 0.390757 0.678588
O O5 0.393679 0.759421 0.191710
O O6 0.210929 0.673408 0.365966
O O7 0.260803 0.828462 0.387349
O O8 0.900813 0.323764 0.933197
O O9 0.915151 0.175610 0.989508
O O10 0.000000 0.312717 0.000000
O O11 0.444992 0.747611 0.777338
O O12 0.533161 0.898074 0.736982
O O13 0.293532 0.883437 0.893887
O O14 0.251872 0.500000 0.365635
O O15 0.392588 0.623781 0.312305
O O16 0.186745 0.607172 0.517425
O O17 0.387861 0.604923 0.881146
O O18 0.374611 0.500000 0.004309
O O19 0.780490 0.500000 0.398383
#
# Coordination Sequence:
#
# PCOD9199595 Si02
#       8
#     8   8   8   8   8   8   8   8
#     4  11  25  40  60  93 128 161 200 247 305 368
#     4  11  22  37  61  88 124 162 197 250 309 361
#     4  10  22  38  58  86 118 155 198 246 304 359
#     4  10  22  38  62  87 118 162 205 247 302 365
#     4  11  21  37  64  93 119 157 209 255 298 358
#     4  11  21  39  63  88 121 159 204 252 302 360
#     4  11  22  39  63  88 118 157 206 255 301 356
#     4  10  20  36  60  90 124 155 202 254 299 362
#
# _framework density 20.721595000000001
#
# number of rings (size 3 to 8) (size 9 to 14) (size 15 to 20)
#    0.000    1.375    3.750    4.500    5.250    2.250 
#    0.000    0.000    0.000    2.625    0.000    0.000 
#    0.000    0.000    0.000    0.000    0.000    0.000 
#
# Total GULP energy -178728.703819 kJ/mol
# GULP energy per Si atom -5585.271994 kJ/mol
# Density = 2.067443 g / cm^3
# Si number density = 20.721595 Si / 1000 Ang^3
#
#
#
# Elastic Constant Matrix: (Units=GPa)
#
#
# Indices 1 2 3 4 5 6 
#
# 1 54.5257 15.6810 3.5573 0.0000 -0.0316 0.0000
# 2 15.6810 98.7523 2.2798 0.0000 -5.7084 0.0000
# 3 3.5573 2.2798 31.2419 0.0000 -0.1470 0.0000
# 4 0.0000 0.0000 0.0000 -9.5512 0.0000 -24.2299
# 5 -0.0316 -5.7084 -0.1470 0.0000 22.9071 0.0000
# 6 0.0000 0.0000 0.0000 -24.2299 0.0000 -6.0917
#
#
#
# Elastic Compliance Matrix: (Units=1/GPa)
#
#
# Indices 1 2 3 4 5 6 
#
# 1 0.019352 -0.003071 -0.001983 0.000000 -0.000751 0.000000
# 2 -0.003071 0.010779 -0.000424 0.000000 0.002679 0.000000
# 3 -0.001983 -0.000424 0.032265 0.000000 0.000099 0.000000
# 4 0.000000 0.000000 0.000000 0.011518 0.000000 -0.045811
# 5 -0.000751 0.002679 0.000099 0.000000 0.044322 0.000000
# 6 0.000000 0.000000 0.000000 -0.045811 0.000000 0.018059
#
#
# Mechanical properties :
#
#
# Convention : Reuss Voigt Hill
#
# Bulk Modulus (GPa) = 19.43998 25.28402 22.36200
# Shear Modulus (GPa) = 30.41431 12.31962 21.36697
#
# Velocity S-wave (km/s) = 3.83529 2.44095 3.21463
# Velocity P-wave (km/s) = 5.38651 4.49139 4.95918
#
# Compressibility (1/GPa) = 0.05144037
#
# Stress axis : x y z
#
# Youngs Moduli (GPa) = 51.67430 92.77654 30.99289
#
# Poissons Ratio (x) = 0.28488 0.06146
# Poissons Ratio (y) = 0.15867 0.01315
# Poissons Ratio (z) = 0.10247 0.03937
#
# Static dielectric constant tensor:
#      x y z
#    x 1.747200 0.000000 0.020370 
#    y 0.000000 1.761430 0.000000 
#    z 0.020370 0.000000 1.752980 
# 
# From -- ./inp_files/278156.got.cif
#   From: 2010.05.17/outbox.cif.g08.bks.cpg/sg12_140_cif.got.tgz:278156.got - 2010.06.03 13:09:07.
