data_PCOD9199778
_publ_section_title
;
Structure prediction by ZEFSAII (Michael W. Deem and Ramdas Pophale) SiO2 
 PCOD9199778
Probable space group: C 2/M
;
_chemical_formula_sum "Si O2"
_cell_formula_units_Z 64
_cell_length_a 13.322009
_cell_length_b 20.754934
_cell_length_c 14.142163
_cell_angle_alpha 90.000000
_cell_angle_beta 118.536742
_cell_angle_gamma 90.000000
_cell_volume 3435.216353
_symmetry_space_group_name_H-M "C 2/M"
_symmetry_group_IT_number 12
_symmetry_cell_setting 'monoclinic'
loop_
_space_group_symop_operation_xyz
x,y,z
-x,y,-z
-x,-y,-z
x,-y,z
1/2+x,1/2+y,z
1/2-x,1/2+y,-z
1/2-x,1/2-y,-z
1/2+x,1/2-y,z
loop_
_atom_site_type_symbol
_atom_site_label
_atom_site_fract_x
_atom_site_fract_y
_atom_site_fract_z
Si Si1 0.135790 0.573386 0.365421
Si Si2 0.071061 0.297021 0.115017
Si Si3 0.207675 0.711677 0.740088
Si Si4 0.325058 0.570610 0.289247
Si Si5 0.983220 0.189866 0.385344
Si Si6 0.335698 0.073334 0.941089
Si Si7 0.260976 0.679461 0.551752
Si Si8 0.410769 0.126304 0.173109
O O1 0.144791 0.500000 0.406124
O O2 0.211588 0.575857 0.303332
O O3 0.190714 0.626573 0.459917
O O4 0.005362 0.588695 0.277600
O O5 0.181755 0.256742 0.193662
O O6 0.107541 0.366190 0.086959
O O7 0.985472 0.315829 0.160021
O O8 0.000000 0.262594 0.000000
O O9 0.094912 0.756197 0.697706
O O10 0.217788 0.683489 0.639355
O O11 0.188787 0.655879 0.807813
O O12 0.374404 0.500000 0.328565
O O13 0.407442 0.626332 0.356917
O O14 0.289505 0.575953 0.163111
O O15 0.000000 0.213424 0.500000
O O16 0.102361 0.170443 0.391749
O O17 0.374784 0.000000 0.935568
O O18 0.358288 0.086386 0.061513
O O19 0.250000 0.750000 0.500000
#
# Coordination Sequence:
#
# PCOD9199778 Si02
#       8
#     8   8   8   8   8   8   8   8
#     4  11  22  38  61  92 123 153 204 258 302 357
#     4  10  21  38  60  91 121 150 195 255 310 359
#     4  12  24  41  57  86 124 164 205 243 299 365
#     4  10  20  36  61  91 119 143 190 256 312 360
#     4  12  21  36  62  86 118 156 200 247 302 362
#     4  10  20  37  62  91 119 147 190 250 310 362
#     4  12  24  40  61  88 122 167 205 250 299 360
#     4  11  23  37  61  87 122 160 195 248 306 366
#
# _framework density 18.630559999999999
#
# number of rings (size 3 to 8) (size 9 to 14) (size 15 to 20)
#    0.000    1.000    5.000    2.625    0.000    5.000 
#    2.250    1.875    0.000    0.000    0.000    1.750 
#    0.000    0.000    0.000    0.000    0.000    0.000 
#
# Total GULP energy -178476.302100 kJ/mol
# GULP energy per Si atom -5577.384441 kJ/mol
# Density = 1.858816 g / cm^3
# Si number density = 18.630560 Si / 1000 Ang^3
#
#
#
# Elastic Constant Matrix: (Units=GPa)
#
#
# Indices 1 2 3 4 5 6 
#
# 1 46.9168 17.6402 18.4764 0.0000 -15.3773 0.0000
# 2 17.6402 84.3003 49.0482 0.0000 -7.5019 0.0000
# 3 18.4764 49.0482 101.3274 0.0000 -4.0840 0.0000
# 4 0.0000 0.0000 0.0000 12.9424 0.0000 -17.8527
# 5 -15.3773 -7.5019 -4.0840 0.0000 25.1957 0.0000
# 6 0.0000 0.0000 0.0000 -17.8527 0.0000 0.2994
#
#
#
# Elastic Compliance Matrix: (Units=1/GPa)
#
#
# Indices 1 2 3 4 5 6 
#
# 1 0.028994 -0.002671 -0.003334 0.000000 0.016359 0.000000
# 2 -0.002671 0.017099 -0.007700 0.000000 0.002213 0.000000
# 3 -0.003334 -0.007700 0.014122 0.000000 -0.002039 0.000000
# 4 0.000000 0.000000 0.000000 -0.000951 0.000000 -0.056703
# 5 0.016359 0.002213 -0.002039 0.000000 0.050002 0.000000
# 6 0.000000 0.000000 0.000000 -0.056703 0.000000 -0.041107
#
#
# Mechanical properties :
#
#
# Convention : Reuss Voigt Hill
#
# Bulk Modulus (GPa) = 30.48550 44.76379 37.62464
# Shear Modulus (GPa) = 46.94638 17.51282 32.22960
#
# Velocity S-wave (km/s) = 5.02527 3.06928 4.16376
# Velocity P-wave (km/s) = 7.07600 6.05309 6.58444
#
# Compressibility (1/GPa) = 0.03280248
#
# Stress axis : x y z
#
# Youngs Moduli (GPa) = 34.49024 58.48466 70.81008
#
# Poissons Ratio (x) = 0.15622 0.23612
# Poissons Ratio (y) = 0.09213 0.54527
# Poissons Ratio (z) = 0.11501 0.45036
#
# Static dielectric constant tensor:
#      x y z
#    x 1.661890 0.000000 0.020320 
#    y 0.000000 1.637940 0.000000 
#    z 0.020320 0.000000 1.698250 
# 
# From -- ./inp_files/216397.got.cif
#   From: 2010.05.17/outbox.cif.g08.bks.cpg/sg12_109_cif.got.tgz:216397.got - 2010.06.03 13:09:07.
