data_PCOD9199271
_publ_section_title
;
Structure prediction by ZEFSAII (Michael W. Deem and Ramdas Pophale) SiO2 
 PCOD9199271
Probable space group: C 2/M
;
_chemical_formula_sum "Si O2"
_cell_formula_units_Z 64
_cell_length_a 20.825411
_cell_length_b 13.686025
_cell_length_c 22.596851
_cell_angle_alpha 90.000000
_cell_angle_beta 26.385292
_cell_angle_gamma 90.000000
_cell_volume 2862.186942
_symmetry_space_group_name_H-M "C 2/M"
_symmetry_group_IT_number 12
_symmetry_cell_setting 'monoclinic'
loop_
_space_group_symop_operation_xyz
x,y,z
-x,y,-z
-x,-y,-z
x,-y,z
1/2+x,1/2+y,z
1/2-x,1/2+y,-z
1/2-x,1/2-y,-z
1/2+x,1/2-y,z
loop_
_atom_site_type_symbol
_atom_site_label
_atom_site_fract_x
_atom_site_fract_y
_atom_site_fract_z
Si Si1 0.352340 0.887262 0.155906
Si Si2 0.352276 0.887094 0.781465
Si Si3 0.425624 0.611260 0.700409
Si Si4 0.659016 0.884966 0.596885
Si Si5 0.236419 0.713178 0.944725
Si Si6 0.922184 0.705229 0.213410
Si Si7 0.182558 0.884433 0.649567
Si Si8 0.026965 0.711002 0.545516
O O1 0.217983 0.884254 0.222346
O O2 0.332907 0.818356 0.228527
O O3 0.366191 0.000000 0.165125
O O4 0.500000 0.861237 0.000000
O O5 0.502093 0.871962 0.694956
O O6 0.242132 0.808624 0.898258
O O7 0.396374 0.854609 0.679353
O O8 0.310892 0.000000 0.819939
O O9 0.479475 0.500000 0.656857
O O10 0.365861 0.645692 0.813535
O O11 0.527542 0.691483 0.585813
O O12 0.648503 0.839258 0.669805
O O13 0.782532 0.855259 0.447703
O O14 0.677472 0.000000 0.588952
O O15 0.250000 0.750000 0.000000
O O16 0.080919 0.662160 0.070183
O O17 0.935724 0.818745 0.220271
O O18 0.329490 0.852255 0.562025
O O19 0.159690 0.000000 0.670911
O O20 0.000000 0.735193 0.500000
#
# Coordination Sequence:
#
# PCOD9199271 Si02
#       8
#     8   8   8   8   8   8   8   8
#     4  10  20  36  59  90 121 156 193 233 293 364
#     4   9  19  35  55  80 112 148 195 248 295 347
#     4  10  22  40  62  91 127 156 193 247 302 359
#     4   9  18  35  57  80 108 147 191 242 298 353
#     4  11  22  36  57  87 118 158 198 242 299 358
#     4  12  21  35  63  84 119 156 202 243 298 360
#     4  10  23  40  57  82 118 155 198 252 301 350
#     4  10  20  38  63  85 112 153 202 244 296 348
#
# _framework density 22.360523000000001
#
# number of rings (size 3 to 8) (size 9 to 14) (size 15 to 20)
#    0.000    1.875    2.500    2.625    0.000    2.750 
#    0.000    1.250    0.000    0.375    0.000    0.000 
#    0.000    0.000    0.000    0.000    0.000    0.000 
#
# Total GULP energy -178875.135515 kJ/mol
# GULP energy per Si atom -5589.847985 kJ/mol
# Density = 2.230963 g / cm^3
# Si number density = 22.360523 Si / 1000 Ang^3
#
#
#
# Elastic Constant Matrix: (Units=GPa)
#
#
# Indices 1 2 3 4 5 6 
#
# 1 72.3842 14.1534 31.3352 -0.0002 21.6187 0.0004
# 2 14.1534 84.5896 12.5402 -0.0002 23.8918 0.0008
# 3 31.3352 12.5402 80.2480 0.0005 13.0141 0.0006
# 4 -0.0002 -0.0002 0.0005 27.7078 -0.0004 1.0643
# 5 21.6187 23.8918 13.0141 -0.0004 37.2311 -0.0001
# 6 0.0004 0.0008 0.0006 1.0643 -0.0001 21.2474
#
#
#
# Elastic Compliance Matrix: (Units=1/GPa)
#
#
# Indices 1 2 3 4 5 6 
#
# 1 0.019104 0.000287 -0.006017 0.000000 -0.009174 0.000000
# 2 0.000287 0.014492 -0.000892 0.000000 -0.009154 -0.000001
# 3 -0.006017 -0.000892 0.015150 0.000000 -0.001229 0.000000
# 4 0.000000 0.000000 0.000000 0.036160 0.000000 -0.001811
# 5 -0.009174 -0.009154 -0.001229 0.000000 0.038490 0.000001
# 6 0.000000 -0.000001 0.000000 -0.001811 0.000001 0.047155
#
#
# Mechanical properties :
#
#
# Convention : Reuss Voigt Hill
#
# Bulk Modulus (GPa) = 28.16846 39.25327 33.71086
# Shear Modulus (GPa) = 25.55870 29.18347 27.37109
#
# Velocity S-wave (km/s) = 3.38454 3.61658 3.50248
# Velocity P-wave (km/s) = 5.28188 5.91882 5.60939
#
# Compressibility (1/GPa) = 0.03550070
#
# Stress axis : x y z
#
# Youngs Moduli (GPa) = 52.34621 69.00559 66.00871
#
# Poissons Ratio (x) = -0.01978 0.39715
# Poissons Ratio (y) = -0.01500 0.05887
# Poissons Ratio (z) = 0.31495 0.06155
#
# Static dielectric constant tensor:
#      x y z
#    x 1.847600 0.000000 -0.029290 
#    y 0.000000 1.819830 0.000000 
#    z -0.029290 0.000000 1.838650 
# 
# From -- ./inp_files/349344.got.cif
#   From: 2010.05.17/outbox.cif.g08.bks.cpg/sg12_175_cif.got.tgz:349344.got - 2010.06.03 13:09:07.
