data_PCOD9199736
_publ_section_title
;
Structure prediction by ZEFSAII (Michael W. Deem and Ramdas Pophale) SiO2 
 PCOD9199736
Probable space group: C 2/M
;
_chemical_formula_sum "Si O2"
_cell_formula_units_Z 40
_cell_length_a 8.583766
_cell_length_b 27.700556
_cell_length_c 11.091873
_cell_angle_alpha 90.000000
_cell_angle_beta 130.502642
_cell_angle_gamma 90.000000
_cell_volume 2005.393741
_symmetry_space_group_name_H-M "C 2/M"
_symmetry_group_IT_number 12
_symmetry_cell_setting 'monoclinic'
loop_
_space_group_symop_operation_xyz
x,y,z
-x,y,-z
-x,-y,-z
x,-y,z
1/2+x,1/2+y,z
1/2-x,1/2+y,-z
1/2-x,1/2-y,-z
1/2+x,1/2-y,z
loop_
_atom_site_type_symbol
_atom_site_label
_atom_site_fract_x
_atom_site_fract_y
_atom_site_fract_z
Si Si1 0.591771 0.500000 0.413601
Si Si2 0.148732 0.597797 0.459427
Si Si3 0.890480 0.297167 0.072202
Si Si4 0.605806 0.900849 0.918188
Si Si5 0.223923 0.800507 0.553172
Si Si6 0.778011 0.500000 0.955889
O O1 0.500000 0.500000 0.500000
O O2 0.718129 0.549375 0.461469
O O3 0.598847 0.500000 0.770736
O O4 0.261825 0.649762 0.515128
O O5 0.000000 0.598464 0.500000
O O6 0.044899 0.595594 0.273285
O O7 0.780814 0.349205 0.033590
O O8 0.079180 0.298918 0.259937
O O9 0.750000 0.250000 0.000000
O O10 0.000000 0.297319 0.000000
O O11 0.732665 0.950100 0.977375
O O12 0.500000 0.900284 0.000000
O O13 0.250000 0.750000 0.500000
O O14 0.000000 0.800915 0.500000
O O15 0.000000 0.500000 0.000000
#
# Coordination Sequence:
#
# PCOD9199736 Si02
#       6
#     4   8   8   8   8   4
#     4  12  23  38  66  97 125 170 216 261 318 380
#     4  11  24  42  64  95 130 165 210 267 320 375
#     4  10  21  37  59  86 118 160 207 255 307 367
#     4   9  19  39  62  85 118 161 205 254 307 369
#     4  11  23  40  64  93 127 167 212 263 320 382
#     4  10  20  36  61  89 118 156 207 259 309 368
#
# _framework density 19.946207999999999
#
# number of rings (size 3 to 8) (size 9 to 14) (size 15 to 20)
#    0.000    1.600    0.000    5.700    0.000    8.000 
#    0.000    2.000    0.000    0.000    0.000    0.000 
#    0.000    0.000    0.000    0.000    0.000    0.000 
#
# Total GULP energy -111429.111422 kJ/mol
# GULP energy per Si atom -5571.455571 kJ/mol
# Density = 1.990081 g / cm^3
# Si number density = 19.946208 Si / 1000 Ang^3
#
#
#
# Elastic Constant Matrix: (Units=GPa)
#
#
# Indices 1 2 3 4 5 6 
#
# 1 109.4965 79.1372 27.3649 0.0000 4.0781 0.0000
# 2 79.1372 275.0685 71.0129 0.0000 21.0163 0.0000
# 3 27.3649 71.0129 98.7283 0.0000 0.2319 0.0000
# 4 0.0000 0.0000 0.0000 -0.4475 0.0000 12.3671
# 5 4.0781 21.0163 0.2319 0.0000 24.3508 0.0000
# 6 0.0000 0.0000 0.0000 12.3671 0.0000 28.9059
#
#
#
# Elastic Compliance Matrix: (Units=1/GPa)
#
#
# Indices 1 2 3 4 5 6 
#
# 1 0.011624 -0.003159 -0.000952 0.000000 0.000789 0.000000
# 2 -0.003159 0.005710 -0.003221 0.000000 -0.004368 0.000000
# 3 -0.000952 -0.003221 0.012703 0.000000 0.002818 0.000000
# 4 0.000000 0.000000 0.000000 -0.174258 0.000000 0.074555
# 5 0.000789 -0.004368 0.002818 0.000000 0.044677 0.000000
# 6 0.000000 0.000000 0.000000 0.074555 0.000000 0.002697
#
#
# Mechanical properties :
#
#
# Convention : Reuss Voigt Hill
#
# Bulk Modulus (GPa) = 65.04695 93.14704 79.09699
# Shear Modulus (GPa) = -64.88494 30.94706 -16.96894
#
# Velocity S-wave (km/s) = -5.70969 3.94321 -2.91990
# Velocity P-wave (km/s) = 3.28412 8.21781 5.32668
#
# Compressibility (1/GPa) = 0.01537351
#
# Stress axis : x y z
#
# Youngs Moduli (GPa) = 86.02749 175.14634 78.72341
#
# Poissons Ratio (x) = 0.55326 0.07492
# Poissons Ratio (y) = 0.27175 0.25356
# Poissons Ratio (z) = 0.08187 0.56413
#
# Static dielectric constant tensor:
#      x y z
#    x 1.691820 0.000000 -0.022460 
#    y 0.000000 1.831260 0.000000 
#    z -0.022460 0.000000 1.648570 
# 
# From -- ./inp_files/79774.got.cif
#   From: 2010.05.17/outbox.cif.g08.bks.cpg/sg12_40_cif.got.tgz:79774.got - 2010.06.03 13:09:07.
