data_PCOD9199424
_publ_section_title
;
Structure prediction by ZEFSAII (Michael W. Deem and Ramdas Pophale) SiO2 
 PCOD9199424
Probable space group: C 2/M
;
_chemical_formula_sum "Si O2"
_cell_formula_units_Z 26
_cell_length_a 14.687818
_cell_length_b 14.203921
_cell_length_c 4.932895
_cell_angle_alpha 90.000000
_cell_angle_beta 113.358471
_cell_angle_gamma 90.000000
_cell_volume 944.778644
_symmetry_space_group_name_H-M "C 2/M"
_symmetry_group_IT_number 12
_symmetry_cell_setting 'monoclinic'
loop_
_space_group_symop_operation_xyz
x,y,z
-x,y,-z
-x,-y,-z
x,-y,z
1/2+x,1/2+y,z
1/2-x,1/2+y,-z
1/2-x,1/2-y,-z
1/2+x,1/2-y,z
loop_
_atom_site_type_symbol
_atom_site_label
_atom_site_fract_x
_atom_site_fract_y
_atom_site_fract_z
Si Si1 0.600567 0.641774 0.772428
Si Si2 0.721926 0.639234 0.418927
Si Si3 0.000000 0.500000 0.000000
Si Si4 0.101776 0.368459 0.761907
O O1 0.500000 0.613875 0.500000
O O2 0.689415 0.608968 0.679324
O O3 0.601906 0.756167 0.782034
O O4 0.626099 0.619841 0.112681
O O5 0.750000 0.750000 0.500000
O O6 0.809673 0.603710 0.330648
O O7 0.084539 0.418130 0.026587
O O8 0.000000 0.400738 0.500000
#
# Coordination Sequence:
#
# PCOD9199424 Si02
#       4
#     8   8   2   8
#     4  10  21  36  63  88 120 151 200 260 309 352
#     4  10  20  36  60  87 116 159 199 253 309 354
#     4  12  26  36  56  82 130 174 202 226 302 368
#     4  10  23  36  54  82 124 161 201 238 295 372
#
# _framework density 27.519672
#
# number of rings (size 3 to 8) (size 9 to 14) (size 15 to 20)
#    0.000    1.846    0.000    5.077   17.231    0.000 
#    0.000    0.000    0.000    0.000    0.000    6.462 
#    0.000    0.000    0.000    0.000    0.000    0.000 
#
# Total GULP energy -72433.382686 kJ/mol
# GULP energy per Si atom -5571.798668 kJ/mol
# Density = 2.745704 g / cm^3
# Si number density = 27.519672 Si / 1000 Ang^3
#
#
#
# Elastic Constant Matrix: (Units=GPa)
#
#
# Indices 1 2 3 4 5 6 
#
# 1 213.8108 38.3522 32.1530 0.0000 -22.0551 0.0000
# 2 38.3522 149.0561 -10.1942 0.0000 -8.8766 0.0000
# 3 32.1530 -10.1942 191.6152 0.0000 -17.5487 0.0000
# 4 0.0000 0.0000 0.0000 5.0736 0.0000 -40.8563
# 5 -22.0551 -8.8766 -17.5487 0.0000 51.8899 0.0000
# 6 0.0000 0.0000 0.0000 -40.8563 0.0000 57.8892
#
#
#
# Elastic Compliance Matrix: (Units=1/GPa)
#
#
# Indices 1 2 3 4 5 6 
#
# 1 0.005204 -0.001290 -0.000784 0.000000 0.001726 0.000000
# 2 -0.001290 0.007141 0.000679 0.000000 0.000903 0.000000
# 3 -0.000784 0.000679 0.005538 0.000000 0.001656 0.000000
# 4 0.000000 0.000000 0.000000 -0.042085 0.000000 -0.029702
# 5 0.001726 0.000903 0.001656 0.000000 0.020720 0.000000
# 6 0.000000 0.000000 0.000000 -0.029702 0.000000 -0.003688
#
#
# Mechanical properties :
#
#
# Convention : Reuss Voigt Hill
#
# Bulk Modulus (GPa) = 66.25087 75.01158 70.63122
# Shear Modulus (GPa) = 7684.69571 55.91527 3870.30549
#
# Velocity S-wave (km/s) = 52.90084 4.51247 37.54239
# Velocity P-wave (km/s) = 61.28180 7.38014 43.64588
#
# Compressibility (1/GPa) = 0.01509414
#
# Stress axis : x y z
#
# Youngs Moduli (GPa) = 192.14711 140.03665 180.56737
#
# Poissons Ratio (x) = 0.18063 0.14153
# Poissons Ratio (y) = 0.24785 -0.12261
# Poissons Ratio (z) = 0.15061 -0.09509
#
# Static dielectric constant tensor:
#      x y z
#    x 2.139780 0.000000 -0.001050 
#    y 0.000000 2.156970 0.000000 
#    z -0.001050 0.000000 2.556410 
# 
# From -- ./inp_files/10057.got.cif
#   From: 2010.05.17/outbox.cif.g08.bks.cpg/sg12_6_cif.got.tgz:10057.got - 2010.06.03 13:09:07.
