data_PCOD9199575
_publ_section_title
;
Structure prediction by ZEFSAII (Michael W. Deem and Ramdas Pophale) SiO2 
 PCOD9199575
Probable space group: C 2/M
;
_chemical_formula_sum "Si O2"
_cell_formula_units_Z 64
_cell_length_a 15.258724
_cell_length_b 8.592447
_cell_length_c 27.938341
_cell_angle_alpha 90.000000
_cell_angle_beta 115.075355
_cell_angle_gamma 90.000000
_cell_volume 3317.757208
_symmetry_space_group_name_H-M "C 2/M"
_symmetry_group_IT_number 12
_symmetry_cell_setting 'monoclinic'
loop_
_space_group_symop_operation_xyz
x,y,z
-x,y,-z
-x,-y,-z
x,-y,z
1/2+x,1/2+y,z
1/2-x,1/2+y,-z
1/2-x,1/2-y,-z
1/2+x,1/2-y,z
loop_
_atom_site_type_symbol
_atom_site_label
_atom_site_fract_x
_atom_site_fract_y
_atom_site_fract_z
Si Si1 0.289466 0.314281 0.434340
Si Si2 0.684182 0.686508 0.751111
Si Si3 0.899314 0.312129 0.549520
Si Si4 0.686372 0.325583 0.944246
Si Si5 0.405851 0.690338 0.169867
Si Si6 0.024549 0.822429 0.056568
Si Si7 0.888798 0.686110 0.366099
Si Si8 0.109879 0.810930 0.171479
O O1 0.292352 0.500000 0.430825
O O2 0.185257 0.269499 0.432414
O O3 0.368182 0.259098 0.491639
O O4 0.313606 0.239538 0.389217
O O5 0.685561 0.500000 0.750868
O O6 0.624033 0.738292 0.784100
O O7 0.638424 0.746778 0.691589
O O8 0.792747 0.748569 0.783108
O O9 0.899060 0.500000 0.544463
O O10 0.004408 0.262325 0.591894
O O11 0.724285 0.500000 0.946280
O O12 0.670344 0.251944 0.888189
O O13 0.577523 0.333259 0.939705
O O14 0.750000 0.250000 0.000000
O O15 0.403073 0.500000 0.166928
O O16 0.514111 0.735724 0.179123
O O17 0.095883 0.754405 0.113091
O O18 0.058972 0.000000 0.053801
O O19 0.000000 0.745429 0.000000
O O20 0.889281 0.500000 0.363529
O O21 0.111441 0.000000 0.170363
#
# Coordination Sequence:
#
# PCOD9199575 Si02
#       8
#     8   8   8   8   8   8   8   8
#     4  10  20  36  60  90 121 152 187 229 279 325
#     4  11  23  38  56  78 107 144 185 230 284 331
#     4   9  20  38  59  85 120 157 189 226 273 324
#     4   9  17  30  49  74 102 131 165 209 264 322
#     4   8  18  37  55  73 105 144 176 216 274 335
#     4   8  15  28  48  74 101 130 166 209 258 317
#     4  11  23  39  57  81 113 149 192 234 275 325
#     4   9  18  36  58  77 102 139 183 222 266 329
#
# _framework density 19.290139
#
# number of rings (size 3 to 8) (size 9 to 14) (size 15 to 20)
#    0.000    2.625    0.000    3.000    1.750    4.000 
#    0.000    6.875    0.000    0.750    0.000    0.000 
#    0.000    0.000    0.000    0.000    0.000    0.000 
#
# Total GULP energy -178468.741055 kJ/mol
# GULP energy per Si atom -5577.148158 kJ/mol
# Density = 1.924623 g / cm^3
# Si number density = 19.290139 Si / 1000 Ang^3
#
#
#
# Elastic Constant Matrix: (Units=GPa)
#
#
# Indices 1 2 3 4 5 6 
#
# 1 61.5001 12.7088 42.9671 0.0000 -14.4338 0.0000
# 2 12.7088 19.5216 23.3330 0.0000 -4.8016 0.0000
# 3 42.9671 23.3330 122.0822 0.0000 -28.9703 0.0000
# 4 0.0000 0.0000 0.0000 22.3712 0.0000 0.2038
# 5 -14.4338 -4.8016 -28.9703 0.0000 29.1135 0.0000
# 6 0.0000 0.0000 0.0000 0.2038 0.0000 17.1696
#
#
#
# Elastic Compliance Matrix: (Units=1/GPa)
#
#
# Indices 1 2 3 4 5 6 
#
# 1 0.022655 -0.006985 -0.005559 0.000000 0.004548 0.000000
# 2 -0.006985 0.068653 -0.011517 0.000000 -0.003601 0.000000
# 3 -0.005559 -0.011517 0.014720 0.000000 0.009992 0.000000
# 4 0.000000 0.000000 0.000000 0.044705 0.000000 -0.000531
# 5 0.004548 -0.003601 0.009992 0.000000 0.045952 0.000000
# 6 0.000000 0.000000 0.000000 -0.000531 0.000000 0.058249
#
#
# Mechanical properties :
#
#
# Convention : Reuss Voigt Hill
#
# Bulk Modulus (GPa) = 17.26988 40.12463 28.69725
# Shear Modulus (GPa) = 15.51064 22.00387 18.75725
#
# Velocity S-wave (km/s) = 2.83869 3.38106 3.12168
# Velocity P-wave (km/s) = 4.44031 6.00731 5.28224
#
# Compressibility (1/GPa) = 0.05790427
#
# Stress axis : x y z
#
# Youngs Moduli (GPa) = 44.14049 14.56600 67.93418
#
# Poissons Ratio (x) = 0.10175 0.37765
# Poissons Ratio (y) = 0.30834 0.78242
# Poissons Ratio (z) = 0.24538 0.16776
#
# Static dielectric constant tensor:
#      x y z
#    x 1.673680 0.000000 -0.009460 
#    y 0.000000 1.682970 0.000000 
#    z -0.009460 0.000000 1.674650 
# 
# From -- ./inp_files/359931.got.cif
#   From: 2010.05.17/outbox.cif.g08.bks.cpg/sg12_180_cif.got.tgz:359931.got - 2010.06.03 13:09:07.
