data_PCOD9199139
_publ_section_title
;
Structure prediction by ZEFSAII (Michael W. Deem and Ramdas Pophale) SiO2 
 PCOD9199139
Probable space group: C 2/M
;
_chemical_formula_sum "Si O2"
_cell_formula_units_Z 64
_cell_length_a 16.206596
_cell_length_b 14.522822
_cell_length_c 17.025203
_cell_angle_alpha 90.000000
_cell_angle_beta 136.098690
_cell_angle_gamma 90.000000
_cell_volume 2778.628079
_symmetry_space_group_name_H-M "C 2/M"
_symmetry_group_IT_number 12
_symmetry_cell_setting 'monoclinic'
loop_
_space_group_symop_operation_xyz
x,y,z
-x,y,-z
-x,-y,-z
x,-y,z
1/2+x,1/2+y,z
1/2-x,1/2+y,-z
1/2-x,1/2-y,-z
1/2+x,1/2-y,z
loop_
_atom_site_type_symbol
_atom_site_label
_atom_site_fract_x
_atom_site_fract_y
_atom_site_fract_z
Si Si1 0.960953 0.892035 0.557898
Si Si2 0.209542 0.898333 0.022046
Si Si3 0.878021 0.299905 0.031457
Si Si4 0.253303 0.602955 0.639291
Si Si5 0.175178 0.197806 0.760915
Si Si6 0.859434 0.599685 0.270309
Si Si7 0.701814 0.890165 0.433587
Si Si8 0.367343 0.784806 0.760767
O O1 0.837400 0.857673 0.508465
O O2 0.000000 0.851216 0.500000
O O3 0.072977 0.877388 0.691199
O O4 0.941052 0.000000 0.531806
O O5 0.134346 0.807554 0.950979
O O6 0.237470 0.901544 0.134425
O O7 0.168655 0.000000 0.969749
O O8 0.335797 0.872114 0.068485
O O9 0.778483 0.310830 0.896225
O O10 0.016463 0.309076 0.109232
O O11 0.302487 0.500000 0.659294
O O12 0.169293 0.598390 0.657397
O O13 0.182025 0.629247 0.511716
O O14 0.352147 0.678131 0.727346
O O15 0.104209 0.295029 0.720224
O O16 0.249613 0.193155 0.730634
O O17 0.919245 0.500000 0.292249
O O18 0.625707 0.840668 0.315293
O O19 0.693072 0.000000 0.416620
#
# Coordination Sequence:
#
# PCOD9199139 Si02
#       8
#     8   8   8   8   8   8   8   8
#     4  10  20  37  60  84 112 152 199 239 281 337
#     4   9  19  38  59  80 114 156 194 236 286 337
#     4  10  22  36  57  91 118 150 197 234 280 356
#     4   9  19  35  56  84 113 145 194 243 285 340
#     4  10  20  36  59  86 119 153 190 237 285 338
#     4   8  16  34  59  81 109 147 187 237 292 346
#     4  10  21  37  59  86 115 151 194 241 290 342
#     4  11  21  36  58  84 121 157 184 233 298 347
#
# _framework density 23.032948999999999
#
# number of rings (size 3 to 8) (size 9 to 14) (size 15 to 20)
#    0.000    2.375    1.250    0.750    0.000    4.500 
#    0.000    1.250    0.000   12.375    0.000    0.000 
#    0.000    0.000    0.000    0.000    0.000    0.000 
#
# Total GULP energy -178391.606947 kJ/mol
# GULP energy per Si atom -5574.737717 kJ/mol
# Density = 2.298053 g / cm^3
# Si number density = 23.032949 Si / 1000 Ang^3
#
#
#
# Elastic Constant Matrix: (Units=GPa)
#
#
# Indices 1 2 3 4 5 6 
#
# 1 51.3620 11.2472 34.2780 0.0000 -8.4365 0.0000
# 2 11.2472 24.7306 9.7782 0.0000 -13.1308 0.0000
# 3 34.2780 9.7782 94.5439 0.0000 -6.3418 0.0000
# 4 0.0000 0.0000 0.0000 9.7646 0.0000 -12.3725
# 5 -8.4365 -13.1308 -6.3418 0.0000 39.7030 0.0000
# 6 0.0000 0.0000 0.0000 -12.3725 0.0000 10.2704
#
#
#
# Elastic Compliance Matrix: (Units=1/GPa)
#
#
# Indices 1 2 3 4 5 6 
#
# 1 0.027548 -0.008021 -0.009040 0.000000 0.001757 0.000000
# 2 -0.008021 0.052950 -0.001524 0.000000 0.015564 0.000000
# 3 -0.009040 -0.001524 0.014000 0.000000 -0.000189 0.000000
# 4 0.000000 0.000000 0.000000 -0.194541 0.000000 -0.234359
# 5 0.001757 0.015564 -0.000189 0.000000 0.030678 0.000000
# 6 0.000000 0.000000 0.000000 -0.234359 0.000000 -0.184961
#
#
# Mechanical properties :
#
#
# Convention : Reuss Voigt Hill
#
# Bulk Modulus (GPa) = 17.44398 31.24925 24.34661
# Shear Modulus (GPa) = -25.24680 19.63647 -2.80517
#
# Velocity S-wave (km/s) = -3.31436 2.92299 -1.10478
# Velocity P-wave (km/s) = 2.65644 4.99885 2.99431
#
# Compressibility (1/GPa) = 0.05732637
#
# Stress axis : x y z
#
# Youngs Moduli (GPa) = 36.30010 18.88566 71.42965
#
# Poissons Ratio (x) = 0.15149 0.64576
# Poissons Ratio (y) = 0.29117 0.10887
# Poissons Ratio (z) = 0.32817 0.02878
#
# Static dielectric constant tensor:
#      x y z
#    x 1.914690 0.000000 -0.037630 
#    y 0.000000 1.899340 0.000000 
#    z -0.037630 0.000000 1.853830 
# 
# From -- ./inp_files/278165.got.cif
#   From: 2010.05.17/outbox.cif.g08.bks.cpg/sg12_140_cif.got.tgz:278165.got - 2010.06.03 13:09:07.
