data_PCOD9199213
_publ_section_title
;
Structure prediction by ZEFSAII (Michael W. Deem and Ramdas Pophale) SiO2 
 PCOD9199213
Probable space group: C 2/M
;
_chemical_formula_sum "Si O2"
_cell_formula_units_Z 56
_cell_length_a 21.824593
_cell_length_b 14.404771
_cell_length_c 13.399315
_cell_angle_alpha 90.000000
_cell_angle_beta 137.840448
_cell_angle_gamma 90.000000
_cell_volume 2827.387977
_symmetry_space_group_name_H-M "C 2/M"
_symmetry_group_IT_number 12
_symmetry_cell_setting 'monoclinic'
loop_
_space_group_symop_operation_xyz
x,y,z
-x,y,-z
-x,-y,-z
x,-y,z
1/2+x,1/2+y,z
1/2-x,1/2+y,-z
1/2-x,1/2-y,-z
1/2+x,1/2-y,z
loop_
_atom_site_type_symbol
_atom_site_label
_atom_site_fract_x
_atom_site_fract_y
_atom_site_fract_z
Si Si1 0.582152 0.215844 0.020179
Si Si2 0.418445 0.391536 0.321208
Si Si3 0.793568 0.772856 0.303862
Si Si4 0.415832 0.895097 0.455882
Si Si5 0.015692 0.107815 0.826403
Si Si6 0.970635 0.396639 0.752173
Si Si7 0.149736 0.781611 0.407047
O O1 0.685705 0.211486 0.183014
O O2 0.500000 0.198031 0.000000
O O3 0.567392 0.319108 0.958522
O O4 0.565426 0.139860 0.912192
O O5 0.500000 0.380895 0.500000
O O6 0.390953 0.500000 0.289803
O O7 0.336808 0.327438 0.262915
O O8 0.453534 0.371659 0.251205
O O9 0.825314 0.665472 0.336096
O O10 0.843729 0.801931 0.467012
O O11 0.500000 0.848665 0.500000
O O12 0.455148 0.901727 0.615057
O O13 0.401114 0.000000 0.400925
O O14 0.907938 0.133343 0.706888
O O15 0.032071 0.000000 0.867316
O O16 0.949200 0.500000 0.765997
O O17 0.906383 0.308887 0.695052
O O18 0.250000 0.750000 0.500000
#
# Coordination Sequence:
#
# PCOD9199213 Si02
#       7
#     8   8   8   8   8   8   8
#     4  11  25  42  57  84 123 162 203 244 289 352
#     4  10  20  37  61  92 122 148 192 247 301 362
#     4  11  21  34  62  87 117 156 192 244 303 341
#     4   9  19  36  60  88 116 148 191 241 294 354
#     4  10  22  41  62  84 119 161 195 242 302 352
#     4   9  20  39  58  79 114 155 192 236 290 345
#     4  10  20  36  59  88 115 148 201 248 285 346
#
# _framework density 19.806266000000001
#
# number of rings (size 3 to 8) (size 9 to 14) (size 15 to 20)
#    0.000    2.000    1.429    2.143    4.000    2.857 
#    0.000    4.286    0.000    0.000    0.000    0.000 
#    0.000    0.000    0.000    0.000    0.000    0.000 
#
# Total GULP energy -155898.335638 kJ/mol
# GULP energy per Si atom -5567.797701 kJ/mol
# Density = 1.976119 g / cm^3
# Si number density = 19.806266 Si / 1000 Ang^3
#
#
#
# Elastic Constant Matrix: (Units=GPa)
#
#
# Indices 1 2 3 4 5 6 
#
# 1 56.8080 10.3948 6.6588 0.0000 12.3270 0.0000
# 2 10.3948 75.8915 28.2354 0.0000 4.5199 0.0000
# 3 6.6588 28.2354 80.3189 0.0000 20.3399 0.0000
# 4 0.0000 0.0000 0.0000 2.4933 0.0000 -3.7143
# 5 12.3270 4.5199 20.3399 0.0000 21.0981 0.0000
# 6 0.0000 0.0000 0.0000 -3.7143 0.0000 10.4017
#
#
#
# Elastic Compliance Matrix: (Units=1/GPa)
#
#
# Indices 1 2 3 4 5 6 
#
# 1 0.020970 -0.003139 0.003039 0.000000 -0.014510 0.000000
# 2 -0.003139 0.015730 -0.006457 0.000000 0.004689 0.000000
# 3 0.003039 -0.006457 0.019273 0.000000 -0.018973 0.000000
# 4 0.000000 0.000000 0.000000 0.856901 0.000000 0.305988
# 5 -0.014510 0.004689 -0.018973 0.000000 0.073162 0.000000
# 6 0.000000 0.000000 0.000000 0.305988 0.000000 0.205403
#
#
# Mechanical properties :
#
#
# Convention : Reuss Voigt Hill
#
# Bulk Modulus (GPa) = 23.33192 33.73293 28.53242
# Shear Modulus (GPa) = 4.10227 17.98059 11.04143
#
# Velocity S-wave (km/s) = 1.44073 3.01628 2.36365
# Velocity P-wave (km/s) = 3.81749 5.40361 4.67826
#
# Compressibility (1/GPa) = 0.04285974
#
# Stress axis : x y z
#
# Youngs Moduli (GPa) = 47.68768 63.57430 51.88635
#
# Poissons Ratio (x) = 0.19955 -0.15770
# Poissons Ratio (y) = 0.14968 0.33502
# Poissons Ratio (z) = -0.14494 0.41049
#
# Static dielectric constant tensor:
#      x y z
#    x 1.781140 0.000000 0.016870 
#    y 0.000000 1.696440 0.000000 
#    z 0.016870 0.000000 1.826120 
# 
# From -- ./inp_files/240457.got.cif
#   From: 2010.05.17/outbox.cif.g08.bks.cpg/sg12_121_cif.got.tgz:240457.got - 2010.06.03 13:09:07.
