data_PCOD9199233
_publ_section_title
;
Structure prediction by ZEFSAII (Michael W. Deem and Ramdas Pophale) SiO2 
 PCOD9199233
Probable space group: C 2/M
;
_chemical_formula_sum "Si O2"
_cell_formula_units_Z 36
_cell_length_a 15.437895
_cell_length_b 7.876221
_cell_length_c 21.233367
_cell_angle_alpha 90.000000
_cell_angle_beta 36.519842
_cell_angle_gamma 90.000000
_cell_volume 1536.440052
_symmetry_space_group_name_H-M "C 2/M"
_symmetry_group_IT_number 12
_symmetry_cell_setting 'monoclinic'
loop_
_space_group_symop_operation_xyz
x,y,z
-x,y,-z
-x,-y,-z
x,-y,z
1/2+x,1/2+y,z
1/2-x,1/2+y,-z
1/2-x,1/2-y,-z
1/2+x,1/2-y,z
loop_
_atom_site_type_symbol
_atom_site_label
_atom_site_fract_x
_atom_site_fract_y
_atom_site_fract_z
Si Si1 0.168895 0.204675 0.893497
Si Si2 0.089479 0.696568 0.575171
Si Si3 0.813355 0.195878 0.257580
Si Si4 0.948975 0.200091 0.784825
Si Si5 0.000000 0.242325 0.500000
O O1 0.209449 0.267942 0.799086
O O2 0.275694 0.275894 0.884920
O O3 0.183574 0.000000 0.888490
O O4 0.000000 0.247584 0.000000
O O5 0.080350 0.500000 0.557506
O O6 0.250000 0.750000 0.500000
O O7 0.997315 0.711234 0.692008
O O8 0.038774 0.815201 0.547788
O O9 0.664486 0.193903 0.384955
O O10 0.948130 0.267938 0.219280
O O11 0.853185 0.000000 0.222243
O O12 0.982041 0.000000 0.759429
#
# Coordination Sequence:
#
# PCOD9199233 Si02
#       5
#     8   8   8   8   4
#     4  10  22  42  66  88 114 155 205 250 295 355
#     4  12  23  38  60  88 122 161 201 244 294 355
#     4  10  20  36  59  88 121 160 197 235 297 364
#     4  11  23  39  60  89 122 157 197 246 302 355
#     4  12  21  36  63  88 121 164 197 232 297 366
#
# _framework density 23.430786000000001
#
# number of rings (size 3 to 8) (size 9 to 14) (size 15 to 20)
#    0.000    1.111    4.444    3.333    0.000    1.333 
#    0.000    6.667    0.000    0.000    0.000    0.000 
#    0.000    0.000    0.000    0.000    0.000    0.000 
#
# Total GULP energy -100264.619044 kJ/mol
# GULP energy per Si atom -5570.256614 kJ/mol
# Density = 2.337746 g / cm^3
# Si number density = 23.430786 Si / 1000 Ang^3
#
#
#
# Elastic Constant Matrix: (Units=GPa)
#
#
# Indices 1 2 3 4 5 6 
#
# 1 202.9632 9.5322 18.2607 0.0000 -37.7109 0.0000
# 2 9.5322 64.2230 3.9488 0.0000 -1.1296 0.0000
# 3 18.2607 3.9488 59.5589 0.0000 -23.5949 0.0000
# 4 0.0000 0.0000 0.0000 12.4247 0.0000 -6.0574
# 5 -37.7109 -1.1296 -23.5949 0.0000 41.3942 0.0000
# 6 0.0000 0.0000 0.0000 -6.0574 0.0000 3.4475
#
#
#
# Elastic Compliance Matrix: (Units=1/GPa)
#
#
# Indices 1 2 3 4 5 6 
#
# 1 0.005981 -0.000817 0.000478 0.000000 0.005699 0.000000
# 2 -0.000817 0.015747 -0.001186 0.000000 -0.000991 0.000000
# 3 0.000478 -0.001186 0.021806 0.000000 0.012833 0.000000
# 4 0.000000 0.000000 0.000000 0.561286 0.000000 0.986207
# 5 0.005699 -0.000991 0.012833 0.000000 0.036638 0.000000
# 6 0.000000 0.000000 0.000000 0.986207 0.000000 2.022881
#
#
# Mechanical properties :
#
#
# Convention : Reuss Voigt Hill
#
# Bulk Modulus (GPa) = 24.70040 43.35872 34.02956
# Shear Modulus (GPa) = 1.86506 31.12017 16.49261
#
# Velocity S-wave (km/s) = 0.89315 3.64837 2.65596
# Velocity P-wave (km/s) = 3.41004 6.02434 4.89495
#
# Compressibility (1/GPa) = 0.04048518
#
# Stress axis : x y z
#
# Youngs Moduli (GPa) = 167.18789 63.50220 45.85900
#
# Poissons Ratio (x) = 0.05188 -0.02193
# Poissons Ratio (y) = 0.13658 0.05439
# Poissons Ratio (z) = -0.07994 0.07531
#
# Static dielectric constant tensor:
#      x y z
#    x 1.909810 0.000000 -0.048640 
#    y 0.000000 1.944110 0.000000 
#    z -0.048640 0.000000 1.966950 
# 
# From -- ./inp_files/308852.got.cif
#   From: 2010.05.17/outbox.cif.g08.bks.cpg/sg12_155_cif.got.tgz:308852.got - 2010.06.03 13:09:07.
