data_PCOD9199101
_publ_section_title
;
Structure prediction by ZEFSAII (Michael W. Deem and Ramdas Pophale) SiO2 
 PCOD9199101
Probable space group: C 2/M
;
_chemical_formula_sum "Si O2"
_cell_formula_units_Z 48
_cell_length_a 19.867060
_cell_length_b 14.049589
_cell_length_c 12.077885
_cell_angle_alpha 90.000000
_cell_angle_beta 44.054514
_cell_angle_gamma 90.000000
_cell_volume 2344.157943
_symmetry_space_group_name_H-M "C 2/M"
_symmetry_group_IT_number 12
_symmetry_cell_setting 'monoclinic'
loop_
_space_group_symop_operation_xyz
x,y,z
-x,y,-z
-x,-y,-z
x,-y,z
1/2+x,1/2+y,z
1/2-x,1/2+y,-z
1/2-x,1/2-y,-z
1/2+x,1/2-y,z
loop_
_atom_site_type_symbol
_atom_site_label
_atom_site_fract_x
_atom_site_fract_y
_atom_site_fract_z
Si Si1 0.914194 0.384950 0.940707
Si Si2 0.745861 0.611495 0.734690
Si Si3 0.612724 0.384338 0.353232
Si Si4 0.294850 0.192486 0.277871
Si Si5 0.380028 0.112392 0.385157
Si Si6 0.763520 0.114745 0.997352
O O1 0.915734 0.500000 0.936545
O O2 0.830980 0.350610 0.955572
O O3 0.016378 0.348875 0.774977
O O4 0.878359 0.355761 0.104369
O O5 0.717908 0.500000 0.755438
O O6 0.685589 0.694789 0.748655
O O7 0.848804 0.622685 0.549729
O O8 0.741746 0.639215 0.868118
O O9 0.500000 0.358636 0.500000
O O10 0.621439 0.500000 0.357632
O O11 0.692181 0.336467 0.341534
O O12 0.647081 0.360300 0.187533
O O13 0.302014 0.155151 0.393460
O O14 0.381281 0.000000 0.362902
O O15 0.759898 0.000000 0.001101
#
# Coordination Sequence:
#
# PCOD9199101 Si02
#       6
#     8   8   8   8   8   8
#     4   9  18  33  59  90 111 135 178 234 288 330
#     4  10  22  38  55  77 116 158 186 222 276 336
#     4   9  18  34  57  85 113 146 189 235 278 322
#     4  11  20  35  57  84 111 145 188 235 279 326
#     4  10  20  36  59  86 113 143 182 231 286 337
#     4   8  16  34  56  80 113 147 180 222 278 331
#
# _framework density 20.476436
#
# number of rings (size 3 to 8) (size 9 to 14) (size 15 to 20)
#    0.000    2.500    0.000    3.500    0.000    4.667 
#    6.000    3.333    0.000    2.000    0.000    0.000 
#    0.000    0.000    0.000    0.000    0.000    0.000 
#
# Total GULP energy -133746.045112 kJ/mol
# GULP energy per Si atom -5572.751880 kJ/mol
# Density = 2.042983 g / cm^3
# Si number density = 20.476436 Si / 1000 Ang^3
#
#
#
# Elastic Constant Matrix: (Units=GPa)
#
#
# Indices 1 2 3 4 5 6 
#
# 1 55.7579 9.9810 76.2508 0.0000 1.0330 0.0000
# 2 9.9810 72.8858 31.0394 0.0000 -3.2239 0.0000
# 3 76.2508 31.0394 158.7507 0.0000 6.9021 0.0000
# 4 0.0000 0.0000 0.0000 16.1309 0.0000 2.2627
# 5 1.0330 -3.2239 6.9021 0.0000 26.1214 0.0000
# 6 0.0000 0.0000 0.0000 2.2627 0.0000 8.0374
#
#
#
# Elastic Compliance Matrix: (Units=1/GPa)
#
#
# Indices 1 2 3 4 5 6 
#
# 1 0.054052 0.004366 -0.027057 0.000000 0.005551 0.000000
# 2 0.004366 0.015503 -0.005264 0.000000 0.003132 0.000000
# 3 -0.027057 -0.005264 0.020542 0.000000 -0.005008 0.000000
# 4 0.000000 0.000000 0.000000 0.064542 0.000000 -0.018170
# 5 0.005551 0.003132 -0.005008 0.000000 0.039773 0.000000
# 6 0.000000 0.000000 0.000000 -0.018170 0.000000 0.129533
#
#
# Mechanical properties :
#
#
# Convention : Reuss Voigt Hill
#
# Bulk Modulus (GPa) = 29.25172 57.99300 43.62236
# Shear Modulus (GPa) = 12.77956 21.39949 17.08953
#
# Velocity S-wave (km/s) = 2.50093 3.23628 2.89207
# Velocity P-wave (km/s) = 4.75984 6.50753 5.70105
#
# Compressibility (1/GPa) = 0.03418602
#
# Stress axis : x y z
#
# Youngs Moduli (GPa) = 18.50085 64.50506 48.68032
#
# Poissons Ratio (x) = -0.28165 1.31714
# Poissons Ratio (y) = -0.08078 0.25628
# Poissons Ratio (z) = 0.50058 0.33959
#
# Static dielectric constant tensor:
#      x y z
#    x 1.722540 0.000000 0.007350 
#    y 0.000000 1.757420 0.000000 
#    z 0.007350 0.000000 1.751340 
# 
# From -- ./inp_files/143522.got.cif
#   From: 2010.05.17/outbox.cif.g08.bks.cpg/sg12_72_cif.got.tgz:143522.got - 2010.06.03 13:09:07.
