data_PCOD9199238
_publ_section_title
;
Structure prediction by ZEFSAII (Michael W. Deem and Ramdas Pophale) SiO2 
 PCOD9199238
Probable space group: C 2/M
;
_chemical_formula_sum "Si O2"
_cell_formula_units_Z 48
_cell_length_a 13.102497
_cell_length_b 22.842383
_cell_length_c 7.338631
_cell_angle_alpha 90.000000
_cell_angle_beta 98.867768
_cell_angle_gamma 90.000000
_cell_volume 2170.141339
_symmetry_space_group_name_H-M "C 2/M"
_symmetry_group_IT_number 12
_symmetry_cell_setting 'monoclinic'
loop_
_space_group_symop_operation_xyz
x,y,z
-x,y,-z
-x,-y,-z
x,-y,z
1/2+x,1/2+y,z
1/2-x,1/2+y,-z
1/2-x,1/2-y,-z
1/2+x,1/2-y,z
loop_
_atom_site_type_symbol
_atom_site_label
_atom_site_fract_x
_atom_site_fract_y
_atom_site_fract_z
Si Si1 0.717744 0.064023 0.356202
Si Si2 0.288766 0.342950 0.894278
Si Si3 0.938650 0.648017 0.806875
Si Si4 0.763174 0.780793 0.262969
Si Si5 0.620936 0.067552 0.726580
Si Si6 0.611048 0.350236 0.443638
O O1 0.643339 0.095191 0.191708
O O2 0.650043 0.062598 0.522308
O O3 0.817469 0.099061 0.450167
O O4 0.746128 0.000000 0.302125
O O5 0.228930 0.285787 0.799063
O O6 0.219568 0.400723 0.847035
O O7 0.381800 0.350173 0.773836
O O8 0.305624 0.321926 0.106441
O O9 0.855659 0.698183 0.733116
O O10 0.029124 0.614961 0.721823
O O11 0.000000 0.669203 0.000000
O O12 0.832008 0.793687 0.456680
O O13 0.598902 0.000000 0.782415
O O14 0.500000 0.354079 0.500000
#
# Coordination Sequence:
#
# PCOD9199238 Si02
#       6
#     8   8   8   8   8   8
#     4   9  20  37  57  82 118 160 198 242 295 360
#     4  10  21  41  61  83 125 157 197 253 292 359
#     4  11  20  34  54  91 121 148 194 238 300 369
#     4  10  22  40  60  87 120 158 202 240 304 361
#     4  10  20  36  59  88 122 158 194 240 305 365
#     4  10  22  39  59  86 112 154 208 252 298 340
#
# _framework density 22.118372999999998
#
# number of rings (size 3 to 8) (size 9 to 14) (size 15 to 20)
#    0.000    2.000    1.667    1.500    0.000    5.000 
#    0.000    0.000    0.000    0.000    0.000    7.000 
#    0.000    0.000    0.000    0.000    0.000    0.000 
#
# Total GULP energy -133693.674693 kJ/mol
# GULP energy per Si atom -5570.569779 kJ/mol
# Density = 2.206803 g / cm^3
# Si number density = 22.118373 Si / 1000 Ang^3
#
#
#
# Elastic Constant Matrix: (Units=GPa)
#
#
# Indices 1 2 3 4 5 6 
#
# 1 131.2294 22.2459 35.1745 0.0000 -9.9978 0.0000
# 2 22.2459 78.5857 -2.5759 0.0000 -3.3188 0.0000
# 3 35.1745 -2.5759 72.7163 0.0000 -22.5780 0.0000
# 4 0.0000 0.0000 0.0000 20.5234 0.0000 -8.8683
# 5 -9.9978 -3.3188 -22.5780 0.0000 25.2108 0.0000
# 6 0.0000 0.0000 0.0000 -8.8683 0.0000 1.5446
#
#
#
# Elastic Compliance Matrix: (Units=1/GPa)
#
#
# Indices 1 2 3 4 5 6 
#
# 1 0.009352 -0.002858 -0.004973 0.000000 -0.001121 0.000000
# 2 -0.002858 0.013766 0.002882 0.000000 0.003260 0.000000
# 3 -0.004973 0.002882 0.021838 0.000000 0.017964 0.000000
# 4 0.000000 0.000000 0.000000 -0.032902 0.000000 -0.188904
# 5 -0.001121 0.003260 0.017964 0.000000 0.055738 0.000000
# 6 0.000000 0.000000 0.000000 -0.188904 0.000000 -0.437170
#
#
# Mechanical properties :
#
#
# Convention : Reuss Voigt Hill
#
# Bulk Modulus (GPa) = 28.52379 43.58004 36.05192
# Shear Modulus (GPa) = -14.37635 24.63489 5.12927
#
# Velocity S-wave (km/s) = -2.55222 3.34095 1.52448
# Velocity P-wave (km/s) = 2.05885 5.88459 4.40836
#
# Compressibility (1/GPa) = 0.03505845
#
# Stress axis : x y z
#
# Youngs Moduli (GPa) = 106.92548 72.64215 45.79245
#
# Poissons Ratio (x) = 0.20760 0.22774
# Poissons Ratio (y) = 0.30557 -0.13199
# Poissons Ratio (z) = 0.53177 -0.20938
#
# Static dielectric constant tensor:
#      x y z
#    x 1.827240 0.000000 -0.081320 
#    y 0.000000 1.869180 0.000000 
#    z -0.081320 0.000000 1.881810 
# 
# From -- ./inp_files/50786.got.cif
#   From: 2010.05.17/outbox.cif.g08.bks.cpg/sg12_26_cif.got.tgz:50786.got - 2010.06.03 13:09:07.
