data_PCOD9199988
_publ_section_title
;
Structure prediction by ZEFSAII (Michael W. Deem and Ramdas Pophale) SiO2 
 PCOD9199988
Probable space group: C 2/M
;
_chemical_formula_sum "Si O2"
_cell_formula_units_Z 64
_cell_length_a 25.323224
_cell_length_b 8.263962
_cell_length_c 29.034189
_cell_angle_alpha 90.000000
_cell_angle_beta 30.625767
_cell_angle_gamma 90.000000
_cell_volume 3095.281902
_symmetry_space_group_name_H-M "C 2/M"
_symmetry_group_IT_number 12
_symmetry_cell_setting 'monoclinic'
loop_
_space_group_symop_operation_xyz
x,y,z
-x,y,-z
-x,-y,-z
x,-y,z
1/2+x,1/2+y,z
1/2-x,1/2+y,-z
1/2-x,1/2-y,-z
1/2+x,1/2-y,z
loop_
_atom_site_type_symbol
_atom_site_label
_atom_site_fract_x
_atom_site_fract_y
_atom_site_fract_z
Si Si1 0.221744 0.696018 0.469512
Si Si2 0.095192 0.193750 0.737204
Si Si3 0.589656 0.688793 0.992094
Si Si4 0.427993 0.186832 0.794594
Si Si5 0.280908 0.184462 0.026587
Si Si6 0.995194 0.692515 0.642785
Si Si7 0.267441 0.806735 0.789172
Si Si8 0.626996 0.190120 0.817323
O O1 0.219309 0.500000 0.471644
O O2 0.250000 0.750000 0.500000
O O3 0.308102 0.744976 0.367591
O O4 0.106227 0.756982 0.543228
O O5 0.112319 0.243180 0.776904
O O6 0.994272 0.273124 0.789763
O O7 0.083821 0.000000 0.742863
O O8 0.572710 0.500000 0.994649
O O9 0.636079 0.710211 0.008470
O O10 0.679423 0.754939 0.890956
O O11 0.479065 0.774186 0.075099
O O12 0.328089 0.298693 0.865251
O O13 0.494979 0.208525 0.698395
O O14 0.392371 0.000000 0.822376
O O15 0.316633 0.000000 0.997802
O O16 0.250000 0.250000 0.000000
O O17 0.994235 0.500000 0.632946
O O18 0.884183 0.757626 0.708760
O O19 0.221022 0.773154 0.773927
O O20 0.272646 0.000000 0.793884
O O21 0.644511 0.000000 0.802341
#
# Coordination Sequence:
#
# PCOD9199988 Si02
#       8
#     8   8   8   8   8   8   8   8
#     4  10  20  36  62  94 124 156 196 244 299 362
#     4  11  23  39  60  90 124 161 203 249 301 362
#     4  11  22  40  64  90 118 156 203 249 301 361
#     4  11  20  36  60  86 120 159 196 242 299 358
#     4  12  24  37  54  82 122 161 201 246 297 358
#     4   9  18  36  62  91 120 152 192 237 296 359
#     4  10  21  41  66  89 117 158 202 248 299 360
#     4  12  26  42  60  86 120 162 205 254 305 352
#
# _framework density 20.676628999999998
#
# number of rings (size 3 to 8) (size 9 to 14) (size 15 to 20)
#    0.000    1.250    2.500    4.500    0.000    3.000 
#    0.000    1.250    0.000    3.750    0.000    0.000 
#    0.000    0.000    0.000    0.000    0.000    0.000 
#
# Total GULP energy -178845.137444 kJ/mol
# GULP energy per Si atom -5588.910545 kJ/mol
# Density = 2.062957 g / cm^3
# Si number density = 20.676629 Si / 1000 Ang^3
#
#
#
# Elastic Constant Matrix: (Units=GPa)
#
#
# Indices 1 2 3 4 5 6 
#
# 1 116.8860 -6.8522 33.2058 0.0054 -22.9729 -0.0117
# 2 -6.8522 26.5536 8.6579 0.0078 2.3894 -0.0316
# 3 33.2058 8.6579 95.1393 0.0032 -17.3672 -0.0168
# 4 0.0054 0.0078 0.0032 17.1968 -0.0016 -2.7629
# 5 -22.9729 2.3894 -17.3672 -0.0016 28.9849 0.0108
# 6 -0.0117 -0.0316 -0.0168 -2.7629 0.0108 25.2664
#
#
#
# Elastic Compliance Matrix: (Units=1/GPa)
#
#
# Indices 1 2 3 4 5 6 
#
# 1 0.010856 0.003139 -0.002865 -0.000003 0.006629 0.000004
# 2 0.003139 0.040661 -0.005562 -0.000011 -0.004197 0.000049
# 3 -0.002865 -0.005562 0.013121 0.000001 0.006050 -0.000002
# 4 -0.000003 -0.000011 0.000001 0.059190 0.000000 0.006472
# 5 0.006629 -0.004197 0.006050 0.000000 0.043726 -0.000017
# 6 0.000004 0.000049 -0.000002 0.006472 -0.000017 0.040286
#
#
# Mechanical properties :
#
#
# Convention : Reuss Voigt Hill
#
# Bulk Modulus (GPa) = 18.49689 34.28911 26.39300
# Shear Modulus (GPa) = 21.14733 27.86079 24.50406
#
# Velocity S-wave (km/s) = 3.20154 3.67475 3.44628
# Velocity P-wave (km/s) = 4.75728 5.88426 5.35053
#
# Compressibility (1/GPa) = 0.05406316
#
# Stress axis : x y z
#
# Youngs Moduli (GPa) = 92.11469 24.59367 76.21229
#
# Poissons Ratio (x) = -0.07720 0.21831
# Poissons Ratio (y) = -0.28914 0.42388
# Poissons Ratio (z) = 0.26387 0.13679
#
# Static dielectric constant tensor:
#      x y z
#    x 1.729700 0.000000 0.006820 
#    y 0.000000 1.708440 0.000000 
#    z 0.006820 0.000000 1.786340 
# 
# From -- ./inp_files/238681.got.cif
#   From: 2010.05.17/outbox.cif.g08.bks.cpg/sg12_120_cif.got.tgz:238681.got - 2010.06.03 13:09:07.
