data_PCOD9199775
_publ_section_title
;
Structure prediction by ZEFSAII (Michael W. Deem and Ramdas Pophale) SiO2 
 PCOD9199775
Probable space group: C 2/M
;
_chemical_formula_sum "Si O2"
_cell_formula_units_Z 48
_cell_length_a 24.606067
_cell_length_b 19.135428
_cell_length_c 15.554622
_cell_angle_alpha 90.000000
_cell_angle_beta 18.572521
_cell_angle_gamma 90.000000
_cell_volume 2332.682988
_symmetry_space_group_name_H-M "C 2/M"
_symmetry_group_IT_number 12
_symmetry_cell_setting 'monoclinic'
loop_
_space_group_symop_operation_xyz
x,y,z
-x,y,-z
-x,-y,-z
x,-y,z
1/2+x,1/2+y,z
1/2-x,1/2+y,-z
1/2-x,1/2-y,-z
1/2+x,1/2-y,z
loop_
_atom_site_type_symbol
_atom_site_label
_atom_site_fract_x
_atom_site_fract_y
_atom_site_fract_z
Si Si1 0.759034 0.082641 0.676831
Si Si2 0.815501 0.915191 0.247007
Si Si3 0.867717 0.205434 0.619569
Si Si4 0.026887 0.416815 0.559410
Si Si5 0.386775 0.789010 0.856031
Si Si6 0.635788 0.916035 0.684523
O O1 0.868860 0.129168 0.575226
O O2 0.758804 0.107094 0.577678
O O3 0.795356 0.000000 0.627258
O O4 0.561621 0.094893 0.999237
O O5 0.720807 0.900752 0.299477
O O6 0.688745 0.890271 0.512205
O O7 0.825843 0.000000 0.233566
O O8 0.000000 0.888903 0.000000
O O9 0.000000 0.209584 0.500000
O O10 0.933838 0.255896 0.444483
O O11 0.685608 0.219397 0.939090
O O12 0.997924 0.500000 0.614476
O O13 0.000000 0.399030 0.500000
O O14 0.901787 0.369888 0.804809
O O15 0.250000 0.750000 0.000000
O O16 0.655563 0.000000 0.654292
#
# Coordination Sequence:
#
# PCOD9199775 Si02
#       6
#     8   8   8   8   8   8
#     4   9  17  32  57  85 109 142 194 242 285 340
#     4   9  17  31  51  80 119 156 189 235 296 352
#     4  10  21  37  58  81 113 156 192 237 292 353
#     4  10  20  36  61  91 118 152 203 252 292 347
#     4  10  21  40  60  82 116 162 197 232 298 364
#     4   8  15  30  53  76 106 152 190 227 285 348
#
# _framework density 20.577162999999999
#
# number of rings (size 3 to 8) (size 9 to 14) (size 15 to 20)
#    0.000    2.667    0.000    3.500    0.000    2.333 
#    9.000    2.500    3.667    5.000    0.000    0.000 
#    0.000    0.000    0.000    0.000    0.000    0.000 
#
# Total GULP energy -133616.735243 kJ/mol
# GULP energy per Si atom -5567.363968 kJ/mol
# Density = 2.053033 g / cm^3
# Si number density = 20.577163 Si / 1000 Ang^3
#
#
#
# Elastic Constant Matrix: (Units=GPa)
#
#
# Indices 1 2 3 4 5 6 
#
# 1 102.0600 18.8455 43.4384 -0.0003 9.2419 -0.0004
# 2 18.8455 63.2613 23.9725 -0.0021 6.2514 -0.0018
# 3 43.4384 23.9725 65.1478 -0.0029 13.1048 -0.0049
# 4 -0.0003 -0.0021 -0.0029 23.8711 -0.0013 3.0336
# 5 9.2419 6.2514 13.1048 -0.0013 23.4846 -0.0003
# 6 -0.0004 -0.0018 -0.0049 3.0336 -0.0003 11.0476
#
#
#
# Elastic Compliance Matrix: (Units=1/GPa)
#
#
# Indices 1 2 3 4 5 6 
#
# 1 0.013710 -0.000713 -0.008822 -0.000001 -0.000283 -0.000003
# 2 -0.000713 0.018439 -0.006059 0.000001 -0.001247 0.000000
# 3 -0.008822 -0.006059 0.025276 0.000001 -0.009020 0.000009
# 4 -0.000001 0.000001 0.000001 0.043406 0.000002 -0.011919
# 5 -0.000283 -0.001247 -0.009020 0.000002 0.048057 -0.000003
# 6 -0.000003 0.000000 0.000009 -0.011919 -0.000003 0.093791
#
#
# Mechanical properties :
#
#
# Convention : Reuss Voigt Hill
#
# Bulk Modulus (GPa) = 38.11430 44.77577 41.44503
# Shear Modulus (GPa) = 17.69199 21.29483 19.49341
#
# Velocity S-wave (km/s) = 2.93539 3.22044 3.08122
# Velocity P-wave (km/s) = 5.48193 5.96955 5.73093
#
# Compressibility (1/GPa) = 0.02623687
#
# Stress axis : x y z
#
# Youngs Moduli (GPa) = 72.93747 54.23284 39.56337
#
# Poissons Ratio (x) = 0.03868 0.34904
# Poissons Ratio (y) = 0.05202 0.23970
# Poissons Ratio (z) = 0.64348 0.32858
#
# Static dielectric constant tensor:
#      x y z
#    x 1.831810 0.000000 -0.007720 
#    y 0.000000 1.743880 0.000000 
#    z -0.007720 0.000000 1.795990 
# 
# From -- ./inp_files/241825.got.cif
#   From: 2010.05.17/outbox.cif.g08.bks.cpg/sg12_121_cif.got.tgz:241825.got - 2010.06.03 13:09:07.
