data_PCOD9199991
_publ_section_title
;
Structure prediction by ZEFSAII (Michael W. Deem and Ramdas Pophale) SiO2 
 PCOD9199991
Probable space group: C 2/M
;
_chemical_formula_sum "Si O2"
_cell_formula_units_Z 52
_cell_length_a 25.232938
_cell_length_b 11.998443
_cell_length_c 11.443818
_cell_angle_alpha 90.000000
_cell_angle_beta 131.238253
_cell_angle_gamma 90.000000
_cell_volume 2605.355809
_symmetry_space_group_name_H-M "C 2/M"
_symmetry_group_IT_number 12
_symmetry_cell_setting 'monoclinic'
loop_
_space_group_symop_operation_xyz
x,y,z
-x,y,-z
-x,-y,-z
x,-y,z
1/2+x,1/2+y,z
1/2-x,1/2+y,-z
1/2-x,1/2-y,-z
1/2+x,1/2-y,z
loop_
_atom_site_type_symbol
_atom_site_label
_atom_site_fract_x
_atom_site_fract_y
_atom_site_fract_z
Si Si1 0.717644 0.756156 0.322036
Si Si2 0.895076 0.500000 0.617938
Si Si3 0.056169 0.323123 0.681924
Si Si4 0.824361 0.500000 0.757486
Si Si5 0.651171 0.806748 0.621482
Si Si6 0.956124 0.871555 0.606094
Si Si7 0.551384 0.000000 0.877516
Si Si8 0.073340 0.130667 0.160736
O O1 0.750000 0.750000 0.500000
O O2 0.769042 0.695290 0.305653
O O3 0.640110 0.703008 0.218848
O O4 0.714738 0.884310 0.278257
O O5 0.839122 0.500000 0.639939
O O6 0.886297 0.393153 0.522201
O O7 0.969517 0.500000 0.791312
O O8 0.130711 0.334007 0.724228
O O9 0.059351 0.394806 0.802933
O O10 0.000000 0.363743 0.500000
O O11 0.024089 0.202430 0.669595
O O12 0.894359 0.500000 0.938278
O O13 0.611653 0.688867 0.547758
O O14 0.939493 0.865014 0.719522
O O15 0.964330 0.000000 0.585182
O O16 0.084208 0.000000 0.143899
O O17 0.000000 0.171045 0.000000
#
# Coordination Sequence:
#
# PCOD9199991 Si02
#       8
#     8   4   8   4   8   8   4   8
#     4  12  25  43  65  96 135 170 211 269 327 398
#     4  12  20  40  66 103 124 167 212 267 334 378
#     4  10  21  39  64  95 127 176 222 266 314 386
#     4  12  29  39  64 100 134 170 206 268 349 377
#     4  11  23  38  66  95 128 171 222 265 313 385
#     4  10  20  36  62  94 129 167 218 271 319 373
#     4  12  23  42  65  96 140 159 212 279 323 390
#     4  10  23  41  67  94 128 172 215 266 327 387
#
# _framework density 19.958886
#
# number of rings (size 3 to 8) (size 9 to 14) (size 15 to 20)
#    0.000    1.077    6.154    0.923    5.385    2.769 
#    0.000    0.769    0.000    0.000    0.000    0.000 
#    0.000    0.000    0.000    0.000    0.000    0.000 
#
# Total GULP energy -145144.002140 kJ/mol
# GULP energy per Si atom -5582.461621 kJ/mol
# Density = 1.991346 g / cm^3
# Si number density = 19.958886 Si / 1000 Ang^3
#
#
#
# Elastic Constant Matrix: (Units=GPa)
#
#
# Indices 1 2 3 4 5 6 
#
# 1 118.9703 17.6252 14.4154 0.0000 12.0567 0.0000
# 2 17.6252 98.4772 31.7205 0.0000 6.5338 0.0000
# 3 14.4154 31.7205 43.0363 0.0000 17.7442 0.0000
# 4 0.0000 0.0000 0.0000 279.8616 0.0000 364.4255
# 5 12.0567 6.5338 17.7442 0.0000 27.0583 0.0000
# 6 0.0000 0.0000 0.0000 364.4255 0.0000 527.4660
#
#
#
# Elastic Compliance Matrix: (Units=1/GPa)
#
#
# Indices 1 2 3 4 5 6 
#
# 1 0.008998 -0.001114 -0.000892 0.000000 -0.003156 0.000000
# 2 -0.001114 0.013850 -0.011871 0.000000 0.004936 0.000000
# 3 -0.000892 -0.011871 0.042404 0.000000 -0.024544 0.000000
# 4 0.000000 0.000000 0.000000 0.035612 0.000000 -0.024604
# 5 -0.003156 0.004936 -0.024544 0.000000 0.053266 0.000000
# 6 0.000000 0.000000 0.000000 -0.024604 0.000000 0.018895
#
#
# Mechanical properties :
#
#
# Convention : Reuss Voigt Hill
#
# Bulk Modulus (GPa) = 26.66712 43.11179 34.88945
# Shear Modulus (GPa) = 23.44351 179.99202 101.71777
#
# Velocity S-wave (km/s) = 3.43095 9.50669 7.14663
# Velocity P-wave (km/s) = 5.39307 11.92267 9.25298
#
# Compressibility (1/GPa) = 0.03749936
#
# Stress axis : x y z
#
# Youngs Moduli (GPa) = 111.13153 72.20151 23.58267
#
# Poissons Ratio (x) = 0.08042 0.02104
# Poissons Ratio (y) = 0.12378 0.27994
# Poissons Ratio (z) = 0.09914 0.85708
#
# Static dielectric constant tensor:
#      x y z
#    x 1.734010 0.000000 0.000060 
#    y 0.000000 1.763200 0.000000 
#    z 0.000060 0.000000 1.691110 
# 
# From -- ./inp_files/175378.got.cif
#   From: 2010.05.17/outbox.cif.g08.bks.cpg/sg12_88_cif.got.tgz:175378.got - 2010.06.03 13:09:07.
