data_PCOD9199190
_publ_section_title
;
Structure prediction by ZEFSAII (Michael W. Deem and Ramdas Pophale) SiO2 
 PCOD9199190
Probable space group: C 2/M
;
_chemical_formula_sum "Si O2"
_cell_formula_units_Z 48
_cell_length_a 23.985722
_cell_length_b 11.078734
_cell_length_c 9.592050
_cell_angle_alpha 90.000000
_cell_angle_beta 98.429792
_cell_angle_gamma 90.000000
_cell_volume 2521.371398
_symmetry_space_group_name_H-M "C 2/M"
_symmetry_group_IT_number 12
_symmetry_cell_setting 'monoclinic'
loop_
_space_group_symop_operation_xyz
x,y,z
-x,y,-z
-x,-y,-z
x,-y,z
1/2+x,1/2+y,z
1/2-x,1/2+y,-z
1/2-x,1/2-y,-z
1/2+x,1/2-y,z
loop_
_atom_site_type_symbol
_atom_site_label
_atom_site_fract_x
_atom_site_fract_y
_atom_site_fract_z
Si Si1 0.339707 0.691060 0.961431
Si Si2 0.284743 0.871750 0.153994
Si Si3 0.959420 0.863359 0.120382
Si Si4 0.712091 0.864990 0.521603
Si Si5 0.991601 0.359145 0.329918
Si Si6 0.617328 0.132810 0.259384
O O1 0.283328 0.628986 0.881316
O O2 0.363780 0.770883 0.845221
O O3 0.312978 0.768651 0.075797
O O4 0.395106 0.628927 0.042813
O O5 0.300854 0.860210 0.320331
O O6 0.304939 0.000000 0.105557
O O7 0.962519 0.752954 0.234869
O O8 0.975246 0.000000 0.177648
O O9 0.000000 0.837702 0.000000
O O10 0.750000 0.750000 0.500000
O O11 0.656382 0.856467 0.409109
O O12 0.737242 0.000000 0.502946
O O13 0.969244 0.500000 0.305714
O O14 0.000000 0.338510 0.500000
O O15 0.053337 0.358570 0.283419
O O16 0.626932 0.000000 0.201677
#
# Coordination Sequence:
#
# PCOD9199190 Si02
#       6
#     8   8   8   8   8   8
#     4  11  21  38  60  86 124 161 207 246 308 360
#     4  10  22  37  59  87 121 161 206 254 300 355
#     4  11  24  42  64  92 126 163 205 257 313 374
#     4  10  20  37  58  85 117 154 199 245 299 358
#     4  10  23  42  65  92 123 161 207 257 309 369
#     4  10  20  36  59  87 120 157 203 253 302 363
#
# _framework density 19.037258000000001
#
# number of rings (size 3 to 8) (size 9 to 14) (size 15 to 20)
#    0.000    1.667    3.333    1.000    2.333    2.000 
#    0.000    1.667    0.000    0.000    0.000    0.000 
#    0.000    0.000    0.000    0.000    0.000    0.000 
#
# Total GULP energy -133659.300292 kJ/mol
# GULP energy per Si atom -5569.137512 kJ/mol
# Density = 1.899393 g / cm^3
# Si number density = 19.037258 Si / 1000 Ang^3
#
#
#
# Elastic Constant Matrix: (Units=GPa)
#
#
# Indices 1 2 3 4 5 6 
#
# 1 59.8636 22.1571 19.7720 0.0000 2.5366 0.0000
# 2 22.1571 127.8093 67.2748 0.0000 2.2736 0.0000
# 3 19.7720 67.2748 95.2153 0.0000 -0.2850 0.0000
# 4 0.0000 0.0000 0.0000 29.8109 0.0000 0.8887
# 5 2.5366 2.2736 -0.2850 0.0000 23.9705 0.0000
# 6 0.0000 0.0000 0.0000 0.8887 0.0000 14.1063
#
#
#
# Elastic Compliance Matrix: (Units=1/GPa)
#
#
# Indices 1 2 3 4 5 6 
#
# 1 0.018284 -0.001809 -0.002524 0.000000 -0.001793 0.000000
# 2 -0.001809 0.012676 -0.008584 0.000000 -0.001113 0.000000
# 3 -0.002524 -0.008584 0.017095 0.000000 0.001284 0.000000
# 4 0.000000 0.000000 0.000000 0.033608 0.000000 -0.002117
# 5 -0.001793 -0.001113 0.001284 0.000000 0.042028 0.000000
# 6 0.000000 0.000000 0.000000 -0.002117 0.000000 0.071024
#
#
# Mechanical properties :
#
#
# Convention : Reuss Voigt Hill
#
# Bulk Modulus (GPa) = 45.00184 55.69955 50.35070
# Shear Modulus (GPa) = 21.93403 25.15649 23.54526
#
# Velocity S-wave (km/s) = 3.39804 3.63910 3.52063
# Velocity P-wave (km/s) = 6.25185 6.85413 6.55991
#
# Compressibility (1/GPa) = 0.02222131
#
# Stress axis : x y z
#
# Youngs Moduli (GPa) = 54.69307 78.88994 58.49547
#
# Poissons Ratio (x) = 0.14275 0.14762
# Poissons Ratio (y) = 0.09896 0.50211
# Poissons Ratio (z) = 0.13803 0.67718
#
# Static dielectric constant tensor:
#      x y z
#    x 1.639340 0.000000 0.029430 
#    y 0.000000 1.720910 0.000000 
#    z 0.029430 0.000000 1.639000 
# 
# From -- ./inp_files/94323.got.cif
#   From: 2010.05.17/outbox.cif.g08.bks.cpg/sg12_48_cif.got.tgz:94323.got - 2010.06.03 13:09:07.
