data_PCOD9199392
_publ_section_title
;
Structure prediction by ZEFSAII (Michael W. Deem and Ramdas Pophale) SiO2 
 PCOD9199392
Probable space group: C 2/M
;
_chemical_formula_sum "Si O2"
_cell_formula_units_Z 48
_cell_length_a 21.337704
_cell_length_b 14.182723
_cell_length_c 21.962608
_cell_angle_alpha 90.000000
_cell_angle_beta 160.655887
_cell_angle_gamma 90.000000
_cell_volume 2201.583845
_symmetry_space_group_name_H-M "C 2/M"
_symmetry_group_IT_number 12
_symmetry_cell_setting 'monoclinic'
loop_
_space_group_symop_operation_xyz
x,y,z
-x,y,-z
-x,-y,-z
x,-y,z
1/2+x,1/2+y,z
1/2-x,1/2+y,-z
1/2-x,1/2-y,-z
1/2+x,1/2-y,z
loop_
_atom_site_type_symbol
_atom_site_label
_atom_site_fract_x
_atom_site_fract_y
_atom_site_fract_z
Si Si1 0.763648 0.851979 0.981546
Si Si2 0.110817 0.191871 0.217214
Si Si3 0.483615 0.807051 0.633023
Si Si4 0.694072 0.893434 0.717002
Si Si5 0.506120 0.106512 0.933019
Si Si6 0.086551 0.099230 0.754648
O O1 0.836672 0.907692 0.106168
O O2 0.923780 0.847741 0.077014
O O3 0.750000 0.750000 0.000000
O O4 0.564271 0.866081 0.764338
O O5 0.282826 0.167462 0.420476
O O6 0.154282 0.146292 0.191595
O O7 0.093235 0.304795 0.190730
O O8 0.637245 0.825277 0.720205
O O9 0.477198 0.696932 0.645370
O O10 0.500000 0.898535 0.500000
O O11 0.738966 0.000000 0.778850
O O12 0.432815 0.000000 0.852153
O O13 0.500000 0.119912 0.000000
O O14 0.724389 0.107828 0.112527
O O15 0.987959 0.000000 0.648835
#
# Coordination Sequence:
#
# PCOD9199392 Si02
#       6
#     8   8   8   8   8   8
#     4  10  21  38  55  83 119 153 195 244 285 350
#     4  11  21  36  65  86 118 159 196 242 303 350
#     4  10  21  38  62  87 118 157 197 245 298 351
#     4   9  20  38  59  90 122 149 194 251 299 352
#     4  10  20  36  60  86 115 155 195 240 295 348
#     4  10  21  39  59  83 121 155 192 245 291 344
#
# _framework density 21.802485000000001
#
# number of rings (size 3 to 8) (size 9 to 14) (size 15 to 20)
#    0.000    2.000    3.333    1.000    0.000    4.667 
#    0.000    0.833    0.000    6.000    0.000    0.000 
#    0.000    0.000    0.000    0.000    0.000    0.000 
#
# Total GULP energy -133866.250757 kJ/mol
# GULP energy per Si atom -5577.760448 kJ/mol
# Density = 2.175286 g / cm^3
# Si number density = 21.802485 Si / 1000 Ang^3
#
#
#
# Elastic Constant Matrix: (Units=GPa)
#
#
# Indices 1 2 3 4 5 6 
#
# 1 26.0867 -16.1343 10.4628 0.0282 -15.8696 -0.0036
# 2 -16.1343 80.9455 -12.1569 0.0070 -4.7655 0.0038
# 3 10.4628 -12.1569 71.1264 -0.0188 -17.8402 0.0004
# 4 0.0282 0.0070 -0.0188 16.2194 -0.0004 4.9996
# 5 -15.8696 -4.7655 -17.8402 -0.0004 31.8874 -0.0011
# 6 -0.0036 0.0038 0.0004 4.9996 -0.0011 32.6241
#
#
#
# Elastic Compliance Matrix: (Units=1/GPa)
#
#
# Indices 1 2 3 4 5 6 
#
# 1 0.072136 0.017057 0.002266 -0.000138 0.039718 0.000028
# 2 0.017057 0.017081 0.003699 -0.000034 0.013111 0.000006
# 3 0.002266 0.003699 0.017193 0.000015 0.011299 -0.000002
# 4 -0.000138 -0.000034 0.000015 0.064712 -0.000065 -0.009917
# 5 0.039718 0.013111 0.011299 -0.000065 0.059408 0.000015
# 6 0.000028 0.000006 -0.000002 -0.009917 0.000015 0.032172
#
#
# Mechanical properties :
#
#
# Convention : Reuss Voigt Hill
#
# Bulk Modulus (GPa) = 6.55932 15.83352 11.19642
# Shear Modulus (GPa) = 18.69328 29.21199 23.95264
#
# Velocity S-wave (km/s) = 2.93130 3.66436 3.31814
# Velocity P-wave (km/s) = 3.80418 5.01811 4.45271
#
# Compressibility (1/GPa) = 0.15245477
#
# Stress axis : x y z
#
# Youngs Moduli (GPa) = 13.86262 58.54351 58.16482
#
# Poissons Ratio (x) = -0.99858 -0.13181
# Poissons Ratio (y) = -0.23646 -0.21515
# Poissons Ratio (z) = -0.03141 -0.21655
#
# Static dielectric constant tensor:
#      x y z
#    x 1.772510 0.000000 -0.006860 
#    y 0.000000 1.831970 0.000000 
#    z -0.006860 0.000000 1.778040 
# 
# From -- ./inp_files/347553.got.cif
#   From: 2010.05.17/outbox.cif.g08.bks.cpg/sg12_174_cif.got.tgz:347553.got - 2010.06.03 13:09:07.
