data_PCOD9199604
_publ_section_title
;
Structure prediction by ZEFSAII (Michael W. Deem and Ramdas Pophale) SiO2 
 PCOD9199604
Probable space group: C 2/M
;
_chemical_formula_sum "Si O2"
_cell_formula_units_Z 48
_cell_length_a 9.585792
_cell_length_b 17.940912
_cell_length_c 17.222498
_cell_angle_alpha 90.000000
_cell_angle_beta 51.217065
_cell_angle_gamma 90.000000
_cell_volume 2308.864583
_symmetry_space_group_name_H-M "C 2/M"
_symmetry_group_IT_number 12
_symmetry_cell_setting 'monoclinic'
loop_
_space_group_symop_operation_xyz
x,y,z
-x,y,-z
-x,-y,-z
x,-y,z
1/2+x,1/2+y,z
1/2-x,1/2+y,-z
1/2-x,1/2-y,-z
1/2+x,1/2-y,z
loop_
_atom_site_type_symbol
_atom_site_label
_atom_site_fract_x
_atom_site_fract_y
_atom_site_fract_z
Si Si1 0.930646 0.796987 0.723111
Si Si2 0.819455 0.585546 0.153082
Si Si3 0.119790 0.672540 0.139199
Si Si4 0.140943 0.085964 0.052345
Si Si5 0.327975 0.794436 0.612413
Si Si6 0.731121 0.086677 0.246871
O O1 0.868589 0.882208 0.749391
O O2 0.885813 0.754877 0.820975
O O3 0.829875 0.759304 0.686592
O O4 0.139713 0.785057 0.635676
O O5 0.860080 0.500000 0.160997
O O6 0.783167 0.586554 0.073524
O O7 0.961858 0.644287 0.137711
O O8 0.116703 0.622220 0.217532
O O9 0.297189 0.647560 0.030874
O O10 0.941098 0.099921 0.153332
O O11 0.145681 0.000000 0.018991
O O12 0.500000 0.782777 0.500000
O O13 0.321522 0.875148 0.654614
O O14 0.703104 0.000000 0.259159
#
# Coordination Sequence:
#
# PCOD9199604 Si02
#       6
#     8   8   8   8   8   8
#     4  11  23  42  62  93 121 159 204 262 310 362
#     4  11  22  39  62  88 127 168 206 249 301 361
#     4  11  22  37  62  88 128 166 207 242 299 371
#     4  10  20  36  60  90 127 168 203 244 301 363
#     4  11  23  42  66  87 116 159 207 259 317 372
#     4  10  21  38  61  91 124 156 201 256 307 362
#
# _framework density 20.789439999999999
#
# number of rings (size 3 to 8) (size 9 to 14) (size 15 to 20)
#    0.000    1.333    3.333    3.000    0.000    3.667 
#    0.000    1.667    0.000    0.500    0.000    0.000 
#    0.000    0.000    0.000    0.000    0.000    0.000 
#
# Total GULP energy -134014.124104 kJ/mol
# GULP energy per Si atom -5583.921838 kJ/mol
# Density = 2.074212 g / cm^3
# Si number density = 20.789440 Si / 1000 Ang^3
#
#
#
# Elastic Constant Matrix: (Units=GPa)
#
#
# Indices 1 2 3 4 5 6 
#
# 1 71.3033 -14.1467 -15.1997 0.0000 2.6051 0.0000
# 2 -14.1467 62.3324 15.5965 0.0000 9.4280 0.0000
# 3 -15.1997 15.5965 60.0478 0.0000 -4.7959 0.0000
# 4 0.0000 0.0000 0.0000 7.9449 0.0000 -11.6782
# 5 2.6051 9.4280 -4.7959 0.0000 19.9932 0.0000
# 6 0.0000 0.0000 0.0000 -11.6782 0.0000 11.7153
#
#
#
# Elastic Compliance Matrix: (Units=1/GPa)
#
#
# Indices 1 2 3 4 5 6 
#
# 1 0.015368 0.003209 0.002830 0.000000 -0.002837 0.000000
# 2 0.003209 0.019728 -0.005188 0.000000 -0.010965 0.000000
# 3 0.002830 -0.005188 0.019252 0.000000 0.006696 0.000000
# 4 0.000000 0.000000 0.000000 -0.270538 0.000000 -0.269681
# 5 -0.002837 -0.010965 0.006696 0.000000 0.057164 0.000000
# 6 0.000000 0.000000 0.000000 -0.269681 0.000000 -0.183470
#
#
# Mechanical properties :
#
#
# Convention : Reuss Voigt Hill
#
# Bulk Modulus (GPa) = 17.84099 18.46485 18.15292
# Shear Modulus (GPa) = -15.36029 21.75957 3.19964
#
# Velocity S-wave (km/s) = -2.72113 3.23873 1.24194
# Velocity P-wave (km/s) = 1.12798 4.78403 3.28745
#
# Compressibility (1/GPa) = 0.05605070
#
# Stress axis : x y z
#
# Youngs Moduli (GPa) = 65.06952 50.68978 51.94289
#
# Poissons Ratio (x) = -0.16266 -0.14700
# Poissons Ratio (y) = -0.20880 0.26946
# Poissons Ratio (z) = -0.18415 0.26296
#
# Static dielectric constant tensor:
#      x y z
#    x 1.794700 0.000000 -0.028970 
#    y 0.000000 1.749700 0.000000 
#    z -0.028970 0.000000 1.735910 
# 
# From -- ./inp_files/257902.got.cif
#   From: 2010.05.17/outbox.cif.g08.bks.cpg/sg12_129_cif.got.tgz:257902.got - 2010.06.03 13:09:07.
