data_PCOD9199952
_publ_section_title
;
Structure prediction by ZEFSAII (Michael W. Deem and Ramdas Pophale) SiO2 
 PCOD9199952
Probable space group: C 2/M
;
_chemical_formula_sum "Si O2"
_cell_formula_units_Z 64
_cell_length_a 14.908116
_cell_length_b 31.825424
_cell_length_c 8.403004
_cell_angle_alpha 90.000000
_cell_angle_beta 124.308678
_cell_angle_gamma 90.000000
_cell_volume 3293.202068
_symmetry_space_group_name_H-M "C 2/M"
_symmetry_group_IT_number 12
_symmetry_cell_setting 'monoclinic'
loop_
_space_group_symop_operation_xyz
x,y,z
-x,y,-z
-x,-y,-z
x,-y,z
1/2+x,1/2+y,z
1/2-x,1/2+y,-z
1/2-x,1/2-y,-z
1/2+x,1/2-y,z
loop_
_atom_site_type_symbol
_atom_site_label
_atom_site_fract_x
_atom_site_fract_y
_atom_site_fract_z
Si Si1 0.125028 0.626704 0.934405
Si Si2 0.270894 0.296859 0.579964
Si Si3 0.759165 0.953795 0.951849
Si Si4 0.729107 0.703141 0.038178
Si Si5 0.259167 0.453795 0.566480
Si Si6 0.625030 0.873296 0.315650
Si Si7 0.499999 0.333555 0.193778
Si Si8 0.999999 0.930902 0.193518
O O1 0.190740 0.585517 0.944976
O O2 0.184504 0.668645 0.933009
O O3 0.999999 0.625001 0.753708
O O4 0.125317 0.627725 0.125316
O O5 0.250000 0.250000 0.500000
O O6 0.270570 0.297155 0.770570
O O7 0.184506 0.331355 0.435998
O O8 0.389965 0.311555 0.642282
O O9 0.758387 0.951637 0.758385
O O10 0.717309 0.000000 0.957320
O O11 0.885287 0.950047 0.130363
O O12 0.750000 0.750000 0.000000
O O13 0.610037 0.688445 0.862355
O O14 0.217311 0.500000 0.477297
O O15 0.190742 0.414483 0.436502
O O16 0.385289 0.450047 0.640212
O O17 0.500000 0.382146 0.240554
O O18 0.500000 0.332866 0.000000
O O19 0.000000 0.933506 0.000000
#
# Coordination Sequence:
#
# PCOD9199952 Si02
#       8
#     8   8   8   8   8   8   8   8
#     4  11  25  43  60  82 118 163 205 248 298 349
#     4  11  23  41  64  92 122 156 197 242 297 356
#     4  10  20  36  62  92 119 152 196 245 300 362
#     4  11  23  41  64  92 122 156 197 242 297 356
#     4  10  20  36  62  92 119 152 196 245 300 362
#     4  11  25  43  60  82 118 163 205 248 298 349
#     4   9  18  35  62  88 119 155 188 237 296 353
#     4   9  15  32  59  90 122 152 186 235 299 357
#
# _framework density 19.433973000000002
#
# number of rings (size 3 to 8) (size 9 to 14) (size 15 to 20)
#    0.000    1.750    2.500    1.875    1.750    4.500 
#    0.000    6.250    0.000    1.500    0.000    0.000 
#    0.000    0.000    0.000    0.000    0.000    0.000 
#
# Total GULP energy -178728.685385 kJ/mol
# GULP energy per Si atom -5585.271418 kJ/mol
# Density = 1.938974 g / cm^3
# Si number density = 19.433973 Si / 1000 Ang^3
#
#
#
# Elastic Constant Matrix: (Units=GPa)
#
#
# Indices 1 2 3 4 5 6 
#
# 1 97.2682 71.4183 42.9146 0.0000 34.9632 0.0000
# 2 71.4183 201.6662 56.8532 0.0000 31.6038 0.0000
# 3 42.9146 56.8532 68.0070 0.0000 28.5268 0.0000
# 4 0.0000 0.0000 0.0000 50.1584 0.0000 23.5205
# 5 34.9632 31.6038 28.5268 0.0000 33.0847 0.0000
# 6 0.0000 0.0000 0.0000 23.5205 0.0000 61.0032
#
#
#
# Elastic Compliance Matrix: (Units=1/GPa)
#
#
# Indices 1 2 3 4 5 6 
#
# 1 0.019652 -0.003808 -0.003184 0.000000 -0.014386 0.000000
# 2 -0.003808 0.007348 -0.003891 0.000000 0.000360 0.000000
# 3 -0.003184 -0.003891 0.026626 0.000000 -0.015877 0.000000
# 4 0.000000 0.000000 0.000000 0.024337 0.000000 -0.009383
# 5 -0.014386 0.000360 -0.015877 0.000000 0.058774 0.000000
# 6 0.000000 0.000000 0.000000 -0.009383 0.000000 0.020010
#
#
# Mechanical properties :
#
#
# Convention : Reuss Voigt Hill
#
# Bulk Modulus (GPa) = 31.38590 78.81261 55.09925
# Shear Modulus (GPa) = 26.43671 41.89962 34.16816
#
# Velocity S-wave (km/s) = 3.69227 4.64831 4.19760
# Velocity P-wave (km/s) = 5.86193 8.33373 7.20463
#
# Compressibility (1/GPa) = 0.03186144
#
# Stress axis : x y z
#
# Youngs Moduli (GPa) = 50.88489 136.09861 37.55773
#
# Poissons Ratio (x) = 0.51822 0.11957
# Poissons Ratio (y) = 0.19375 0.14613
# Poissons Ratio (z) = 0.16200 0.52952
#
# Static dielectric constant tensor:
#      x y z
#    x 1.679280 0.000000 0.000090 
#    y 0.000000 1.656690 0.000000 
#    z 0.000090 0.000000 1.679240 
# 
# From -- ./inp_files/68630.got.cif
#   From: 2010.05.17/outbox.cif.g08.bks.cpg/sg12_35_cif.got.tgz:68630.got - 2010.06.03 13:09:07.
