data_PCOD9199557
_publ_section_title
;
Structure prediction by ZEFSAII (Michael W. Deem and Ramdas Pophale) SiO2 
 PCOD9199557
Probable space group: C 2/M
;
_chemical_formula_sum "Si O2"
_cell_formula_units_Z 64
_cell_length_a 17.425687
_cell_length_b 25.135985
_cell_length_c 14.534297
_cell_angle_alpha 90.000000
_cell_angle_beta 147.999179
_cell_angle_gamma 90.000000
_cell_volume 3373.646038
_symmetry_space_group_name_H-M "C 2/M"
_symmetry_group_IT_number 12
_symmetry_cell_setting 'monoclinic'
loop_
_space_group_symop_operation_xyz
x,y,z
-x,y,-z
-x,-y,-z
x,-y,z
1/2+x,1/2+y,z
1/2-x,1/2+y,-z
1/2-x,1/2-y,-z
1/2+x,1/2-y,z
loop_
_atom_site_type_symbol
_atom_site_label
_atom_site_fract_x
_atom_site_fract_y
_atom_site_fract_z
Si Si1 0.858411 0.357674 0.740767
Si Si2 0.160992 0.060228 0.204308
Si Si3 0.808669 0.939220 0.546924
Si Si4 0.069451 0.062200 0.668970
Si Si5 0.688940 0.859094 0.101078
Si Si6 0.168706 0.752590 0.820103
Si Si7 0.672528 0.834844 0.674503
Si Si8 0.319983 0.252823 0.471016
O O1 0.803008 0.396457 0.605397
O O2 0.836507 0.380116 0.821037
O O3 0.759632 0.305313 0.646316
O O4 0.028754 0.348048 0.899336
O O5 0.158790 0.067699 0.312515
O O6 0.251438 0.108448 0.253788
O O7 0.217234 0.000000 0.243558
O O8 0.000000 0.062668 0.000000
O O9 0.949860 0.932586 0.626700
O O10 0.756644 0.000000 0.480512
O O11 0.208922 0.096215 0.838322
O O12 0.000000 0.080375 0.500000
O O13 0.105917 0.000000 0.694875
O O14 0.775678 0.804155 0.178492
O O15 0.206446 0.700490 0.798717
O O16 0.994473 0.757112 0.652790
O O17 0.250000 0.750000 0.000000
O O18 0.500000 0.842225 0.500000
O O19 0.711810 0.797749 0.626470
O O20 0.250000 0.250000 0.500000
#
# Coordination Sequence:
#
# PCOD9199557 Si02
#       8
#     8   8   8   8   8   8   8   8
#     4  11  22  36  57  88 123 165 208 255 310 370
#     4  10  23  43  66  92 121 157 207 261 308 363
#     4  10  21  39  63  90 123 166 213 260 318 381
#     4  10  20  36  60  89 123 167 213 256 315 379
#     4  11  23  36  57  87 128 164 209 255 304 373
#     4  11  24  41  61  91 126 162 205 257 308 367
#     4  10  23  41  63  90 121 157 201 249 304 366
#     4  11  22  39  62  87 123 163 205 252 311 372
#
# _framework density 18.970575
#
# number of rings (size 3 to 8) (size 9 to 14) (size 15 to 20)
#    0.000    1.500    2.500    2.250    0.000    5.750 
#    0.000    1.250    0.000    3.000    0.000    0.000 
#    0.000    0.000    0.000    0.000    0.000    0.000 
#
# Total GULP energy -178588.643521 kJ/mol
# GULP energy per Si atom -5580.895110 kJ/mol
# Density = 1.892740 g / cm^3
# Si number density = 18.970575 Si / 1000 Ang^3
#
#
#
# Elastic Constant Matrix: (Units=GPa)
#
#
# Indices 1 2 3 4 5 6 
#
# 1 94.2206 58.0968 43.2499 0.0000 -1.5647 0.0000
# 2 58.0968 127.8511 67.6080 0.0000 9.6579 0.0000
# 3 43.2499 67.6080 98.4275 0.0000 0.1939 0.0000
# 4 0.0000 0.0000 0.0000 23.0605 0.0000 4.5949
# 5 -1.5647 9.6579 0.1939 0.0000 27.5217 0.0000
# 6 0.0000 0.0000 0.0000 4.5949 0.0000 31.1497
#
#
#
# Elastic Compliance Matrix: (Units=1/GPa)
#
#
# Indices 1 2 3 4 5 6 
#
# 1 0.015533 -0.005758 -0.002876 0.000000 0.002924 0.000000
# 2 -0.005758 0.014936 -0.007718 0.000000 -0.005514 0.000000
# 3 -0.002876 -0.007718 0.016720 0.000000 0.002427 0.000000
# 4 0.000000 0.000000 0.000000 0.044677 0.000000 -0.006590
# 5 0.002924 -0.005514 0.002427 0.000000 0.038419 0.000000
# 6 0.000000 0.000000 0.000000 -0.006590 0.000000 0.033075
#
#
# Mechanical properties :
#
#
# Convention : Reuss Voigt Hill
#
# Bulk Modulus (GPa) = 69.03981 73.15650 71.09816
# Shear Modulus (GPa) = 24.88884 26.44938 25.66911
#
# Velocity S-wave (km/s) = 3.62604 3.73799 3.68244
# Velocity P-wave (km/s) = 7.34868 7.56816 7.45922
#
# Compressibility (1/GPa) = 0.01448440
#
# Stress axis : x y z
#
# Youngs Moduli (GPa) = 64.38072 66.95094 59.80845
#
# Poissons Ratio (x) = 0.38553 0.17198
# Poissons Ratio (y) = 0.37073 0.46162
# Poissons Ratio (z) = 0.18513 0.51675
#
# Static dielectric constant tensor:
#      x y z
#    x 1.531120 0.000000 0.029090 
#    y 0.000000 1.691840 0.000000 
#    z 0.029090 0.000000 1.642060 
# 
# From -- ./inp_files/113624.got.cif
#   From: 2010.05.17/outbox.cif.g08.bks.cpg/sg12_57_cif.got.tgz:113624.got - 2010.06.03 13:09:07.
