data_PCOD9199632
_publ_section_title
;
Structure prediction by ZEFSAII (Michael W. Deem and Ramdas Pophale) SiO2 
 PCOD9199632
Probable space group: C 2/M
;
_chemical_formula_sum "Si O2"
_cell_formula_units_Z 64
_cell_length_a 29.761687
_cell_length_b 13.914125
_cell_length_c 12.111689
_cell_angle_alpha 90.000000
_cell_angle_beta 38.067710
_cell_angle_gamma 90.000000
_cell_volume 3092.546538
_symmetry_space_group_name_H-M "C 2/M"
_symmetry_group_IT_number 12
_symmetry_cell_setting 'monoclinic'
loop_
_space_group_symop_operation_xyz
x,y,z
-x,y,-z
-x,-y,-z
x,-y,z
1/2+x,1/2+y,z
1/2-x,1/2+y,-z
1/2-x,1/2-y,-z
1/2+x,1/2-y,z
loop_
_atom_site_type_symbol
_atom_site_label
_atom_site_fract_x
_atom_site_fract_y
_atom_site_fract_z
Si Si1 0.582232 0.697862 0.363551
Si Si2 0.747559 0.383134 0.420643
Si Si3 0.028254 0.781413 0.068044
Si Si4 0.142721 0.388959 0.195081
Si Si5 0.113457 0.612437 0.992597
Si Si6 0.293355 0.614939 0.024165
Si Si7 0.184200 0.116128 0.771815
Si Si8 0.394102 0.384598 0.444686
O O1 0.500000 0.666801 0.500000
O O2 0.587923 0.813082 0.354387
O O3 0.635702 0.664426 0.162996
O O4 0.610359 0.652249 0.422011
O O5 0.748333 0.500000 0.418325
O O6 0.821827 0.355925 0.215649
O O7 0.734696 0.353007 0.571875
O O8 0.676991 0.354179 0.486598
O O9 0.047462 0.684212 0.096561
O O10 0.102862 0.842561 0.917242
O O11 0.000000 0.759690 0.000000
O O12 0.966219 0.840970 0.250443
O O13 0.127306 0.500000 0.253142
O O14 0.139890 0.380251 0.067948
O O15 0.222386 0.363814 0.088605
O O16 0.096269 0.500000 0.005766
O O17 0.304229 0.500000 0.998557
O O18 0.284686 0.643208 0.168580
O O19 0.179283 0.000000 0.777606
O O20 0.397910 0.500000 0.436103
#
# Coordination Sequence:
#
# PCOD9199632 Si02
#       8
#     8   8   8   8   8   8   8   8
#     4  12  24  38  59  91 127 161 204 254 305 365
#     4   9  19  38  63  90 119 158 204 253 305 358
#     4  12  24  40  60  92 125 168 208 245 305 369
#     4  10  22  43  67  88 118 164 213 257 304 362
#     4  10  22  42  66  89 120 162 211 260 305 355
#     4  10  21  38  63  94 126 163 202 251 312 367
#     4  10  20  36  60  92 129 159 197 251 309 370
#     4  11  23  40  64  93 125 159 200 249 307 373
#
# _framework density 20.694918999999999
#
# number of rings (size 3 to 8) (size 9 to 14) (size 15 to 20)
#    0.000    1.500    1.250    4.125    0.000    6.500 
#    2.250    0.625    0.000    0.000    0.000    0.000 
#    0.000    0.000    0.000    0.000    0.000    0.000 
#
# Total GULP energy -179019.953978 kJ/mol
# GULP energy per Si atom -5594.373562 kJ/mol
# Density = 2.064782 g / cm^3
# Si number density = 20.694919 Si / 1000 Ang^3
#
#
#
# Elastic Constant Matrix: (Units=GPa)
#
#
# Indices 1 2 3 4 5 6 
#
# 1 116.7575 42.5292 28.0555 0.0000 24.8505 0.0000
# 2 42.5292 83.3950 35.8345 0.0000 6.9011 0.0000
# 3 28.0555 35.8345 48.7435 0.0000 7.8719 0.0000
# 4 0.0000 0.0000 0.0000 35.0397 0.0000 -1.8520
# 5 24.8505 6.9011 7.8719 0.0000 20.4794 0.0000
# 6 0.0000 0.0000 0.0000 -1.8520 0.0000 25.1302
#
#
#
# Elastic Compliance Matrix: (Units=1/GPa)
#
#
# Indices 1 2 3 4 5 6 
#
# 1 0.013971 -0.005081 -0.001967 0.000000 -0.014485 0.000000
# 2 -0.005081 0.019396 -0.012021 0.000000 0.004250 0.000000
# 3 -0.001967 -0.012021 0.031394 0.000000 -0.005630 0.000000
# 4 0.000000 0.000000 0.000000 0.028651 0.000000 0.002111
# 5 -0.014485 0.004250 -0.005630 0.000000 0.067138 0.000000
# 6 0.000000 0.000000 0.000000 0.002111 0.000000 0.039948
#
#
# Mechanical properties :
#
#
# Convention : Reuss Voigt Hill
#
# Bulk Modulus (GPa) = 37.56078 51.30382 44.43230
# Shear Modulus (GPa) = 20.20112 25.62830 22.91471
#
# Velocity S-wave (km/s) = 3.12771 3.52289 3.33117
# Velocity P-wave (km/s) = 5.58861 6.43366 6.02597
#
# Compressibility (1/GPa) = 0.02662352
#
# Stress axis : x y z
#
# Youngs Moduli (GPa) = 71.57630 51.55675 31.85290
#
# Poissons Ratio (x) = 0.26197 0.06265
# Poissons Ratio (y) = 0.36369 0.38291
# Poissons Ratio (z) = 0.14077 0.61977
#
# Static dielectric constant tensor:
#      x y z
#    x 1.717380 0.000000 0.012520 
#    y 0.000000 1.769960 0.000000 
#    z 0.012520 0.000000 1.715100 
# 
# From -- ./inp_files/183762.got.cif
#   From: 2010.05.17/outbox.cif.g08.bks.cpg/sg12_92_cif.got.tgz:183762.got - 2010.06.03 13:09:07.
