data_PCOD9199907
_publ_section_title
;
Structure prediction by ZEFSAII (Michael W. Deem and Ramdas Pophale) SiO2 
 PCOD9199907
Probable space group: C 2/M
;
_chemical_formula_sum "Si O2"
_cell_formula_units_Z 56
_cell_length_a 7.813506
_cell_length_b 18.758551
_cell_length_c 26.842278
_cell_angle_alpha 90.000000
_cell_angle_beta 132.870919
_cell_angle_gamma 90.000000
_cell_volume 2883.383462
_symmetry_space_group_name_H-M "C 2/M"
_symmetry_group_IT_number 12
_symmetry_cell_setting 'monoclinic'
loop_
_space_group_symop_operation_xyz
x,y,z
-x,y,-z
-x,-y,-z
x,-y,z
1/2+x,1/2+y,z
1/2-x,1/2+y,-z
1/2-x,1/2-y,-z
1/2+x,1/2-y,z
loop_
_atom_site_type_symbol
_atom_site_label
_atom_site_fract_x
_atom_site_fract_y
_atom_site_fract_z
Si Si1 0.510175 0.651784 0.621805
Si Si2 0.787970 0.667051 0.996817
Si Si3 0.590686 0.915021 0.131940
Si Si4 0.489405 0.585450 0.860785
Si Si5 0.451734 0.914835 0.759703
Si Si6 0.229897 0.921435 0.511929
Si Si7 0.568738 0.204659 0.572226
O O1 0.756315 0.624027 0.688790
O O2 0.364823 0.592629 0.562471
O O3 0.536834 0.719749 0.591197
O O4 0.333988 0.678503 0.629371
O O5 0.576205 0.628307 0.926579
O O6 0.750000 0.750000 0.000000
O O7 0.000000 0.660373 0.000000
O O8 0.879051 0.626308 0.063554
O O9 0.593419 0.898131 0.190947
O O10 0.831573 0.898795 0.149422
O O11 0.552751 0.000000 0.119275
O O12 0.504665 0.500000 0.873247
O O13 0.218330 0.602980 0.797835
O O14 0.424084 0.000000 0.748154
O O15 0.401058 0.857175 0.559577
O O16 0.000000 0.918892 0.500000
O O17 0.337679 0.000000 0.537518
O O18 0.500000 0.211458 0.500000
#
# Coordination Sequence:
#
# PCOD9199907 Si02
#       7
#     8   8   8   8   8   8   8
#     4  11  21  39  57  85 119 151 193 232 285 349
#     4  10  21  35  56  87 116 146 189 242 290 333
#     4   9  19  39  61  83 112 149 195 239 284 342
#     4   9  19  39  62  83 111 151 193 239 287 338
#     4  10  22  39  60  85 116 154 193 236 288 350
#     4  10  20  36  62  90 115 146 190 243 288 332
#     4  10  21  38  61  83 114 152 190 238 288 339
#
# _framework density 19.421627000000001
#
# number of rings (size 3 to 8) (size 9 to 14) (size 15 to 20)
#    0.000    2.143    0.000    3.857    2.000    4.857 
#    7.714    2.143    0.000    0.000    0.000    0.000 
#    0.000    0.000    0.000    0.000    0.000    0.000 
#
# Total GULP energy -156305.714878 kJ/mol
# GULP energy per Si atom -5582.346960 kJ/mol
# Density = 1.937742 g / cm^3
# Si number density = 19.421627 Si / 1000 Ang^3
#
#
#
# Elastic Constant Matrix: (Units=GPa)
#
#
# Indices 1 2 3 4 5 6 
#
# 1 57.1586 22.4222 15.7759 0.0001 13.8510 0.0000
# 2 22.4222 66.9671 34.6106 0.0001 3.2907 0.0000
# 3 15.7759 34.6106 72.3920 0.0003 23.8966 0.0000
# 4 0.0001 0.0001 0.0003 17.0287 0.0001 2.2176
# 5 13.8510 3.2907 23.8966 0.0001 28.8402 0.0000
# 6 0.0000 0.0000 0.0000 2.2176 0.0000 19.5730
#
#
#
# Elastic Compliance Matrix: (Units=1/GPa)
#
#
# Indices 1 2 3 4 5 6 
#
# 1 0.023192 -0.008948 0.003529 0.000000 -0.013041 0.000000
# 2 -0.008948 0.024611 -0.014189 0.000000 0.013246 0.000000
# 3 0.003529 -0.014189 0.027328 0.000000 -0.022720 0.000000
# 4 0.000000 0.000000 0.000000 0.059604 0.000000 -0.006753
# 5 -0.013041 0.013246 -0.022720 0.000000 0.058251 0.000000
# 6 0.000000 0.000000 0.000000 -0.006753 0.000000 0.051856
#
#
# Mechanical properties :
#
#
# Convention : Reuss Voigt Hill
#
# Bulk Modulus (GPa) = 27.84400 38.01501 32.92950
# Shear Modulus (GPa) = 16.89019 21.33565 19.11292
#
# Velocity S-wave (km/s) = 2.95220 3.31804 3.14045
# Velocity P-wave (km/s) = 5.09788 5.85621 5.49015
#
# Compressibility (1/GPa) = 0.03591438
#
# Stress axis : x y z
#
# Youngs Moduli (GPa) = 43.11910 40.63180 36.59217
#
# Poissons Ratio (x) = 0.36358 -0.12914
# Poissons Ratio (y) = 0.38584 0.51921
# Poissons Ratio (z) = -0.15217 0.57653
#
# Static dielectric constant tensor:
#      x y z
#    x 1.745370 0.000000 0.009620 
#    y 0.000000 1.835600 0.000000 
#    z 0.009620 0.000000 1.662680 
# 
# From -- ./inp_files/372811.got.cif
#   From: 2010.05.17/outbox.cif.g08.bks.cpg/sg12_187_cif.got.tgz:372811.got - 2010.06.03 13:09:07.
