data_PCOD9199812
_publ_section_title
;
Structure prediction by ZEFSAII (Michael W. Deem and Ramdas Pophale) SiO2 
 PCOD9199812
Probable space group: C 2/M
;
_chemical_formula_sum "Si O2"
_cell_formula_units_Z 64
_cell_length_a 25.081110
_cell_length_b 9.201026
_cell_length_c 13.387898
_cell_angle_alpha 90.000000
_cell_angle_beta 90.892357
_cell_angle_gamma 90.000000
_cell_volume 3089.176560
_symmetry_space_group_name_H-M "C 2/M"
_symmetry_group_IT_number 12
_symmetry_cell_setting 'monoclinic'
loop_
_space_group_symop_operation_xyz
x,y,z
-x,y,-z
-x,-y,-z
x,-y,z
1/2+x,1/2+y,z
1/2-x,1/2+y,-z
1/2-x,1/2-y,-z
1/2+x,1/2-y,z
loop_
_atom_site_type_symbol
_atom_site_label
_atom_site_fract_x
_atom_site_fract_y
_atom_site_fract_z
Si Si1 0.046212 0.174607 0.083977
Si Si2 0.708665 0.826602 0.696296
Si Si3 0.396663 0.668927 0.355126
Si Si4 0.069077 0.828384 0.415541
Si Si5 0.165557 0.768445 0.079764
Si Si6 0.992365 0.673570 0.272359
Si Si7 0.325776 0.665590 0.688764
Si Si8 0.277539 0.650088 0.116601
O O1 0.102566 0.251929 0.058992
O O2 0.023495 0.246860 0.183615
O O3 0.056212 0.000000 0.096350
O O4 0.000000 0.191270 0.000000
O O5 0.661373 0.740421 0.643665
O O6 0.767430 0.772610 0.665025
O O7 0.707492 0.785628 0.814046
O O8 0.704543 0.000000 0.683235
O O9 0.395709 0.500000 0.325140
O O10 0.421165 0.675785 0.466715
O O11 0.433071 0.761920 0.281014
O O12 0.122664 0.771313 0.362498
O O13 0.022615 0.727925 0.372614
O O14 0.059029 0.000000 0.388064
O O15 0.166401 0.835760 0.191324
O O16 0.214251 0.654132 0.092318
O O17 0.188954 0.849149 0.983902
O O18 0.992646 0.500000 0.261934
O O19 0.324072 0.500000 0.652587
O O20 0.289430 0.500000 0.172900
#
# Coordination Sequence:
#
# PCOD9199812 Si02
#       8
#     8   8   8   8   8   8   8   8
#     4  11  24  42  67  94 124 167 211 253 305 368
#     4  10  22  39  60  91 129 168 203 253 319 371
#     4  11  24  42  65  91 121 163 214 262 312 373
#     4  10  21  41  69  94 118 160 213 261 308 373
#     4  10  20  36  61  92 125 160 206 255 303 357
#     4  12  26  43  64  93 127 164 206 260 318 370
#     4   9  17  35  62  90 122 159 200 247 306 369
#     4  10  21  36  61  94 125 166 211 251 299 368
#
# _framework density 20.717493999999999
#
# number of rings (size 3 to 8) (size 9 to 14) (size 15 to 20)
#    0.000    1.625    1.250    3.375    1.750    7.250 
#    0.000    0.625    0.000    0.000    0.000    0.000 
#    0.000    0.000    0.000    0.000    0.000    0.000 
#
# Total GULP energy -178387.448818 kJ/mol
# GULP energy per Si atom -5574.607776 kJ/mol
# Density = 2.067034 g / cm^3
# Si number density = 20.717494 Si / 1000 Ang^3
#
#
#
# Elastic Constant Matrix: (Units=GPa)
#
#
# Indices 1 2 3 4 5 6 
#
# 1 134.8482 18.2200 23.0003 0.0000 -2.5220 0.0000
# 2 18.2200 63.7527 20.4618 0.0000 6.0920 0.0000
# 3 23.0003 20.4618 43.7629 0.0000 -2.2750 0.0000
# 4 0.0000 0.0000 0.0000 26.8853 0.0000 -5.3872
# 5 -2.5220 6.0920 -2.2750 0.0000 36.9026 0.0000
# 6 0.0000 0.0000 0.0000 -5.3872 0.0000 28.1289
#
#
#
# Elastic Compliance Matrix: (Units=1/GPa)
#
#
# Indices 1 2 3 4 5 6 
#
# 1 0.008225 -0.001203 -0.003732 0.000000 0.000531 0.000000
# 2 -0.001203 0.019118 -0.008502 0.000000 -0.003762 0.000000
# 3 -0.003732 -0.008502 0.028940 0.000000 0.002933 0.000000
# 4 0.000000 0.000000 0.000000 0.038679 0.000000 0.007408
# 5 0.000531 -0.003762 0.002933 0.000000 0.027937 0.000000
# 6 0.000000 0.000000 0.000000 0.007408 0.000000 0.036969
#
#
# Mechanical properties :
#
#
# Convention : Reuss Voigt Hill
#
# Bulk Modulus (GPa) = 34.00560 40.63643 37.32101
# Shear Modulus (GPa) = 25.43942 30.42880 27.93411
#
# Velocity S-wave (km/s) = 3.50797 3.83658 3.67595
# Velocity P-wave (km/s) = 5.73214 6.26761 6.00585
#
# Compressibility (1/GPa) = 0.02940693
#
# Stress axis : x y z
#
# Youngs Moduli (GPa) = 121.58212 52.30739 34.55465
#
# Poissons Ratio (x) = 0.06294 0.12898
# Poissons Ratio (y) = 0.14631 0.29378
# Poissons Ratio (z) = 0.45381 0.44471
#
# Static dielectric constant tensor:
#      x y z
#    x 1.774330 0.000000 0.008200 
#    y 0.000000 1.722880 0.000000 
#    z 0.008200 0.000000 1.737090 
# 
# From -- ./inp_files/238690.got.cif
#   From: 2010.05.17/outbox.cif.g08.bks.cpg/sg12_120_cif.got.tgz:238690.got - 2010.06.03 13:09:07.
