data_PCOD9199038
_publ_section_title
;
Structure prediction by ZEFSAII (Michael W. Deem and Ramdas Pophale) SiO2 
 PCOD9199038
Probable space group: C 2/M
;
_chemical_formula_sum "Si O2"
_cell_formula_units_Z 48
_cell_length_a 16.755121
_cell_length_b 9.100927
_cell_length_c 14.695043
_cell_angle_alpha 90.000000
_cell_angle_beta 78.862134
_cell_angle_gamma 90.000000
_cell_volume 2198.599897
_symmetry_space_group_name_H-M "C 2/M"
_symmetry_group_IT_number 12
_symmetry_cell_setting 'monoclinic'
loop_
_space_group_symop_operation_xyz
x,y,z
-x,y,-z
-x,-y,-z
x,-y,z
1/2+x,1/2+y,z
1/2-x,1/2+y,-z
1/2-x,1/2-y,-z
1/2+x,1/2-y,z
loop_
_atom_site_type_symbol
_atom_site_label
_atom_site_fract_x
_atom_site_fract_y
_atom_site_fract_z
Si Si1 0.690127 0.672626 0.141786
Si Si2 0.802411 0.829449 0.371333
Si Si3 0.135305 0.827724 0.449153
Si Si4 0.072136 0.326629 0.298688
Si Si5 0.644144 0.325740 0.953044
Si Si6 0.057786 0.828887 0.798111
O O1 0.691139 0.500000 0.164377
O O2 0.653137 0.767173 0.230738
O O3 0.778834 0.728735 0.093636
O O4 0.634696 0.693290 0.063170
O O5 0.863331 0.801163 0.442876
O O6 0.725869 0.723875 0.399294
O O7 0.853334 0.815861 0.268290
O O8 0.774624 0.000000 0.386334
O O9 0.073142 0.741460 0.399169
O O10 0.123997 0.000000 0.435917
O O11 0.072075 0.500000 0.303878
O O12 0.001184 0.268423 0.249171
O O13 0.662804 0.500000 0.935457
O O14 0.570587 0.291600 0.901011
O O15 0.032090 0.000000 0.795955
#
# Coordination Sequence:
#
# PCOD9199038 Si02
#       6
#     8   8   8   8   8   8
#     4  10  20  36  59  85 112 144 183 225 272 328
#     4   9  19  36  60  87 113 143 179 223 274 329
#     4  10  20  36  59  85 112 144 183 225 272 328
#     4  12  25  38  53  77 111 149 189 232 277 322
#     4   9  19  36  60  87 113 143 179 223 274 329
#     4  10  21  38  57  79 111 147 181 220 273 334
#
# _framework density 21.832075
#
# number of rings (size 3 to 8) (size 9 to 14) (size 15 to 20)
#    0.000    2.000    0.000    3.500    0.000    5.333 
#    0.000    6.667    0.000    0.000    0.000    0.000 
#    0.000    0.000    0.000    0.000    0.000    0.000 
#
# Total GULP energy -134184.440709 kJ/mol
# GULP energy per Si atom -5591.018363 kJ/mol
# Density = 2.178238 g / cm^3
# Si number density = 21.832075 Si / 1000 Ang^3
#
#
#
# Elastic Constant Matrix: (Units=GPa)
#
#
# Indices 1 2 3 4 5 6 
#
# 1 46.2791 24.6468 16.9153 0.0000 22.1334 0.0000
# 2 24.6468 87.3508 48.1278 0.0000 28.7334 0.0000
# 3 16.9153 48.1278 110.5285 0.0000 32.5429 0.0000
# 4 0.0000 0.0000 0.0000 22.6537 0.0000 3.8722
# 5 22.1334 28.7334 32.5429 0.0000 42.6193 0.0000
# 6 0.0000 0.0000 0.0000 3.8722 0.0000 31.2186
#
#
#
# Elastic Compliance Matrix: (Units=1/GPa)
#
#
# Indices 1 2 3 4 5 6 
#
# 1 0.030112 -0.004880 0.001486 0.000000 -0.013483 0.000000
# 2 -0.004880 0.017465 -0.005337 0.000000 -0.005165 0.000000
# 3 0.001486 -0.005337 0.013302 0.000000 -0.007331 0.000000
# 4 0.000000 0.000000 0.000000 0.045099 0.000000 -0.005594
# 5 -0.013483 -0.005165 -0.007331 0.000000 0.039545 0.000000
# 6 0.000000 0.000000 0.000000 -0.005594 0.000000 0.032726
#
#
# Mechanical properties :
#
#
# Convention : Reuss Voigt Hill
#
# Bulk Modulus (GPa) = 23.03243 47.05979 35.04611
# Shear Modulus (GPa) = 23.78869 29.59623 26.69246
#
# Velocity S-wave (km/s) = 3.30452 3.68588 3.50040
# Velocity P-wave (km/s) = 5.01324 6.30210 5.69425
#
# Compressibility (1/GPa) = 0.04341704
#
# Stress axis : x y z
#
# Youngs Moduli (GPa) = 33.20926 57.25862 75.17428
#
# Poissons Ratio (x) = 0.27944 -0.11174
# Poissons Ratio (y) = 0.16207 0.40122
# Poissons Ratio (z) = -0.04936 0.30560
#
# Static dielectric constant tensor:
#      x y z
#    x 1.827520 0.000000 0.028470 
#    y 0.000000 1.723150 0.000000 
#    z 0.028470 0.000000 1.809930 
# 
# From -- ./inp_files/221717.got.cif
#   From: 2010.05.17/outbox.cif.g08.bks.cpg/sg12_111_cif.got.tgz:221717.got - 2010.06.03 13:09:07.
