data_PCOD9199637
_publ_section_title
;
Structure prediction by ZEFSAII (Michael W. Deem and Ramdas Pophale) SiO2 
 PCOD9199637
Probable space group: C 2/M
;
_chemical_formula_sum "Si O2"
_cell_formula_units_Z 56
_cell_length_a 14.163686
_cell_length_b 19.285714
_cell_length_c 10.916371
_cell_angle_alpha 90.000000
_cell_angle_beta 85.096625
_cell_angle_gamma 90.000000
_cell_volume 2970.968041
_symmetry_space_group_name_H-M "C 2/M"
_symmetry_group_IT_number 12
_symmetry_cell_setting 'monoclinic'
loop_
_space_group_symop_operation_xyz
x,y,z
-x,y,-z
-x,-y,-z
x,-y,z
1/2+x,1/2+y,z
1/2-x,1/2+y,-z
1/2-x,1/2-y,-z
1/2+x,1/2-y,z
loop_
_atom_site_type_symbol
_atom_site_label
_atom_site_fract_x
_atom_site_fract_y
_atom_site_fract_z
Si Si1 0.734195 0.578967 0.543219
Si Si2 0.413684 0.300579 0.417719
Si Si3 0.011584 0.212229 0.164285
Si Si4 0.227571 0.423952 0.172305
Si Si5 0.333219 0.695125 0.016441
Si Si6 0.525572 0.131021 0.143053
Si Si7 0.582875 0.138334 0.596475
O O1 0.698641 0.500000 0.525234
O O2 0.662213 0.642920 0.531834
O O3 0.761145 0.584186 0.683690
O O4 0.828914 0.592785 0.455908
O O5 0.500000 0.297773 0.500000
O O6 0.462438 0.322000 0.285082
O O7 0.383750 0.219708 0.404057
O O8 0.920374 0.225096 0.086837
O O9 0.052586 0.289553 0.176068
O O10 0.103237 0.171200 0.106122
O O11 0.261685 0.500000 0.133759
O O12 0.286232 0.366806 0.094234
O O13 0.117758 0.415129 0.151689
O O14 0.250000 0.750000 0.000000
O O15 0.451843 0.116525 0.262779
O O16 0.500000 0.127394 0.000000
O O17 0.500000 0.133134 0.500000
#
# Coordination Sequence:
#
# PCOD9199637 Si02
#       7
#     8   8   8   8   8   8   8
#     4  11  23  41  62  86 121 167 204 243 308 374
#     4  10  22  40  61  88 119 154 206 265 300 344
#     4  10  20  36  60  93 115 154 202 244 306 355
#     4  11  23  38  60  88 125 164 198 245 308 367
#     4  11  19  36  63  87 120 155 202 247 290 362
#     4  11  20  38  60  91 123 158 199 254 310 359
#     4  10  21  38  64  94 123 152 205 256 303 368
#
# _framework density 18.849074999999999
#
# number of rings (size 3 to 8) (size 9 to 14) (size 15 to 20)
#    0.000    1.429    5.714    0.429    0.000    1.429 
#    7.714    2.143    0.000    0.000    0.000    0.000 
#    0.000    0.000    0.000    0.000    0.000    0.000 
#
# Total GULP energy -155888.201573 kJ/mol
# GULP energy per Si atom -5567.435770 kJ/mol
# Density = 1.880617 g / cm^3
# Si number density = 18.849075 Si / 1000 Ang^3
#
#
#
# Elastic Constant Matrix: (Units=GPa)
#
#
# Indices 1 2 3 4 5 6 
#
# 1 75.9271 33.0851 30.7861 0.0000 -17.7762 0.0000
# 2 33.0851 65.4754 25.3746 0.0000 -8.0815 0.0000
# 3 30.7861 25.3746 80.7131 0.0000 -25.3702 0.0000
# 4 0.0000 0.0000 0.0000 -66.1171 0.0000 -11.9104
# 5 -17.7762 -8.0815 -25.3702 0.0000 31.3768 0.0000
# 6 0.0000 0.0000 0.0000 -11.9104 0.0000 17.2768
#
#
#
# Elastic Compliance Matrix: (Units=1/GPa)
#
#
# Indices 1 2 3 4 5 6 
#
# 1 0.019274 -0.007834 -0.002803 0.000000 0.006635 0.000000
# 2 -0.007834 0.020576 -0.004304 0.000000 -0.002618 0.000000
# 3 -0.002803 -0.004304 0.018723 0.000000 0.012442 0.000000
# 4 0.000000 0.000000 0.000000 -0.013454 0.000000 -0.009275
# 5 0.006635 -0.002618 0.012442 0.000000 0.045015 0.000000
# 6 0.000000 0.000000 0.000000 -0.009275 0.000000 0.051487
#
#
# Mechanical properties :
#
#
# Convention : Reuss Voigt Hill
#
# Bulk Modulus (GPa) = 34.85395 44.51191 39.68293
# Shear Modulus (GPa) = 27.61406 5.36530 16.48968
#
# Velocity S-wave (km/s) = 3.83170 1.68897 2.96096
# Velocity P-wave (km/s) = 6.17309 5.24115 5.72611
#
# Compressibility (1/GPa) = 0.02869115
#
# Stress axis : x y z
#
# Youngs Moduli (GPa) = 51.88266 48.59992 53.41156
#
# Poissons Ratio (x) = 0.38073 0.14972
# Poissons Ratio (y) = 0.40645 0.22987
# Poissons Ratio (z) = 0.14544 0.20916
#
# Static dielectric constant tensor:
#      x y z
#    x 1.624430 0.000000 -0.017320 
#    y 0.000000 1.674880 0.000000 
#    z -0.017320 0.000000 1.703620 
# 
# From -- ./inp_files/133159.got.cif
#   From: 2010.05.17/outbox.cif.g08.bks.cpg/sg12_67_cif.got.tgz:133159.got - 2010.06.03 13:09:07.
