data_PCOD9199733
_publ_section_title
;
Structure prediction by ZEFSAII (Michael W. Deem and Ramdas Pophale) SiO2 
 PCOD9199733
Probable space group: C 2/M
;
_chemical_formula_sum "Si O2"
_cell_formula_units_Z 64
_cell_length_a 10.951557
_cell_length_b 22.007911
_cell_length_c 19.263361
_cell_angle_alpha 90.000000
_cell_angle_beta 43.163651
_cell_angle_gamma 90.000000
_cell_volume 3176.117092
_symmetry_space_group_name_H-M "C 2/M"
_symmetry_group_IT_number 12
_symmetry_cell_setting 'monoclinic'
loop_
_space_group_symop_operation_xyz
x,y,z
-x,y,-z
-x,-y,-z
x,-y,z
1/2+x,1/2+y,z
1/2-x,1/2+y,-z
1/2-x,1/2-y,-z
1/2+x,1/2-y,z
loop_
_atom_site_type_symbol
_atom_site_label
_atom_site_fract_x
_atom_site_fract_y
_atom_site_fract_z
Si Si1 0.287744 0.228739 0.758194
Si Si2 0.032627 0.426807 0.792461
Si Si3 0.938325 0.833433 0.865837
Si Si4 0.212272 0.932282 0.729727
Si Si5 0.797515 0.159421 0.067302
Si Si6 0.313566 0.633741 0.766028
Si Si7 0.559896 0.120350 0.636253
Si Si8 0.818778 0.927566 0.414643
O O1 0.252527 0.210138 0.854063
O O2 0.328887 0.298603 0.728984
O O3 0.452515 0.183908 0.671829
O O4 0.100759 0.215239 0.795476
O O5 0.034730 0.500000 0.789371
O O6 0.134871 0.400086 0.816901
O O7 0.125393 0.395686 0.686335
O O8 0.836728 0.396742 0.872134
O O9 0.837680 0.851905 0.837678
O O10 0.063852 0.892181 0.827978
O O11 0.808107 0.819130 0.983234
O O12 0.399609 0.927588 0.689983
O O13 0.246383 0.911431 0.636316
O O14 0.144521 0.000000 0.752975
O O15 0.000000 0.142137 0.000000
O O16 0.475400 0.591776 0.672896
O O17 0.709766 0.108723 0.517360
O O18 0.796386 0.000000 0.434637
#
# Coordination Sequence:
#
# PCOD9199733 Si02
#       8
#     8   8   8   8   8   8   8   8
#     4   9  21  39  60  86 120 151 205 255 300 352
#     4  11  24  40  60  89 127 163 201 246 300 363
#     4   9  20  38  59  87 116 155 196 245 305 357
#     4   9  17  32  58  91 121 150 191 247 303 352
#     4   9  20  41  63  94 117 150 202 250 299 358
#     4  11  24  39  58  83 123 165 197 249 300 363
#     4  10  20  36  61  89 117 158 203 255 297 347
#     4  10  20  36  61  90 120 159 205 246 302 369
#
# _framework density 20.150390999999999
#
# number of rings (size 3 to 8) (size 9 to 14) (size 15 to 20)
#    0.000    2.250    0.000    2.625    3.500    4.250 
#    4.500    1.875    8.250    0.000    0.000    0.000 
#    0.000    0.000    0.000    0.000    0.000    0.000 
#
# Total GULP energy -178393.185453 kJ/mol
# GULP energy per Si atom -5574.787045 kJ/mol
# Density = 2.010453 g / cm^3
# Si number density = 20.150391 Si / 1000 Ang^3
#
#
#
# Elastic Constant Matrix: (Units=GPa)
#
#
# Indices 1 2 3 4 5 6 
#
# 1 75.7386 11.2371 18.6829 -0.0002 0.6229 -0.0001
# 2 11.2371 58.5624 16.1351 0.0000 -0.1091 0.0000
# 3 18.6829 16.1351 79.7415 -0.0006 10.7694 0.0001
# 4 -0.0002 0.0000 -0.0006 -0.6503 0.0000 1.0320
# 5 0.6229 -0.1091 10.7694 0.0000 18.9049 0.0000
# 6 -0.0001 0.0000 0.0001 1.0320 0.0000 18.4401
#
#
#
# Elastic Compliance Matrix: (Units=1/GPa)
#
#
# Indices 1 2 3 4 5 6 
#
# 1 0.014243 -0.001867 -0.003136 -0.000001 0.001306 0.000000
# 2 -0.001867 0.018427 -0.003590 0.000004 0.002213 0.000000
# 3 -0.003136 -0.003590 0.015157 -0.000013 -0.008552 0.000001
# 4 -0.000001 0.000004 -0.000013 -1.412290 0.000010 0.079041
# 5 0.001306 0.002213 -0.008552 0.000010 0.057738 -0.000001
# 6 0.000000 0.000000 0.000001 0.079041 -0.000001 0.049806
#
#
# Mechanical properties :
#
#
# Convention : Reuss Voigt Hill
#
# Bulk Modulus (GPa) = 32.63515 34.01696 33.32606
# Shear Modulus (GPa) = -4.06663 18.53809 7.23573
#
# Velocity S-wave (km/s) = -1.42215 3.03642 1.89701
# Velocity P-wave (km/s) = 3.67889 5.40475 4.62307
#
# Compressibility (1/GPa) = 0.03064180
#
# Stress axis : x y z
#
# Youngs Moduli (GPa) = 70.20983 54.26744 65.97799
#
# Poissons Ratio (x) = 0.10130 0.20689
# Poissons Ratio (y) = 0.13105 0.23687
# Poissons Ratio (z) = 0.22016 0.19483
#
# Static dielectric constant tensor:
#      x y z
#    x 1.796540 0.000000 0.046650 
#    y 0.000000 1.699130 0.000000 
#    z 0.046650 0.000000 1.710660 
# 
# From -- ./inp_files/306769.got.cif
#   From: 2010.05.17/outbox.cif.g08.bks.cpg/sg12_154_cif.got.tgz:306769.got - 2010.06.03 13:09:07.
