data_PCOD9199746
_publ_section_title
;
Structure prediction by ZEFSAII (Michael W. Deem and Ramdas Pophale) SiO2 
 PCOD9199746
Probable space group: C 2/M
;
_chemical_formula_sum "Si O2"
_cell_formula_units_Z 44
_cell_length_a 15.183575
_cell_length_b 23.012476
_cell_length_c 5.741262
_cell_angle_alpha 90.000000
_cell_angle_beta 100.420085
_cell_angle_gamma 90.000000
_cell_volume 1972.980113
_symmetry_space_group_name_H-M "C 2/M"
_symmetry_group_IT_number 12
_symmetry_cell_setting 'monoclinic'
loop_
_space_group_symop_operation_xyz
x,y,z
-x,y,-z
-x,-y,-z
x,-y,z
1/2+x,1/2+y,z
1/2-x,1/2+y,-z
1/2-x,1/2-y,-z
1/2+x,1/2-y,z
loop_
_atom_site_type_symbol
_atom_site_label
_atom_site_fract_x
_atom_site_fract_y
_atom_site_fract_z
Si Si1 0.381939 0.762978 0.072829
Si Si2 0.500000 0.813385 0.500000
Si Si3 0.336633 0.859757 0.679386
Si Si4 0.239908 0.064091 0.954134
Si Si5 0.275679 0.321244 0.752867
Si Si6 0.468686 0.567339 0.238387
O O1 0.468582 0.772105 0.272877
O O2 0.299206 0.773693 0.210504
O O3 0.371474 0.817495 0.897095
O O4 0.364361 0.706047 0.909323
O O5 0.416002 0.853973 0.529850
O O6 0.309558 0.919972 0.783439
O O7 0.244956 0.833757 0.525343
O O8 0.138529 0.065564 0.811339
O O9 0.256388 0.000000 0.059994
O O10 0.243185 0.116547 0.138731
O O11 0.500000 0.594428 0.500000
O O12 0.503356 0.500000 0.256318
O O13 0.500000 0.591006 0.000000
#
# Coordination Sequence:
#
# PCOD9199746 Si02
#       6
#     8   4   8   8   8   8
#     4   9  18  36  59  86 115 153 199 258 319 375
#     4  10  20  36  61  90 127 158 202 260 322 376
#     4  10  20  36  61  89 123 165 205 257 312 378
#     4  10  22  38  59  87 123 168 214 255 310 380
#     4   9  19  35  59  86 116 156 204 255 314 375
#     4   9  19  36  58  82 115 160 211 266 318 371
#
# _framework density 22.301289000000001
#
# number of rings (size 3 to 8) (size 9 to 14) (size 15 to 20)
#    0.000    2.545    0.000    1.091    2.545    2.182 
#    1.636    2.273    0.000   14.182    0.000    0.000 
#    0.000    0.000    0.000    0.000    0.000    0.000 
#
# Total GULP energy -122585.721868 kJ/mol
# GULP energy per Si atom -5572.078267 kJ/mol
# Density = 2.225053 g / cm^3
# Si number density = 22.301289 Si / 1000 Ang^3
#
#
#
# Elastic Constant Matrix: (Units=GPa)
#
#
# Indices 1 2 3 4 5 6 
#
# 1 78.1206 40.2450 24.6054 0.0000 -2.0914 0.0000
# 2 40.2450 95.7196 30.1184 0.0000 8.7084 0.0000
# 3 24.6054 30.1184 135.9303 0.0000 25.1681 0.0000
# 4 0.0000 0.0000 0.0000 19.5644 0.0000 0.8834
# 5 -2.0914 8.7084 25.1681 0.0000 33.3466 0.0000
# 6 0.0000 0.0000 0.0000 0.8834 0.0000 23.5466
#
#
#
# Elastic Compliance Matrix: (Units=1/GPa)
#
#
# Indices 1 2 3 4 5 6 
#
# 1 0.017270 -0.006915 -0.002475 0.000000 0.004757 0.000000
# 2 -0.006915 0.014042 -0.001279 0.000000 -0.003135 0.000000
# 3 -0.002475 -0.001279 0.009363 0.000000 -0.006888 0.000000
# 4 0.000000 0.000000 0.000000 0.051200 0.000000 -0.001921
# 5 0.004757 -0.003135 -0.006888 0.000000 0.036304 0.000000
# 6 0.000000 0.000000 0.000000 -0.001921 0.000000 0.042541
#
#
# Mechanical properties :
#
#
# Convention : Reuss Voigt Hill
#
# Bulk Modulus (GPa) = 51.71193 55.52314 53.61754
# Shear Modulus (GPa) = 25.18831 29.61162 27.39997
#
# Velocity S-wave (km/s) = 3.36438 3.64785 3.50898
# Velocity P-wave (km/s) = 6.19115 6.53401 6.36489
#
# Compressibility (1/GPa) = 0.01933790
#
# Stress axis : x y z
#
# Youngs Moduli (GPa) = 57.90391 71.21289 106.79828
#
# Poissons Ratio (x) = 0.49245 0.26429
# Poissons Ratio (y) = 0.40042 0.13661
# Poissons Ratio (z) = 0.14329 0.09109
#
# Static dielectric constant tensor:
#      x y z
#    x 1.931200 0.000000 -0.031980 
#    y 0.000000 1.808860 0.000000 
#    z -0.031980 0.000000 1.912510 
# 
# From -- ./inp_files/16728.got.cif
#   From: 2010.05.17/outbox.cif.g08.bks.cpg/sg12_9_cif.got.tgz:16728.got - 2010.06.03 13:09:07.
