data_PCOD9199724
_publ_section_title
;
Structure prediction by ZEFSAII (Michael W. Deem and Ramdas Pophale) SiO2 
 PCOD9199724
Probable space group: C 2/M
;
_chemical_formula_sum "Si O2"
_cell_formula_units_Z 56
_cell_length_a 24.521868
_cell_length_b 8.866332
_cell_length_c 15.614466
_cell_angle_alpha 90.000000
_cell_angle_beta 63.001232
_cell_angle_gamma 90.000000
_cell_volume 3024.895099
_symmetry_space_group_name_H-M "C 2/M"
_symmetry_group_IT_number 12
_symmetry_cell_setting 'monoclinic'
loop_
_space_group_symop_operation_xyz
x,y,z
-x,y,-z
-x,-y,-z
x,-y,z
1/2+x,1/2+y,z
1/2-x,1/2+y,-z
1/2-x,1/2-y,-z
1/2+x,1/2-y,z
loop_
_atom_site_type_symbol
_atom_site_label
_atom_site_fract_x
_atom_site_fract_y
_atom_site_fract_z
Si Si1 0.156353 0.319090 0.084035
Si Si2 0.025549 0.680392 0.236204
Si Si3 0.754624 0.680166 0.133911
Si Si4 0.603554 0.318964 0.672977
Si Si5 0.720971 0.319036 0.698756
Si Si6 0.148724 0.319512 0.463011
Si Si7 0.058298 0.176234 0.395056
O O1 0.161414 0.500000 0.090225
O O2 0.084895 0.280350 0.137088
O O3 0.192255 0.243808 0.137305
O O4 0.192141 0.276405 0.972026
O O5 0.018485 0.500000 0.242966
O O6 0.041327 0.739855 0.319945
O O7 0.962290 0.755730 0.253442
O O8 0.751214 0.500000 0.140176
O O9 0.768732 0.745315 0.216611
O O10 0.601295 0.500000 0.669380
O O11 0.657939 0.273539 0.698401
O O12 0.620089 0.254175 0.567771
O O13 0.720296 0.500000 0.709744
O O14 0.779544 0.282644 0.597817
O O15 0.141222 0.500000 0.471782
O O16 0.113879 0.254621 0.405134
O O17 0.000000 0.183713 0.500000
O O18 0.071570 0.000000 0.368903
#
# Coordination Sequence:
#
# PCOD9199724 Si02
#       7
#     8   8   8   8   8   8   8
#     4   9  20  38  59  86 117 145 176 224 281 331
#     4  11  22  37  58  82 112 149 187 226 274 329
#     4  10  20  36  61  89 113 141 182 228 275 328
#     4  11  23  39  56  78 112 149 187 231 275 324
#     4  10  23  40  57  80 112 148 185 229 278 327
#     4  11  22  37  58  82 109 146 189 229 275 329
#     4  11  22  35  53  80 115 146 177 225 275 322
#
# _framework density 18.513038999999999
#
# number of rings (size 3 to 8) (size 9 to 14) (size 15 to 20)
#    0.000    1.571    1.429    3.429    0.000    8.000 
#    0.000    0.714    0.000    4.286    0.000    0.000 
#    0.000    0.000    0.000    0.000    0.000    0.000 
#
# Total GULP energy -156502.132474 kJ/mol
# GULP energy per Si atom -5589.361874 kJ/mol
# Density = 1.847090 g / cm^3
# Si number density = 18.513039 Si / 1000 Ang^3
#
#
#
# Elastic Constant Matrix: (Units=GPa)
#
#
# Indices 1 2 3 4 5 6 
#
# 1 132.7994 40.1722 36.7459 0.0000 -30.3006 0.0000
# 2 40.1722 44.7214 21.4305 0.0000 -14.7799 0.0000
# 3 36.7459 21.4305 51.2309 0.0000 -18.9679 0.0000
# 4 0.0000 0.0000 0.0000 26.0149 0.0000 -4.4511
# 5 -30.3006 -14.7799 -18.9679 0.0000 28.6725 0.0000
# 6 0.0000 0.0000 0.0000 -4.4511 0.0000 21.9995
#
#
#
# Elastic Compliance Matrix: (Units=1/GPa)
#
#
# Indices 1 2 3 4 5 6 
#
# 1 0.012162 -0.007068 -0.003122 0.000000 0.007144 0.000000
# 2 -0.007068 0.033876 -0.007154 0.000000 0.005261 0.000000
# 3 -0.003122 -0.007154 0.029354 0.000000 0.012432 0.000000
# 4 0.000000 0.000000 0.000000 0.039818 0.000000 0.008056
# 5 0.007144 0.005261 0.012432 0.000000 0.053363 0.000000
# 6 0.000000 0.000000 0.000000 0.008056 0.000000 0.047086
#
#
# Mechanical properties :
#
#
# Convention : Reuss Voigt Hill
#
# Bulk Modulus (GPa) = 24.56650 47.27213 35.91931
# Shear Modulus (GPa) = 18.94562 24.03094 21.48828
#
# Velocity S-wave (km/s) = 3.20248 3.60676 3.41062
# Velocity P-wave (km/s) = 5.19357 6.55247 5.91219
#
# Compressibility (1/GPa) = 0.04070585
#
# Stress axis : x y z
#
# Youngs Moduli (GPa) = 82.22278 29.51926 34.06703
#
# Poissons Ratio (x) = 0.20864 0.10635
# Poissons Ratio (y) = 0.58114 0.24370
# Poissons Ratio (z) = 0.25667 0.21117
#
# Static dielectric constant tensor:
#      x y z
#    x 1.626920 0.000000 -0.033970 
#    y 0.000000 1.618990 0.000000 
#    z -0.033970 0.000000 1.631000 
# 
# From -- ./inp_files/238233.got.cif
#   From: 2010.05.17/outbox.cif.g08.bks.cpg/sg12_120_cif.got.tgz:238233.got - 2010.06.03 13:09:07.
