data_PCOD9199876
_publ_section_title
;
Structure prediction by ZEFSAII (Michael W. Deem and Ramdas Pophale) SiO2 
 PCOD9199876
Probable space group: C 2/M
;
_chemical_formula_sum "Si O2"
_cell_formula_units_Z 44
_cell_length_a 13.602713
_cell_length_b 21.003847
_cell_length_c 11.925054
_cell_angle_alpha 90.000000
_cell_angle_beta 40.595105
_cell_angle_gamma 90.000000
_cell_volume 2217.031077
_symmetry_space_group_name_H-M "C 2/M"
_symmetry_group_IT_number 12
_symmetry_cell_setting 'monoclinic'
loop_
_space_group_symop_operation_xyz
x,y,z
-x,y,-z
-x,-y,-z
x,-y,z
1/2+x,1/2+y,z
1/2-x,1/2+y,-z
1/2-x,1/2-y,-z
1/2+x,1/2-y,z
loop_
_atom_site_type_symbol
_atom_site_label
_atom_site_fract_x
_atom_site_fract_y
_atom_site_fract_z
Si Si1 0.731236 0.928693 0.119740
Si Si2 0.722036 0.215450 0.406556
Si Si3 0.656067 0.069560 0.931551
Si Si4 0.213168 0.203597 0.201391
Si Si5 0.564788 0.695351 0.097587
Si Si6 0.000000 0.382084 0.500000
O O1 0.619694 0.919702 0.320889
O O2 0.800021 0.000000 0.064542
O O3 0.640471 0.925131 0.079967
O O4 0.846045 0.869036 0.013422
O O5 0.750000 0.250000 0.500000
O O6 0.675601 0.265188 0.351127
O O7 0.596192 0.161059 0.504208
O O8 0.887951 0.189217 0.229104
O O9 0.751386 0.129950 0.812914
O O10 0.725525 0.000000 0.849289
O O11 0.500000 0.072373 0.000000
O O12 0.092666 0.207831 0.205818
O O13 0.357632 0.243682 0.029108
#
# Coordination Sequence:
#
# PCOD9199876 Si02
#       6
#     8   8   8   8   8   4
#     4  10  22  41  63  87 124 162 205 258 305 368
#     4  12  25  37  60  92 127 159 200 258 308 365
#     4   9  18  32  58  89 115 152 198 242 298 358
#     4  10  20  36  62  85 122 152 203 252 294 356
#     4  10  21  40  62  89 117 163 206 246 306 367
#     4  12  25  40  58  92 129 156 206 254 315 368
#
# _framework density 19.846361999999999
#
# number of rings (size 3 to 8) (size 9 to 14) (size 15 to 20)
#    0.000    1.636    1.818    3.000    7.636    0.000 
#    0.000    2.727    0.000    1.091    0.000    5.727 
#    0.000    0.000    0.000    0.000    0.000    0.000 
#
# Total GULP energy -122801.260933 kJ/mol
# GULP energy per Si atom -5581.875497 kJ/mol
# Density = 1.980119 g / cm^3
# Si number density = 19.846362 Si / 1000 Ang^3
#
#
#
# Elastic Constant Matrix: (Units=GPa)
#
#
# Indices 1 2 3 4 5 6 
#
# 1 96.9746 32.1710 28.3062 0.0006 -0.0053 -0.0007
# 2 32.1710 118.6891 29.7753 0.0003 0.9373 -0.0004
# 3 28.3062 29.7753 60.2590 0.0005 6.0930 -0.0007
# 4 0.0006 0.0003 0.0005 20.7724 -0.0003 17.4251
# 5 -0.0053 0.9373 6.0930 -0.0003 36.1495 0.0003
# 6 -0.0007 -0.0004 -0.0007 17.4251 0.0003 -9.6576
#
#
#
# Elastic Compliance Matrix: (Units=1/GPa)
#
#
# Indices 1 2 3 4 5 6 
#
# 1 0.012450 -0.002160 -0.004870 0.000000 0.000879 0.000000
# 2 -0.002160 0.010003 -0.003970 0.000000 0.000409 0.000000
# 3 -0.004870 -0.003970 0.021195 0.000000 -0.003470 -0.000001
# 4 0.000000 0.000000 0.000000 0.019153 0.000000 0.034557
# 5 0.000879 0.000409 -0.003470 0.000000 0.028237 0.000001
# 6 0.000000 0.000000 -0.000001 0.034557 0.000001 -0.041195
#
#
# Mechanical properties :
#
#
# Convention : Reuss Voigt Hill
#
# Bulk Modulus (GPa) = 46.19039 50.71418 48.45229
# Shear Modulus (GPa) = 63.24379 21.83086 42.53732
#
# Velocity S-wave (km/s) = 5.65118 3.32021 4.63463
# Velocity P-wave (km/s) = 8.11823 6.34880 7.28742
#
# Compressibility (1/GPa) = 0.02164952
#
# Stress axis : x y z
#
# Youngs Moduli (GPa) = 80.32103 99.96537 47.18076
#
# Poissons Ratio (x) = 0.21591 0.22977
# Poissons Ratio (y) = 0.17348 0.18730
# Poissons Ratio (z) = 0.39116 0.39684
#
# Static dielectric constant tensor:
#      x y z
#    x 1.727250 0.000000 -0.003660 
#    y 0.000000 1.711080 0.000000 
#    z -0.003660 0.000000 1.722030 
# 
# From -- ./inp_files/147508.got.cif
#   From: 2010.05.17/outbox.cif.g08.bks.cpg/sg12_74_cif.got.tgz:147508.got - 2010.06.03 13:09:07.
