data_PCOD9199133
_publ_section_title
;
Structure prediction by ZEFSAII (Michael W. Deem and Ramdas Pophale) SiO2 
 PCOD9199133
Probable space group: C 2/M
;
_chemical_formula_sum "Si O2"
_cell_formula_units_Z 44
_cell_length_a 9.305293
_cell_length_b 15.329326
_cell_length_c 16.443652
_cell_angle_alpha 90.000000
_cell_angle_beta 126.962614
_cell_angle_gamma 90.000000
_cell_volume 1874.189085
_symmetry_space_group_name_H-M "C 2/M"
_symmetry_group_IT_number 12
_symmetry_cell_setting 'monoclinic'
loop_
_space_group_symop_operation_xyz
x,y,z
-x,y,-z
-x,-y,-z
x,-y,z
1/2+x,1/2+y,z
1/2-x,1/2+y,-z
1/2-x,1/2-y,-z
1/2+x,1/2-y,z
loop_
_atom_site_type_symbol
_atom_site_label
_atom_site_fract_x
_atom_site_fract_y
_atom_site_fract_z
Si Si1 0.649064 0.739328 0.208180
Si Si2 0.172113 0.096095 0.675631
Si Si3 0.611451 0.900449 0.658648
Si Si4 0.640042 0.593197 0.858666
Si Si5 0.737682 0.649209 0.469493
Si Si6 0.000000 0.665471 0.000000
O O1 0.706752 0.816511 0.290327
O O2 0.819176 0.674300 0.257358
O O3 0.490427 0.674509 0.178776
O O4 0.579485 0.778484 0.100207
O O5 0.175630 0.087265 0.774717
O O6 0.964291 0.116442 0.582890
O O7 0.224672 0.000000 0.661391
O O8 0.707473 0.872014 0.605512
O O9 0.398603 0.896124 0.572973
O O10 0.660626 0.000000 0.694124
O O11 0.563220 0.500000 0.859411
O O12 0.828414 0.609044 0.968105
O O13 0.750000 0.750000 0.500000
#
# Coordination Sequence:
#
# PCOD9199133 Si02
#       6
#     8   8   8   8   8   4
#     4  11  21  37  60  90 119 154 200 243 297 341
#     4  10  20  36  59  86 118 156 199 241 287 349
#     4  11  22  37  61  89 119 157 203 241 283 351
#     4  10  20  38  63  86 113 152 198 245 293 356
#     4  11  20  35  59  91 118 150 191 245 292 342
#     4  10  23  38  59  88 120 152 195 250 299 350
#
# _framework density 23.476821999999999
#
# number of rings (size 3 to 8) (size 9 to 14) (size 15 to 20)
#    0.000    1.455    3.636    3.545    0.000    0.727 
#    0.000    1.818    0.000   17.455    0.000    0.000 
#    0.000    0.000    0.000    0.000    0.000    0.000 
#
# Total GULP energy -122887.441789 kJ/mol
# GULP energy per Si atom -5585.792809 kJ/mol
# Density = 2.342339 g / cm^3
# Si number density = 23.476822 Si / 1000 Ang^3
#
#
#
# Elastic Constant Matrix: (Units=GPa)
#
#
# Indices 1 2 3 4 5 6 
#
# 1 53.3745 50.3833 38.1765 0.0000 12.3551 0.0000
# 2 50.3833 226.9257 68.9392 0.0000 29.3554 0.0000
# 3 38.1765 68.9392 162.7000 0.0000 40.8203 0.0000
# 4 0.0000 0.0000 0.0000 33.7393 0.0000 9.0705
# 5 12.3551 29.3554 40.8203 0.0000 39.3070 0.0000
# 6 0.0000 0.0000 0.0000 9.0705 0.0000 34.8533
#
#
#
# Elastic Compliance Matrix: (Units=1/GPa)
#
#
# Indices 1 2 3 4 5 6 
#
# 1 0.025987 -0.004457 -0.004050 0.000000 -0.000633 0.000000
# 2 -0.004457 0.005954 -0.000964 0.000000 -0.002044 0.000000
# 3 -0.004050 -0.000964 0.009473 0.000000 -0.007845 0.000000
# 4 0.000000 0.000000 0.000000 0.031869 0.000000 -0.008294
# 5 -0.000633 -0.002044 -0.007845 0.000000 0.035314 0.000000
# 6 0.000000 0.000000 0.000000 -0.008294 0.000000 0.030850
#
#
# Mechanical properties :
#
#
# Convention : Reuss Voigt Hill
#
# Bulk Modulus (GPa) = 44.50183 84.22202 64.36193
# Shear Modulus (GPa) = 30.14246 40.61332 35.37789
#
# Velocity S-wave (km/s) = 3.58708 4.16376 3.88613
# Velocity P-wave (km/s) = 6.01273 7.68559 6.90004
#
# Compressibility (1/GPa) = 0.02247098
#
# Stress axis : x y z
#
# Youngs Moduli (GPa) = 38.48149 167.96410 105.55977
#
# Poissons Ratio (x) = 0.74868 0.42752
# Poissons Ratio (y) = 0.17153 0.10175
# Poissons Ratio (z) = 0.15585 0.16190
#
# Static dielectric constant tensor:
#      x y z
#    x 1.955910 0.000000 0.005350 
#    y 0.000000 1.961950 0.000000 
#    z 0.005350 0.000000 1.893700 
# 
# From -- ./inp_files/335734.got.cif
#   From: 2010.05.17/outbox.cif.g08.bks.cpg/sg12_168_cif.got.tgz:335734.got - 2010.06.03 13:09:07.
