data_PCOD9199321
_publ_section_title
;
Structure prediction by ZEFSAII (Michael W. Deem and Ramdas Pophale) SiO2 
 PCOD9199321
Probable space group: C 2/M
;
_chemical_formula_sum "Si O2"
_cell_formula_units_Z 50
_cell_length_a 10.583909
_cell_length_b 24.384098
_cell_length_c 11.095225
_cell_angle_alpha 90.000000
_cell_angle_beta 74.427419
_cell_angle_gamma 90.000000
_cell_volume 2758.331605
_symmetry_space_group_name_H-M "C 2/M"
_symmetry_group_IT_number 12
_symmetry_cell_setting 'monoclinic'
loop_
_space_group_symop_operation_xyz
x,y,z
-x,y,-z
-x,-y,-z
x,-y,z
1/2+x,1/2+y,z
1/2-x,1/2+y,-z
1/2-x,1/2-y,-z
1/2+x,1/2-y,z
loop_
_atom_site_type_symbol
_atom_site_label
_atom_site_fract_x
_atom_site_fract_y
_atom_site_fract_z
Si Si1 0.892146 0.435243 0.125477
Si Si2 0.561631 0.857955 0.680176
Si Si3 0.121893 0.727061 0.875984
Si Si4 0.325010 0.109854 0.583034
Si Si5 0.180760 0.860032 0.072326
Si Si6 0.000000 0.500000 0.500000
Si Si7 0.871516 0.851070 0.184500
O O1 0.884079 0.500000 0.123822
O O2 0.936180 0.414227 0.244127
O O3 0.756275 0.407097 0.125129
O O4 0.000000 0.416129 0.000000
O O5 0.580062 0.811181 0.774406
O O6 0.672713 0.862533 0.549441
O O7 0.426838 0.856447 0.641675
O O8 0.239323 0.695199 0.914249
O O9 0.159722 0.786226 0.814719
O O10 0.000000 0.733304 0.000000
O O11 0.388521 0.049469 0.552095
O O12 0.190419 0.116487 0.688638
O O13 0.028799 0.855203 0.143931
O O14 0.184666 0.872500 0.928891
#
# Coordination Sequence:
#
# PCOD9199321 Si02
#       7
#     8   8   8   8   8   2   8
#     4  10  20  36  60  83 111 146 193 252 294 337
#     4   9  20  35  59  84 114 145 196 245 276 353
#     4  11  20  35  61  85 117 162 194 237 290 344
#     4  10  21  38  59  90 112 150 201 240 290 339
#     4  10  21  38  53  92 118 152 197 236 300 349
#     4   8  20  40  60  78 104 156 190 238 272 350
#     4  11  22  35  59  82 122 154 191 243 288 353
#
# _framework density 18.126899000000002
#
# number of rings (size 3 to 8) (size 9 to 14) (size 15 to 20)
#    0.000    2.080    1.600    4.320    6.720    0.640 
#    2.880    4.000    0.000    0.960    0.000    0.000 
#    0.000    0.000    0.000    0.000    0.000    0.000 
#
# Total GULP energy -139183.363137 kJ/mol
# GULP energy per Si atom -5567.334525 kJ/mol
# Density = 1.808564 g / cm^3
# Si number density = 18.126899 Si / 1000 Ang^3
#
#
#
# Elastic Constant Matrix: (Units=GPa)
#
#
# Indices 1 2 3 4 5 6 
#
# 1 53.5330 7.3003 32.4875 0.0000 1.6420 0.0000
# 2 7.3003 65.6913 37.1666 0.0000 -5.7393 0.0000
# 3 32.4875 37.1666 117.1996 0.0000 -9.6442 0.0000
# 4 0.0000 0.0000 0.0000 18.1926 0.0000 -10.1052
# 5 1.6420 -5.7393 -9.6442 0.0000 27.7943 0.0000
# 6 0.0000 0.0000 0.0000 -10.1052 0.0000 13.5477
#
#
#
# Elastic Compliance Matrix: (Units=1/GPa)
#
#
# Indices 1 2 3 4 5 6 
#
# 1 0.022876 0.001098 -0.006981 0.000000 -0.003547 0.000000
# 2 0.001098 0.018696 -0.006095 0.000000 0.001681 0.000000
# 3 -0.006981 -0.006095 0.012693 0.000000 0.003558 0.000000
# 4 0.000000 0.000000 0.000000 0.093850 0.000000 0.070002
# 5 -0.003547 0.001681 0.003558 0.000000 0.037770 0.000000
# 6 0.000000 0.000000 0.000000 0.070002 0.000000 0.126028
#
#
# Mechanical properties :
#
#
# Convention : Reuss Voigt Hill
#
# Bulk Modulus (GPa) = 32.99421 43.37028 38.18225
# Shear Modulus (GPa) = 14.45203 22.53823 18.49513
#
# Velocity S-wave (km/s) = 2.82666 3.52995 3.19770
# Velocity P-wave (km/s) = 5.37537 6.37118 5.89435
#
# Compressibility (1/GPa) = 0.03030835
#
# Stress axis : x y z
#
# Youngs Moduli (GPa) = 43.71435 53.48764 78.78229
#
# Poissons Ratio (x) = -0.05871 0.54999
# Poissons Ratio (y) = -0.04798 0.48017
# Poissons Ratio (z) = 0.30517 0.32600
#
# Static dielectric constant tensor:
#      x y z
#    x 1.624610 0.000000 -0.011030 
#    y 0.000000 1.622400 0.000000 
#    z -0.011030 0.000000 1.655620 
# 
# From -- ./inp_files/123611.got.cif
#   From: 2010.05.17/outbox.cif.g08.bks.cpg/sg12_62_cif.got.tgz:123611.got - 2010.06.03 13:09:07.
