data_PCOD9199839
_publ_section_title
;
Structure prediction by ZEFSAII (Michael W. Deem and Ramdas Pophale) SiO2 
 PCOD9199839
Probable space group: C 2/M
;
_chemical_formula_sum "Si O2"
_cell_formula_units_Z 40
_cell_length_a 14.205148
_cell_length_b 8.492415
_cell_length_c 13.805033
_cell_angle_alpha 90.000000
_cell_angle_beta 77.751129
_cell_angle_gamma 90.000000
_cell_volume 1627.472135
_symmetry_space_group_name_H-M "C 2/M"
_symmetry_group_IT_number 12
_symmetry_cell_setting 'monoclinic'
loop_
_space_group_symop_operation_xyz
x,y,z
-x,y,-z
-x,-y,-z
x,-y,z
1/2+x,1/2+y,z
1/2-x,1/2+y,-z
1/2-x,1/2-y,-z
1/2+x,1/2-y,z
loop_
_atom_site_type_symbol
_atom_site_label
_atom_site_fract_x
_atom_site_fract_y
_atom_site_fract_z
Si Si1 0.633241 0.682831 0.129904
Si Si2 0.190109 0.818658 0.423964
Si Si3 0.529271 0.819114 0.336826
Si Si4 0.645661 0.320803 0.720213
Si Si5 0.133163 0.682319 0.922545
O O1 0.604905 0.500000 0.150562
O O2 0.592823 0.786425 0.226562
O O3 0.749692 0.688972 0.102812
O O4 0.601336 0.747359 0.032140
O O5 0.250000 0.750000 0.500000
O O6 0.095753 0.724622 0.412930
O O7 0.266821 0.796629 0.320137
O O8 0.166929 0.000000 0.443251
O O9 0.436521 0.710319 0.341163
O O10 0.498755 0.000000 0.347039
O O11 0.680376 0.500000 0.708263
O O12 0.603857 0.281163 0.834729
O O13 0.104507 0.500000 0.918819
#
# Coordination Sequence:
#
# PCOD9199839 Si02
#       5
#     8   8   8   8   8
#     4  10  20  36  61  93 132 175 220 268 320 382
#     4  12  26  48  73 100 131 168 214 268 330 392
#     4  12  25  43  68  99 134 174 219 269 325 387
#     4  12  25  43  68  99 134 174 219 269 325 387
#     4  10  20  36  61  93 132 175 220 268 320 382
#
# _framework density 24.577992999999999
#
# number of rings (size 3 to 8) (size 9 to 14) (size 15 to 20)
#    0.000    0.800    2.000    6.600    0.000    3.200 
#    0.000    8.000    0.000    0.000    0.000    0.000 
#    0.000    0.000    0.000    0.000    0.000    0.000 
#
# Total GULP energy -112168.378203 kJ/mol
# GULP energy per Si atom -5608.418910 kJ/mol
# Density = 2.452205 g / cm^3
# Si number density = 24.577993 Si / 1000 Ang^3
#
#
#
# Elastic Constant Matrix: (Units=GPa)
#
#
# Indices 1 2 3 4 5 6 
#
# 1 73.8942 -7.3538 11.0941 0.0000 10.9434 0.0000
# 2 -7.3538 119.9819 9.9876 0.0000 11.9770 0.0000
# 3 11.0941 9.9876 107.8351 0.0000 23.8808 0.0000
# 4 0.0000 0.0000 0.0000 37.0883 0.0000 3.8510
# 5 10.9434 11.9770 23.8808 0.0000 50.1380 0.0000
# 6 0.0000 0.0000 0.0000 3.8510 0.0000 30.2619
#
#
#
# Elastic Compliance Matrix: (Units=1/GPa)
#
#
# Indices 1 2 3 4 5 6 
#
# 1 0.014234 0.001245 -0.000923 0.000000 -0.002965 0.000000
# 2 0.001245 0.008661 -0.000460 0.000000 -0.002121 0.000000
# 3 -0.000923 -0.000460 0.010444 0.000000 -0.004663 0.000000
# 4 0.000000 0.000000 0.000000 0.027324 0.000000 -0.003477
# 5 -0.002965 -0.002121 -0.004663 0.000000 0.023320 0.000000
# 6 0.000000 0.000000 0.000000 -0.003477 0.000000 0.033487
#
#
# Mechanical properties :
#
#
# Convention : Reuss Voigt Hill
#
# Bulk Modulus (GPa) = 30.24610 36.57413 33.41012
# Shear Modulus (GPa) = 38.82965 42.69652 40.76308
#
# Velocity S-wave (km/s) = 3.97905 4.17248 4.07691
# Velocity P-wave (km/s) = 5.78302 6.17462 5.98202
#
# Compressibility (1/GPa) = 0.03306211
#
# Stress axis : x y z
#
# Youngs Moduli (GPa) = 70.25217 115.45994 95.75189
#
# Poissons Ratio (x) = -0.14377 0.08840
# Poissons Ratio (y) = -0.08748 0.04409
# Poissons Ratio (z) = 0.06486 0.05317
#
# Static dielectric constant tensor:
#      x y z
#    x 1.996510 0.000000 -0.036480 
#    y 0.000000 1.826160 0.000000 
#    z -0.036480 0.000000 1.998250 
# 
# From -- ./inp_files/211375.got.cif
#   From: 2010.05.17/outbox.cif.g08.bks.cpg/sg12_106_cif.got.tgz:211375.got - 2010.06.03 13:09:07.
