data_PCOD9199079
_publ_section_title
;
Structure prediction by ZEFSAII (Michael W. Deem and Ramdas Pophale) SiO2 
 PCOD9199079
Probable space group: C 2/M
;
_chemical_formula_sum "Si O2"
_cell_formula_units_Z 64
_cell_length_a 21.564668
_cell_length_b 10.837858
_cell_length_c 19.707348
_cell_angle_alpha 90.000000
_cell_angle_beta 134.431742
_cell_angle_gamma 90.000000
_cell_volume 3289.003240
_symmetry_space_group_name_H-M "C 2/M"
_symmetry_group_IT_number 12
_symmetry_cell_setting 'monoclinic'
loop_
_space_group_symop_operation_xyz
x,y,z
-x,y,-z
-x,-y,-z
x,-y,z
1/2+x,1/2+y,z
1/2-x,1/2+y,-z
1/2-x,1/2-y,-z
1/2+x,1/2-y,z
loop_
_atom_site_type_symbol
_atom_site_label
_atom_site_fract_x
_atom_site_fract_y
_atom_site_fract_z
Si Si1 0.133129 0.364458 0.685448
Si Si2 0.319622 0.647546 0.031161
Si Si3 0.459003 0.132717 0.639223
Si Si4 0.395195 0.365282 0.428825
Si Si5 0.679195 0.641705 0.118307
Si Si6 0.503896 0.639428 0.237195
Si Si7 0.705224 0.238102 0.539592
Si Si8 0.650841 0.354767 0.245385
O O1 0.137237 0.500000 0.655025
O O2 0.138306 0.250995 0.638875
O O3 0.215528 0.357292 0.798385
O O4 0.042421 0.358336 0.654855
O O5 0.292003 0.500000 0.007713
O O6 0.402333 0.652395 0.143887
O O7 0.250000 0.750000 0.000000
O O8 0.347684 0.685903 0.976181
O O9 0.463049 0.251996 0.689623
O O10 0.370383 0.137976 0.529030
O O11 0.463729 0.000000 0.679242
O O12 0.500000 0.359893 0.500000
O O13 0.368623 0.500000 0.382193
O O14 0.352699 0.347800 0.470869
O O15 0.648353 0.500000 0.097266
O O16 0.652005 0.697893 0.169870
O O17 0.520507 0.500000 0.276569
O O18 0.557206 0.651010 0.208265
O O19 0.750000 0.250000 0.500000
O O20 0.780837 0.205880 0.650638
O O21 0.674661 0.500000 0.259172
#
# Coordination Sequence:
#
# PCOD9199079 Si02
#       8
#     8   8   8   8   8   8   8   8
#     4  10  20  36  59  85 115 153 202 254 303 357
#     4  10  21  39  65  93 121 152 195 247 307 369
#     4  11  23  37  59  90 121 163 210 259 307 359
#     4  11  24  40  59  86 121 162 208 260 312 364
#     4   9  18  34  60  89 116 148 192 250 301 352
#     4  10  22  39  59  88 123 161 199 247 308 373
#     4  12  23  39  59  87 125 169 214 256 311 369
#     4  10  20  36  59  87 120 158 202 251 302 360
#
# _framework density 19.458783
#
# number of rings (size 3 to 8) (size 9 to 14) (size 15 to 20)
#    0.000    1.625    3.750    1.125    0.000    4.750 
#    0.000    3.125    0.000    0.000    0.000    1.750 
#    0.000    0.000    0.000    0.000    0.000    0.000 
#
# Total GULP energy -178255.658967 kJ/mol
# GULP energy per Si atom -5570.489343 kJ/mol
# Density = 1.941449 g / cm^3
# Si number density = 19.458783 Si / 1000 Ang^3
#
#
#
# Elastic Constant Matrix: (Units=GPa)
#
#
# Indices 1 2 3 4 5 6 
#
# 1 76.8375 22.2030 -2.7882 0.0000 2.8995 0.0000
# 2 22.2030 110.5789 34.0498 0.0000 -6.3320 0.0000
# 3 -2.7882 34.0498 45.7019 0.0000 -11.0925 0.0000
# 4 0.0000 0.0000 0.0000 19.7958 0.0000 -6.3271
# 5 2.8995 -6.3320 -11.0925 0.0000 32.0016 0.0000
# 6 0.0000 0.0000 0.0000 -6.3271 0.0000 13.0255
#
#
#
# Elastic Compliance Matrix: (Units=1/GPa)
#
#
# Indices 1 2 3 4 5 6 
#
# 1 0.014357 -0.004072 0.003711 0.000000 -0.000820 0.000000
# 2 -0.004072 0.012908 -0.009997 0.000000 -0.000542 0.000000
# 3 0.003711 -0.009997 0.031657 0.000000 0.008659 0.000000
# 4 0.000000 0.000000 0.000000 0.059800 0.000000 0.029048
# 5 -0.000820 -0.000542 0.008659 0.000000 0.034217 0.000000
# 6 0.000000 0.000000 0.000000 0.029048 0.000000 0.090883
#
#
# Mechanical properties :
#
#
# Convention : Reuss Voigt Hill
#
# Bulk Modulus (GPa) = 26.17458 37.78305 31.97882
# Shear Modulus (GPa) = 18.03267 24.94147 21.48707
#
# Velocity S-wave (km/s) = 3.04750 3.58405 3.32661
# Velocity P-wave (km/s) = 5.08561 6.04866 5.58792
#
# Compressibility (1/GPa) = 0.03820501
#
# Stress axis : x y z
#
# Youngs Moduli (GPa) = 69.65320 77.46917 31.58818
#
# Poissons Ratio (x) = 0.31548 -0.11722
# Poissons Ratio (y) = 0.28365 0.31580
# Poissons Ratio (z) = -0.25847 0.77449
#
# Static dielectric constant tensor:
#      x y z
#    x 1.731040 0.000000 -0.015980 
#    y 0.000000 1.706730 0.000000 
#    z -0.015980 0.000000 1.694450 
# 
# From -- ./inp_files/283305.got.cif
#   From: 2010.05.17/outbox.cif.g08.bks.cpg/sg12_142_cif.got.tgz:283305.got - 2010.06.03 13:09:07.
