data_PCOD9199372
_publ_section_title
;
Structure prediction by ZEFSAII (Michael W. Deem and Ramdas Pophale) SiO2 
 PCOD9199372
Probable space group: C 2/M
;
_chemical_formula_sum "Si O2"
_cell_formula_units_Z 64
_cell_length_a 28.510870
_cell_length_b 14.816279
_cell_length_c 20.080050
_cell_angle_alpha 90.000000
_cell_angle_beta 23.765816
_cell_angle_gamma 90.000000
_cell_volume 3418.367417
_symmetry_space_group_name_H-M "C 2/M"
_symmetry_group_IT_number 12
_symmetry_cell_setting 'monoclinic'
loop_
_space_group_symop_operation_xyz
x,y,z
-x,y,-z
-x,-y,-z
x,-y,z
1/2+x,1/2+y,z
1/2-x,1/2+y,-z
1/2-x,1/2-y,-z
1/2+x,1/2-y,z
loop_
_atom_site_type_symbol
_atom_site_label
_atom_site_fract_x
_atom_site_fract_y
_atom_site_fract_z
Si Si1 0.976258 0.900211 0.749455
Si Si2 0.146351 0.236368 0.465159
Si Si3 0.503960 0.607489 0.118424
Si Si4 0.666045 0.766380 0.672554
Si Si5 0.274527 0.828472 0.915355
Si Si6 0.499640 0.101088 0.692147
Si Si7 0.720004 0.264238 0.839189
Si Si8 0.044928 0.394475 0.094291
O O1 0.009506 0.883133 0.783514
O O2 0.038662 0.829192 0.620843
O O3 0.014173 0.000000 0.681571
O O4 0.836932 0.892907 0.930594
O O5 0.256327 0.205124 0.365629
O O6 0.182047 0.250898 0.343151
O O7 0.105683 0.331533 0.547128
O O8 0.499823 0.500000 0.107852
O O9 0.403678 0.673347 0.220864
O O10 0.627028 0.656138 0.941955
O O11 0.750000 0.750000 0.500000
O O12 0.572558 0.843683 0.776195
O O13 0.396122 0.873051 0.776578
O O14 0.269374 0.789921 0.847451
O O15 0.250000 0.750000 0.000000
O O16 0.452696 0.108524 0.828403
O O17 0.538206 0.000000 0.629930
O O18 0.648153 0.170703 0.936254
O O19 0.050553 0.500000 0.066895
#
# Coordination Sequence:
#
# PCOD9199372 Si02
#       8
#     8   8   8   8   8   8   8   8
#     4  10  20  36  60  86 112 149 196 238 277 338
#     4  12  23  38  56  88 125 150 188 243 298 338
#     4   9  19  37  60  82 110 154 202 235 274 339
#     4  11  20  36  59  86 118 155 193 238 288 340
#     4  11  19  40  65  82 109 152 197 230 285 347
#     4  11  22  38  63  90 115 151 198 246 290 346
#     4  10  23  39  59  86 121 153 187 243 291 343
#     4  10  21  39  61  88 117 156 203 238 280 346
#
# _framework density 18.722387000000001
#
# number of rings (size 3 to 8) (size 9 to 14) (size 15 to 20)
#    0.000    1.500    5.000    1.125    0.000    5.500 
#    0.000    1.875    0.000    0.750    0.000    0.000 
#    0.000    0.000    0.000    0.000    0.000    0.000 
#
# Total GULP energy -178589.870920 kJ/mol
# GULP energy per Si atom -5580.933466 kJ/mol
# Density = 1.867977 g / cm^3
# Si number density = 18.722387 Si / 1000 Ang^3
#
#
#
# Elastic Constant Matrix: (Units=GPa)
#
#
# Indices 1 2 3 4 5 6 
#
# 1 45.5456 0.3394 7.3054 0.0000 -4.5468 0.0000
# 2 0.3394 115.1354 20.9609 0.0000 7.9919 0.0000
# 3 7.3054 20.9609 38.2572 0.0000 9.3419 0.0000
# 4 0.0000 0.0000 0.0000 -0.1810 0.0000 -1.0106
# 5 -4.5468 7.9919 9.3419 0.0000 31.8430 0.0000
# 6 0.0000 0.0000 0.0000 -1.0106 0.0000 17.2085
#
#
#
# Elastic Compliance Matrix: (Units=1/GPa)
#
#
# Indices 1 2 3 4 5 6 
#
# 1 0.023416 0.000690 -0.006058 0.000000 0.004948 0.000000
# 2 0.000690 0.009694 -0.005249 0.000000 -0.000794 0.000000
# 3 -0.006058 -0.005249 0.032381 0.000001 -0.009047 0.000000
# 4 0.000000 0.000000 0.000001 -4.160003 -0.000001 -0.244296
# 5 0.004948 -0.000794 -0.009047 -0.000001 0.034964 0.000000
# 6 0.000000 0.000000 0.000000 -0.244296 0.000000 0.043764
#
#
# Mechanical properties :
#
#
# Convention : Reuss Voigt Hill
#
# Bulk Modulus (GPa) = 22.59470 28.46106 25.52788
# Shear Modulus (GPa) = -1.25635 21.12960 9.93663
#
# Velocity S-wave (km/s) = -0.82006 3.36307 2.30627
# Velocity P-wave (km/s) = 3.34631 5.50590 4.55592
#
# Compressibility (1/GPa) = 0.04425816
#
# Stress axis : x y z
#
# Youngs Moduli (GPa) = 42.70501 103.15463 30.88240
#
# Poissons Ratio (x) = -0.07122 0.18708
# Poissons Ratio (y) = -0.02948 0.16211
# Poissons Ratio (z) = 0.25870 0.54148
#
# Static dielectric constant tensor:
#      x y z
#    x 1.662010 0.000000 -0.012070 
#    y 0.000000 1.657590 0.000000 
#    z -0.012070 0.000000 1.639820 
# 
# From -- ./inp_files/183748.got.cif
#   From: 2010.05.17/outbox.cif.g08.bks.cpg/sg12_92_cif.got.tgz:183748.got - 2010.06.03 13:09:07.
