data_PCOD9199385
_publ_section_title
;
Structure prediction by ZEFSAII (Michael W. Deem and Ramdas Pophale) SiO2 
 PCOD9199385
Probable space group: C 2/M
;
_chemical_formula_sum "Si O2"
_cell_formula_units_Z 64
_cell_length_a 29.225365
_cell_length_b 8.951661
_cell_length_c 14.583727
_cell_angle_alpha 90.000000
_cell_angle_beta 106.932253
_cell_angle_gamma 90.000000
_cell_volume 3649.934555
_symmetry_space_group_name_H-M "C 2/M"
_symmetry_group_IT_number 12
_symmetry_cell_setting 'monoclinic'
loop_
_space_group_symop_operation_xyz
x,y,z
-x,y,-z
-x,-y,-z
x,-y,z
1/2+x,1/2+y,z
1/2-x,1/2+y,-z
1/2-x,1/2-y,-z
1/2+x,1/2-y,z
loop_
_atom_site_type_symbol
_atom_site_label
_atom_site_fract_x
_atom_site_fract_y
_atom_site_fract_z
Si Si1 0.498784 0.679767 0.392391
Si Si2 0.690103 0.819227 0.878792
Si Si3 0.401963 0.321029 0.644884
Si Si4 0.598379 0.825450 0.706473
Si Si5 0.798430 0.179109 0.914902
Si Si6 0.752806 0.823793 0.401822
Si Si7 0.655231 0.823544 0.231758
Si Si8 0.846851 0.673470 0.448231
O O1 0.500000 0.731399 0.500000
O O2 0.498107 0.500000 0.394357
O O3 0.546222 0.725264 0.364415
O O4 0.450931 0.737491 0.315883
O O5 0.643593 0.773631 0.793414
O O6 0.742122 0.781116 0.865986
O O7 0.689177 0.000000 0.886487
O O8 0.689242 0.745014 0.978251
O O9 0.400075 0.500000 0.649891
O O10 0.386726 0.249830 0.732526
O O11 0.364675 0.264260 0.546327
O O12 0.615049 0.815493 0.610599
O O13 0.590238 0.000000 0.722937
O O14 0.832610 0.247684 0.857716
O O15 0.802157 0.000000 0.917198
O O16 0.750000 0.750000 0.500000
O O17 0.703713 0.802703 0.319383
O O18 0.797511 0.740833 0.382472
O O19 0.762145 0.000000 0.414856
O O20 0.646969 0.000000 0.215942
O O21 0.840206 0.500000 0.469736
#
# Coordination Sequence:
#
# PCOD9199385 Si02
#       8
#     8   8   8   8   8   8   8   8
#     4  10  21  37  55  79 110 145 188 236 283 331
#     4   9  19  37  58  85 117 146 182 228 275 329
#     4  11  22  36  54  75 106 147 187 228 275 326
#     4  10  21  35  56  82 110 146 184 229 280 331
#     4  10  20  36  60  86 114 148 184 225 274 331
#     4  11  22  33  48  72 105 144 183 221 265 319
#     4  11  23  37  54  78 109 147 187 228 275 331
#     4  11  21  33  50  76 109 144 184 224 268 325
#
# _framework density 17.534562000000001
#
# number of rings (size 3 to 8) (size 9 to 14) (size 15 to 20)
#    0.000    1.625    2.500    2.625    0.000    5.250 
#    0.000    0.000    0.000    0.750    0.000    5.250 
#    0.000    0.000    0.000    0.000    0.000    0.000 
#
# Total GULP energy -178650.745604 kJ/mol
# GULP energy per Si atom -5582.835800 kJ/mol
# Density = 1.749465 g / cm^3
# Si number density = 17.534562 Si / 1000 Ang^3
#
#
#
# Elastic Constant Matrix: (Units=GPa)
#
#
# Indices 1 2 3 4 5 6 
#
# 1 132.8510 43.9644 44.5802 0.0000 -10.3621 0.0000
# 2 43.9644 34.2095 19.1726 0.0000 -9.4267 0.0000
# 3 44.5802 19.1726 76.6198 0.0000 -8.3640 0.0000
# 4 0.0000 0.0000 0.0000 25.0393 0.0000 1.2610
# 5 -10.3621 -9.4267 -8.3640 0.0000 28.5169 0.0000
# 6 0.0000 0.0000 0.0000 1.2610 0.0000 28.9346
#
#
#
# Elastic Compliance Matrix: (Units=1/GPa)
#
#
# Indices 1 2 3 4 5 6 
#
# 1 0.014279 -0.016299 -0.004392 0.000000 -0.001488 0.000000
# 2 -0.016299 0.055017 -0.003042 0.000000 0.011372 0.000000
# 3 -0.004392 -0.003042 0.016616 0.000000 0.002272 0.000000
# 4 0.000000 0.000000 0.000000 0.040025 0.000000 -0.001744
# 5 -0.001488 0.011372 0.002272 0.000000 0.038952 0.000000
# 6 0.000000 0.000000 0.000000 -0.001744 0.000000 0.034637
#
#
# Mechanical properties :
#
#
# Convention : Reuss Voigt Hill
#
# Bulk Modulus (GPa) = 26.01063 51.01277 38.51170
# Shear Modulus (GPa) = 19.24509 25.56237 22.40373
#
# Velocity S-wave (km/s) = 3.31653 3.82229 3.57836
# Velocity P-wave (km/s) = 5.43433 6.97393 6.25171
#
# Compressibility (1/GPa) = 0.03844583
#
# Stress axis : x y z
#
# Youngs Moduli (GPa) = 70.03409 18.17621 60.18281
#
# Poissons Ratio (x) = 0.29625 0.26431
# Poissons Ratio (y) = 1.14148 0.18309
# Poissons Ratio (z) = 0.30758 0.05530
#
# Static dielectric constant tensor:
#      x y z
#    x 1.677600 0.000000 -0.010900 
#    y 0.000000 1.592170 0.000000 
#    z -0.010900 0.000000 1.580350 
# 
# From -- ./inp_files/244133.got.cif
#   From: 2010.05.17/outbox.cif.g08.bks.cpg/sg12_123_cif.got.tgz:244133.got - 2010.06.03 13:09:07.
