data_PCOD9199930
_publ_section_title
;
Structure prediction by ZEFSAII (Michael W. Deem and Ramdas Pophale) SiO2 
 PCOD9199930
Probable space group: C 2/M
;
_chemical_formula_sum "Si O2"
_cell_formula_units_Z 64
_cell_length_a 8.074685
_cell_length_b 18.963324
_cell_length_c 21.853339
_cell_angle_alpha 90.000000
_cell_angle_beta 85.706101
_cell_angle_gamma 90.000000
_cell_volume 3336.853402
_symmetry_space_group_name_H-M "C 2/M"
_symmetry_group_IT_number 12
_symmetry_cell_setting 'monoclinic'
loop_
_space_group_symop_operation_xyz
x,y,z
-x,y,-z
-x,-y,-z
x,-y,z
1/2+x,1/2+y,z
1/2-x,1/2+y,-z
1/2-x,1/2-y,-z
1/2+x,1/2-y,z
loop_
_atom_site_type_symbol
_atom_site_label
_atom_site_fract_x
_atom_site_fract_y
_atom_site_fract_z
Si Si1 0.548200 0.415325 0.726122
Si Si2 0.275712 0.914945 0.190051
Si Si3 0.127599 0.847767 0.595719
Si Si4 0.336414 0.915115 0.812015
Si Si5 0.785787 0.216357 0.565796
Si Si6 0.688357 0.830950 0.067316
Si Si7 0.185346 0.578167 0.520063
Si Si8 0.290081 0.169620 0.069132
O O1 0.547865 0.500000 0.726181
O O2 0.370316 0.392831 0.759294
O O3 0.573922 0.389010 0.656897
O O4 0.706463 0.392951 0.763118
O O5 0.467429 0.895480 0.202313
O O6 0.233432 0.880140 0.125724
O O7 0.272244 0.000000 0.185050
O O8 0.246940 0.782388 0.609830
O O9 0.202882 0.897790 0.540897
O O10 0.971173 0.807881 0.571320
O O11 0.273589 0.881572 0.877306
O O12 0.332419 0.000000 0.816172
O O13 0.750000 0.250000 0.500000
O O14 0.690066 0.141765 0.568793
O O15 0.489607 0.833232 0.065746
O O16 0.737801 0.750574 0.080195
O O17 0.762723 0.850140 0.998663
O O18 0.234723 0.500000 0.540902
O O19 0.000000 0.574827 0.500000
#
# Coordination Sequence:
#
# PCOD9199930 Si02
#       8
#     8   8   8   8   8   8   8   8
#     4  10  22  41  61  84 118 157 199 242 287 347
#     4   9  19  38  59  82 112 152 196 244 299 346
#     4  11  22  40  60  87 122 154 191 236 283 343
#     4   9  19  38  60  80 113 153 193 247 297 347
#     4  10  20  38  62  85 118 149 182 235 285 335
#     4   9  18  32  52  81 111 149 192 242 308 351
#     4  10  20  36  62  91 117 151 187 227 285 340
#     4   9  18  32  52  80 114 146 191 250 297 356
#
# _framework density 19.179746000000002
#
# number of rings (size 3 to 8) (size 9 to 14) (size 15 to 20)
#    0.000    2.375    0.000    3.375    1.750    2.000 
#    6.750    2.500    0.000    2.250    0.000    0.000 
#    0.000    0.000    0.000    0.000    0.000    0.000 
#
# Total GULP energy -178290.995286 kJ/mol
# GULP energy per Si atom -5571.593603 kJ/mol
# Density = 1.913609 g / cm^3
# Si number density = 19.179746 Si / 1000 Ang^3
#
#
#
# Elastic Constant Matrix: (Units=GPa)
#
#
# Indices 1 2 3 4 5 6 
#
# 1 67.4394 6.1222 25.0167 0.0000 0.3984 0.0000
# 2 6.1222 37.6007 -3.5100 0.0000 -3.4042 0.0000
# 3 25.0167 -3.5100 61.4907 0.0000 -4.0150 0.0000
# 4 0.0000 0.0000 0.0000 -7.1967 0.0000 29.9349
# 5 0.3984 -3.4042 -4.0150 0.0000 23.6148 0.0000
# 6 0.0000 0.0000 0.0000 29.9349 0.0000 9.7276
#
#
#
# Elastic Compliance Matrix: (Units=1/GPa)
#
#
# Indices 1 2 3 4 5 6 
#
# 1 0.018049 -0.003854 -0.007705 0.000000 -0.002170 0.000000
# 2 -0.003854 0.027971 0.003471 0.000000 0.004687 0.000000
# 3 -0.007705 0.003471 0.019857 0.000000 0.004006 0.000000
# 4 0.000000 0.000000 0.000000 -0.010069 0.000000 0.030985
# 5 -0.002170 0.004687 0.004006 0.000000 0.043740 0.000000
# 6 0.000000 0.000000 0.000000 0.030985 0.000000 0.007449
#
#
# Mechanical properties :
#
#
# Convention : Reuss Voigt Hill
#
# Bulk Modulus (GPa) = 20.12053 24.64317 22.38185
# Shear Modulus (GPa) = 35.78061 14.48928 25.13495
#
# Velocity S-wave (km/s) = 4.32388 2.75152 3.62400
# Velocity P-wave (km/s) = 5.95325 4.79280 5.40426
#
# Compressibility (1/GPa) = 0.04970047
#
# Stress axis : x y z
#
# Youngs Moduli (GPa) = 55.40501 35.75104 50.36030
#
# Poissons Ratio (x) = 0.13780 0.38801
# Poissons Ratio (y) = 0.21356 -0.17479
# Poissons Ratio (z) = 0.42688 -0.12409
#
# Static dielectric constant tensor:
#      x y z
#    x 1.759410 0.000000 -0.033270 
#    y 0.000000 1.719260 0.000000 
#    z -0.033270 0.000000 1.681250 
# 
# From -- ./inp_files/300824.got.cif
#   From: 2010.05.17/outbox.cif.g08.bks.cpg/sg12_151_cif.got.tgz:300824.got - 2010.06.03 13:09:07.
