data_PCOD9199954
_publ_section_title
;
Structure prediction by ZEFSAII (Michael W. Deem and Ramdas Pophale) SiO2 
 PCOD9199954
Probable space group: C 2/M
;
_chemical_formula_sum "Si O2"
_cell_formula_units_Z 44
_cell_length_a 24.105118
_cell_length_b 8.047745
_cell_length_c 29.338854
_cell_angle_alpha 90.000000
_cell_angle_beta 158.271412
_cell_angle_gamma 90.000000
_cell_volume 2107.051349
_symmetry_space_group_name_H-M "C 2/M"
_symmetry_group_IT_number 12
_symmetry_cell_setting 'monoclinic'
loop_
_space_group_symop_operation_xyz
x,y,z
-x,y,-z
-x,-y,-z
x,-y,z
1/2+x,1/2+y,z
1/2-x,1/2+y,-z
1/2-x,1/2-y,-z
1/2+x,1/2-y,z
loop_
_atom_site_type_symbol
_atom_site_label
_atom_site_fract_x
_atom_site_fract_y
_atom_site_fract_z
Si Si1 0.244685 0.198482 0.410490
Si Si2 0.572740 0.694498 0.688473
Si Si3 0.629150 0.298664 0.133905
Si Si4 0.042937 0.686819 0.765691
Si Si5 0.952160 0.201143 0.826293
Si Si6 0.250000 0.250000 0.000000
O O1 0.414457 0.254022 0.546030
O O2 0.175565 0.241813 0.308312
O O3 0.133386 0.284310 0.361914
O O4 0.235895 0.000000 0.409954
O O5 0.569412 0.500000 0.696122
O O6 0.711215 0.736104 0.761762
O O7 0.588183 0.788218 0.748453
O O8 0.633392 0.500000 0.137062
O O9 0.590493 0.243798 0.155586
O O10 0.500000 0.246093 0.000000
O O11 0.087815 0.500000 0.815496
O O12 0.128524 0.799372 0.867151
O O13 0.968469 0.000000 0.839564
O O14 0.110269 0.268728 0.929587
#
# Coordination Sequence:
#
# PCOD9199954 Si02
#       6
#     8   8   8   8   8   4
#     4  10  21  39  61  87 120 158 203 251 300 355
#     4  12  25  40  59  86 121 159 201 249 303 356
#     4  10  21  40  64  88 117 155 198 242 295 362
#     4  11  22  38  62  91 123 159 200 245 297 355
#     4   9  19  36  59  87 117 153 196 239 289 354
#     4  10  20  36  62  92 120 150 188 238 292 350
#
# _framework density 20.882262999999998
#
# number of rings (size 3 to 8) (size 9 to 14) (size 15 to 20)
#    0.000    1.636    0.000    4.909    0.000    4.727 
#    0.000    9.091    0.000    0.000    0.000    0.000 
#    0.000    0.000    0.000    0.000    0.000    0.000 
#
# Total GULP energy -122495.816392 kJ/mol
# GULP energy per Si atom -5567.991654 kJ/mol
# Density = 2.083473 g / cm^3
# Si number density = 20.882263 Si / 1000 Ang^3
#
#
#
# Elastic Constant Matrix: (Units=GPa)
#
#
# Indices 1 2 3 4 5 6 
#
# 1 167.1016 6.2002 52.4410 0.0000 19.0392 -0.0011
# 2 6.2002 35.7721 -11.6114 -0.0038 0.8683 0.0001
# 3 52.4410 -11.6114 120.2070 -0.0104 24.0199 -0.0017
# 4 0.0000 -0.0038 -0.0104 -6.9981 -0.0012 16.7280
# 5 19.0392 0.8683 24.0199 -0.0012 30.8597 0.0017
# 6 -0.0011 0.0001 -0.0017 16.7280 0.0017 1.1589
#
#
#
# Elastic Compliance Matrix: (Units=1/GPa)
#
#
# Indices 1 2 3 4 5 6 
#
# 1 0.007227 -0.002156 -0.002939 0.000001 -0.002110 -0.000002
# 2 -0.002156 0.029831 0.004410 0.000000 -0.002942 0.000009
# 3 -0.002939 0.004410 0.011474 0.000001 -0.007242 0.000008
# 4 0.000001 0.000000 0.000001 -0.004025 -0.000005 0.058096
# 5 -0.002110 -0.002942 -0.007242 -0.000005 0.039426 -0.000004
# 6 -0.000002 0.000009 0.000008 0.058096 -0.000004 0.024304
#
#
# Mechanical properties :
#
#
# Convention : Reuss Voigt Hill
#
# Bulk Modulus (GPa) = 21.20340 46.34892 33.77616
# Shear Modulus (GPa) = 39.89473 23.40749 31.65111
#
# Velocity S-wave (km/s) = 4.37562 3.35166 3.89741
# Velocity P-wave (km/s) = 5.97528 6.10096 6.03844
#
# Compressibility (1/GPa) = 0.04716226
#
# Stress axis : x y z
#
# Youngs Moduli (GPa) = 138.36417 33.52196 87.15084
#
# Poissons Ratio (x) = 0.07226 0.25618
# Poissons Ratio (y) = 0.29826 -0.38432
# Poissons Ratio (z) = 0.40672 -0.14782
#
# Static dielectric constant tensor:
#      x y z
#    x 1.715450 0.000000 -0.033840 
#    y 0.000000 1.836640 0.000000 
#    z -0.033840 0.000000 1.706380 
# 
# From -- ./inp_files/382573.got.cif
#   From: 2010.05.17/outbox.cif.g08.bks.cpg/sg12_192_cif.got.tgz:382573.got - 2010.06.03 13:09:07.
