data_PCOD9199767
_publ_section_title
;
Structure prediction by ZEFSAII (Michael W. Deem and Ramdas Pophale) SiO2 
 PCOD9199767
Probable space group: C 2/M
;
_chemical_formula_sum "Si O2"
_cell_formula_units_Z 50
_cell_length_a 22.800256
_cell_length_b 16.841179
_cell_length_c 11.206107
_cell_angle_alpha 90.000000
_cell_angle_beta 36.243682
_cell_angle_gamma 90.000000
_cell_volume 2543.997175
_symmetry_space_group_name_H-M "C 2/M"
_symmetry_group_IT_number 12
_symmetry_cell_setting 'monoclinic'
loop_
_space_group_symop_operation_xyz
x,y,z
-x,y,-z
-x,-y,-z
x,-y,z
1/2+x,1/2+y,z
1/2-x,1/2+y,-z
1/2-x,1/2-y,-z
1/2+x,1/2-y,z
loop_
_atom_site_type_symbol
_atom_site_label
_atom_site_fract_x
_atom_site_fract_y
_atom_site_fract_z
Si Si1 0.368673 0.590052 0.924059
Si Si2 0.083990 0.908539 0.491558
Si Si3 0.385497 0.868385 0.065854
Si Si4 0.895025 0.813354 0.118969
Si Si5 0.201713 0.087943 0.533607
Si Si6 0.250983 0.165393 0.066424
Si Si7 0.000000 0.500000 0.000000
O O1 0.376137 0.500000 0.953446
O O2 0.466702 0.605573 0.682098
O O3 0.272874 0.603700 0.999759
O O4 0.372036 0.648214 0.029578
O O5 0.112990 0.906856 0.583704
O O6 0.156629 0.845978 0.310011
O O7 0.105326 0.000000 0.416029
O O8 0.401755 0.780316 0.088890
O O9 0.299087 0.905249 0.292012
O O10 0.343327 0.856228 0.000448
O O11 0.474444 0.929268 0.942126
O O12 0.812029 0.843608 0.347492
O O13 0.000000 0.842044 0.000000
O O14 0.200605 0.000000 0.591659
O O15 0.250000 0.250000 0.000000
#
# Coordination Sequence:
#
# PCOD9199767 Si02
#       7
#     8   8   8   8   8   8   2
#     4  11  22  37  60  91 126 165 196 243 322 391
#     4   9  19  35  59  89 120 158 200 246 307 374
#     4  11  24  42  62  90 119 164 220 265 303 366
#     4  12  22  37  60  93 131 160 198 255 324 383
#     4  10  20  36  61  90 124 161 204 256 313 376
#     4  11  22  38  59  88 125 157 206 262 311 365
#     4  12  24  44  72  88 116 176 226 268 302 350
#
# _framework density 19.654109999999999
#
# number of rings (size 3 to 8) (size 9 to 14) (size 15 to 20)
#    0.000    1.280    4.800    1.920    2.240    1.920 
#    0.000    0.000    0.000    0.000    0.000    1.120 
#    0.000    0.000    0.000    0.000    0.000    0.000 
#
# Total GULP energy -139174.877746 kJ/mol
# GULP energy per Si atom -5566.995110 kJ/mol
# Density = 1.960938 g / cm^3
# Si number density = 19.654110 Si / 1000 Ang^3
#
#
#
# Elastic Constant Matrix: (Units=GPa)
#
#
# Indices 1 2 3 4 5 6 
#
# 1 110.0303 36.9629 5.0289 0.0000 11.8922 0.0000
# 2 36.9629 132.2076 21.7434 0.0000 23.4116 0.0000
# 3 5.0289 21.7434 30.7273 0.0000 16.1441 0.0000
# 4 0.0000 0.0000 0.0000 53.4798 0.0000 51.4715
# 5 11.8922 23.4116 16.1441 0.0000 19.8244 0.0000
# 6 0.0000 0.0000 0.0000 51.4715 0.0000 90.7406
#
#
#
# Elastic Compliance Matrix: (Units=1/GPa)
#
#
# Indices 1 2 3 4 5 6 
#
# 1 0.010384 -0.002356 0.003109 0.000000 -0.005979 0.000000
# 2 -0.002356 0.010136 -0.002168 0.000000 -0.008791 0.000000
# 3 0.003109 -0.002168 0.058036 0.000000 -0.046566 0.000000
# 4 0.000000 0.000000 0.000000 0.041181 0.000000 -0.023359
# 5 -0.005979 -0.008791 -0.046566 0.000000 0.102333 0.000000
# 6 0.000000 0.000000 0.000000 -0.023359 0.000000 0.024271
#
#
# Mechanical properties :
#
#
# Convention : Reuss Voigt Hill
#
# Bulk Modulus (GPa) = 13.20556 44.49284 28.84920
# Shear Modulus (GPa) = 18.22082 46.75764 32.48923
#
# Velocity S-wave (km/s) = 3.04809 4.88282 4.07018
# Velocity P-wave (km/s) = 4.37280 7.38081 6.06620
#
# Compressibility (1/GPa) = 0.07572569
#
# Stress axis : x y z
#
# Youngs Moduli (GPa) = 96.30318 98.66035 17.23081
#
# Poissons Ratio (x) = 0.23241 -0.05357
# Poissons Ratio (y) = 0.22686 0.03735
# Poissons Ratio (z) = -0.29938 0.21388
#
# Static dielectric constant tensor:
#      x y z
#    x 1.774740 0.000000 -0.024530 
#    y 0.000000 1.697320 0.000000 
#    z -0.024530 0.000000 1.712410 
# 
# From -- ./inp_files/176401.got.cif
#   From: 2010.05.17/outbox.cif.g08.bks.cpg/sg12_89_cif.got.tgz:176401.got - 2010.06.03 13:09:07.
