data_PCOD9199700
_publ_section_title
;
Structure prediction by ZEFSAII (Michael W. Deem and Ramdas Pophale) SiO2 
 PCOD9199700
Probable space group: C 2/M
;
_chemical_formula_sum "Si O2"
_cell_formula_units_Z 48
_cell_length_a 16.661442
_cell_length_b 12.744933
_cell_length_c 8.609280
_cell_angle_alpha 90.000000
_cell_angle_beta 87.066530
_cell_angle_gamma 90.000000
_cell_volume 1825.776094
_symmetry_space_group_name_H-M "C 2/M"
_symmetry_group_IT_number 12
_symmetry_cell_setting 'monoclinic'
loop_
_space_group_symop_operation_xyz
x,y,z
-x,y,-z
-x,-y,-z
x,-y,z
1/2+x,1/2+y,z
1/2-x,1/2+y,-z
1/2-x,1/2-y,-z
1/2+x,1/2-y,z
loop_
_atom_site_type_symbol
_atom_site_label
_atom_site_fract_x
_atom_site_fract_y
_atom_site_fract_z
Si Si1 0.094084 0.837716 0.135366
Si Si2 0.806489 0.845148 0.170781
Si Si3 0.119506 0.610227 0.182216
Si Si4 0.246768 0.619424 0.738821
Si Si5 0.450418 0.342921 0.352712
Si Si6 0.103808 0.615861 0.549212
O O1 0.086512 0.713819 0.107492
O O2 0.158590 0.856234 0.268742
O O3 0.008242 0.872958 0.203373
O O4 0.141789 0.879406 0.982977
O O5 0.716555 0.886507 0.173584
O O6 0.792795 0.717781 0.166925
O O7 0.860262 0.875531 0.314757
O O8 0.092102 0.500000 0.117558
O O9 0.096504 0.617148 0.365792
O O10 0.235286 0.500000 0.799129
O O11 0.198326 0.623931 0.582946
O O12 0.500000 0.377512 0.500000
O O13 0.438873 0.216646 0.373244
O O14 0.077390 0.500000 0.608662
#
# Coordination Sequence:
#
# PCOD9199700 Si02
#       6
#     8   8   8   8   8   8
#     4  11  22  36  57  88 115 149 188 231 281 341
#     4  10  23  37  57  85 116 147 191 232 281 335
#     4  10  20  36  61  88 114 144 188 238 283 333
#     4   9  19  36  60  84 112 146 190 236 281 328
#     4  11  22  37  57  79 114 157 186 225 283 332
#     4   9  19  35  57  88 114 143 188 237 283 336
#
# _framework density 26.290192000000001
#
# number of rings (size 3 to 8) (size 9 to 14) (size 15 to 20)
#    0.000    2.000    1.667    2.500    2.333    5.667 
#    0.000    0.833    0.000    8.000    0.000    0.000 
#    0.000    0.000    0.000    0.000    0.000    0.000 
#
# Total GULP energy -134147.016553 kJ/mol
# GULP energy per Si atom -5589.459023 kJ/mol
# Density = 2.623035 g / cm^3
# Si number density = 26.290192 Si / 1000 Ang^3
#
#
#
# Elastic Constant Matrix: (Units=GPa)
#
#
# Indices 1 2 3 4 5 6 
#
# 1 131.9225 -4.5937 9.9667 0.0000 7.5225 0.0000
# 2 -4.5937 170.2448 3.0179 0.0000 -8.4283 0.0000
# 3 9.9667 3.0179 21.1140 0.0000 -6.1416 0.0000
# 4 0.0000 0.0000 0.0000 -0.0757 0.0000 7.3594
# 5 7.5225 -8.4283 -6.1416 0.0000 46.9618 0.0000
# 6 0.0000 0.0000 0.0000 7.3594 0.0000 -0.1817
#
#
#
# Elastic Compliance Matrix: (Units=1/GPa)
#
#
# Indices 1 2 3 4 5 6 
#
# 1 0.008019 0.000203 -0.004343 0.000000 -0.001816 0.000000
# 2 0.000203 0.005938 -0.000670 0.000000 0.000946 0.000000
# 3 -0.004343 -0.000670 0.051639 0.000000 0.007329 0.000000
# 4 0.000000 0.000000 0.000000 0.003355 0.000000 0.135915
# 5 -0.001816 0.000946 0.007329 0.000000 0.022713 0.000000
# 6 0.000000 0.000000 0.000000 0.135915 0.000000 0.001398
#
#
# Mechanical properties :
#
#
# Convention : Reuss Voigt Hill
#
# Bulk Modulus (GPa) = 17.86400 37.78478 27.82439
# Shear Modulus (GPa) = 41.20675 30.33358 35.77017
#
# Velocity S-wave (km/s) = 3.96331 3.40045 3.69262
# Velocity P-wave (km/s) = 5.26816 5.46084 5.36536
#
# Compressibility (1/GPa) = 0.05597849
#
# Stress axis : x y z
#
# Youngs Moduli (GPa) = 124.70506 168.40493 19.36513
#
# Poissons Ratio (x) = -0.03426 0.08409
# Poissons Ratio (y) = -0.02537 0.01297
# Poissons Ratio (z) = 0.54154 0.11279
#
# Static dielectric constant tensor:
#      x y z
#    x 2.033100 0.000000 0.043360 
#    y 0.000000 2.091830 0.000000 
#    z 0.043360 0.000000 2.071440 
# 
# From -- ./inp_files/73611.got.cif
#   From: 2010.05.17/outbox.cif.g08.bks.cpg/sg12_37_cif.got.tgz:73611.got - 2010.06.03 13:09:07.
