data_PCOD9199583
_publ_section_title
;
Structure prediction by ZEFSAII (Michael W. Deem and Ramdas Pophale) SiO2 
 PCOD9199583
Probable space group: C 2/M
;
_chemical_formula_sum "Si O2"
_cell_formula_units_Z 50
_cell_length_a 10.037274
_cell_length_b 13.920515
_cell_length_c 14.682382
_cell_angle_alpha 90.000000
_cell_angle_beta 64.231203
_cell_angle_gamma 90.000000
_cell_volume 1847.473267
_symmetry_space_group_name_H-M "C 2/M"
_symmetry_group_IT_number 12
_symmetry_cell_setting 'monoclinic'
loop_
_space_group_symop_operation_xyz
x,y,z
-x,y,-z
-x,-y,-z
x,-y,z
1/2+x,1/2+y,z
1/2-x,1/2+y,-z
1/2-x,1/2-y,-z
1/2+x,1/2-y,z
loop_
_atom_site_type_symbol
_atom_site_label
_atom_site_fract_x
_atom_site_fract_y
_atom_site_fract_z
Si Si1 0.270110 0.136481 0.256975
Si Si2 0.397998 0.829562 0.899336
Si Si3 0.888496 0.362497 0.404545
Si Si4 0.344888 0.394324 0.899641
Si Si5 0.637134 0.365866 0.611532
Si Si6 0.286263 0.141130 0.738233
Si Si7 0.000000 0.000000 0.500000
O O1 0.440012 0.133350 0.172244
O O2 0.283593 0.098193 0.354967
O O3 0.172000 0.099148 0.204164
O O4 0.220193 0.245956 0.280117
O O5 0.412846 0.712247 0.901444
O O6 0.290702 0.860522 0.846526
O O7 0.319472 0.874923 0.009579
O O8 0.803220 0.382017 0.522158
O O9 0.893803 0.247444 0.388350
O O10 0.054207 0.396466 0.340438
O O11 0.397338 0.500000 0.917647
O O12 0.654479 0.395193 0.712527
O O13 0.533868 0.418447 0.570436
#
# Coordination Sequence:
#
# PCOD9199583 Si02
#       7
#     8   8   8   8   8   8   2
#     4   9  18  33  57  89 123 154 201 256 314 362
#     4   9  19  36  59  88 125 162 208 263 313 377
#     4   9  19  37  66  89 112 165 213 243 295 390
#     4  10  20  36  60  90 121 162 211 260 312 370
#     4  10  22  38  60  87 125 159 201 254 310 364
#     4   9  18  37  63  85 114 165 210 245 304 371
#     4  12  28  40  54  96 132 152 200 274 322 352
#
# _framework density 27.063991999999999
#
# number of rings (size 3 to 8) (size 9 to 14) (size 15 to 20)
#    0.000    2.560    0.000    0.960    6.720    1.280 
#    2.880    1.600    0.000   12.480    0.000    0.000 
#    0.000    0.000    0.000    0.000    0.000    0.000 
#
# Total GULP energy -139475.745463 kJ/mol
# GULP energy per Si atom -5579.029819 kJ/mol
# Density = 2.700239 g / cm^3
# Si number density = 27.063992 Si / 1000 Ang^3
#
#
#
# Elastic Constant Matrix: (Units=GPa)
#
#
# Indices 1 2 3 4 5 6 
#
# 1 136.0711 10.0206 42.1535 0.0000 25.0783 0.0000
# 2 10.0206 184.1488 14.6718 0.0000 24.2729 0.0000
# 3 42.1535 14.6718 107.6917 0.0000 24.8112 0.0000
# 4 0.0000 0.0000 0.0000 -22.7236 0.0000 25.4818
# 5 25.0783 24.2729 24.8112 0.0000 54.0227 0.0000
# 6 0.0000 0.0000 0.0000 25.4818 0.0000 95.6992
#
#
#
# Elastic Compliance Matrix: (Units=1/GPa)
#
#
# Indices 1 2 3 4 5 6 
#
# 1 0.008722 0.000119 -0.002779 0.000000 -0.002826 0.000000
# 2 0.000119 0.005778 -0.000249 0.000000 -0.002537 0.000000
# 3 -0.002779 -0.000249 0.011278 0.000000 -0.003777 0.000000
# 4 0.000000 0.000000 0.000000 -0.033888 0.000000 0.009023
# 5 -0.002826 -0.002537 -0.003777 0.000000 0.022697 0.000000
# 6 0.000000 0.000000 0.000000 0.009023 0.000000 0.008047
#
#
# Mechanical properties :
#
#
# Convention : Reuss Voigt Hill
#
# Bulk Modulus (GPa) = 50.10119 62.40039 56.25079
# Shear Modulus (GPa) = 142.42632 49.47070 95.94851
#
# Velocity S-wave (km/s) = 7.26223 4.28005 5.96066
# Velocity P-wave (km/s) = 9.42721 6.89433 8.25845
#
# Compressibility (1/GPa) = 0.01995960
#
# Stress axis : x y z
#
# Youngs Moduli (GPa) = 114.65050 173.06488 88.66899
#
# Poissons Ratio (x) = -0.02065 0.24643
# Poissons Ratio (y) = -0.01368 0.02212
# Poissons Ratio (z) = 0.31864 0.04316
#
# Static dielectric constant tensor:
#      x y z
#    x 2.163910 0.000000 -0.018460 
#    y 0.000000 1.922970 0.000000 
#    z -0.018460 0.000000 2.069310 
# 
# From -- ./inp_files/204934.got.cif
#   From: 2010.05.17/outbox.cif.g08.bks.cpg/sg12_103_cif.got.tgz:204934.got - 2010.06.03 13:09:07.
