data_PCOD9199344
_publ_section_title
;
Structure prediction by ZEFSAII (Michael W. Deem and Ramdas Pophale) SiO2 
 PCOD9199344
Probable space group: C 2/M
;
_chemical_formula_sum "Si O2"
_cell_formula_units_Z 44
_cell_length_a 29.148059
_cell_length_b 9.787044
_cell_length_c 7.518282
_cell_angle_alpha 90.000000
_cell_angle_beta 70.723100
_cell_angle_gamma 90.000000
_cell_volume 2024.517247
_symmetry_space_group_name_H-M "C 2/M"
_symmetry_group_IT_number 12
_symmetry_cell_setting 'monoclinic'
loop_
_space_group_symop_operation_xyz
x,y,z
-x,y,-z
-x,-y,-z
x,-y,z
1/2+x,1/2+y,z
1/2-x,1/2+y,-z
1/2-x,1/2-y,-z
1/2+x,1/2-y,z
loop_
_atom_site_type_symbol
_atom_site_label
_atom_site_fract_x
_atom_site_fract_y
_atom_site_fract_z
Si Si1 0.400148 0.345615 0.842594
Si Si2 0.576556 0.654588 0.607001
Si Si3 0.205339 0.841462 0.111655
Si Si4 0.742286 0.000000 0.457128
Si Si5 0.512294 0.847157 0.190098
Si Si6 0.316857 0.724124 0.446011
O O1 0.407553 0.500000 0.903388
O O2 0.409415 0.352647 0.618472
O O3 0.343843 0.305492 0.929841
O O4 0.437780 0.235842 0.863019
O O5 0.563590 0.500000 0.681162
O O6 0.531260 0.756116 0.676039
O O7 0.625155 0.704094 0.647139
O O8 0.195272 0.823133 0.334674
O O9 0.216787 0.000000 0.065919
O O10 0.250000 0.750000 0.000000
O O11 0.701821 0.121891 0.546950
O O12 0.784311 0.120227 0.373970
O O13 0.515706 0.000000 0.263492
O O14 0.500000 0.859836 0.000000
#
# Coordination Sequence:
#
# PCOD9199344 Si02
#       6
#     8   8   8   4   8   8
#     4   9  20  41  64  85 112 153 198 240 286 346
#     4  10  20  39  65  86 114 151 197 241 291 342
#     4  10  21  39  59  86 121 156 196 240 287 340
#     4  10  20  36  60  84 122 154 196 232 296 338
#     4  11  25  42  56  86 122 150 187 243 300 349
#     4  10  20  39  57  88 118 155 194 245 280 350
#
# _framework density 21.733577
#
# number of rings (size 3 to 8) (size 9 to 14) (size 15 to 20)
#    0.000    2.000    1.818    2.182    2.545    5.091 
#    9.818    0.000    0.000    0.000    0.000    0.000 
#    0.000    0.000    0.000    0.000    0.000    0.000 
#
# Total GULP energy -122472.488081 kJ/mol
# GULP energy per Si atom -5566.931276 kJ/mol
# Density = 2.168411 g / cm^3
# Si number density = 21.733577 Si / 1000 Ang^3
#
#
#
# Elastic Constant Matrix: (Units=GPa)
#
#
# Indices 1 2 3 4 5 6 
#
# 1 155.0536 138.1906 21.7661 0.0000 -35.7732 0.0000
# 2 138.1906 227.6487 14.4168 0.0000 -29.8850 0.0000
# 3 21.7661 14.4168 39.3829 0.0000 -15.8379 0.0000
# 4 0.0000 0.0000 0.0000 11.2407 0.0000 4.7502
# 5 -35.7732 -29.8850 -15.8379 0.0000 35.9923 0.0000
# 6 0.0000 0.0000 0.0000 4.7502 0.0000 72.3313
#
#
#
# Elastic Compliance Matrix: (Units=1/GPa)
#
#
# Indices 1 2 3 4 5 6 
#
# 1 0.016504 -0.008810 -0.002723 0.000000 0.007890 0.000000
# 2 -0.008810 0.009635 0.001261 0.000000 -0.000202 0.000000
# 3 -0.002723 0.001261 0.031308 0.000000 0.012117 0.000000
# 4 0.000000 0.000000 0.000000 0.091502 0.000000 -0.006009
# 5 0.007890 -0.000202 0.012117 0.000000 0.040790 0.000000
# 6 0.000000 0.000000 0.000000 -0.006009 0.000000 0.014220
#
#
# Mechanical properties :
#
#
# Convention : Reuss Voigt Hill
#
# Bulk Modulus (GPa) = 27.09904 85.64801 56.37353
# Shear Modulus (GPa) = 21.11449 40.42697 30.77073
#
# Velocity S-wave (km/s) = 3.12029 4.31759 3.76681
# Velocity P-wave (km/s) = 5.04752 8.02179 6.70174
#
# Compressibility (1/GPa) = 0.03690167
#
# Stress axis : x y z
#
# Youngs Moduli (GPa) = 60.59051 103.79314 31.94058
#
# Poissons Ratio (x) = 0.91446 0.08699
# Poissons Ratio (y) = 0.53383 -0.04028
# Poissons Ratio (z) = 0.16501 -0.13090
#
# Static dielectric constant tensor:
#      x y z
#    x 1.806950 0.000000 0.035850 
#    y 0.000000 1.764220 0.000000 
#    z 0.035850 0.000000 1.889560 
# 
# From -- ./inp_files/107922.got.cif
#   From: 2010.05.17/outbox.cif.g08.bks.cpg/sg12_54_cif.got.tgz:107922.got - 2010.06.03 13:09:07.
