data_PCOD9199995
_publ_section_title
;
Structure prediction by ZEFSAII (Michael W. Deem and Ramdas Pophale) SiO2 
 PCOD9199995
Probable space group: C 2/M
;
_chemical_formula_sum "Si O2"
_cell_formula_units_Z 56
_cell_length_a 30.398398
_cell_length_b 13.370219
_cell_length_c 11.658107
_cell_angle_alpha 90.000000
_cell_angle_beta 36.653358
_cell_angle_gamma 90.000000
_cell_volume 2828.599137
_symmetry_space_group_name_H-M "C 2/M"
_symmetry_group_IT_number 12
_symmetry_cell_setting 'monoclinic'
loop_
_space_group_symop_operation_xyz
x,y,z
-x,y,-z
-x,-y,-z
x,-y,z
1/2+x,1/2+y,z
1/2-x,1/2+y,-z
1/2-x,1/2-y,-z
1/2+x,1/2-y,z
loop_
_atom_site_type_symbol
_atom_site_label
_atom_site_fract_x
_atom_site_fract_y
_atom_site_fract_z
Si Si1 0.573753 0.113530 0.704870
Si Si2 0.934234 0.247160 0.942291
Si Si3 0.829828 0.117527 0.601307
Si Si4 0.665006 0.881966 0.018431
Si Si5 0.834693 0.242212 0.358336
Si Si6 0.974145 0.826922 0.433280
Si Si7 0.587150 0.113652 0.421353
O O1 0.503242 0.187150 0.845599
O O2 0.630069 0.150757 0.682463
O O3 0.615145 0.117753 0.494178
O O4 0.549133 0.000000 0.773482
O O5 0.883911 0.317264 0.966200
O O6 0.968420 0.161489 0.789889
O O7 0.884679 0.205943 0.148582
O O8 0.842490 0.177193 0.457155
O O9 0.894654 0.139333 0.555966
O O10 0.829248 0.000000 0.577309
O O11 0.750282 0.144250 0.820009
O O12 0.640885 0.868597 0.201750
O O13 0.654616 0.000000 0.014810
O O14 0.750000 0.250000 0.500000
O O15 0.968701 0.706002 0.460169
O O16 0.000000 0.869904 0.500000
O O17 0.557015 0.000000 0.472584
#
# Coordination Sequence:
#
# PCOD9199995 Si02
#       7
#     8   8   8   8   8   8   8
#     4  10  22  38  62  95 128 155 191 254 319 376
#     4  11  21  36  63  94 124 153 204 249 311 379
#     4  11  25  45  63  85 125 172 217 259 303 356
#     4  10  20  36  62  95 125 164 202 245 314 381
#     4  12  24  41  61  88 123 166 211 251 302 369
#     4  11  22  40  63  96 121 165 206 256 314 367
#     4   9  18  34  60  95 130 155 188 246 319 385
#
# _framework density 19.797785000000001
#
# number of rings (size 3 to 8) (size 9 to 14) (size 15 to 20)
#    0.000    1.429    5.714    0.857    0.000    4.000 
#    2.571    1.429    0.000    0.000    0.000    0.000 
#    0.000    0.000    0.000    0.000    0.000    0.000 
#
# Total GULP energy -156225.062570 kJ/mol
# GULP energy per Si atom -5579.466520 kJ/mol
# Density = 1.975272 g / cm^3
# Si number density = 19.797785 Si / 1000 Ang^3
#
#
#
# Elastic Constant Matrix: (Units=GPa)
#
#
# Indices 1 2 3 4 5 6 
#
# 1 114.6873 6.0487 54.8675 0.0000 -14.7209 0.0000
# 2 6.0487 24.5210 13.3819 0.0000 0.7220 0.0000
# 3 54.8675 13.3819 130.1074 0.0000 2.9365 0.0000
# 4 0.0000 0.0000 0.0000 18.4016 0.0000 6.2143
# 5 -14.7209 0.7220 2.9365 0.0000 35.9727 0.0000
# 6 0.0000 0.0000 0.0000 6.2143 0.0000 7.1564
#
#
#
# Elastic Compliance Matrix: (Units=1/GPa)
#
#
# Indices 1 2 3 4 5 6 
#
# 1 0.011843 -0.000303 -0.005082 0.000000 0.005267 0.000000
# 2 -0.000303 0.043223 -0.004303 0.000000 -0.000640 0.000000
# 3 -0.005082 -0.004303 0.010336 0.000000 -0.002837 0.000000
# 4 0.000000 0.000000 0.000000 0.076891 0.000000 -0.066769
# 5 0.005267 -0.000640 -0.002837 0.000000 0.030199 0.000000
# 6 0.000000 0.000000 0.000000 -0.066769 0.000000 0.197715
#
#
# Mechanical properties :
#
#
# Convention : Reuss Voigt Hill
#
# Bulk Modulus (GPa) = 21.72724 46.43465 34.08095
# Shear Modulus (GPa) = 12.34796 25.30732 18.82764
#
# Velocity S-wave (km/s) = 2.50012 3.57920 3.08717
# Velocity P-wave (km/s) = 4.39688 6.37073 5.47352
#
# Compressibility (1/GPa) = 0.04602517
#
# Stress axis : x y z
#
# Youngs Moduli (GPa) = 84.44062 23.13559 96.75230
#
# Poissons Ratio (x) = 0.00701 0.49168
# Poissons Ratio (y) = 0.02559 0.41636
# Poissons Ratio (z) = 0.42912 0.09956
#
# Static dielectric constant tensor:
#      x y z
#    x 1.720090 0.000000 0.039810 
#    y 0.000000 1.707660 0.000000 
#    z 0.039810 0.000000 1.718990 
# 
# From -- ./inp_files/189592.got.cif
#   From: 2010.05.17/outbox.cif.g08.bks.cpg/sg12_95_cif.got.tgz:189592.got - 2010.06.03 13:09:07.
