data_PCOD9199734
_publ_section_title
;
Structure prediction by ZEFSAII (Michael W. Deem and Ramdas Pophale) SiO2 
 PCOD9199734
Probable space group: C 2/M
;
_chemical_formula_sum "Si O2"
_cell_formula_units_Z 56
_cell_length_a 9.741601
_cell_length_b 20.343534
_cell_length_c 19.526653
_cell_angle_alpha 90.000000
_cell_angle_beta 46.719409
_cell_angle_gamma 90.000000
_cell_volume 2817.208109
_symmetry_space_group_name_H-M "C 2/M"
_symmetry_group_IT_number 12
_symmetry_cell_setting 'monoclinic'
loop_
_space_group_symop_operation_xyz
x,y,z
-x,y,-z
-x,-y,-z
x,-y,z
1/2+x,1/2+y,z
1/2-x,1/2+y,-z
1/2-x,1/2-y,-z
1/2+x,1/2-y,z
loop_
_atom_site_type_symbol
_atom_site_label
_atom_site_fract_x
_atom_site_fract_y
_atom_site_fract_z
Si Si1 0.354164 0.786192 0.221226
Si Si2 0.914036 0.194751 0.952254
Si Si3 0.727063 0.924138 0.933292
Si Si4 0.993354 0.924380 0.426639
Si Si5 0.190645 0.425945 0.794629
Si Si6 0.845737 0.342162 0.503393
Si Si7 0.439118 0.760781 0.347194
O O1 0.422748 0.726482 0.150597
O O2 0.422102 0.857511 0.170829
O O3 0.433452 0.778176 0.269950
O O4 0.126247 0.781501 0.299149
O O5 0.829470 0.128210 0.947130
O O6 0.750000 0.250000 0.000000
O O7 0.000000 0.187967 0.000000
O O8 0.800958 0.920247 0.829248
O O9 0.749527 0.000000 0.948572
O O10 0.500000 0.912462 0.000000
O O11 0.827028 0.889848 0.444786
O O12 0.000000 0.893247 0.500000
O O13 0.180829 0.922931 0.317109
O O14 0.941217 0.000000 0.453556
O O15 0.103438 0.500000 0.825807
O O16 0.754345 0.277646 0.569582
O O17 0.934444 0.321972 0.400502
O O18 0.000000 0.370811 0.500000
#
# Coordination Sequence:
#
# PCOD9199734 Si02
#       7
#     8   8   8   8   8   8   8
#     4  12  22  39  62  87 124 159 205 258 314 368
#     4  12  25  41  64  96 130 166 208 262 318 375
#     4  10  22  42  68  95 127 167 210 258 316 381
#     4  10  21  37  59  85 118 163 208 254 305 372
#     4  10  20  36  61  89 117 159 210 253 304 375
#     4  11  22  36  55  84 121 150 201 255 307 360
#     4  11  23  36  56  88 113 158 200 254 307 365
#
# _framework density 19.877835999999999
#
# number of rings (size 3 to 8) (size 9 to 14) (size 15 to 20)
#    0.000    1.143    2.857    4.714    0.000    0.571 
#    0.000    0.000    0.000    3.429    0.000    0.000 
#    0.000    0.000    0.000    0.000    0.000    0.000 
#
# Total GULP energy -156159.298761 kJ/mol
# GULP energy per Si atom -5577.117813 kJ/mol
# Density = 1.983259 g / cm^3
# Si number density = 19.877836 Si / 1000 Ang^3
#
#
#
# Elastic Constant Matrix: (Units=GPa)
#
#
# Indices 1 2 3 4 5 6 
#
# 1 94.1683 39.4763 25.9892 -0.0001 22.1901 0.0000
# 2 39.4763 120.9696 22.1605 0.0000 18.5308 0.0000
# 3 25.9892 22.1605 90.5405 0.0000 21.5441 0.0000
# 4 -0.0001 0.0000 0.0000 -13.2408 0.0001 -1.0388
# 5 22.1901 18.5308 21.5441 0.0001 36.9647 0.0000
# 6 0.0000 0.0000 0.0000 -1.0388 0.0000 27.9161
#
#
#
# Elastic Compliance Matrix: (Units=1/GPa)
#
#
# Indices 1 2 3 4 5 6 
#
# 1 0.013831 -0.003325 -0.001831 0.000000 -0.005569 0.000000
# 2 -0.003325 0.009888 -0.000884 0.000000 -0.002446 0.000000
# 3 -0.001831 -0.000884 0.013258 0.000000 -0.006185 0.000000
# 4 0.000000 0.000000 0.000000 -0.075304 0.000000 -0.002802
# 5 -0.005569 -0.002446 -0.006185 0.000000 0.035227 0.000000
# 6 0.000000 0.000000 0.000000 -0.002802 0.000000 0.035717
#
#
# Mechanical properties :
#
#
# Convention : Reuss Voigt Hill
#
# Bulk Modulus (GPa) = 40.16461 53.43669 46.80065
# Shear Modulus (GPa) = 94.34613 24.86482 59.60547
#
# Velocity S-wave (km/s) = 6.89681 3.54062 5.48188
# Velocity P-wave (km/s) = 9.14718 6.60723 7.97892
#
# Compressibility (1/GPa) = 0.02489754
#
# Stress axis : x y z
#
# Youngs Moduli (GPa) = 72.30289 101.13105 75.42345
#
# Poissons Ratio (x) = 0.33625 0.13812
# Poissons Ratio (y) = 0.24040 0.06666
# Poissons Ratio (z) = 0.13240 0.08938
#
# Static dielectric constant tensor:
#      x y z
#    x 1.676780 0.000000 0.008460 
#    y 0.000000 1.733950 0.000000 
#    z 0.008460 0.000000 1.822630 
# 
# From -- ./inp_files/257973.got.cif
#   From: 2010.05.17/outbox.cif.g08.bks.cpg/sg12_129_cif.got.tgz:257973.got - 2010.06.03 13:09:07.
