data_PCOD9199551
_publ_section_title
;
Structure prediction by ZEFSAII (Michael W. Deem and Ramdas Pophale) SiO2 
 PCOD9199551
Probable space group: C 2/M
;
_chemical_formula_sum "Si O2"
_cell_formula_units_Z 40
_cell_length_a 26.739371
_cell_length_b 13.001150
_cell_length_c 5.308690
_cell_angle_alpha 90.000000
_cell_angle_beta 69.843812
_cell_angle_gamma 90.000000
_cell_volume 1732.500667
_symmetry_space_group_name_H-M "C 2/M"
_symmetry_group_IT_number 12
_symmetry_cell_setting 'monoclinic'
loop_
_space_group_symop_operation_xyz
x,y,z
-x,y,-z
-x,-y,-z
x,-y,z
1/2+x,1/2+y,z
1/2-x,1/2+y,-z
1/2-x,1/2-y,-z
1/2+x,1/2-y,z
loop_
_atom_site_type_symbol
_atom_site_label
_atom_site_fract_x
_atom_site_fract_y
_atom_site_fract_z
Si Si1 0.800291 0.111801 0.950337
Si Si2 0.876452 0.223845 0.146680
Si Si3 0.968433 0.217183 0.312106
Si Si4 0.195687 0.319399 0.367868
Si Si5 0.085858 0.616727 0.310410
O O1 0.853449 0.133863 0.017378
O O2 0.749607 0.120412 0.225649
O O3 0.800487 0.000000 0.829423
O O4 0.796153 0.206558 0.766937
O O5 0.908692 0.182997 0.333261
O O6 0.826116 0.294191 0.317335
O O7 0.912862 0.301428 0.919978
O O8 0.954631 0.335271 0.414646
O O9 0.000000 0.173161 0.500000
O O10 0.000000 0.200619 0.000000
O O11 0.145563 0.374637 0.321076
O O12 0.074214 0.500000 0.261687
#
# Coordination Sequence:
#
# PCOD9199551 Si02
#       5
#     8   8   8   8   8
#     4  10  20  36  60  89 122 163 209 253 304 370
#     4  10  21  38  59  86 123 162 208 257 307 371
#     4  11  22  41  61  88 122 170 207 257 314 366
#     4   9  20  37  56  88 128 166 199 248 311 367
#     4  10  21  36  58  91 127 164 205 251 303 372
#
# _framework density 23.088013
#
# number of rings (size 3 to 8) (size 9 to 14) (size 15 to 20)
#    0.000    2.000    2.000    1.200    0.000    5.600 
#    0.000    0.000    0.000    1.200    0.000    0.000 
#    0.000    0.000    0.000    0.000    0.000    0.000 
#
# Total GULP energy -111559.333069 kJ/mol
# GULP energy per Si atom -5577.966653 kJ/mol
# Density = 2.303546 g / cm^3
# Si number density = 23.088013 Si / 1000 Ang^3
#
#
#
# Elastic Constant Matrix: (Units=GPa)
#
#
# Indices 1 2 3 4 5 6 
#
# 1 78.4008 -0.9219 3.6896 0.0000 21.5212 0.0000
# 2 -0.9219 77.5251 -1.4192 0.0000 6.5641 0.0000
# 3 3.6896 -1.4192 100.8653 0.0000 -7.0209 0.0000
# 4 0.0000 0.0000 0.0000 6.8649 0.0000 -2.7142
# 5 21.5212 6.5641 -7.0209 0.0000 35.7045 0.0000
# 6 0.0000 0.0000 0.0000 -2.7142 0.0000 4.1689
#
#
#
# Elastic Compliance Matrix: (Units=1/GPa)
#
#
# Indices 1 2 3 4 5 6 
#
# 1 0.015507 0.000989 -0.001233 0.000000 -0.009771 0.000000
# 2 0.000989 0.013166 -0.000062 0.000000 -0.003029 0.000000
# 3 -0.001233 -0.000062 0.010150 0.000000 0.002751 0.000000
# 4 0.000000 0.000000 0.000000 0.196166 0.000000 0.127718
# 5 -0.009771 -0.003029 0.002751 0.000000 0.034995 0.000000
# 6 0.000000 0.000000 0.000000 0.127718 0.000000 0.323026
#
#
# Mechanical properties :
#
#
# Convention : Reuss Voigt Hill
#
# Bulk Modulus (GPa) = 26.17058 28.83203 27.50131
# Shear Modulus (GPa) = 8.24593 26.37715 17.31154
#
# Velocity S-wave (km/s) = 1.89190 3.38370 2.74123
# Velocity P-wave (km/s) = 4.01648 5.27076 4.68578
#
# Compressibility (1/GPa) = 0.03821084
#
# Stress axis : x y z
#
# Youngs Moduli (GPa) = 64.48740 75.95242 98.52279
#
# Poissons Ratio (x) = -0.07513 0.12152
# Poissons Ratio (y) = -0.06379 0.00609
# Poissons Ratio (z) = 0.07954 0.00469
#
# Static dielectric constant tensor:
#      x y z
#    x 1.982040 0.000000 -0.013980 
#    y 0.000000 1.777500 0.000000 
#    z -0.013980 0.000000 1.950020 
# 
# From -- ./inp_files/30757.got.cif
#   From: 2010.05.17/outbox.cif.g08.bks.cpg/sg12_16_cif.got.tgz:30757.got - 2010.06.03 13:09:07.
