data_PCOD9199606
_publ_section_title
;
Structure prediction by ZEFSAII (Michael W. Deem and Ramdas Pophale) SiO2 
 PCOD9199606
Probable space group: C 2/M
;
_chemical_formula_sum "Si O2"
_cell_formula_units_Z 24
_cell_length_a 18.157717
_cell_length_b 8.083784
_cell_length_c 14.837199
_cell_angle_alpha 90.000000
_cell_angle_beta 28.957582
_cell_angle_gamma 90.000000
_cell_volume 1054.431921
_symmetry_space_group_name_H-M "C 2/M"
_symmetry_group_IT_number 12
_symmetry_cell_setting 'monoclinic'
loop_
_space_group_symop_operation_xyz
x,y,z
-x,y,-z
-x,-y,-z
x,-y,z
1/2+x,1/2+y,z
1/2-x,1/2+y,-z
1/2-x,1/2-y,-z
1/2+x,1/2-y,z
loop_
_atom_site_type_symbol
_atom_site_label
_atom_site_fract_x
_atom_site_fract_y
_atom_site_fract_z
Si Si1 0.561380 0.679076 0.035872
Si Si2 0.915763 0.500000 0.188001
Si Si3 0.441464 0.500000 0.460056
Si Si4 0.861839 0.692993 0.799926
O O1 0.533143 0.500000 0.109895
O O2 0.476053 0.834165 0.170702
O O3 0.500000 0.668987 0.000000
O O4 0.742882 0.705228 0.843114
O O5 0.738430 0.500000 0.360513
O O6 0.000000 0.500000 0.000000
O O7 0.500000 0.500000 0.500000
O O8 0.510031 0.330480 0.346060
O O9 0.907379 0.500000 0.758463
O O10 0.750000 0.750000 0.000000
#
# Coordination Sequence:
#
# PCOD9199606 Si02
#       4
#     8   4   4   8
#     4   9  18  35  61  89 120 166 214 263 318 380
#     4  10  20  36  60  90 128 165 206 269 319 374
#     4  12  24  40  68 104 130 173 228 271 329 400
#     4  11  23  42  70  96 136 177 216 276 340 392
#
# _framework density 22.761071999999999
#
# number of rings (size 3 to 8) (size 9 to 14) (size 15 to 20)
#    0.000    1.667    1.667    5.000    0.000    2.000 
#    0.000    1.667    0.000    0.000    0.000    0.000 
#    0.000    0.000    0.000    0.000    0.000    0.000 
#
# Total GULP energy -67024.150832 kJ/mol
# GULP energy per Si atom -5585.345903 kJ/mol
# Density = 2.270927 g / cm^3
# Si number density = 22.761072 Si / 1000 Ang^3
#
#
#
# Elastic Constant Matrix: (Units=GPa)
#
#
# Indices 1 2 3 4 5 6 
#
# 1 57.5628 31.1102 25.9897 0.0000 -19.0623 0.0000
# 2 31.1102 286.6897 100.3256 0.0000 -38.2144 0.0000
# 3 25.9897 100.3256 131.2516 0.0000 -36.5389 0.0000
# 4 0.0000 0.0000 0.0000 33.6257 0.0000 -9.9425
# 5 -19.0623 -38.2144 -36.5389 0.0000 41.7348 0.0000
# 6 0.0000 0.0000 0.0000 -9.9425 0.0000 32.8777
#
#
#
# Elastic Compliance Matrix: (Units=1/GPa)
#
#
# Indices 1 2 3 4 5 6 
#
# 1 0.020955 -0.000749 -0.001459 0.000000 0.007608 0.000000
# 2 -0.000749 0.004866 -0.003208 0.000000 0.001305 0.000000
# 3 -0.001459 -0.003208 0.012372 0.000000 0.007228 0.000000
# 4 0.000000 0.000000 0.000000 0.032659 0.000000 0.009876
# 5 0.007608 0.001305 0.007228 0.000000 0.034959 0.000000
# 6 0.000000 0.000000 0.000000 0.009876 0.000000 0.033402
#
#
# Mechanical properties :
#
#
# Convention : Reuss Voigt Hill
#
# Bulk Modulus (GPa) = 36.54742 87.81723 62.18233
# Shear Modulus (GPa) = 31.41372 42.85288 37.13330
#
# Velocity S-wave (km/s) = 3.71907 4.34375 4.04349
# Velocity P-wave (km/s) = 5.87655 7.98896 7.01275
#
# Compressibility (1/GPa) = 0.02736171
#
# Stress axis : x y z
#
# Youngs Moduli (GPa) = 47.72039 205.51354 80.82798
#
# Poissons Ratio (x) = 0.15402 0.11790
# Poissons Ratio (y) = 0.03576 0.25927
# Poissons Ratio (z) = 0.06961 0.65923
#
# Static dielectric constant tensor:
#      x y z
#    x 1.985890 0.000000 0.054560 
#    y 0.000000 1.981350 0.000000 
#    z 0.054560 0.000000 1.808060 
# 
# From -- ./inp_files/69319.got.cif
#   From: 2010.05.17/outbox.cif.g08.bks.cpg/sg12_35_cif.got.tgz:69319.got - 2010.06.03 13:09:07.
