data_PCOD9199965
_publ_section_title
;
Structure prediction by ZEFSAII (Michael W. Deem and Ramdas Pophale) SiO2 
 PCOD9199965
Probable space group: C 2/M
;
_chemical_formula_sum "Si O2"
_cell_formula_units_Z 56
_cell_length_a 32.979467
_cell_length_b 14.132879
_cell_length_c 7.548644
_cell_angle_alpha 90.000000
_cell_angle_beta 51.244435
_cell_angle_gamma 90.000000
_cell_volume 2743.719052
_symmetry_space_group_name_H-M "C 2/M"
_symmetry_group_IT_number 12
_symmetry_cell_setting 'monoclinic'
loop_
_space_group_symop_operation_xyz
x,y,z
-x,y,-z
-x,-y,-z
x,-y,z
1/2+x,1/2+y,z
1/2-x,1/2+y,-z
1/2-x,1/2-y,-z
1/2+x,1/2-y,z
loop_
_atom_site_type_symbol
_atom_site_label
_atom_site_fract_x
_atom_site_fract_y
_atom_site_fract_z
Si Si1 0.849892 0.611109 0.048779
Si Si2 0.163211 0.105634 0.689225
Si Si3 0.642956 0.235758 0.296114
Si Si4 0.456715 0.610146 0.968986
Si Si5 0.446980 0.772674 0.710547
Si Si6 0.304610 0.196893 0.517528
Si Si7 0.296893 0.391532 0.032071
O O1 0.851980 0.500000 0.016650
O O2 0.832140 0.665104 0.919027
O O3 0.907266 0.657103 0.919012
O O4 0.815782 0.638285 0.310718
O O5 0.197490 0.193063 0.531142
O O6 0.165247 0.110898 0.898767
O O7 0.181343 0.000000 0.590486
O O8 0.103052 0.117907 0.798247
O O9 0.586198 0.255300 0.373216
O O10 0.647627 0.191052 0.475008
O O11 0.676232 0.331374 0.194170
O O12 0.463186 0.500000 0.895951
O O13 0.459932 0.683549 0.798559
O O14 0.500000 0.629938 0.000000
O O15 0.500000 0.818776 0.500000
O O16 0.255161 0.158340 0.756810
O O17 0.287454 0.500000 0.010396
#
# Coordination Sequence:
#
# PCOD9199965 Si02
#       7
#     8   8   8   8   8   8   8
#     4  10  23  43  64  92 129 167 214 272 323 373
#     4  10  20  37  62  92 129 167 208 260 315 380
#     4  10  24  42  63  96 128 170 207 272 314 389
#     4  10  20  36  62  92 125 166 210 256 313 381
#     4  10  22  40  63  91 129 166 208 264 321 372
#     4  12  22  41  67  95 125 169 222 257 324 381
#     4  11  22  41  66  93 133 172 212 264 321 387
#
# _framework density 20.410253999999998
#
# number of rings (size 3 to 8) (size 9 to 14) (size 15 to 20)
#    0.857    0.714    4.286    1.286    2.000    2.286 
#    0.000    0.000    0.000    1.286    0.000    0.000 
#    0.000    0.000    0.000    0.000    0.000    0.000 
#
# Total GULP energy -156245.523872 kJ/mol
# GULP energy per Si atom -5580.197281 kJ/mol
# Density = 2.036380 g / cm^3
# Si number density = 20.410254 Si / 1000 Ang^3
#
#
#
# Elastic Constant Matrix: (Units=GPa)
#
#
# Indices 1 2 3 4 5 6 
#
# 1 72.8689 17.0885 -2.5989 0.0000 3.6849 0.0000
# 2 17.0885 106.5238 2.6324 0.0000 -1.5702 0.0000
# 3 -2.5989 2.6324 32.1087 0.0000 -11.4020 0.0000
# 4 0.0000 0.0000 0.0000 9.1105 0.0000 -9.5669
# 5 3.6849 -1.5702 -11.4020 0.0000 33.8527 0.0000
# 6 0.0000 0.0000 0.0000 -9.5669 0.0000 10.4485
#
#
#
# Elastic Compliance Matrix: (Units=1/GPa)
#
#
# Indices 1 2 3 4 5 6 
#
# 1 0.014375 -0.002348 0.000865 0.000000 -0.001382 0.000000
# 2 -0.002348 0.009791 -0.000841 0.000000 0.000426 0.000000
# 3 0.000865 -0.000841 0.035479 0.000000 0.011817 0.000000
# 4 0.000000 0.000000 0.000000 2.850969 0.000000 2.610422
# 5 -0.001382 0.000426 0.011817 0.000000 0.033690 0.000000
# 6 0.000000 0.000000 0.000000 2.610422 0.000000 2.485878
#
#
# Mechanical properties :
#
#
# Convention : Reuss Voigt Hill
#
# Bulk Modulus (GPa) = 18.18271 27.30504 22.74387
# Shear Modulus (GPa) = 0.91690 23.64096 12.27893
#
# Velocity S-wave (km/s) = 0.67098 3.40706 2.45543
# Velocity P-wave (km/s) = 3.08678 5.37443 4.38251
#
# Compressibility (1/GPa) = 0.05499731
#
# Stress axis : x y z
#
# Youngs Moduli (GPa) = 69.56717 102.13181 28.18542
#
# Poissons Ratio (x) = 0.23978 -0.02438
# Poissons Ratio (y) = 0.16332 0.02371
# Poissons Ratio (z) = -0.06018 0.08593
#
# Static dielectric constant tensor:
#      x y z
#    x 1.773290 0.000000 -0.000710 
#    y 0.000000 1.715060 0.000000 
#    z -0.000710 0.000000 1.735320 
# 
# From -- ./inp_files/111574.got.cif
#   From: 2010.05.17/outbox.cif.g08.bks.cpg/sg12_56_cif.got.tgz:111574.got - 2010.06.03 13:09:07.
