data_PCOD9199150
_publ_section_title
;
Structure prediction by ZEFSAII (Michael W. Deem and Ramdas Pophale) SiO2 
 PCOD9199150
Probable space group: C 2/M
;
_chemical_formula_sum "Si O2"
_cell_formula_units_Z 56
_cell_length_a 10.023612
_cell_length_b 14.279651
_cell_length_c 24.016641
_cell_angle_alpha 90.000000
_cell_angle_beta 62.129052
_cell_angle_gamma 90.000000
_cell_volume 3038.839330
_symmetry_space_group_name_H-M "C 2/M"
_symmetry_group_IT_number 12
_symmetry_cell_setting 'monoclinic'
loop_
_space_group_symop_operation_xyz
x,y,z
-x,y,-z
-x,-y,-z
x,-y,z
1/2+x,1/2+y,z
1/2-x,1/2+y,-z
1/2-x,1/2-y,-z
1/2+x,1/2-y,z
loop_
_atom_site_type_symbol
_atom_site_label
_atom_site_fract_x
_atom_site_fract_y
_atom_site_fract_z
Si Si1 0.628675 0.890010 0.351165
Si Si2 0.492484 0.604757 0.086800
Si Si3 0.842775 0.750804 0.756609
Si Si4 0.947837 0.108816 0.350444
Si Si5 0.426343 0.254100 0.454350
Si Si6 0.760235 0.839488 0.038556
Si Si7 0.498540 0.780574 0.841486
O O1 0.663572 0.831749 0.288194
O O2 0.492929 0.836593 0.409154
O O3 0.776625 0.882923 0.361333
O O4 0.598660 0.000000 0.346823
O O5 0.437499 0.500000 0.111179
O O6 0.371480 0.658683 0.070684
O O7 0.521433 0.673467 0.132518
O O8 0.645982 0.594802 0.021125
O O9 0.946524 0.832497 0.711399
O O10 0.677164 0.791582 0.801491
O O11 0.919457 0.711941 0.797366
O O12 0.960775 0.158452 0.407549
O O13 0.988277 0.000000 0.344336
O O14 0.500000 0.262298 0.500000
O O15 0.250000 0.250000 0.500000
O O16 0.593103 0.846519 0.097257
O O17 0.750000 0.750000 0.000000
#
# Coordination Sequence:
#
# PCOD9199150 Si02
#       7
#     8   8   8   8   8   8   8
#     4  10  22  40  64  89 119 162 203 241 291 358
#     4  10  20  36  59  87 114 151 202 248 294 367
#     4  11  22  40  60  89 119 159 197 255 294 354
#     4  10  22  40  62  88 123 162 198 243 298 350
#     4  11  22  39  63  94 124 155 196 247 294 346
#     4   9  18  33  55  85 113 147 186 244 298 349
#     4  11  21  37  60  85 116 154 199 239 306 356
#
# _framework density 18.428089
#
# number of rings (size 3 to 8) (size 9 to 14) (size 15 to 20)
#    0.000    1.714    4.286    0.857    0.000    2.286 
#    0.000    3.571    0.000    0.857    0.000    0.000 
#    0.000    0.000    0.000    0.000    0.000    0.000 
#
# Total GULP energy -155968.783496 kJ/mol
# GULP energy per Si atom -5570.313696 kJ/mol
# Density = 1.838615 g / cm^3
# Si number density = 18.428089 Si / 1000 Ang^3
#
#
#
# Elastic Constant Matrix: (Units=GPa)
#
#
# Indices 1 2 3 4 5 6 
#
# 1 68.6782 18.2695 20.2051 0.0000 -11.0409 0.0000
# 2 18.2695 103.9046 21.3706 0.0000 -4.2109 0.0000
# 3 20.2051 21.3706 90.2488 0.0000 -21.0018 0.0000
# 4 0.0000 0.0000 0.0000 9.4113 0.0000 -5.5015
# 5 -11.0409 -4.2109 -21.0018 0.0000 49.1980 0.0000
# 6 0.0000 0.0000 0.0000 -5.5015 0.0000 8.3019
#
#
#
# Elastic Compliance Matrix: (Units=1/GPa)
#
#
# Indices 1 2 3 4 5 6 
#
# 1 0.016292 -0.002241 -0.002566 0.000000 0.002369 0.000000
# 2 -0.002241 0.010427 -0.002084 0.000000 -0.000500 0.000000
# 3 -0.002566 -0.002084 0.013293 0.000000 0.004921 0.000000
# 4 0.000000 0.000000 0.000000 0.173442 0.000000 0.114935
# 5 0.002369 -0.000500 0.004921 0.000000 0.022915 0.000000
# 6 0.000000 0.000000 0.000000 0.114935 0.000000 0.196618
#
#
# Mechanical properties :
#
#
# Convention : Reuss Voigt Hill
#
# Bulk Modulus (GPa) = 38.12136 42.50244 40.31190
# Shear Modulus (GPa) = 10.97664 26.91467 18.94565
#
# Velocity S-wave (km/s) = 2.44324 3.82583 3.20986
# Velocity P-wave (km/s) = 5.35637 6.52916 5.97163
#
# Compressibility (1/GPa) = 0.02623201
#
# Stress axis : x y z
#
# Youngs Moduli (GPa) = 61.37796 95.90924 75.22570
#
# Poissons Ratio (x) = 0.21493 0.19300
# Poissons Ratio (y) = 0.13755 0.15674
# Poissons Ratio (z) = 0.15747 0.19983
#
# Static dielectric constant tensor:
#      x y z
#    x 1.621540 0.000000 -0.011880 
#    y 0.000000 1.632490 0.000000 
#    z -0.011880 0.000000 1.657100 
# 
# From -- ./inp_files/300154.got.cif
#   From: 2010.05.17/outbox.cif.g08.bks.cpg/sg12_151_cif.got.tgz:300154.got - 2010.06.03 13:09:07.
