data_PCOD9199561
_publ_section_title
;
Structure prediction by ZEFSAII (Michael W. Deem and Ramdas Pophale) SiO2 
 PCOD9199561
Probable space group: C 2/M
;
_chemical_formula_sum "Si O2"
_cell_formula_units_Z 64
_cell_length_a 15.041707
_cell_length_b 17.577299
_cell_length_c 22.801021
_cell_angle_alpha 90.000000
_cell_angle_beta 147.538702
_cell_angle_gamma 90.000000
_cell_volume 3235.633055
_symmetry_space_group_name_H-M "C 2/M"
_symmetry_group_IT_number 12
_symmetry_cell_setting 'monoclinic'
loop_
_space_group_symop_operation_xyz
x,y,z
-x,y,-z
-x,-y,-z
x,-y,z
1/2+x,1/2+y,z
1/2-x,1/2+y,-z
1/2-x,1/2-y,-z
1/2+x,1/2-y,z
loop_
_atom_site_type_symbol
_atom_site_label
_atom_site_fract_x
_atom_site_fract_y
_atom_site_fract_z
Si Si1 0.233253 0.415059 0.482412
Si Si2 0.861844 0.352575 0.872974
Si Si3 0.080340 0.416361 0.607261
Si Si4 0.793005 0.179769 0.802611
Si Si5 0.995104 0.321487 0.724870
Si Si6 0.992516 0.860887 0.271958
Si Si7 0.559997 0.410626 0.888810
Si Si8 0.439795 0.087753 0.122388
O O1 0.268521 0.500000 0.478179
O O2 0.168873 0.355848 0.397773
O O3 0.378141 0.389901 0.607264
O O4 0.071067 0.420423 0.432475
O O5 0.829124 0.268251 0.829240
O O6 0.690662 0.379991 0.806069
O O7 0.934642 0.403120 0.861531
O O8 0.000000 0.346951 0.000000
O O9 0.165695 0.500000 0.656583
O O10 0.191553 0.346383 0.688752
O O11 0.000000 0.405835 0.500000
O O12 0.666027 0.157860 0.784500
O O13 0.963106 0.134638 0.886017
O O14 0.989333 0.230365 0.722320
O O15 0.009552 0.357525 0.796702
O O16 0.007702 0.893580 0.214575
O O17 0.546734 0.500000 0.892800
O O18 0.754723 0.390486 0.998397
O O19 0.436727 0.000000 0.140712
#
# Coordination Sequence:
#
# PCOD9199561 Si02
#       8
#     8   8   8   8   8   8   8   8
#     4  10  20  36  60  89 125 161 200 248 302 362
#     4  11  24  43  63  86 118 161 206 257 311 354
#     4   9  17  32  55  86 126 163 194 238 297 357
#     4  10  22  36  61  92 124 160 198 241 303 373
#     4  10  23  41  62  90 126 166 197 245 306 374
#     4  11  22  39  65  93 121 160 211 258 299 352
#     4  11  23  37  60  93 125 158 205 257 303 358
#     4  11  25  42  61  86 120 165 208 252 309 363
#
# _framework density 19.779745999999999
#
# number of rings (size 3 to 8) (size 9 to 14) (size 15 to 20)
#    0.000    1.625    1.250    3.000    3.500    4.750 
#    0.000    1.875    0.000    1.500    0.000    0.000 
#    0.000    0.000    0.000    0.000    0.000    0.000 
#
# Total GULP energy -178598.329340 kJ/mol
# GULP energy per Si atom -5581.197792 kJ/mol
# Density = 1.973473 g / cm^3
# Si number density = 19.779746 Si / 1000 Ang^3
#
#
#
# Elastic Constant Matrix: (Units=GPa)
#
#
# Indices 1 2 3 4 5 6 
#
# 1 37.1314 12.7497 -6.6591 0.0002 5.0388 -0.0001
# 2 12.7497 45.7037 8.8325 0.0009 4.6078 0.0002
# 3 -6.6591 8.8325 77.9165 0.0021 1.8156 0.0010
# 4 0.0002 0.0009 0.0021 27.5486 0.0003 17.2593
# 5 5.0388 4.6078 1.8156 0.0003 29.4370 0.0001
# 6 -0.0001 0.0002 0.0010 17.2593 0.0001 -2.8129
#
#
#
# Elastic Compliance Matrix: (Units=1/GPa)
#
#
# Indices 1 2 3 4 5 6 
#
# 1 0.031282 -0.009039 0.003795 0.000000 -0.004174 0.000000
# 2 -0.009039 0.025317 -0.003591 0.000000 -0.002194 0.000000
# 3 0.003795 -0.003591 0.013587 -0.000001 -0.000926 0.000000
# 4 0.000000 0.000000 -0.000001 0.007493 0.000000 0.045979
# 5 -0.004174 -0.002194 -0.000926 0.000000 0.035086 0.000000
# 6 0.000000 0.000000 0.000000 0.045979 0.000000 -0.073390
#
#
# Mechanical properties :
#
#
# Convention : Reuss Voigt Hill
#
# Bulk Modulus (GPa) = 19.04173 21.17752 20.10963
# Shear Modulus (GPa) = 67.06715 20.55645 43.81180
#
# Velocity S-wave (km/s) = 5.82929 3.22726 4.71147
# Velocity P-wave (km/s) = 7.41318 4.96154 6.30762
#
# Compressibility (1/GPa) = 0.05251622
#
# Stress axis : x y z
#
# Youngs Moduli (GPa) = 31.96698 39.49916 73.59811
#
# Poissons Ratio (x) = 0.35705 -0.27934
# Poissons Ratio (y) = 0.28896 0.26431
# Poissons Ratio (z) = -0.12133 0.14185
#
# Static dielectric constant tensor:
#      x y z
#    x 1.724600 0.000000 -0.011660 
#    y 0.000000 1.677570 0.000000 
#    z -0.011660 0.000000 1.734390 
# 
# From -- ./inp_files/340864.got.cif
#   From: 2010.05.17/outbox.cif.g08.bks.cpg/sg12_171_cif.got.tgz:340864.got - 2010.06.03 13:09:07.
