data_PCOD9199672
_publ_section_title
;
Structure prediction by ZEFSAII (Michael W. Deem and Ramdas Pophale) SiO2 
 PCOD9199672
Probable space group: C 2/M
;
_chemical_formula_sum "Si O2"
_cell_formula_units_Z 48
_cell_length_a 18.312829
_cell_length_b 16.007527
_cell_length_c 14.310037
_cell_angle_alpha 90.000000
_cell_angle_beta 39.514251
_cell_angle_gamma 90.000000
_cell_volume 2669.082338
_symmetry_space_group_name_H-M "C 2/M"
_symmetry_group_IT_number 12
_symmetry_cell_setting 'monoclinic'
loop_
_space_group_symop_operation_xyz
x,y,z
-x,y,-z
-x,-y,-z
x,-y,z
1/2+x,1/2+y,z
1/2-x,1/2+y,-z
1/2-x,1/2-y,-z
1/2+x,1/2-y,z
loop_
_atom_site_type_symbol
_atom_site_label
_atom_site_fract_x
_atom_site_fract_y
_atom_site_fract_z
Si Si1 0.556670 0.000000 0.085313
Si Si2 0.906660 0.314838 0.885565
Si Si3 0.370152 0.902107 0.587897
Si Si4 0.720688 0.776252 0.183168
Si Si5 0.310412 0.000000 0.243700
Si Si6 0.117580 0.139745 0.424135
Si Si7 0.628568 0.768590 0.575238
O O1 0.592379 0.086000 0.099135
O O2 0.418361 0.000000 0.207607
O O3 0.624642 0.000000 0.919962
O O4 0.846389 0.296242 0.845987
O O5 0.035658 0.283318 0.746905
O O6 0.839782 0.264695 0.032227
O O7 0.500000 0.892663 0.500000
O O8 0.284366 0.857913 0.746338
O O9 0.366114 0.850254 0.496056
O O10 0.347343 0.000000 0.598288
O O11 0.655928 0.706976 0.308591
O O12 0.223961 0.921885 0.335592
O O13 0.094599 0.192037 0.540915
O O14 0.000000 0.100623 0.500000
O O15 0.750000 0.750000 0.500000
#
# Coordination Sequence:
#
# PCOD9199672 Si02
#       7
#     4   8   8   8   4   8   8
#     4  11  24  36  58  87 124 144 194 251 300 338
#     4  11  21  37  59  89 118 148 195 247 289 345
#     4  10  20  38  62  89 116 153 197 244 288 342
#     4  10  20  36  61  85 117 153 196 238 290 347
#     4  11  23  40  56  86 113 161 194 238 294 355
#     4  11  20  41  58  82 119 157 198 233 292 359
#     4  11  22  37  59  88 120 154 193 241 295 348
#
# _framework density 17.983708
#
# number of rings (size 3 to 8) (size 9 to 14) (size 15 to 20)
#    0.000    1.333    5.000    2.250    2.333    0.000 
#    1.500    0.000    1.833    1.000    0.000    0.000 
#    0.000    0.000    0.000    0.000    0.000    0.000 
#
# Total GULP energy -133950.175227 kJ/mol
# GULP energy per Si atom -5581.257301 kJ/mol
# Density = 1.794278 g / cm^3
# Si number density = 17.983708 Si / 1000 Ang^3
#
#
#
# Elastic Constant Matrix: (Units=GPa)
#
#
# Indices 1 2 3 4 5 6 
#
# 1 41.9572 26.1320 10.0362 0.0000 -12.1775 0.0000
# 2 26.1320 122.0859 34.4908 0.0000 -12.9872 0.0000
# 3 10.0362 34.4908 96.8265 0.0000 -11.9611 0.0000
# 4 0.0000 0.0000 0.0000 22.7214 0.0000 -9.2764
# 5 -12.1775 -12.9872 -11.9611 0.0000 23.1083 0.0000
# 6 0.0000 0.0000 0.0000 -9.2764 0.0000 12.9402
#
#
#
# Elastic Compliance Matrix: (Units=1/GPa)
#
#
# Indices 1 2 3 4 5 6 
#
# 1 0.030971 -0.005287 0.000344 0.000000 0.013527 0.000000
# 2 -0.005287 0.010312 -0.002942 0.000000 0.001487 0.000000
# 3 0.000344 -0.002942 0.011920 0.000000 0.004698 0.000000
# 4 0.000000 0.000000 0.000000 0.062222 0.000000 0.044605
# 5 0.013527 0.001487 0.004698 0.000000 0.053670 0.000000
# 6 0.000000 0.000000 0.000000 0.044605 0.000000 0.109254
#
#
# Mechanical properties :
#
#
# Convention : Reuss Voigt Hill
#
# Bulk Modulus (GPa) = 26.71396 44.68749 35.70073
# Shear Modulus (GPa) = 16.30806 24.43470 20.37138
#
# Velocity S-wave (km/s) = 3.01462 3.69007 3.36931
# Velocity P-wave (km/s) = 5.19654 6.56188 5.91871
#
# Compressibility (1/GPa) = 0.03743361
#
# Stress axis : x y z
#
# Youngs Moduli (GPa) = 32.28860 96.97578 83.89079
#
# Poissons Ratio (x) = 0.51275 -0.02889
# Poissons Ratio (y) = 0.17072 0.24677
# Poissons Ratio (z) = -0.01112 0.28526
#
# Static dielectric constant tensor:
#      x y z
#    x 1.615850 0.000000 -0.003920 
#    y 0.000000 1.617540 0.000000 
#    z -0.003920 0.000000 1.623280 
# 
# From -- ./inp_files/157688.got.cif
#   From: 2010.05.17/outbox.cif.g08.bks.cpg/sg12_79_cif.got.tgz:157688.got - 2010.06.03 13:09:07.
