data_PCOD9199956
_publ_section_title
;
Structure prediction by ZEFSAII (Michael W. Deem and Ramdas Pophale) SiO2 
 PCOD9199956
Probable space group: C 2/M
;
_chemical_formula_sum "Si O2"
_cell_formula_units_Z 58
_cell_length_a 28.955270
_cell_length_b 14.780304
_cell_length_c 19.768273
_cell_angle_alpha 90.000000
_cell_angle_beta 159.045435
_cell_angle_gamma 90.000000
_cell_volume 3025.593947
_symmetry_space_group_name_H-M "C 2/M"
_symmetry_group_IT_number 12
_symmetry_cell_setting 'monoclinic'
loop_
_space_group_symop_operation_xyz
x,y,z
-x,y,-z
-x,-y,-z
x,-y,z
1/2+x,1/2+y,z
1/2-x,1/2+y,-z
1/2-x,1/2-y,-z
1/2+x,1/2-y,z
loop_
_atom_site_type_symbol
_atom_site_label
_atom_site_fract_x
_atom_site_fract_y
_atom_site_fract_z
Si Si1 0.453848 0.259722 0.243924
Si Si2 0.581565 0.320224 0.280509
Si Si3 0.340589 0.846008 0.708009
Si Si4 0.849051 0.101682 0.300986
Si Si5 0.758268 0.396885 0.997173
Si Si6 0.500000 0.000000 0.000000
Si Si7 0.780097 0.770269 0.320443
Si Si8 0.596391 0.398127 0.068695
O O1 0.516701 0.271451 0.256179
O O2 0.348700 0.339511 0.108505
O O3 0.569247 0.267864 0.455151
O O4 0.384658 0.165008 0.164772
O O5 0.605900 0.241927 0.257896
O O6 0.713744 0.367179 0.488016
O O7 0.486813 0.388680 0.113421
O O8 0.285045 0.819357 0.705222
O O9 0.444680 0.921374 0.870453
O O10 0.793150 0.098967 0.149759
O O11 0.771282 0.171378 0.240546
O O12 0.000000 0.125189 0.500000
O O13 0.842064 0.000000 0.321790
O O14 0.775835 0.500000 0.045513
O O15 0.711042 0.674007 0.221581
O O16 0.644676 0.500000 0.143711
O O17 0.500000 0.378824 0.000000
#
# Coordination Sequence:
#
# PCOD9199956 Si02
#       8
#     8   8   8   8   8   2   8   8
#     4  10  22  38  64  87 120 168 206 257 325 381
#     4  10  21  44  62  88 126 175 212 252 331 397
#     4  10  23  39  64  91 133 167 206 268 324 393
#     4  10  20  36  62  92 121 157 202 256 323 388
#     4  10  21  40  60  90 124 160 208 264 317 387
#     4  12  24  40  60 108 138 164 212 284 328 368
#     4  11  21  40  63  88 124 166 210 263 319 391
#     4  11  23  39  63  86 119 164 218 265 308 375
#
# _framework density 19.169789999999999
#
# number of rings (size 3 to 8) (size 9 to 14) (size 15 to 20)
#    0.000    1.655    2.759    1.655    1.931    1.103 
#    6.207    0.000    0.000    0.414    0.000    0.000 
#    0.000    0.000    0.000    0.000    0.000    0.000 
#
# Total GULP energy -161501.070747 kJ/mol
# GULP energy per Si atom -5569.002440 kJ/mol
# Density = 1.912616 g / cm^3
# Si number density = 19.169790 Si / 1000 Ang^3
#
#
#
# Elastic Constant Matrix: (Units=GPa)
#
#
# Indices 1 2 3 4 5 6 
#
# 1 30.7649 7.7715 -2.7607 0.0000 4.9768 0.0000
# 2 7.7715 82.9449 10.4471 0.0000 11.6813 0.0000
# 3 -2.7607 10.4471 37.9335 0.0000 -1.0150 0.0000
# 4 0.0000 0.0000 0.0000 21.1060 0.0000 1.6033
# 5 4.9768 11.6813 -1.0150 0.0000 25.5557 0.0000
# 6 0.0000 0.0000 0.0000 1.6033 0.0000 17.5563
#
#
#
# Elastic Compliance Matrix: (Units=1/GPa)
#
#
# Indices 1 2 3 4 5 6 
#
# 1 0.034364 -0.002877 0.003153 0.000000 -0.005252 0.000000
# 2 -0.002877 0.013670 -0.004131 0.000000 -0.005852 0.000000
# 3 0.003153 -0.004131 0.027793 0.000000 0.002378 0.000000
# 4 0.000000 0.000000 0.000000 0.047711 0.000000 -0.004357
# 5 -0.005252 -0.005852 0.002378 0.000000 0.042922 0.000000
# 6 0.000000 0.000000 0.000000 -0.004357 0.000000 0.057357
#
#
# Mechanical properties :
#
#
# Convention : Reuss Voigt Hill
#
# Bulk Modulus (GPa) = 14.68077 20.28433 17.48255
# Shear Modulus (GPa) = 19.66697 21.92264 20.79480
#
# Velocity S-wave (km/s) = 3.20650 3.38539 3.29716
# Velocity P-wave (km/s) = 4.62426 5.08778 4.86155
#
# Compressibility (1/GPa) = 0.06811632
#
# Stress axis : x y z
#
# Youngs Moduli (GPa) = 29.10033 73.15152 35.98071
#
# Poissons Ratio (x) = 0.21047 -0.11344
# Poissons Ratio (y) = 0.08373 0.14863
# Poissons Ratio (z) = -0.09175 0.30218
#
# Static dielectric constant tensor:
#      x y z
#    x 1.647530 0.000000 -0.000490 
#    y 0.000000 1.673950 0.000000 
#    z -0.000490 0.000000 1.724530 
# 
# From -- ./inp_files/330310.got.cif
#   From: 2010.05.17/outbox.cif.g08.bks.cpg/sg12_166_cif.got.tgz:330310.got - 2010.06.03 13:09:07.
