data_PCOD9199750
_publ_section_title
;
Structure prediction by ZEFSAII (Michael W. Deem and Ramdas Pophale) SiO2 
 PCOD9199750
Probable space group: C 2/M
;
_chemical_formula_sum "Si O2"
_cell_formula_units_Z 50
_cell_length_a 14.741655
_cell_length_b 8.966562
_cell_length_c 26.301990
_cell_angle_alpha 90.000000
_cell_angle_beta 140.218138
_cell_angle_gamma 90.000000
_cell_volume 2224.590863
_symmetry_space_group_name_H-M "C 2/M"
_symmetry_group_IT_number 12
_symmetry_cell_setting 'monoclinic'
loop_
_space_group_symop_operation_xyz
x,y,z
-x,y,-z
-x,-y,-z
x,-y,z
1/2+x,1/2+y,z
1/2-x,1/2+y,-z
1/2-x,1/2-y,-z
1/2+x,1/2-y,z
loop_
_atom_site_type_symbol
_atom_site_label
_atom_site_fract_x
_atom_site_fract_y
_atom_site_fract_z
Si Si1 0.992368 0.174401 0.940084
Si Si2 0.076770 0.326533 0.878184
Si Si3 0.670515 0.823850 0.811130
Si Si4 0.270177 0.825433 0.692344
Si Si5 0.985917 0.664784 0.595854
Si Si6 0.500000 0.000000 0.500000
Si Si7 0.894086 0.175768 0.648517
O O1 0.825743 0.187746 0.854726
O O2 0.082116 0.241232 0.933196
O O3 0.029037 0.000000 0.960024
O O4 0.000000 0.240891 0.000000
O O5 0.099925 0.500000 0.898565
O O6 0.174980 0.282229 0.873001
O O7 0.918141 0.308499 0.786177
O O8 0.553793 0.721441 0.734510
O O9 0.627476 0.000000 0.791637
O O10 0.144167 0.731423 0.662624
O O11 0.298618 0.763171 0.647997
O O12 0.233517 0.000000 0.675642
O O13 0.985936 0.500000 0.620948
O O14 0.888900 0.770678 0.588133
O O15 0.955973 0.627707 0.524060
O O16 0.868448 0.000000 0.642704
#
# Coordination Sequence:
#
# PCOD9199750 Si02
#       7
#     8   8   8   8   8   2   8
#     4  10  21  35  51  73 106 148 191 226 276 342
#     4   9  19  34  52  78 108 137 179 231 283 330
#     4   9  19  36  54  77 110 145 181 233 290 332
#     4  10  20  36  61  90 115 144 186 238 288 336
#     4  10  20  39  60  80 118 150 186 227 275 326
#     4   8  24  40  62  80 120 154 192 220 272 328
#     4  11  21  34  59  91 115 144 188 237 287 338
#
# _framework density 22.476042
#
# number of rings (size 3 to 8) (size 9 to 14) (size 15 to 20)
#    0.480    1.760    0.000    4.320    0.000    7.360 
#    0.000    2.400    0.000    0.000    0.000    0.000 
#    0.000    0.000    0.000    0.000    0.000    0.000 
#
# Total GULP energy -139396.983970 kJ/mol
# GULP energy per Si atom -5575.879359 kJ/mol
# Density = 2.242489 g / cm^3
# Si number density = 22.476042 Si / 1000 Ang^3
#
#
#
# Elastic Constant Matrix: (Units=GPa)
#
#
# Indices 1 2 3 4 5 6 
#
# 1 96.7273 -0.3868 19.6885 0.0000 -34.1277 0.0000
# 2 -0.3868 48.0922 11.9932 0.0000 -5.9936 0.0000
# 3 19.6885 11.9932 64.5880 0.0000 -17.6895 0.0000
# 4 0.0000 0.0000 0.0000 23.4513 0.0000 -15.9720
# 5 -34.1277 -5.9936 -17.6895 0.0000 47.7292 0.0000
# 6 0.0000 0.0000 0.0000 -15.9720 0.0000 31.4845
#
#
#
# Elastic Compliance Matrix: (Units=1/GPa)
#
#
# Indices 1 2 3 4 5 6 
#
# 1 0.014140 0.001813 -0.002021 0.000000 0.009589 0.000000
# 2 0.001813 0.022117 -0.003944 0.000000 0.002612 0.000000
# 3 -0.002021 -0.003944 0.018141 0.000000 0.004783 0.000000
# 4 0.000000 0.000000 0.000000 0.065152 0.000000 0.033051
# 5 0.009589 0.002612 0.004783 0.000000 0.029909 0.000000
# 6 0.000000 0.000000 0.000000 0.033051 0.000000 0.048528
#
#
# Mechanical properties :
#
#
# Convention : Reuss Voigt Hill
#
# Bulk Modulus (GPa) = 21.69458 30.22192 25.95825
# Shear Modulus (GPa) = 22.55740 32.40718 27.48229
#
# Velocity S-wave (km/s) = 3.17143 3.80130 3.50056
# Velocity P-wave (km/s) = 4.80457 5.72206 5.28327
#
# Compressibility (1/GPa) = 0.04609445
#
# Stress axis : x y z
#
# Youngs Moduli (GPa) = 70.71998 45.21393 55.12327
#
# Poissons Ratio (x) = -0.08196 0.11138
# Poissons Ratio (y) = -0.12820 0.21741
# Poissons Ratio (z) = 0.14290 0.17833
#
# Static dielectric constant tensor:
#      x y z
#    x 1.823930 0.000000 0.003840 
#    y 0.000000 1.597810 0.000000 
#    z 0.003840 0.000000 1.943410 
# 
# From -- ./inp_files/308367.got.cif
#   From: 2010.05.17/outbox.cif.g08.bks.cpg/sg12_155_cif.got.tgz:308367.got - 2010.06.03 13:09:07.
