data_PCOD9199653
_publ_section_title
;
Structure prediction by ZEFSAII (Michael W. Deem and Ramdas Pophale) SiO2 
 PCOD9199653
Probable space group: C 2/M
;
_chemical_formula_sum "Si O2"
_cell_formula_units_Z 56
_cell_length_a 22.146806
_cell_length_b 15.184695
_cell_length_c 24.163293
_cell_angle_alpha 90.000000
_cell_angle_beta 21.731012
_cell_angle_gamma 90.000000
_cell_volume 3008.623896
_symmetry_space_group_name_H-M "C 2/M"
_symmetry_group_IT_number 12
_symmetry_cell_setting 'monoclinic'
loop_
_space_group_symop_operation_xyz
x,y,z
-x,y,-z
-x,-y,-z
x,-y,z
1/2+x,1/2+y,z
1/2-x,1/2+y,-z
1/2-x,1/2-y,-z
1/2+x,1/2-y,z
loop_
_atom_site_type_symbol
_atom_site_label
_atom_site_fract_x
_atom_site_fract_y
_atom_site_fract_z
Si Si1 0.183345 0.604787 0.821057
Si Si2 0.547188 0.655555 0.133498
Si Si3 0.778173 0.345318 0.030143
Si Si4 0.746480 0.244405 0.436818
Si Si5 0.874978 0.763663 0.732853
Si Si6 0.627883 0.902806 0.742121
Si Si7 0.875439 0.101817 0.054878
O O1 0.211410 0.500000 0.806214
O O2 0.312749 0.667505 0.740231
O O3 0.188303 0.622989 0.751531
O O4 0.000000 0.624421 0.000000
O O5 0.672963 0.613538 0.070129
O O6 0.368338 0.668806 0.311066
O O7 0.627354 0.753393 0.062915
O O8 0.546069 0.616026 0.073057
O O9 0.660130 0.316189 0.180086
O O10 0.931646 0.404382 0.915099
O O11 0.750000 0.250000 0.500000
O O12 0.562342 0.236207 0.572452
O O13 0.815009 0.334668 0.352328
O O14 0.763818 0.676206 0.824083
O O15 0.688106 0.000000 0.677360
O O16 0.818921 0.000000 0.106527
O O17 0.000000 0.116247 0.000000
#
# Coordination Sequence:
#
# PCOD9199653 Si02
#       7
#     8   8   8   8   8   8   8
#     4  10  20  36  60  94 126 155 197 246 295 359
#     4   9  19  37  59  83 113 153 198 246 293 349
#     4   9  17  33  60  85 111 152 200 242 288 349
#     4  11  23  40  58  85 125 163 194 241 305 366
#     4  11  21  36  63  90 121 163 196 242 307 361
#     4  10  22  38  59  90 125 158 197 245 296 360
#     4  10  23  42  64  89 115 152 210 264 299 345
#
# _framework density 18.613161999999999
#
# number of rings (size 3 to 8) (size 9 to 14) (size 15 to 20)
#    0.000    2.000    2.857    0.429    6.000    1.714 
#    0.000    2.857    0.000    1.714    0.000    0.000 
#    0.000    0.000    0.000    0.000    0.000    0.000 
#
# Total GULP energy -156077.331640 kJ/mol
# GULP energy per Si atom -5574.190416 kJ/mol
# Density = 1.857080 g / cm^3
# Si number density = 18.613162 Si / 1000 Ang^3
#
#
#
# Elastic Constant Matrix: (Units=GPa)
#
#
# Indices 1 2 3 4 5 6 
#
# 1 134.0563 47.3232 52.9599 -0.0102 -12.2766 0.0021
# 2 47.3232 57.2201 22.2889 0.0035 1.1376 0.0100
# 3 52.9599 22.2889 89.0057 0.0178 -12.9959 0.0075
# 4 -0.0102 0.0035 0.0178 5.6792 -0.0051 21.9626
# 5 -12.2766 1.1376 -12.9959 -0.0051 27.6684 -0.0011
# 6 0.0021 0.0100 0.0075 21.9626 -0.0011 -12.9513
#
#
#
# Elastic Compliance Matrix: (Units=1/GPa)
#
#
# Indices 1 2 3 4 5 6 
#
# 1 0.012837 -0.008787 -0.004889 0.000010 0.003761 0.000010
# 2 -0.008787 0.025665 -0.002063 -0.000013 -0.005923 -0.000005
# 3 -0.004889 -0.002063 0.015414 -0.000010 0.005155 -0.000011
# 4 0.000010 -0.000013 -0.000010 0.023298 0.000006 0.039508
# 5 0.003761 -0.005923 0.005155 0.000006 0.040476 0.000006
# 6 0.000010 -0.000005 -0.000011 0.039508 0.000006 -0.010216
#
#
# Mechanical properties :
#
#
# Convention : Reuss Voigt Hill
#
# Bulk Modulus (GPa) = 44.56868 58.38066 51.47467
# Shear Modulus (GPa) = 34.14547 14.59327 24.36937
#
# Velocity S-wave (km/s) = 4.28773 2.80309 3.62229
# Velocity P-wave (km/s) = 6.96488 6.47378 6.72381
#
# Compressibility (1/GPa) = 0.02243728
#
# Stress axis : x y z
#
# Youngs Moduli (GPa) = 77.89768 38.96293 64.87789
#
# Poissons Ratio (x) = 0.34238 0.31717
# Poissons Ratio (y) = 0.68452 0.13387
# Poissons Ratio (z) = 0.38082 0.08039
#
# Static dielectric constant tensor:
#      x y z
#    x 1.667680 0.000010 -0.000460 
#    y 0.000010 1.667630 0.000000 
#    z -0.000460 0.000000 1.644180 
# 
# From -- ./inp_files/347787.got.cif
#   From: 2010.05.17/outbox.cif.g08.bks.cpg/sg12_174_cif.got.tgz:347787.got - 2010.06.03 13:09:07.
