data_PCOD9199538
_publ_section_title
;
Structure prediction by ZEFSAII (Michael W. Deem and Ramdas Pophale) SiO2 
 PCOD9199538
Probable space group: C 2/M
;
_chemical_formula_sum "Si O2"
_cell_formula_units_Z 60
_cell_length_a 8.157163
_cell_length_b 19.252672
_cell_length_c 18.769206
_cell_angle_alpha 90.000000
_cell_angle_beta 98.835417
_cell_angle_gamma 90.000000
_cell_volume 2912.673012
_symmetry_space_group_name_H-M "C 2/M"
_symmetry_group_IT_number 12
_symmetry_cell_setting 'monoclinic'
loop_
_space_group_symop_operation_xyz
x,y,z
-x,y,-z
-x,-y,-z
x,-y,z
1/2+x,1/2+y,z
1/2-x,1/2+y,-z
1/2-x,1/2-y,-z
1/2+x,1/2-y,z
loop_
_atom_site_type_symbol
_atom_site_label
_atom_site_fract_x
_atom_site_fract_y
_atom_site_fract_z
Si Si1 0.000000 0.821523 0.000000
Si Si2 0.225901 0.577195 0.914724
Si Si3 0.626387 0.715258 0.861311
Si Si4 0.104588 0.584596 0.576556
Si Si5 0.534729 0.420403 0.369307
Si Si6 0.339241 0.915759 0.679127
Si Si7 0.453120 0.845727 0.831983
Si Si8 0.948595 0.075523 0.797942
O O1 0.922487 0.779007 0.059560
O O2 0.147841 0.871104 0.038419
O O3 0.239127 0.500000 0.945974
O O4 0.285890 0.574372 0.835929
O O5 0.040568 0.604265 0.894530
O O6 0.582659 0.785926 0.817849
O O7 0.815946 0.699240 0.862334
O O8 0.540592 0.645251 0.826746
O O9 0.116179 0.500000 0.579411
O O10 0.295616 0.610781 0.586886
O O11 0.000000 0.603840 0.500000
O O12 0.990182 0.603970 0.636637
O O13 0.522168 0.500000 0.395405
O O14 0.345188 0.392438 0.360282
O O15 0.576849 0.422470 0.287803
O O16 0.376722 0.885147 0.759537
O O17 0.333060 0.000000 0.683222
O O18 0.033985 0.000000 0.818858
#
# Coordination Sequence:
#
# PCOD9199538 Si02
#       8
#     4   8   8   8   8   8   8   8
#     4  10  23  44  62  82 113 150 188 242 305 376
#     4  10  21  37  60  85 113 151 194 241 297 361
#     4  11  24  39  60  85 115 150 195 244 305 362
#     4   9  18  31  51  87 132 166 193 238 299 357
#     4   9  16  29  53  83 116 156 194 239 292 344
#     4  10  20  36  60  89 119 157 206 251 298 355
#     4  12  24  39  58  85 115 151 199 252 299 351
#     4   9  17  34  58  84 114 148 191 245 299 352
#
# _framework density 20.599636
#
# number of rings (size 3 to 8) (size 9 to 14) (size 15 to 20)
#    0.000    2.000    1.333    3.000    0.000    6.400 
#    0.000    3.333    0.000    0.000    0.000    3.733 
#    0.000    0.000    0.000    0.000    0.000    0.000 
#
# Total GULP energy -167252.841402 kJ/mol
# GULP energy per Si atom -5575.094713 kJ/mol
# Density = 2.055275 g / cm^3
# Si number density = 20.599636 Si / 1000 Ang^3
#
#
#
# Elastic Constant Matrix: (Units=GPa)
#
#
# Indices 1 2 3 4 5 6 
#
# 1 110.3330 13.9352 27.0773 0.0000 30.5875 0.0000
# 2 13.9352 49.4196 9.6128 0.0000 7.6638 0.0000
# 3 27.0773 9.6128 44.4851 0.0000 9.6063 0.0000
# 4 0.0000 0.0000 0.0000 -25.1006 0.0000 11.1146
# 5 30.5875 7.6638 9.6063 0.0000 26.8583 0.0000
# 6 0.0000 0.0000 0.0000 11.1146 0.0000 20.4607
#
#
#
# Elastic Compliance Matrix: (Units=1/GPa)
#
#
# Indices 1 2 3 4 5 6 
#
# 1 0.014489 -0.000788 -0.005564 0.000000 -0.014286 0.000000
# 2 -0.000788 0.021743 -0.003330 0.000000 -0.004116 0.000000
# 3 -0.005564 -0.003330 0.027106 0.000000 -0.002408 0.000000
# 4 0.000000 0.000000 0.000000 -0.032115 0.000000 0.017445
# 5 -0.014286 -0.004116 -0.002408 0.000000 0.055538 0.000000
# 6 0.000000 0.000000 0.000000 0.017445 0.000000 0.039398
#
#
# Mechanical properties :
#
#
# Convention : Reuss Voigt Hill
#
# Bulk Modulus (GPa) = 22.74076 33.94313 28.34195
# Shear Modulus (GPa) = 31.21494 14.68451 22.94972
#
# Velocity S-wave (km/s) = 3.89693 2.67283 3.34141
# Velocity P-wave (km/s) = 5.59566 5.10281 5.35491
#
# Compressibility (1/GPa) = 0.04397390
#
# Stress axis : x y z
#
# Youngs Moduli (GPa) = 69.01850 45.99165 36.89254
#
# Poissons Ratio (x) = 0.03624 0.20527
# Poissons Ratio (y) = 0.05438 0.12286
# Poissons Ratio (z) = 0.38401 0.15316
#
# Static dielectric constant tensor:
#      x y z
#    x 1.840300 0.000000 0.013210 
#    y 0.000000 1.729860 0.000000 
#    z 0.013210 0.000000 1.725080 
# 
# From -- ./inp_files/300831.got.cif
#   From: 2010.05.17/outbox.cif.g08.bks.cpg/sg12_151_cif.got.tgz:300831.got - 2010.06.03 13:09:07.
