data_PCOD9199146
_publ_section_title
;
Structure prediction by ZEFSAII (Michael W. Deem and Ramdas Pophale) SiO2 
 PCOD9199146
Probable space group: C 2/M
;
_chemical_formula_sum "Si O2"
_cell_formula_units_Z 40
_cell_length_a 28.035159
_cell_length_b 8.580062
_cell_length_c 19.086102
_cell_angle_alpha 90.000000
_cell_angle_beta 26.969381
_cell_angle_gamma 90.000000
_cell_volume 2082.100342
_symmetry_space_group_name_H-M "C 2/M"
_symmetry_group_IT_number 12
_symmetry_cell_setting 'monoclinic'
loop_
_space_group_symop_operation_xyz
x,y,z
-x,y,-z
-x,-y,-z
x,-y,z
1/2+x,1/2+y,z
1/2-x,1/2+y,-z
1/2-x,1/2-y,-z
1/2+x,1/2-y,z
loop_
_atom_site_type_symbol
_atom_site_label
_atom_site_fract_x
_atom_site_fract_y
_atom_site_fract_z
Si Si1 0.879771 0.311721 0.140980
Si Si2 0.416398 0.690016 0.667874
Si Si3 0.283560 0.185399 0.531605
Si Si4 0.679913 0.811407 0.939284
Si Si5 0.013002 0.812894 0.269486
O O1 0.872136 0.500000 0.156018
O O2 0.800519 0.239723 0.300628
O O3 0.848775 0.266578 0.102571
O O4 0.000000 0.267666 0.000000
O O5 0.500000 0.741942 0.500000
O O6 0.416891 0.500000 0.666459
O O7 0.298127 0.738976 0.803966
O O8 0.450672 0.739261 0.700607
O O9 0.250000 0.250000 0.500000
O O10 0.398114 0.248920 0.402077
O O11 0.287018 0.000000 0.523871
O O12 0.675677 0.000000 0.948595
O O13 0.596495 0.743912 0.102926
O O14 0.008998 0.000000 0.274491
#
# Coordination Sequence:
#
# PCOD9199146 Si02
#       5
#     8   8   8   8   8
#     4  10  21  38  61  88 118 154 194 236 288 348
#     4   9  18  34  57  84 115 156 201 242 288 343
#     4  12  25  41  62  87 117 151 191 239 291 348
#     4  10  20  36  59  86 120 159 198 241 290 345
#     4  11  22  37  59  86 118 155 198 244 290 344
#
# _framework density 19.211369000000001
#
# number of rings (size 3 to 8) (size 9 to 14) (size 15 to 20)
#    0.000    1.600    0.000    5.400    0.000    6.000 
#    0.000    1.000    0.000    4.200    0.000    0.000 
#    0.000    0.000    0.000    0.000    0.000    0.000 
#
# Total GULP energy -111841.224497 kJ/mol
# GULP energy per Si atom -5592.061225 kJ/mol
# Density = 1.916764 g / cm^3
# Si number density = 19.211369 Si / 1000 Ang^3
#
#
#
# Elastic Constant Matrix: (Units=GPa)
#
#
# Indices 1 2 3 4 5 6 
#
# 1 243.4238 59.4132 149.0120 0.0005 -2.0299 0.0000
# 2 59.4132 42.1653 59.1908 -0.0019 2.0837 0.0008
# 3 149.0120 59.1908 236.5079 -0.0013 -1.1347 0.0001
# 4 0.0005 -0.0019 -0.0013 23.2020 0.0001 7.8217
# 5 -2.0299 2.0837 -1.1347 0.0001 45.9302 0.0000
# 6 0.0000 0.0008 0.0001 7.8217 0.0000 19.5898
#
#
#
# Elastic Compliance Matrix: (Units=1/GPa)
#
#
# Indices 1 2 3 4 5 6 
#
# 1 0.007609 -0.006200 -0.003240 -0.000001 0.000538 0.000001
# 2 -0.006200 0.041777 -0.006560 0.000004 -0.002331 -0.000004
# 3 -0.003240 -0.006560 0.007913 0.000000 0.000350 0.000000
# 4 -0.000001 0.000004 0.000000 0.049803 0.000000 -0.019885
# 5 0.000538 -0.002331 0.000350 0.000000 0.021910 0.000000
# 6 0.000001 -0.000004 0.000000 -0.019885 0.000000 0.058987
#
#
# Mechanical properties :
#
#
# Convention : Reuss Voigt Hill
#
# Bulk Modulus (GPa) = 39.52805 117.48100 78.50452
# Shear Modulus (GPa) = 21.88826 34.70980 28.29903
#
# Velocity S-wave (km/s) = 3.37907 4.25518 3.84218
# Velocity P-wave (km/s) = 5.98700 9.24265 7.78687
#
# Compressibility (1/GPa) = 0.02529849
#
# Stress axis : x y z
#
# Youngs Moduli (GPa) = 131.42146 23.93660 126.37509
#
# Poissons Ratio (x) = 0.14841 0.40943
# Poissons Ratio (y) = 0.81484 0.82905
# Poissons Ratio (z) = 0.42578 0.15703
#
# Static dielectric constant tensor:
#      x y z
#    x 1.650340 0.000000 -0.008430 
#    y 0.000000 1.658520 0.000000 
#    z -0.008430 0.000000 1.621160 
# 
# From -- ./inp_files/151939.got.cif
#   From: 2010.05.17/outbox.cif.g08.bks.cpg/sg12_76_cif.got.tgz:151939.got - 2010.06.03 13:09:07.
