data_PCOD9199589
_publ_section_title
;
Structure prediction by ZEFSAII (Michael W. Deem and Ramdas Pophale) SiO2 
 PCOD9199589
Probable space group: C 2/M
;
_chemical_formula_sum "Si O2"
_cell_formula_units_Z 56
_cell_length_a 13.758666
_cell_length_b 25.379938
_cell_length_c 9.325076
_cell_angle_alpha 90.000000
_cell_angle_beta 64.354671
_cell_angle_gamma 90.000000
_cell_volume 2935.488430
_symmetry_space_group_name_H-M "C 2/M"
_symmetry_group_IT_number 12
_symmetry_cell_setting 'monoclinic'
loop_
_space_group_symop_operation_xyz
x,y,z
-x,y,-z
-x,-y,-z
x,-y,z
1/2+x,1/2+y,z
1/2-x,1/2+y,-z
1/2-x,1/2-y,-z
1/2+x,1/2-y,z
loop_
_atom_site_type_symbol
_atom_site_label
_atom_site_fract_x
_atom_site_fract_y
_atom_site_fract_z
Si Si1 0.888727 0.284712 0.496498
Si Si2 0.273198 0.864700 0.106862
Si Si3 0.811828 0.440669 0.323571
Si Si4 0.674369 0.240523 0.774113
Si Si5 0.931861 0.439128 0.826688
Si Si6 0.623478 0.646428 0.938283
Si Si7 0.687807 0.901185 0.369236
O O1 0.792973 0.251901 0.632227
O O2 0.893747 0.273949 0.323795
O O3 0.860741 0.345755 0.544308
O O4 0.000000 0.271423 0.500000
O O5 0.252693 0.897561 0.264671
O O6 0.318881 0.808026 0.122121
O O7 0.362404 0.898685 0.964505
O O8 0.171019 0.858051 0.068176
O O9 0.789148 0.500000 0.288893
O O10 0.786439 0.434557 0.507063
O O11 0.941093 0.431392 0.231363
O O12 0.634998 0.293405 0.875953
O O13 0.907097 0.500000 0.878796
O O14 0.896073 0.428273 0.685815
O O15 0.704707 0.612469 0.788247
O O16 0.500000 0.630080 0.000000
#
# Coordination Sequence:
#
# PCOD9199589 Si02
#       7
#     8   8   8   8   8   8   8
#     4  10  20  36  60  90 123 151 190 245 288 332
#     4  11  22  38  57  86 123 152 192 240 288 342
#     4  11  21  36  61  91 119 152 190 235 295 352
#     4  10  22  38  57  88 118 154 202 234 283 348
#     4  10  21  36  58  90 125 157 186 228 292 355
#     4  10  24  42  60  82 113 156 200 240 290 346
#     4  10  20  38  61  88 120 152 195 236 284 347
#
# _framework density 19.076892000000001
#
# number of rings (size 3 to 8) (size 9 to 14) (size 15 to 20)
#    0.000    1.714    1.429    3.000    2.000    3.429 
#    2.571    0.714    0.000   16.286    0.000    0.000 
#    0.000    0.000    0.000    0.000    0.000    0.000 
#
# Total GULP energy -156498.985473 kJ/mol
# GULP energy per Si atom -5589.249481 kJ/mol
# Density = 1.903347 g / cm^3
# Si number density = 19.076892 Si / 1000 Ang^3
#
#
#
# Elastic Constant Matrix: (Units=GPa)
#
#
# Indices 1 2 3 4 5 6 
#
# 1 118.2116 24.0739 33.8693 0.0000 19.8988 0.0000
# 2 24.0739 63.1155 16.9637 0.0000 -0.0115 0.0000
# 3 33.8693 16.9637 63.2647 0.0000 23.9886 0.0000
# 4 0.0000 0.0000 0.0000 16.4706 0.0000 8.7847
# 5 19.8988 -0.0115 23.9886 0.0000 22.8481 0.0000
# 6 0.0000 0.0000 0.0000 8.7847 0.0000 -0.0983
#
#
#
# Elastic Compliance Matrix: (Units=1/GPa)
#
#
# Indices 1 2 3 4 5 6 
#
# 1 0.011058 -0.003643 -0.002145 0.000000 -0.007381 0.000000
# 2 -0.003643 0.019203 -0.007319 0.000000 0.010867 0.000000
# 3 -0.002145 -0.007319 0.030255 0.000000 -0.029901 0.000000
# 4 0.000000 0.000000 0.000000 0.001248 0.000000 0.111495
# 5 -0.007381 0.010867 -0.029901 0.000000 0.081595 0.000000
# 6 0.000000 0.000000 0.000000 0.111495 0.000000 -0.209044
#
#
# Mechanical properties :
#
#
# Convention : Reuss Voigt Hill
#
# Bulk Modulus (GPa) = 29.15219 43.82286 36.48752
# Shear Modulus (GPa) = -178.33111 19.15638 -79.58736
#
# Velocity S-wave (km/s) = -9.67900 3.17230 -6.46605
# Velocity P-wave (km/s) = 10.46882 6.03652 6.04800
#
# Compressibility (1/GPa) = 0.03430274
#
# Stress axis : x y z
#
# Youngs Moduli (GPa) = 90.43079 52.07621 33.05209
#
# Poissons Ratio (x) = 0.18970 0.07089
# Poissons Ratio (y) = 0.32942 0.24192
# Poissons Ratio (z) = 0.19394 0.38116
#
# Static dielectric constant tensor:
#      x y z
#    x 1.634660 0.000000 0.013330 
#    y 0.000000 1.659620 0.000000 
#    z 0.013330 0.000000 1.691900 
# 
# From -- ./inp_files/65279.got.cif
#   From: 2010.05.17/outbox.cif.g08.bks.cpg/sg12_33_cif.got.tgz:65279.got - 2010.06.03 13:09:07.
