data_PCOD9199481
_publ_section_title
;
Structure prediction by ZEFSAII (Michael W. Deem and Ramdas Pophale) SiO2 
 PCOD9199481
Probable space group: C 2/M
;
_chemical_formula_sum "Si O2"
_cell_formula_units_Z 64
_cell_length_a 28.627213
_cell_length_b 13.880068
_cell_length_c 12.992509
_cell_angle_alpha 90.000000
_cell_angle_beta 140.023010
_cell_angle_gamma 90.000000
_cell_volume 3316.830241
_symmetry_space_group_name_H-M "C 2/M"
_symmetry_group_IT_number 12
_symmetry_cell_setting 'monoclinic'
loop_
_space_group_symop_operation_xyz
x,y,z
-x,y,-z
-x,-y,-z
x,-y,z
1/2+x,1/2+y,z
1/2-x,1/2+y,-z
1/2-x,1/2-y,-z
1/2+x,1/2-y,z
loop_
_atom_site_type_symbol
_atom_site_label
_atom_site_fract_x
_atom_site_fract_y
_atom_site_fract_z
Si Si1 0.113503 0.208306 0.442311
Si Si2 0.084516 0.111585 0.612713
Si Si3 0.381981 0.886213 0.024298
Si Si4 0.823465 0.773683 0.065092
Si Si5 0.766498 0.385865 0.646804
Si Si6 0.166554 0.113782 0.127877
Si Si7 0.022982 0.236281 0.922739
Si Si8 0.187337 0.613259 0.497780
O O1 0.098277 0.166688 0.529191
O O2 0.188143 0.161669 0.526903
O O3 0.131445 0.321784 0.466534
O O4 0.043992 0.190804 0.253019
O O5 0.126719 0.165176 0.774546
O O6 0.000000 0.112051 0.500000
O O7 0.108413 0.000000 0.642664
O O8 0.316195 0.871002 0.831033
O O9 0.390794 0.000000 0.055502
O O10 0.361154 0.824737 0.089554
O O11 0.450996 0.833912 0.089657
O O12 0.750000 0.750000 0.000000
O O13 0.810973 0.836796 0.941492
O O14 0.755082 0.500000 0.615680
O O15 0.808638 0.354410 0.614725
O O16 0.232109 0.127137 0.318977
O O17 0.154798 0.000000 0.094534
O O18 0.092561 0.165712 0.037317
O O19 0.000000 0.255716 0.000000
O O20 0.169867 0.500000 0.473047
#
# Coordination Sequence:
#
# PCOD9199481 Si02
#       8
#     8   8   8   8   8   8   8   8
#     4  12  22  36  60  86 116 149 194 242 282 337
#     4  11  24  42  62  84 113 150 192 240 292 342
#     4  10  22  40  60  85 118 154 195 238 281 338
#     4  11  22  38  60  86 114 146 193 245 295 343
#     4  10  20  36  60  88 117 152 192 235 284 339
#     4  10  21  38  57  81 116 152 190 239 292 346
#     4  11  23  37  58  88 121 157 191 230 284 342
#     4  10  21  37  58  85 119 156 190 229 282 343
#
# _framework density 19.295532000000001
#
# number of rings (size 3 to 8) (size 9 to 14) (size 15 to 20)
#    0.000    1.375    0.000    7.125    0.000    5.000 
#    0.000    0.625    0.000    1.500    0.000    0.000 
#    0.000    0.000    0.000    0.000    0.000    0.000 
#
# Total GULP energy -178905.722431 kJ/mol
# GULP energy per Si atom -5590.803826 kJ/mol
# Density = 1.925161 g / cm^3
# Si number density = 19.295532 Si / 1000 Ang^3
#
#
#
# Elastic Constant Matrix: (Units=GPa)
#
#
# Indices 1 2 3 4 5 6 
#
# 1 127.9784 64.7647 25.3645 0.0000 -13.5414 0.0000
# 2 64.7647 111.3362 23.9724 0.0000 -5.3031 0.0000
# 3 25.3645 23.9724 51.8416 0.0000 -4.5318 0.0000
# 4 0.0000 0.0000 0.0000 25.8809 0.0000 -3.8702
# 5 -13.5414 -5.3031 -4.5318 0.0000 30.6810 0.0000
# 6 0.0000 0.0000 0.0000 -3.8702 0.0000 27.3654
#
#
#
# Elastic Compliance Matrix: (Units=1/GPa)
#
#
# Indices 1 2 3 4 5 6 
#
# 1 0.011843 -0.006144 -0.002623 0.000000 0.003777 0.000000
# 2 -0.006144 0.013197 -0.003175 0.000000 -0.000900 0.000000
# 3 -0.002623 -0.003175 0.022178 0.000000 0.001569 0.000000
# 4 0.000000 0.000000 0.000000 0.039473 0.000000 0.005583
# 5 0.003777 -0.000900 0.001569 0.000000 0.034337 0.000000
# 6 0.000000 0.000000 0.000000 0.005583 0.000000 0.037332
#
#
# Mechanical properties :
#
#
# Convention : Reuss Voigt Hill
#
# Bulk Modulus (GPa) = 42.85665 57.70660 50.28163
# Shear Modulus (GPa) = 26.31281 28.58911 27.45096
#
# Velocity S-wave (km/s) = 3.69680 3.85339 3.77591
# Velocity P-wave (km/s) = 6.36244 7.05477 6.71753
#
# Compressibility (1/GPa) = 0.02333360
#
# Stress axis : x y z
#
# Youngs Moduli (GPa) = 84.44005 75.77655 45.08958
#
# Poissons Ratio (x) = 0.46559 0.11826
# Poissons Ratio (y) = 0.51882 0.14315
# Poissons Ratio (z) = 0.22147 0.24058
#
# Static dielectric constant tensor:
#      x y z
#    x 1.640740 0.000000 -0.003900 
#    y 0.000000 1.692290 0.000000 
#    z -0.003900 0.000000 1.659600 
# 
# From -- ./inp_files/183835.got.cif
#   From: 2010.05.17/outbox.cif.g08.bks.cpg/sg12_92_cif.got.tgz:183835.got - 2010.06.03 13:09:07.
