data_PCOD9199755
_publ_section_title
;
Structure prediction by ZEFSAII (Michael W. Deem and Ramdas Pophale) SiO2 
 PCOD9199755
Probable space group: C 2/M
;
_chemical_formula_sum "Si O2"
_cell_formula_units_Z 48
_cell_length_a 21.152529
_cell_length_b 20.298403
_cell_length_c 12.191934
_cell_angle_alpha 90.000000
_cell_angle_beta 153.370161
_cell_angle_gamma 90.000000
_cell_volume 2346.348679
_symmetry_space_group_name_H-M "C 2/M"
_symmetry_group_IT_number 12
_symmetry_cell_setting 'monoclinic'
loop_
_space_group_symop_operation_xyz
x,y,z
-x,y,-z
-x,-y,-z
x,-y,z
1/2+x,1/2+y,z
1/2-x,1/2+y,-z
1/2-x,1/2-y,-z
1/2+x,1/2-y,z
loop_
_atom_site_type_symbol
_atom_site_label
_atom_site_fract_x
_atom_site_fract_y
_atom_site_fract_z
Si Si1 0.876064 0.683969 0.734103
Si Si2 0.828298 0.215981 0.222985
Si Si3 0.335077 0.426290 0.522610
Si Si4 0.607919 0.425791 0.064170
Si Si5 0.770044 0.706113 0.355127
Si Si6 0.168266 0.070237 0.741094
O O1 0.748998 0.631645 0.548597
O O2 0.900285 0.697252 0.642757
O O3 0.836472 0.752381 0.732595
O O4 0.000000 0.654911 0.000000
O O5 0.786324 0.250151 0.272664
O O6 0.781902 0.139961 0.138662
O O7 0.000000 0.217921 0.500000
O O8 0.750000 0.250000 0.000000
O O9 0.301929 0.500000 0.515124
O O10 0.502213 0.416691 0.798066
O O11 0.304419 0.426308 0.346705
O O12 0.667949 0.500000 0.154184
O O13 0.500000 0.422671 0.000000
O O14 0.714283 0.365737 0.237256
O O15 0.000000 0.068585 0.500000
O O16 0.225471 0.000000 0.871986
#
# Coordination Sequence:
#
# PCOD9199755 Si02
#       6
#     8   8   8   8   8   8
#     4  11  24  36  58  89 124 164 198 247 313 384
#     4  11  26  42  65  94 128 164 212 266 310 370
#     4  10  20  37  60  90 121 155 204 259 305 362
#     4  10  20  36  61  90 120 153 201 253 301 362
#     4  11  24  39  61  88 125 160 204 249 316 372
#     4   9  19  37  61  88 118 157 209 260 308 360
#
# _framework density 20.457318000000001
#
# number of rings (size 3 to 8) (size 9 to 14) (size 15 to 20)
#    0.000    1.667    3.333    0.500    9.333    0.333 
#    0.000    0.000    0.000    2.000    0.000    0.000 
#    0.000    0.000    0.000    0.000    0.000    0.000 
#
# Total GULP energy -133801.053901 kJ/mol
# GULP energy per Si atom -5575.043913 kJ/mol
# Density = 2.041076 g / cm^3
# Si number density = 20.457318 Si / 1000 Ang^3
#
#
#
# Elastic Constant Matrix: (Units=GPa)
#
#
# Indices 1 2 3 4 5 6 
#
# 1 40.9638 34.5696 17.3950 0.0000 -15.1147 0.0000
# 2 34.5696 199.3268 56.6785 0.0000 -13.0091 0.0000
# 3 17.3950 56.6785 93.1089 0.0000 -21.2643 0.0000
# 4 0.0000 0.0000 0.0000 19.8694 0.0000 2.3305
# 5 -15.1147 -13.0091 -21.2643 0.0000 18.4013 0.0000
# 6 0.0000 0.0000 0.0000 2.3305 0.0000 21.9666
#
#
#
# Elastic Compliance Matrix: (Units=1/GPa)
#
#
# Indices 1 2 3 4 5 6 
#
# 1 0.039880 -0.005789 0.003559 0.000000 0.032777 0.000000
# 2 -0.005789 0.006907 -0.004203 0.000000 -0.004729 0.000000
# 3 0.003559 -0.004203 0.017149 0.000000 0.019769 0.000000
# 4 0.000000 0.000000 0.000000 0.050963 0.000000 -0.005407
# 5 0.032777 -0.004729 0.019769 0.000000 0.100768 0.000000
# 6 0.000000 0.000000 0.000000 -0.005407 0.000000 0.046097
#
#
# Mechanical properties :
#
#
# Convention : Reuss Voigt Hill
#
# Bulk Modulus (GPa) = 19.58112 61.18731 40.38422
# Shear Modulus (GPa) = 17.14359 27.03123 22.08741
#
# Velocity S-wave (km/s) = 2.89799 3.63898 3.28942
# Velocity P-wave (km/s) = 4.55964 6.90151 5.84898
#
# Compressibility (1/GPa) = 0.05106960
#
# Stress axis : x y z
#
# Youngs Moduli (GPa) = 25.07516 144.77023 58.31377
#
# Poissons Ratio (x) = 0.83813 -0.20756
# Poissons Ratio (y) = 0.14517 0.24511
# Poissons Ratio (z) = -0.08925 0.60851
#
# Static dielectric constant tensor:
#      x y z
#    x 1.741870 0.000000 -0.015420 
#    y 0.000000 1.763610 0.000000 
#    z -0.015420 0.000000 1.823840 
# 
# From -- ./inp_files/133410.got.cif
#   From: 2010.05.17/outbox.cif.g08.bks.cpg/sg12_67_cif.got.tgz:133410.got - 2010.06.03 13:09:07.
