data_PCOD9199023
_publ_section_title
;
Structure prediction by ZEFSAII (Michael W. Deem and Ramdas Pophale) SiO2 
 PCOD9199023
Probable space group: C 2/M
;
_chemical_formula_sum "Si O2"
_cell_formula_units_Z 40
_cell_length_a 17.910436
_cell_length_b 13.428433
_cell_length_c 15.364118
_cell_angle_alpha 90.000000
_cell_angle_beta 32.724671
_cell_angle_gamma 90.000000
_cell_volume 1997.640215
_symmetry_space_group_name_H-M "C 2/M"
_symmetry_group_IT_number 12
_symmetry_cell_setting 'monoclinic'
loop_
_space_group_symop_operation_xyz
x,y,z
-x,y,-z
-x,-y,-z
x,-y,z
1/2+x,1/2+y,z
1/2-x,1/2+y,-z
1/2-x,1/2-y,-z
1/2+x,1/2-y,z
loop_
_atom_site_type_symbol
_atom_site_label
_atom_site_fract_x
_atom_site_fract_y
_atom_site_fract_z
Si Si1 0.821157 0.500000 0.589355
Si Si2 0.380922 0.186105 0.844660
Si Si3 0.918122 0.616952 0.996564
Si Si4 0.675824 0.780520 0.484366
Si Si5 0.337022 0.613931 0.643333
Si Si6 0.652274 0.000000 0.238838
O O1 0.782701 0.393638 0.583864
O O2 0.781445 0.500000 0.730463
O O3 0.987630 0.500000 0.417781
O O4 0.510005 0.225780 0.662456
O O5 0.320737 0.095258 0.847094
O O6 0.250000 0.250000 0.000000
O O7 0.447549 0.156853 0.872362
O O8 0.950700 0.500000 0.960682
O O9 0.756170 0.627288 0.179306
O O10 0.000000 0.658642 0.000000
O O11 0.750000 0.750000 0.500000
O O12 0.707429 0.699126 0.379795
O O13 0.500000 0.621674 0.500000
O O14 0.308933 0.500000 0.639679
#
# Coordination Sequence:
#
# PCOD9199023 Si02
#       6
#     4   8   8   8   8   4
#     4   9  22  38  65  87 118 161 207 251 301 359
#     4  11  22  38  61  89 118 158 203 247 297 360
#     4  10  20  36  59  84 115 150 195 251 297 345
#     4  11  24  40  64  89 121 159 204 251 302 366
#     4  10  22  38  60  87 120 155 197 250 304 355
#     4   9  20  40  60  89 118 157 208 251 287 366
#
# _framework density 20.023626
#
# number of rings (size 3 to 8) (size 9 to 14) (size 15 to 20)
#    0.000    1.800    1.000    2.400    9.800    0.000 
#    1.800    0.000    0.000    1.200    0.000    0.000 
#    0.000    0.000    0.000    0.000    0.000    0.000 
#
# Total GULP energy -111544.194420 kJ/mol
# GULP energy per Si atom -5577.209721 kJ/mol
# Density = 1.997805 g / cm^3
# Si number density = 20.023626 Si / 1000 Ang^3
#
#
#
# Elastic Constant Matrix: (Units=GPa)
#
#
# Indices 1 2 3 4 5 6 
#
# 1 85.0851 52.5718 8.2035 0.0000 23.0628 0.0000
# 2 52.5718 130.1778 30.8634 0.0000 23.7306 0.0000
# 3 8.2035 30.8634 70.9293 0.0000 11.0866 0.0000
# 4 0.0000 0.0000 0.0000 28.0399 0.0000 10.1205
# 5 23.0628 23.7306 11.0866 0.0000 38.2307 0.0000
# 6 0.0000 0.0000 0.0000 10.1205 0.0000 22.3311
#
#
#
# Elastic Compliance Matrix: (Units=1/GPa)
#
#
# Indices 1 2 3 4 5 6 
#
# 1 0.017290 -0.006098 0.001773 0.000000 -0.007159 0.000000
# 2 -0.006098 0.011500 -0.003936 0.000000 -0.002318 0.000000
# 3 0.001773 -0.003936 0.016122 0.000000 -0.003301 0.000000
# 4 0.000000 0.000000 0.000000 0.042638 0.000000 -0.019324
# 5 -0.007159 -0.002318 -0.003301 0.000000 0.032872 0.000000
# 6 0.000000 0.000000 0.000000 -0.019324 0.000000 0.053538
#
#
# Mechanical properties :
#
#
# Convention : Reuss Voigt Hill
#
# Bulk Modulus (GPa) = 35.22400 52.16329 43.69364
# Shear Modulus (GPa) = 25.00649 30.69056 27.84853
#
# Velocity S-wave (km/s) = 3.53774 3.91924 3.73337
# Velocity P-wave (km/s) = 5.85806 6.82554 6.36022
#
# Compressibility (1/GPa) = 0.02838974
#
# Stress axis : x y z
#
# Youngs Moduli (GPa) = 57.83599 86.95443 62.02544
#
# Poissons Ratio (x) = 0.53023 -0.10995
# Poissons Ratio (y) = 0.35267 0.24416
# Poissons Ratio (z) = -0.10252 0.34229
#
# Static dielectric constant tensor:
#      x y z
#    x 1.735080 0.000000 -0.014090 
#    y 0.000000 1.703690 0.000000 
#    z -0.014090 0.000000 1.692640 
# 
# From -- ./inp_files/225573.got.cif
#   From: 2010.05.17/outbox.cif.g08.bks.cpg/sg12_113_cif.got.tgz:225573.got - 2010.06.03 13:09:07.
