data_PCOD9199454
_publ_section_title
;
Structure prediction by ZEFSAII (Michael W. Deem and Ramdas Pophale) SiO2 
 PCOD9199454
Probable space group: C 2/M
;
_chemical_formula_sum "Si O2"
_cell_formula_units_Z 48
_cell_length_a 16.142863
_cell_length_b 17.673101
_cell_length_c 14.844181
_cell_angle_alpha 90.000000
_cell_angle_beta 33.846445
_cell_angle_gamma 90.000000
_cell_volume 2358.742974
_symmetry_space_group_name_H-M "C 2/M"
_symmetry_group_IT_number 12
_symmetry_cell_setting 'monoclinic'
loop_
_space_group_symop_operation_xyz
x,y,z
-x,y,-z
-x,-y,-z
x,-y,z
1/2+x,1/2+y,z
1/2-x,1/2+y,-z
1/2-x,1/2-y,-z
1/2+x,1/2-y,z
loop_
_atom_site_type_symbol
_atom_site_label
_atom_site_fract_x
_atom_site_fract_y
_atom_site_fract_z
Si Si1 0.321148 0.000000 0.273224
Si Si2 0.670653 0.352645 0.141137
Si Si3 0.319929 0.912662 0.650962
Si Si4 0.700860 0.807377 0.162555
Si Si5 0.346048 0.000000 0.034229
Si Si6 0.099699 0.133268 0.495261
Si Si7 0.649305 0.789510 0.514663
O O1 0.488934 0.000000 0.154082
O O2 0.234126 0.075258 0.380609
O O3 0.335312 0.000000 0.152072
O O4 0.725026 0.282292 0.153791
O O5 0.503238 0.369196 0.323201
O O6 0.699342 0.329628 0.012801
O O7 0.764718 0.425894 0.074982
O O8 0.500000 0.913704 0.500000
O O9 0.267126 0.862929 0.783825
O O10 0.287831 0.864370 0.589858
O O11 0.269262 0.000000 0.695341
O O12 0.521636 0.808816 0.302349
O O13 0.139266 0.221730 0.450102
O O14 0.000000 0.109252 0.500000
O O15 0.750000 0.750000 0.500000
#
# Coordination Sequence:
#
# PCOD9199454 Si02
#       7
#     4   8   8   8   4   8   8
#     4  11  24  37  56  91 127 156 205 256 329 369
#     4  10  20  36  60  87 124 159 211 254 306 374
#     4   9  18  36  60  87 119 160 205 253 309 370
#     4   9  20  37  60  90 118 162 216 255 302 380
#     4  11  23  36  57  92 127 156 200 274 320 366
#     4  11  20  39  62  83 120 169 203 245 304 385
#     4  10  21  36  59  90 124 158 203 255 315 367
#
# _framework density 20.349822
#
# number of rings (size 3 to 8) (size 9 to 14) (size 15 to 20)
#    0.000    2.000    1.667    3.250    3.500    0.000 
#    1.500    0.000    0.000    8.000    0.000   10.500 
#    0.000    0.000    0.000    0.000    0.000    0.000 
#
# Total GULP energy -133895.652245 kJ/mol
# GULP energy per Si atom -5578.985510 kJ/mol
# Density = 2.030350 g / cm^3
# Si number density = 20.349822 Si / 1000 Ang^3
#
#
#
# Elastic Constant Matrix: (Units=GPa)
#
#
# Indices 1 2 3 4 5 6 
#
# 1 55.6296 34.7581 17.4682 -0.0004 4.6626 0.0007
# 2 34.7581 169.0183 60.7994 0.0000 -4.3836 0.0003
# 3 17.4682 60.7994 115.7919 -0.0003 11.3746 0.0012
# 4 -0.0004 0.0000 -0.0003 28.3865 0.0003 9.1740
# 5 4.6626 -4.3836 11.3746 0.0003 20.6696 -0.0009
# 6 0.0007 0.0003 0.0012 9.1740 -0.0009 14.2634
#
#
#
# Elastic Compliance Matrix: (Units=1/GPa)
#
#
# Indices 1 2 3 4 5 6 
#
# 1 0.021299 -0.004393 -0.000362 0.000001 -0.005537 -0.000002
# 2 -0.004393 0.008504 -0.004310 -0.000001 0.005167 0.000001
# 3 -0.000362 -0.004310 0.011666 0.000001 -0.007253 -0.000002
# 4 0.000001 -0.000001 0.000001 0.044472 -0.000003 -0.028604
# 5 -0.005537 0.005167 -0.007253 -0.000003 0.054716 0.000006
# 6 -0.000002 0.000001 -0.000002 -0.028604 0.000006 0.088507
#
#
# Mechanical properties :
#
#
# Convention : Reuss Voigt Hill
#
# Bulk Modulus (GPa) = 42.84865 62.94349 52.89607
# Shear Modulus (GPa) = 19.60198 27.82486 23.71342
#
# Velocity S-wave (km/s) = 3.10700 3.70175 3.41734
# Velocity P-wave (km/s) = 5.82863 7.01915 6.45141
#
# Compressibility (1/GPa) = 0.02333796
#
# Stress axis : x y z
#
# Youngs Moduli (GPa) = 46.95077 117.58515 85.71552
#
# Poissons Ratio (x) = 0.51659 0.03106
# Poissons Ratio (y) = 0.20627 0.36946
# Poissons Ratio (z) = 0.01702 0.50682
#
# Static dielectric constant tensor:
#      x y z
#    x 1.748820 0.000000 0.010170 
#    y 0.000000 1.744690 0.000000 
#    z 0.010170 0.000000 1.730160 
# 
# From -- ./inp_files/226762.got.cif
#   From: 2010.05.17/outbox.cif.g08.bks.cpg/sg12_114_cif.got.tgz:226762.got - 2010.06.03 13:09:07.
