data_PCOD9199743
_publ_section_title
;
Structure prediction by ZEFSAII (Michael W. Deem and Ramdas Pophale) SiO2 
 PCOD9199743
Probable space group: C 2/M
;
_chemical_formula_sum "Si O2"
_cell_formula_units_Z 64
_cell_length_a 12.605565
_cell_length_b 21.451459
_cell_length_c 12.849244
_cell_angle_alpha 90.000000
_cell_angle_beta 109.105184
_cell_angle_gamma 90.000000
_cell_volume 3283.155469
_symmetry_space_group_name_H-M "C 2/M"
_symmetry_group_IT_number 12
_symmetry_cell_setting 'monoclinic'
loop_
_space_group_symop_operation_xyz
x,y,z
-x,y,-z
-x,-y,-z
x,-y,z
1/2+x,1/2+y,z
1/2-x,1/2+y,-z
1/2-x,1/2-y,-z
1/2+x,1/2-y,z
loop_
_atom_site_type_symbol
_atom_site_label
_atom_site_fract_x
_atom_site_fract_y
_atom_site_fract_z
Si Si1 0.171173 0.433359 0.290782
Si Si2 0.681250 0.167768 0.770311
Si Si3 0.695806 0.300702 0.401129
Si Si4 0.001565 0.761251 0.187110
Si Si5 0.970030 0.569997 0.381745
Si Si6 0.890134 0.657276 0.904476
Si Si7 0.373950 0.427175 0.500377
Si Si8 0.804611 0.181035 0.011097
O O1 0.160546 0.500000 0.232165
O O2 0.131783 0.378454 0.207282
O O3 0.294737 0.425793 0.374000
O O4 0.087701 0.434085 0.361052
O O5 0.724028 0.194819 0.674429
O O6 0.589466 0.212148 0.796354
O O7 0.617580 0.105074 0.718265
O O8 0.781331 0.158428 0.886193
O O9 0.750000 0.250000 0.500000
O O10 0.578242 0.280457 0.309201
O O11 0.671746 0.369540 0.443459
O O12 0.078336 0.726851 0.124742
O O13 0.926993 0.812900 0.102361
O O14 0.928161 0.500000 0.390769
O O15 0.000000 0.602836 0.500000
O O16 0.781641 0.646462 0.940021
O O17 0.000000 0.634910 0.000000
O O18 0.500000 0.416298 0.500000
O O19 0.366470 0.500000 0.539075
O O20 0.750000 0.250000 0.000000
#
# Coordination Sequence:
#
# PCOD9199743 Si02
#       8
#     8   8   8   8   8   8   8   8
#     4  10  21  38  61  89 119 157 206 255 306 371
#     4  11  23  39  59  89 125 162 207 254 322 384
#     4  12  28  39  63  98 127 163 211 274 324 374
#     4  11  23  38  60  86 127 164 202 259 310 380
#     4  10  20  36  61  89 122 164 205 255 320 388
#     4  12  20  36  62  87 123 160 201 254 309 379
#     4  10  24  46  67  88 124 173 216 254 312 388
#     4  10  21  37  58  84 113 166 207 240 315 379
#
# _framework density 19.493441000000001
#
# number of rings (size 3 to 8) (size 9 to 14) (size 15 to 20)
#    0.000    1.250    3.750    3.000    5.250    1.750 
#    0.000    0.625    0.000    0.750    0.000    1.750 
#    0.000    0.000    0.000    0.000    0.000    0.000 
#
# Total GULP energy -178351.023247 kJ/mol
# GULP energy per Si atom -5573.469476 kJ/mol
# Density = 1.944907 g / cm^3
# Si number density = 19.493441 Si / 1000 Ang^3
#
#
#
# Elastic Constant Matrix: (Units=GPa)
#
#
# Indices 1 2 3 4 5 6 
#
# 1 80.1611 30.4779 48.9286 0.0000 11.3750 0.0000
# 2 30.4779 64.1832 49.3413 0.0000 13.2422 0.0000
# 3 48.9286 49.3413 132.9764 0.0000 20.3087 0.0000
# 4 0.0000 0.0000 0.0000 -76.3838 0.0000 1.7976
# 5 11.3750 13.2422 20.3087 0.0000 45.2893 0.0000
# 6 0.0000 0.0000 0.0000 1.7976 0.0000 14.5137
#
#
#
# Elastic Compliance Matrix: (Units=1/GPa)
#
#
# Indices 1 2 3 4 5 6 
#
# 1 0.017032 -0.004454 -0.004466 0.000000 -0.000973 0.000000
# 2 -0.004454 0.023336 -0.006601 0.000000 -0.002745 0.000000
# 3 -0.004466 -0.006601 0.011966 0.000000 -0.002314 0.000000
# 4 0.000000 0.000000 0.000000 -0.013054 0.000000 0.001617
# 5 -0.000973 -0.002745 -0.002314 0.000000 0.024165 0.000000
# 6 0.000000 0.000000 0.000000 0.001617 0.000000 0.068700
#
#
# Mechanical properties :
#
#
# Convention : Reuss Voigt Hill
#
# Bulk Modulus (GPa) = 46.96374 59.42403 53.19388
# Shear Modulus (GPa) = 29.36255 6.58869 17.97562
#
# Velocity S-wave (km/s) = 3.88529 1.84046 3.03997
# Velocity P-wave (km/s) = 6.65370 5.92171 6.29835
#
# Compressibility (1/GPa) = 0.02129302
#
# Stress axis : x y z
#
# Youngs Moduli (GPa) = 58.71239 42.85182 83.57009
#
# Poissons Ratio (x) = 0.19087 0.37320
# Poissons Ratio (y) = 0.26151 0.55164
# Poissons Ratio (z) = 0.26219 0.28286
#
# Static dielectric constant tensor:
#      x y z
#    x 1.669690 0.000000 -0.024850 
#    y 0.000000 1.728220 0.000000 
#    z -0.024850 0.000000 1.690500 
# 
# From -- ./inp_files/135986.got.cif
#   From: 2010.05.17/outbox.cif.g08.bks.cpg/sg12_68_cif.got.tgz:135986.got - 2010.06.03 13:09:07.
