data_PCOD9199333
_publ_section_title
;
Structure prediction by ZEFSAII (Michael W. Deem and Ramdas Pophale) SiO2 
 PCOD9199333
Probable space group: C 2/M
;
_chemical_formula_sum "Si O2"
_cell_formula_units_Z 64
_cell_length_a 21.606626
_cell_length_b 24.730827
_cell_length_c 8.795813
_cell_angle_alpha 90.000000
_cell_angle_beta 130.901217
_cell_angle_gamma 90.000000
_cell_volume 3552.476400
_symmetry_space_group_name_H-M "C 2/M"
_symmetry_group_IT_number 12
_symmetry_cell_setting 'monoclinic'
loop_
_space_group_symop_operation_xyz
x,y,z
-x,y,-z
-x,-y,-z
x,-y,z
1/2+x,1/2+y,z
1/2-x,1/2+y,-z
1/2-x,1/2-y,-z
1/2+x,1/2-y,z
loop_
_atom_site_type_symbol
_atom_site_label
_atom_site_fract_x
_atom_site_fract_y
_atom_site_fract_z
Si Si1 0.569964 0.824628 0.238532
Si Si2 0.535059 0.277853 0.393911
Si Si3 0.583417 0.059451 0.238129
Si Si4 0.695204 0.336045 0.761734
Si Si5 0.874687 0.165090 0.017760
Si Si6 0.264803 0.561868 0.374005
Si Si7 0.300428 0.235109 0.729365
Si Si8 0.099123 0.937427 0.139331
O O1 0.558676 0.774674 0.334290
O O2 0.576129 0.884445 0.319093
O O3 0.646309 0.812855 0.253813
O O4 0.500000 0.823363 0.000000
O O5 0.500000 0.259153 0.500000
O O6 0.611156 0.316809 0.547106
O O7 0.465023 0.313828 0.204834
O O8 0.671834 0.063779 0.293846
O O9 0.584463 0.000000 0.315860
O O10 0.500000 0.059300 0.000000
O O11 0.678719 0.336461 0.914444
O O12 0.723494 0.392882 0.736268
O O13 0.756543 0.289305 0.805702
O O14 0.844012 0.210354 0.851384
O O15 0.875893 0.106744 0.943905
O O16 0.275521 0.500000 0.335678
O O17 0.338124 0.570818 0.616802
O O18 0.250000 0.250000 0.500000
O O19 0.110797 0.000000 0.111679
O O20 0.000000 0.930492 0.000000
#
# Coordination Sequence:
#
# PCOD9199333 Si02
#       8
#     8   8   8   8   8   8   8   8
#     4  11  20  34  59  82 105 146 188 229 278 341
#     4  10  22  37  53  81 116 149 181 228 286 342
#     4   9  19  35  56  84 110 135 183 238 279 323
#     4  11  22  38  54  84 117 146 186 232 291 344
#     4  11  24  37  56  80 118 153 182 232 289 342
#     4  10  20  36  60  84 111 149 194 237 279 338
#     4  12  22  34  56  83 111 144 187 233 278 338
#     4  10  22  38  58  85 115 152 199 240 275 331
#
# _framework density 18.015601
#
# number of rings (size 3 to 8) (size 9 to 14) (size 15 to 20)
#    0.000    1.500    3.750    1.875    1.750    0.500 
#    0.000    0.000    0.000    4.875    0.000    0.000 
#    0.000    0.000    0.000    0.000    0.000    0.000 
#
# Total GULP energy -178171.903123 kJ/mol
# GULP energy per Si atom -5567.871973 kJ/mol
# Density = 1.797460 g / cm^3
# Si number density = 18.015601 Si / 1000 Ang^3
#
#
#
# Elastic Constant Matrix: (Units=GPa)
#
#
# Indices 1 2 3 4 5 6 
#
# 1 34.7910 23.7603 -4.7364 0.0000 7.5061 0.0000
# 2 23.7603 108.0143 15.6159 0.0000 -17.0160 0.0000
# 3 -4.7364 15.6159 40.8226 0.0000 8.1990 0.0000
# 4 0.0000 0.0000 0.0000 -31.2793 0.0000 -173.7988
# 5 7.5061 -17.0160 8.1990 0.0000 24.8683 0.0000
# 6 0.0000 0.0000 0.0000 -173.7988 0.0000 -794.5112
#
#
#
# Elastic Compliance Matrix: (Units=1/GPa)
#
#
# Indices 1 2 3 4 5 6 
#
# 1 0.054495 -0.021212 0.022121 0.000000 -0.038256 0.000000
# 2 -0.021212 0.020084 -0.015196 0.000000 0.025155 0.000000
# 3 0.022121 -0.015196 0.038880 0.000000 -0.029893 0.000000
# 4 0.000000 0.000000 0.000000 0.148389 0.000000 -0.032460
# 5 -0.038256 0.025155 -0.029893 0.000000 0.078827 0.000000
# 6 0.000000 0.000000 0.000000 -0.032460 0.000000 0.005842
#
#
# Mechanical properties :
#
#
# Convention : Reuss Voigt Hill
#
# Bulk Modulus (GPa) = 11.78087 28.10083 19.94085
# Shear Modulus (GPa) = 12.39504 -150.25193 -68.92844
#
# Velocity S-wave (km/s) = 2.62585 -9.14232 -6.19221
# Velocity P-wave (km/s) = 3.96824 9.78830 6.32708
#
# Compressibility (1/GPa) = 0.08488339
#
# Stress axis : x y z
#
# Youngs Moduli (GPa) = 18.35027 49.79102 25.72031
#
# Poissons Ratio (x) = 1.05618 -0.56895
# Poissons Ratio (y) = 0.38925 0.39085
# Poissons Ratio (z) = -0.40592 0.75663
#
# Static dielectric constant tensor:
#      x y z
#    x 1.622760 0.000000 0.036340 
#    y 0.000000 1.609830 0.000000 
#    z 0.036340 0.000000 1.607250 
# 
# From -- ./inp_files/90674.got.cif
#   From: 2010.05.17/outbox.cif.g08.bks.cpg/sg12_46_cif.got.tgz:90674.got - 2010.06.03 13:09:07.
