data_PCOD9199289
_publ_section_title
;
Structure prediction by ZEFSAII (Michael W. Deem and Ramdas Pophale) SiO2 
 PCOD9199289
Probable space group: C 2/M
;
_chemical_formula_sum "Si O2"
_cell_formula_units_Z 56
_cell_length_a 11.545059
_cell_length_b 23.531201
_cell_length_c 9.580914
_cell_angle_alpha 90.000000
_cell_angle_beta 95.504585
_cell_angle_gamma 90.000000
_cell_volume 2590.835398
_symmetry_space_group_name_H-M "C 2/M"
_symmetry_group_IT_number 12
_symmetry_cell_setting 'monoclinic'
loop_
_space_group_symop_operation_xyz
x,y,z
-x,y,-z
-x,-y,-z
x,-y,z
1/2+x,1/2+y,z
1/2-x,1/2+y,-z
1/2-x,1/2-y,-z
1/2+x,1/2-y,z
loop_
_atom_site_type_symbol
_atom_site_label
_atom_site_fract_x
_atom_site_fract_y
_atom_site_fract_z
Si Si1 0.080857 0.878877 0.130927
Si Si2 0.081258 0.432864 0.675928
Si Si3 0.805061 0.566393 0.017905
Si Si4 0.428692 0.402148 0.346659
Si Si5 0.743327 0.171905 0.641674
Si Si6 0.334418 0.067084 0.714942
Si Si7 0.885048 0.219353 0.399368
O O1 0.184593 0.910414 0.062678
O O2 0.149786 0.836541 0.241250
O O3 0.006914 0.920924 0.224603
O O4 0.000000 0.854501 0.000000
O O5 0.100631 0.500000 0.637917
O O6 0.102535 0.429271 0.846363
O O7 0.174393 0.387560 0.629365
O O8 0.052699 0.413511 0.359741
O O9 0.788803 0.500000 0.989640
O O10 0.836842 0.592488 0.871979
O O11 0.500000 0.407616 0.500000
O O12 0.299387 0.426360 0.347613
O O13 0.413215 0.335122 0.309996
O O14 0.792984 0.191898 0.498361
O O15 0.662995 0.224508 0.677741
O O16 0.358274 0.000000 0.723897
O O17 0.000000 0.234730 0.500000
#
# Coordination Sequence:
#
# PCOD9199289 Si02
#       7
#     8   8   8   8   8   8   8
#     4  11  20  37  63  92 126 159 204 268 311 363
#     4   9  19  36  61  95 130 159 205 264 316 369
#     4   9  18  33  60  90 122 166 212 254 309 377
#     4  11  22  40  60  88 128 166 209 264 314 368
#     4  10  21  39  66  96 119 163 212 253 310 372
#     4  10  20  36  59  91 128 171 210 255 314 376
#     4  10  21  41  67  88 119 164 214 253 301 382
#
# _framework density 21.614649
#
# number of rings (size 3 to 8) (size 9 to 14) (size 15 to 20)
#    0.000    2.000    4.286    0.429    0.000    5.143 
#    0.000    1.429    0.000    2.571    0.000    0.000 
#    0.000    0.000    0.000    0.000    0.000    2.857 
#
# Total GULP energy -156130.098530 kJ/mol
# GULP energy per Si atom -5576.074947 kJ/mol
# Density = 2.156545 g / cm^3
# Si number density = 21.614649 Si / 1000 Ang^3
#
#
#
# Elastic Constant Matrix: (Units=GPa)
#
#
# Indices 1 2 3 4 5 6 
#
# 1 137.8495 41.1330 24.8519 0.0000 -6.2088 0.0000
# 2 41.1330 58.7590 20.6356 0.0000 2.4338 0.0000
# 3 24.8519 20.6356 80.4320 0.0000 2.1184 0.0000
# 4 0.0000 0.0000 0.0000 -75.4446 0.0000 43.6522
# 5 -6.2088 2.4338 2.1184 0.0000 34.7498 0.0000
# 6 0.0000 0.0000 0.0000 43.6522 0.0000 4.5579
#
#
#
# Elastic Compliance Matrix: (Units=1/GPa)
#
#
# Indices 1 2 3 4 5 6 
#
# 1 0.009462 -0.006229 -0.001384 0.000000 0.002211 0.000000
# 2 -0.006229 0.022841 -0.003870 0.000000 -0.002477 0.000000
# 3 -0.001384 -0.003870 0.013875 0.000000 -0.000822 0.000000
# 4 0.000000 0.000000 0.000000 -0.002026 0.000000 0.019406
# 5 0.002211 -0.002477 -0.000822 0.000000 0.029396 0.000000
# 6 0.000000 0.000000 0.000000 0.019406 0.000000 0.033540
#
#
# Mechanical properties :
#
#
# Convention : Reuss Voigt Hill
#
# Bulk Modulus (GPa) = 43.08137 50.03128 46.55633
# Shear Modulus (GPa) = 36.28669 5.46729 20.87699
#
# Velocity S-wave (km/s) = 4.10176 1.59215 3.11122
# Velocity P-wave (km/s) = 6.51210 5.15530 5.87301
#
# Compressibility (1/GPa) = 0.02321189
#
# Stress axis : x y z
#
# Youngs Moduli (GPa) = 105.68443 43.78054 72.07233
#
# Poissons Ratio (x) = 0.27273 0.09972
# Poissons Ratio (y) = 0.65835 0.27893
# Poissons Ratio (z) = 0.14623 0.16944
#
# Static dielectric constant tensor:
#      x y z
#    x 1.862300 0.000000 -0.050350 
#    y 0.000000 1.785550 0.000000 
#    z -0.050350 0.000000 1.881870 
# 
# From -- ./inp_files/66572.got.cif
#   From: 2010.05.17/outbox.cif.g08.bks.cpg/sg12_34_cif.got.tgz:66572.got - 2010.06.03 13:09:07.
