data_PCOD9199646
_publ_section_title
;
Structure prediction by ZEFSAII (Michael W. Deem and Ramdas Pophale) SiO2 
 PCOD9199646
Probable space group: C 2/M
;
_chemical_formula_sum "Si O2"
_cell_formula_units_Z 56
_cell_length_a 30.574282
_cell_length_b 14.936872
_cell_length_c 11.992995
_cell_angle_alpha 90.000000
_cell_angle_beta 30.843104
_cell_angle_gamma 90.000000
_cell_volume 2808.002640
_symmetry_space_group_name_H-M "C 2/M"
_symmetry_group_IT_number 12
_symmetry_cell_setting 'monoclinic'
loop_
_space_group_symop_operation_xyz
x,y,z
-x,y,-z
-x,-y,-z
x,-y,z
1/2+x,1/2+y,z
1/2-x,1/2+y,-z
1/2-x,1/2-y,-z
1/2+x,1/2-y,z
loop_
_atom_site_type_symbol
_atom_site_label
_atom_site_fract_x
_atom_site_fract_y
_atom_site_fract_z
Si Si1 0.335629 0.730656 0.383933
Si Si2 0.871760 0.602255 0.450520
Si Si3 0.818810 0.898626 0.044144
Si Si4 0.569205 0.096852 0.445893
Si Si5 0.935291 0.101391 0.006656
Si Si6 0.154560 0.784745 0.218957
Si Si7 0.130354 0.894884 0.497072
O O1 0.250000 0.750000 0.500000
O O2 0.374797 0.821626 0.350304
O O3 0.403471 0.676631 0.160726
O O4 0.317339 0.664152 0.528091
O O5 0.868025 0.500000 0.415087
O O6 0.780682 0.620656 0.712156
O O7 0.943235 0.604650 0.391920
O O8 0.870417 0.893994 0.045510
O O9 0.823003 0.000000 0.992334
O O10 0.862139 0.835555 0.859306
O O11 0.500000 0.087882 0.500000
O O12 0.605146 0.193345 0.340574
O O13 0.618076 0.000000 0.331314
O O14 0.927555 0.000000 0.071857
O O15 0.031141 0.112440 0.751962
O O16 0.141458 0.850113 0.352148
O O17 0.250000 0.750000 0.000000
O O18 0.153048 0.000000 0.447111
#
# Coordination Sequence:
#
# PCOD9199646 Si02
#       7
#     8   8   8   8   8   8   8
#     4  12  22  38  67  95 127 173 221 261 317 384
#     4  10  20  39  62  91 129 170 217 266 316 376
#     4  10  20  36  60  93 130 168 206 257 326 389
#     4  10  22  40  62  89 124 169 215 259 317 381
#     4  10  23  42  66  95 132 171 211 263 329 389
#     4  12  23  38  64  94 127 166 213 263 323 387
#     4  11  25  43  63  97 134 167 209 270 332 388
#
# _framework density 19.943002
#
# number of rings (size 3 to 8) (size 9 to 14) (size 15 to 20)
#    0.000    1.286    4.286    1.286    2.000    2.286 
#    0.000    2.143    0.000    2.571    0.000    0.000 
#    0.000    0.000    0.000    0.000    0.000    0.000 
#
# Total GULP energy -156110.656679 kJ/mol
# GULP energy per Si atom -5575.380596 kJ/mol
# Density = 1.989761 g / cm^3
# Si number density = 19.943002 Si / 1000 Ang^3
#
#
#
# Elastic Constant Matrix: (Units=GPa)
#
#
# Indices 1 2 3 4 5 6 
#
# 1 134.6986 67.3092 23.8475 0.0000 1.8384 0.0000
# 2 67.3092 189.7348 49.9483 0.0000 31.2331 0.0000
# 3 23.8475 49.9483 42.0899 0.0000 14.5455 0.0000
# 4 0.0000 0.0000 0.0000 29.8695 0.0000 12.0984
# 5 1.8384 31.2331 14.5455 0.0000 26.3933 0.0000
# 6 0.0000 0.0000 0.0000 12.0984 0.0000 66.9282
#
#
#
# Elastic Compliance Matrix: (Units=1/GPa)
#
#
# Indices 1 2 3 4 5 6 
#
# 1 0.009626 -0.003427 -0.003158 0.000000 0.005126 0.000000
# 2 -0.003427 0.009463 -0.006794 0.000000 -0.007215 0.000000
# 3 -0.003158 -0.006794 0.037992 0.000000 -0.012677 0.000000
# 4 0.000000 0.000000 0.000000 0.036124 0.000000 -0.006530
# 5 0.005126 -0.007215 -0.012677 0.000000 0.053056 0.000000
# 6 0.000000 0.000000 0.000000 -0.006530 0.000000 0.016122
#
#
# Mechanical properties :
#
#
# Convention : Reuss Voigt Hill
#
# Bulk Modulus (GPa) = 32.98018 72.08146 52.53082
# Shear Modulus (GPa) = 25.09445 39.66610 32.38027
#
# Velocity S-wave (km/s) = 3.55111 4.46463 4.03381
# Velocity P-wave (km/s) = 5.77815 7.92461 6.93493
#
# Compressibility (1/GPa) = 0.03032124
#
# Stress axis : x y z
#
# Youngs Moduli (GPa) = 103.88881 105.67997 26.32140
#
# Poissons Ratio (x) = 0.36218 0.08313
# Poissons Ratio (y) = 0.35604 0.17883
# Poissons Ratio (z) = 0.32809 0.71802
#
# Static dielectric constant tensor:
#      x y z
#    x 1.751880 0.000000 0.001440 
#    y 0.000000 1.723620 0.000000 
#    z 0.001440 0.000000 1.687170 
# 
# From -- ./inp_files/189624.got.cif
#   From: 2010.05.17/outbox.cif.g08.bks.cpg/sg12_95_cif.got.tgz:189624.got - 2010.06.03 13:09:07.
