data_PCOD9199475
_publ_section_title
;
Structure prediction by ZEFSAII (Michael W. Deem and Ramdas Pophale) SiO2 
 PCOD9199475
Probable space group: C 2/M
;
_chemical_formula_sum "Si O2"
_cell_formula_units_Z 40
_cell_length_a 21.639196
_cell_length_b 9.194624
_cell_length_c 30.973648
_cell_angle_alpha 90.000000
_cell_angle_beta 19.770921
_cell_angle_gamma 90.000000
_cell_volume 2084.579948
_symmetry_space_group_name_H-M "C 2/M"
_symmetry_group_IT_number 12
_symmetry_cell_setting 'monoclinic'
loop_
_space_group_symop_operation_xyz
x,y,z
-x,y,-z
-x,-y,-z
x,-y,z
1/2+x,1/2+y,z
1/2-x,1/2+y,-z
1/2-x,1/2-y,-z
1/2+x,1/2-y,z
loop_
_atom_site_type_symbol
_atom_site_label
_atom_site_fract_x
_atom_site_fract_y
_atom_site_fract_z
Si Si1 0.752005 0.167572 0.329529
Si Si2 0.057248 0.831427 0.520843
Si Si3 0.647993 0.669178 0.027880
Si Si4 0.557461 0.331680 0.622098
Si Si5 0.327911 0.823461 0.081191
O O1 0.739097 0.252147 0.383562
O O2 0.606939 0.248221 0.394538
O O3 0.705131 0.000000 0.368107
O O4 0.940791 0.171444 0.180725
O O5 0.022889 0.824581 0.593817
O O6 0.065526 0.000000 0.503182
O O7 0.707277 0.500000 0.984900
O O8 0.658567 0.749572 0.974762
O O9 0.750000 0.750000 0.000000
O O10 0.585098 0.500000 0.616859
O O11 0.750000 0.250000 0.500000
O O12 0.370821 0.281322 0.768235
O O13 0.331346 0.000000 0.074632
O O14 0.500000 0.785723 0.000000
#
# Coordination Sequence:
#
# PCOD9199475 Si02
#       5
#     8   8   8   8   8
#     4  10  21  37  58  86 118 154 194 244 301 355
#     4  10  20  36  60  88 116 153 198 241 292 360
#     4  11  25  41  61  90 125 162 206 257 311 368
#     4  10  23  39  59  89 122 158 199 248 305 359
#     4  10  22  43  68  92 124 165 211 260 311 373
#
# _framework density 19.188517999999998
#
# number of rings (size 3 to 8) (size 9 to 14) (size 15 to 20)
#    0.000    1.800    0.000    4.200    2.800    7.600 
#    0.000    0.000    0.000    0.000    0.000    0.000 
#    0.000    0.000    0.000    0.000    0.000    0.000 
#
# Total GULP energy -111502.447267 kJ/mol
# GULP energy per Si atom -5575.122363 kJ/mol
# Density = 1.914484 g / cm^3
# Si number density = 19.188518 Si / 1000 Ang^3
#
#
#
# Elastic Constant Matrix: (Units=GPa)
#
#
# Indices 1 2 3 4 5 6 
#
# 1 111.5645 62.3164 58.2224 -0.0047 11.8276 -0.0006
# 2 62.3164 121.0981 60.6860 -0.0025 5.0241 0.0011
# 3 58.2224 60.6860 141.1860 0.0013 14.3185 0.0000
# 4 -0.0047 -0.0025 0.0013 30.0567 0.0013 9.6083
# 5 11.8276 5.0241 14.3185 0.0013 36.0549 -0.0025
# 6 -0.0006 0.0011 0.0000 9.6083 -0.0025 24.6734
#
#
#
# Elastic Compliance Matrix: (Units=1/GPa)
#
#
# Indices 1 2 3 4 5 6 
#
# 1 0.013938 -0.005501 -0.003123 0.000002 -0.002565 -0.000001
# 2 -0.005501 0.012700 -0.003328 0.000001 0.001356 -0.000001
# 3 -0.003123 -0.003328 0.010055 -0.000001 -0.002505 0.000000
# 4 0.000002 0.000001 -0.000001 0.038001 -0.000003 -0.014798
# 5 -0.002565 0.001356 -0.002505 -0.000003 0.029383 0.000004
# 6 -0.000001 -0.000001 0.000000 -0.014798 0.000004 0.046292
#
#
# Mechanical properties :
#
#
# Convention : Reuss Voigt Hill
#
# Bulk Modulus (GPa) = 78.19039 81.81090 80.00064
# Shear Modulus (GPa) = 28.00553 30.99858 29.50205
#
# Velocity S-wave (km/s) = 3.82448 4.02366 3.92533
# Velocity P-wave (km/s) = 7.76783 8.01962 7.89473
#
# Compressibility (1/GPa) = 0.01278930
#
# Stress axis : x y z
#
# Youngs Moduli (GPa) = 71.74712 78.74068 99.45048
#
# Poissons Ratio (x) = 0.43314 0.31059
# Poissons Ratio (y) = 0.39467 0.33097
# Poissons Ratio (z) = 0.22407 0.26204
#
# Static dielectric constant tensor:
#      x y z
#    x 1.556510 -0.000080 0.111850 
#    y -0.000080 1.676870 0.000090 
#    z 0.111850 0.000090 1.624390 
# 
# From -- ./inp_files/230618.got.cif
#   From: 2010.05.17/outbox.cif.g08.bks.cpg/sg12_116_cif.got.tgz:230618.got - 2010.06.03 13:09:07.
