data_PCOD9199945
_publ_section_title
;
Structure prediction by ZEFSAII (Michael W. Deem and Ramdas Pophale) SiO2 
 PCOD9199945
Probable space group: C 2/M
;
_chemical_formula_sum "Si O2"
_cell_formula_units_Z 64
_cell_length_a 31.120254
_cell_length_b 8.121256
_cell_length_c 14.807858
_cell_angle_alpha 90.000000
_cell_angle_beta 126.874304
_cell_angle_gamma 90.000000
_cell_volume 2993.805004
_symmetry_space_group_name_H-M "C 2/M"
_symmetry_group_IT_number 12
_symmetry_cell_setting 'monoclinic'
loop_
_space_group_symop_operation_xyz
x,y,z
-x,y,-z
-x,-y,-z
x,-y,z
1/2+x,1/2+y,z
1/2-x,1/2+y,-z
1/2-x,1/2-y,-z
1/2+x,1/2-y,z
loop_
_atom_site_type_symbol
_atom_site_label
_atom_site_fract_x
_atom_site_fract_y
_atom_site_fract_z
Si Si1 0.804016 0.189218 0.116960
Si Si2 0.912954 0.308445 0.174195
Si Si3 0.211076 0.197479 0.531315
Si Si4 0.052183 0.801391 0.119606
Si Si5 0.010292 0.806699 0.413662
Si Si6 0.132354 0.697538 0.070778
Si Si7 0.412415 0.701460 0.641266
Si Si8 0.754760 0.690446 0.228921
O O1 0.855256 0.291086 0.149520
O O2 0.791670 0.206895 0.207261
O O3 0.814024 0.000000 0.105648
O O4 0.750000 0.250000 0.000000
O O5 0.928837 0.500000 0.191971
O O6 0.957087 0.211187 0.286169
O O7 0.903747 0.247922 0.060149
O O8 0.250000 0.250000 0.500000
O O9 0.149826 0.248397 0.434436
O O10 0.230417 0.273852 0.649517
O O11 0.212446 0.000000 0.541647
O O12 0.104316 0.752868 0.127490
O O13 0.057763 0.743191 0.229691
O O14 0.049271 0.000000 0.118080
O O15 0.000000 0.738561 0.000000
O O16 0.000000 0.733593 0.500000
O O17 0.058213 0.737847 0.412164
O O18 0.022633 0.000000 0.442663
O O19 0.135701 0.500000 0.071922
O O20 0.192248 0.765987 0.136443
O O21 0.414596 0.500000 0.643573
O O22 0.762984 0.500000 0.217082
#
# Coordination Sequence:
#
# PCOD9199945 Si02
#       8
#     8   8   8   8   8   8   8   8
#     4  12  24  41  65  95 129 168 211 262 320 386
#     4  11  24  41  62  91 129 167 206 261 323 381
#     4  11  23  41  65  93 131 174 220 271 322 386
#     4  10  20  36  62  91 123 161 205 256 315 381
#     4  10  22  41  66  93 121 164 219 266 319 385
#     4  11  23  39  61  90 125 162 205 259 317 382
#     4   9  20  39  61  90 126 165 208 263 322 380
#     4  12  25  41  63  92 126 166 213 262 321 387
#
# _framework density 21.377476999999999
#
# number of rings (size 3 to 8) (size 9 to 14) (size 15 to 20)
#    0.000    1.250    1.250    4.875    1.750    4.000 
#    0.000    2.500    0.000    0.000    0.000    0.000 
#    0.000    0.000    0.000    0.000    0.000    0.000 
#
# Total GULP energy -179018.848354 kJ/mol
# GULP energy per Si atom -5594.339011 kJ/mol
# Density = 2.132882 g / cm^3
# Si number density = 21.377477 Si / 1000 Ang^3
#
#
#
# Elastic Constant Matrix: (Units=GPa)
#
#
# Indices 1 2 3 4 5 6 
#
# 1 132.0031 -9.5788 40.5414 0.0000 -15.9156 0.0000
# 2 -9.5788 35.8347 1.7828 0.0000 -1.8686 0.0000
# 3 40.5414 1.7828 108.3268 0.0000 -17.6070 0.0000
# 4 0.0000 0.0000 0.0000 17.1252 0.0000 -0.1548
# 5 -15.9156 -1.8686 -17.6070 0.0000 41.6543 0.0000
# 6 0.0000 0.0000 0.0000 -0.1548 0.0000 19.9989
#
#
#
# Elastic Compliance Matrix: (Units=1/GPa)
#
#
# Indices 1 2 3 4 5 6 
#
# 1 0.008974 0.002668 -0.003034 0.000000 0.002266 0.000000
# 2 0.002668 0.028772 -0.001177 0.000000 0.001812 0.000000
# 3 -0.003034 -0.001177 0.010941 0.000000 0.003412 0.000000
# 4 0.000000 0.000000 0.000000 0.058398 0.000000 0.000452
# 5 0.002266 0.001812 0.003412 0.000000 0.026397 0.000000
# 6 0.000000 0.000000 0.000000 0.000452 0.000000 0.050006
#
#
# Mechanical properties :
#
#
# Convention : Reuss Voigt Hill
#
# Bulk Modulus (GPa) = 21.92981 37.96173 29.94577
# Shear Modulus (GPa) = 24.78004 31.98363 28.38183
#
# Velocity S-wave (km/s) = 3.40835 3.87219 3.64765
# Velocity P-wave (km/s) = 5.07639 6.14721 5.63728
#
# Compressibility (1/GPa) = 0.04560002
#
# Stress axis : x y z
#
# Youngs Moduli (GPa) = 111.42938 34.75580 91.40001
#
# Poissons Ratio (x) = -0.09273 0.27733
# Poissons Ratio (y) = -0.29729 0.10762
# Poissons Ratio (z) = 0.33810 0.04092
#
# Static dielectric constant tensor:
#      x y z
#    x 1.755350 0.000000 -0.018740 
#    y 0.000000 1.770240 0.000000 
#    z -0.018740 0.000000 1.758610 
# 
# From -- ./inp_files/250116.got.cif
#   From: 2010.05.17/outbox.cif.g08.bks.cpg/sg12_126_cif.got.tgz:250116.got - 2010.06.03 13:09:07.
