data_PCOD9199018
_publ_section_title
;
Structure prediction by ZEFSAII (Michael W. Deem and Ramdas Pophale) SiO2 
 PCOD9199018
Probable space group: C 2/M
;
_chemical_formula_sum "Si O2"
_cell_formula_units_Z 56
_cell_length_a 15.955584
_cell_length_b 8.549426
_cell_length_c 24.039826
_cell_angle_alpha 90.000000
_cell_angle_beta 122.104607
_cell_angle_gamma 90.000000
_cell_volume 2777.825722
_symmetry_space_group_name_H-M "C 2/M"
_symmetry_group_IT_number 12
_symmetry_cell_setting 'monoclinic'
loop_
_space_group_symop_operation_xyz
x,y,z
-x,y,-z
-x,-y,-z
x,-y,z
1/2+x,1/2+y,z
1/2-x,1/2+y,-z
1/2-x,1/2-y,-z
1/2+x,1/2-y,z
loop_
_atom_site_type_symbol
_atom_site_label
_atom_site_fract_x
_atom_site_fract_y
_atom_site_fract_z
Si Si1 0.899902 0.820391 0.429984
Si Si2 0.173604 0.314371 0.700374
Si Si3 0.223478 0.186955 0.836360
Si Si4 0.223278 0.179977 0.431288
Si Si5 0.943915 0.686749 0.151472
Si Si6 0.048422 0.309189 0.074892
Si Si7 0.618311 0.311102 0.288513
O O1 0.904111 0.773671 0.366885
O O2 0.822417 0.702364 0.430151
O O3 0.000000 0.810105 0.500000
O O4 0.863703 0.000000 0.421810
O O5 0.158670 0.500000 0.691875
O O6 0.174668 0.258329 0.763837
O O7 0.282787 0.277616 0.713043
O O8 0.159024 0.238122 0.866290
O O9 0.337385 0.240503 0.880055
O O10 0.222441 0.000000 0.831123
O O11 0.250000 0.250000 0.500000
O O12 0.140032 0.244433 0.359474
O O13 0.199024 0.000000 0.431998
O O14 0.933681 0.500000 0.146714
O O15 0.985972 0.740786 0.106702
O O16 0.025814 0.733933 0.226090
O O17 0.048581 0.500000 0.075148
O O18 0.000000 0.257644 0.000000
O O19 0.606429 0.500000 0.285166
#
# Coordination Sequence:
#
# PCOD9199018 Si02
#       7
#     8   8   8   8   8   8   8
#     4  10  21  36  55  80 113 153 195 243 298 359
#     4  10  20  36  59  84 114 152 197 251 302 357
#     4  11  22  38  62  91 122 161 203 247 301 360
#     4  10  21  36  55  80 111 152 196 248 302 355
#     4  11  22  37  61  92 121 157 204 249 297 358
#     4   9  20  40  64  90 124 163 201 247 303 362
#     4   9  19  36  57  81 113 151 194 247 304 357
#
# _framework density 20.159649999999999
#
# number of rings (size 3 to 8) (size 9 to 14) (size 15 to 20)
#    0.000    2.000    1.429    3.000    0.000    5.714 
#    0.000    1.429    0.000    6.000    0.000    0.000 
#    0.000    0.000    0.000    0.000    0.000    0.000 
#
# Total GULP energy -156321.869234 kJ/mol
# GULP energy per Si atom -5582.923901 kJ/mol
# Density = 2.011377 g / cm^3
# Si number density = 20.159650 Si / 1000 Ang^3
#
#
#
# Elastic Constant Matrix: (Units=GPa)
#
#
# Indices 1 2 3 4 5 6 
#
# 1 89.5910 9.7206 48.0301 0.0000 -19.5097 0.0000
# 2 9.7206 24.5610 15.8096 0.0000 -1.2806 0.0000
# 3 48.0301 15.8096 142.0584 0.0000 -23.8010 0.0000
# 4 0.0000 0.0000 0.0000 17.0457 0.0000 -2.1558
# 5 -19.5097 -1.2806 -23.8010 0.0000 21.6394 0.0000
# 6 0.0000 0.0000 0.0000 -2.1558 0.0000 27.2667
#
#
#
# Elastic Compliance Matrix: (Units=1/GPa)
#
#
# Indices 1 2 3 4 5 6 
#
# 1 0.015459 -0.003585 -0.003099 0.000000 0.010317 0.000000
# 2 -0.003585 0.044893 -0.004757 0.000000 -0.005808 0.000000
# 3 -0.003099 -0.004757 0.009931 0.000000 0.007848 0.000000
# 4 0.000000 0.000000 0.000000 0.059258 0.000000 0.004685
# 5 0.010317 -0.005808 0.007848 0.000000 0.063801 0.000000
# 6 0.000000 0.000000 0.000000 0.004685 0.000000 0.037045
#
#
# Mechanical properties :
#
#
# Convention : Reuss Voigt Hill
#
# Bulk Modulus (GPa) = 21.09689 44.81456 32.95572
# Shear Modulus (GPa) = 18.58244 25.36705 21.97475
#
# Velocity S-wave (km/s) = 3.03935 3.55111 3.30515
# Velocity P-wave (km/s) = 4.77541 6.25236 5.56311
#
# Compressibility (1/GPa) = 0.04740035
#
# Stress axis : x y z
#
# Youngs Moduli (GPa) = 64.68766 22.27513 100.69029
#
# Poissons Ratio (x) = 0.07987 0.31206
# Poissons Ratio (y) = 0.23193 0.47898
# Poissons Ratio (z) = 0.20048 0.10596
#
# Static dielectric constant tensor:
#      x y z
#    x 1.732150 0.000000 -0.019480 
#    y 0.000000 1.686070 0.000000 
#    z -0.019480 0.000000 1.734200 
# 
# From -- ./inp_files/339057.got.cif
#   From: 2010.05.17/outbox.cif.g08.bks.cpg/sg12_170_cif.got.tgz:339057.got - 2010.06.03 13:09:07.
