data_PCOD9199630
_publ_section_title
;
Structure prediction by ZEFSAII (Michael W. Deem and Ramdas Pophale) SiO2 
 PCOD9199630
Probable space group: C 2/M
;
_chemical_formula_sum "Si O2"
_cell_formula_units_Z 56
_cell_length_a 24.129662
_cell_length_b 8.531527
_cell_length_c 12.373525
_cell_angle_alpha 90.000000
_cell_angle_beta 68.812764
_cell_angle_gamma 90.000000
_cell_volume 2375.066280
_symmetry_space_group_name_H-M "C 2/M"
_symmetry_group_IT_number 12
_symmetry_cell_setting 'monoclinic'
loop_
_space_group_symop_operation_xyz
x,y,z
-x,y,-z
-x,-y,-z
x,-y,z
1/2+x,1/2+y,z
1/2-x,1/2+y,-z
1/2-x,1/2-y,-z
1/2+x,1/2-y,z
loop_
_atom_site_type_symbol
_atom_site_label
_atom_site_fract_x
_atom_site_fract_y
_atom_site_fract_z
Si Si1 0.099502 0.816057 0.086516
Si Si2 0.336625 0.322291 0.536642
Si Si3 0.166121 0.319424 0.227792
Si Si4 0.526186 0.179426 0.822843
Si Si5 0.287919 0.181409 0.116691
Si Si6 0.158174 0.812155 0.711231
Si Si7 0.545863 0.828055 0.563448
O O1 0.116621 0.781664 0.199906
O O2 0.034926 0.755743 0.093688
O O3 0.103371 0.000000 0.063095
O O4 0.152093 0.727566 0.987150
O O5 0.315867 0.500000 0.565979
O O6 0.325333 0.224391 0.652567
O O7 0.321956 0.267386 0.424905
O O8 0.408236 0.311956 0.478433
O O9 0.149766 0.500000 0.227832
O O10 0.230314 0.284491 0.129880
O O11 0.589152 0.269014 0.785483
O O12 0.515991 0.175167 0.700636
O O13 0.533384 0.000000 0.856057
O O14 0.303487 0.218125 0.230110
O O15 0.273271 0.000000 0.110950
O O16 0.165513 0.000000 0.717177
O O17 0.500000 0.822359 0.500000
O O18 0.577352 0.000000 0.535536
#
# Coordination Sequence:
#
# PCOD9199630 Si02
#       7
#     8   8   8   8   8   8   8
#     4  12  25  43  66  94 127 163 207 258 314 371
#     4  10  21  37  60  90 124 161 203 252 306 366
#     4  12  25  43  66  93 126 164 208 257 312 371
#     4  10  20  36  60  92 127 164 206 253 308 368
#     4  12  26  45  67  91 122 163 212 262 312 369
#     4  10  22  42  65  94 130 167 209 256 310 369
#     4   9  17  30  51  81 119 160 200 246 302 364
#
# _framework density 23.578291
#
# number of rings (size 3 to 8) (size 9 to 14) (size 15 to 20)
#    0.000    1.286    0.000    6.429    0.000    4.857 
#    0.000    2.857    0.000    0.000    0.000    0.000 
#    0.000    0.000    0.000    0.000    0.000    0.000 
#
# Total GULP energy -156580.900136 kJ/mol
# GULP energy per Si atom -5592.175005 kJ/mol
# Density = 2.352463 g / cm^3
# Si number density = 23.578291 Si / 1000 Ang^3
#
#
#
# Elastic Constant Matrix: (Units=GPa)
#
#
# Indices 1 2 3 4 5 6 
#
# 1 70.9012 -6.7418 -0.3727 0.0000 -6.5147 0.0000
# 2 -6.7418 65.3267 3.1195 0.0000 7.7571 0.0000
# 3 -0.3727 3.1195 70.0826 0.0000 1.5254 0.0000
# 4 0.0000 0.0000 0.0000 31.4798 0.0000 -2.5266
# 5 -6.5147 7.7571 1.5254 0.0000 31.5976 0.0000
# 6 0.0000 0.0000 0.0000 -2.5266 0.0000 30.1093
#
#
#
# Elastic Compliance Matrix: (Units=1/GPa)
#
#
# Indices 1 2 3 4 5 6 
#
# 1 0.014463 0.001174 -0.000034 0.000000 0.002695 0.000000
# 2 0.001174 0.015889 -0.000622 0.000000 -0.003629 0.000000
# 3 -0.000034 -0.000622 0.014308 0.000000 -0.000545 0.000000
# 4 0.000000 0.000000 0.000000 0.031982 0.000000 0.002684
# 5 0.002695 -0.003629 -0.000545 0.000000 0.033121 0.000000
# 6 0.000000 0.000000 0.000000 0.002684 0.000000 0.033438
#
#
# Mechanical properties :
#
#
# Convention : Reuss Voigt Hill
#
# Bulk Modulus (GPa) = 21.88315 22.03560 21.95938
# Shear Modulus (GPa) = 31.76675 32.65770 32.21222
#
# Velocity S-wave (km/s) = 3.67452 3.72570 3.70020
# Velocity P-wave (km/s) = 5.22533 5.27956 5.25251
#
# Compressibility (1/GPa) = 0.04569725
#
# Stress axis : x y z
#
# Youngs Moduli (GPa) = 69.14065 62.93482 69.88975
#
# Poissons Ratio (x) = -0.07390 0.00238
# Poissons Ratio (y) = -0.08119 0.04347
# Poissons Ratio (z) = 0.00235 0.03915
#
# Static dielectric constant tensor:
#      x y z
#    x 1.871520 0.000000 0.000660 
#    y 0.000000 1.837680 0.000000 
#    z 0.000660 0.000000 2.165520 
# 
# From -- ./inp_files/180681.got.cif
#   From: 2010.05.17/outbox.cif.g08.bks.cpg/sg12_91_cif.got.tgz:180681.got - 2010.06.03 13:09:07.
