data_PCOD9199569
_publ_section_title
;
Structure prediction by ZEFSAII (Michael W. Deem and Ramdas Pophale) SiO2 
 PCOD9199569
Probable space group: C 2/M
;
_chemical_formula_sum "Si O2"
_cell_formula_units_Z 64
_cell_length_a 29.773176
_cell_length_b 7.768712
_cell_length_c 19.779310
_cell_angle_alpha 90.000000
_cell_angle_beta 140.236917
_cell_angle_gamma 90.000000
_cell_volume 2926.197628
_symmetry_space_group_name_H-M "C 2/M"
_symmetry_group_IT_number 12
_symmetry_cell_setting 'monoclinic'
loop_
_space_group_symop_operation_xyz
x,y,z
-x,y,-z
-x,-y,-z
x,-y,z
1/2+x,1/2+y,z
1/2-x,1/2+y,-z
1/2-x,1/2-y,-z
1/2+x,1/2-y,z
loop_
_atom_site_type_symbol
_atom_site_label
_atom_site_fract_x
_atom_site_fract_y
_atom_site_fract_z
Si Si1 0.202617 0.297527 0.118886
Si Si2 0.568581 0.804332 0.614563
Si Si3 0.713165 0.208602 0.283581
Si Si4 0.369858 0.700431 0.446020
Si Si5 0.952291 0.294028 0.668971
Si Si6 0.826366 0.292322 0.619057
Si Si7 0.179103 0.800536 0.844597
Si Si8 0.608859 0.294755 0.895445
O O1 0.220482 0.500000 0.147333
O O2 0.197881 0.228163 0.189744
O O3 0.262572 0.221740 0.138022
O O4 0.131809 0.279209 0.993989
O O5 0.500000 0.724808 0.500000
O O6 0.621408 0.804292 0.612496
O O7 0.606031 0.709926 0.718807
O O8 0.551888 0.000000 0.616568
O O9 0.795284 0.246056 0.392399
O O10 0.671149 0.271451 0.300380
O O11 0.705066 0.000000 0.273161
O O12 0.367110 0.500000 0.423853
O O13 0.431800 0.730592 0.570601
O O14 0.949166 0.500000 0.663342
O O15 0.890783 0.228529 0.647830
O O16 0.029318 0.243238 0.782455
O O17 0.831327 0.500000 0.625982
O O18 0.750000 0.250000 0.500000
O O19 0.161483 0.724558 0.897632
O O20 0.197674 0.000000 0.876293
O O21 0.617220 0.500000 0.907688
#
# Coordination Sequence:
#
# PCOD9199569 Si02
#       8
#     8   8   8   8   8   8   8   8
#     4  10  20  39  63  85 113 150 195 244 293 346
#     4  11  23  35  50  79 119 157 194 238 288 342
#     4   9  18  35  60  87 114 146 185 232 289 344
#     4  11  20  35  59  83 115 154 191 235 287 349
#     4  11  23  38  58  87 121 155 194 241 292 349
#     4  10  20  36  60  90 119 149 191 237 289 351
#     4  10  21  38  59  84 112 151 199 241 290 348
#     4  11  24  40  59  85 117 155 199 243 290 346
#
# _framework density 21.871386000000001
#
# number of rings (size 3 to 8) (size 9 to 14) (size 15 to 20)
#    0.000    1.625    2.500    2.625    0.000    5.000 
#    0.000    1.250    0.000    3.750    0.000    0.000 
#    0.000    0.000    0.000    0.000    0.000    0.000 
#
# Total GULP energy -178769.028807 kJ/mol
# GULP energy per Si atom -5586.532150 kJ/mol
# Density = 2.182161 g / cm^3
# Si number density = 21.871386 Si / 1000 Ang^3
#
#
#
# Elastic Constant Matrix: (Units=GPa)
#
#
# Indices 1 2 3 4 5 6 
#
# 1 99.4670 2.2618 37.4886 0.0000 -22.2820 0.0000
# 2 2.2618 44.8327 -2.6749 0.0000 -0.0254 0.0000
# 3 37.4886 -2.6749 136.7502 0.0000 -21.8263 0.0000
# 4 0.0000 0.0000 0.0000 21.7587 0.0000 1.7139
# 5 -22.2820 -0.0254 -21.8263 0.0000 33.0354 0.0000
# 6 0.0000 0.0000 0.0000 1.7139 0.0000 13.5013
#
#
#
# Elastic Compliance Matrix: (Units=1/GPa)
#
#
# Indices 1 2 3 4 5 6 
#
# 1 0.012495 -0.000766 -0.002342 0.000000 0.006880 0.000000
# 2 -0.000766 0.022382 0.000635 0.000000 -0.000080 0.000000
# 3 -0.002342 0.000635 0.008625 0.000000 0.004119 0.000000
# 4 0.000000 0.000000 0.000000 0.046423 0.000000 -0.005893
# 5 0.006880 -0.000080 0.004119 0.000000 0.037632 0.000000
# 6 0.000000 0.000000 0.000000 -0.005893 0.000000 0.074815
#
#
# Mechanical properties :
#
#
# Convention : Reuss Voigt Hill
#
# Bulk Modulus (GPa) = 25.93750 39.46675 32.70213
# Shear Modulus (GPa) = 22.70984 29.92406 26.31695
#
# Velocity S-wave (km/s) = 3.22582 3.70291 3.47257
# Velocity P-wave (km/s) = 5.07537 6.03043 5.57340
#
# Compressibility (1/GPa) = 0.03855422
#
# Stress axis : x y z
#
# Youngs Moduli (GPa) = 80.03249 44.67945 115.94830
#
# Poissons Ratio (x) = 0.03423 0.27159
# Poissons Ratio (y) = 0.06132 -0.07364
# Poissons Ratio (z) = 0.18746 -0.02837
#
# Static dielectric constant tensor:
#      x y z
#    x 1.855800 0.000000 0.001030 
#    y 0.000000 1.809580 0.000000 
#    z 0.001030 0.000000 1.789060 
# 
# From -- ./inp_files/295805.got.cif
#   From: 2010.05.17/outbox.cif.g08.bks.cpg/sg12_148_cif.got.tgz:295805.got - 2010.06.03 13:09:07.
