data_PCOD9199394
_publ_section_title
;
Structure prediction by ZEFSAII (Michael W. Deem and Ramdas Pophale) SiO2 
 PCOD9199394
Probable space group: C 2/M
;
_chemical_formula_sum "Si O2"
_cell_formula_units_Z 52
_cell_length_a 18.000707
_cell_length_b 8.300406
_cell_length_c 17.888777
_cell_angle_alpha 90.000000
_cell_angle_beta 54.462015
_cell_angle_gamma 90.000000
_cell_volume 2174.953947
_symmetry_space_group_name_H-M "C 2/M"
_symmetry_group_IT_number 12
_symmetry_cell_setting 'monoclinic'
loop_
_space_group_symop_operation_xyz
x,y,z
-x,y,-z
-x,-y,-z
x,-y,z
1/2+x,1/2+y,z
1/2-x,1/2+y,-z
1/2-x,1/2-y,-z
1/2+x,1/2-y,z
loop_
_atom_site_type_symbol
_atom_site_label
_atom_site_fract_x
_atom_site_fract_y
_atom_site_fract_z
Si Si1 0.595509 0.500000 0.997885
Si Si2 0.435509 0.818792 0.888693
Si Si3 0.526008 0.806734 0.306461
Si Si4 0.347796 0.173435 0.225282
Si Si5 0.388594 0.000000 0.583192
Si Si6 0.102492 0.829301 0.411020
Si Si7 0.733792 0.500000 0.792432
Si Si8 0.325289 0.690842 0.398461
O O1 0.595984 0.663130 0.046904
O O2 0.500000 0.500000 0.000000
O O3 0.693936 0.500000 0.898912
O O4 0.431310 0.792974 0.801304
O O5 0.543305 0.824723 0.844040
O O6 0.398380 0.000000 0.927444
O O7 0.587568 0.718948 0.333149
O O8 0.428738 0.717741 0.367463
O O9 0.507606 0.000000 0.329290
O O10 0.308688 0.332791 0.211394
O O11 0.325887 0.197196 0.324978
O O12 0.316228 0.000000 0.214027
O O13 0.500000 0.000000 0.500000
O O14 0.358074 0.172021 0.571647
O O15 0.334023 0.000000 0.695962
O O16 0.000000 0.841339 0.500000
O O17 0.147426 0.000000 0.396460
O O18 0.315490 0.500000 0.386539
O O19 0.250000 0.750000 0.500000
#
# Coordination Sequence:
#
# PCOD9199394 Si02
#       8
#     4   8   8   8   4   8   4   8
#     4  12  22  36  64  94 131 162 205 250 310 381
#     4   9  20  36  58  93 130 162 205 244 307 386
#     4  10  20  36  60  86 115 162 205 256 317 371
#     4  10  20  37  57  86 127 165 203 248 304 373
#     4  10  24  44  62  84 126 164 209 263 304 364
#     4  10  21  39  63  91 116 151 212 264 311 368
#     4  12  24  40  62  92 122 172 202 259 314 373
#     4  11  21  33  50  80 123 161 205 250 294 369
#
# _framework density 23.908553000000001
#
# number of rings (size 3 to 8) (size 9 to 14) (size 15 to 20)
#    0.000    1.692    3.077    2.769    4.308    4.000 
#    0.000    3.077    0.000    0.923    0.000    0.000 
#    0.000    0.000    0.000    0.000    0.000    0.000 
#
# Total GULP energy -145008.723446 kJ/mol
# GULP energy per Si atom -5577.258594 kJ/mol
# Density = 2.385414 g / cm^3
# Si number density = 23.908553 Si / 1000 Ang^3
#
#
#
# Elastic Constant Matrix: (Units=GPa)
#
#
# Indices 1 2 3 4 5 6 
#
# 1 38.1472 34.1721 9.8052 0.0000 8.7187 0.0002
# 2 34.1721 256.3582 52.8598 0.0001 16.2565 0.0004
# 3 9.8052 52.8598 136.9924 0.0000 1.4907 0.0001
# 4 0.0000 0.0001 0.0000 43.5298 0.0000 8.8186
# 5 8.7187 16.2565 1.4907 0.0000 26.8281 -0.0001
# 6 0.0002 0.0004 0.0001 8.8186 -0.0001 27.0300
#
#
#
# Elastic Compliance Matrix: (Units=1/GPa)
#
#
# Indices 1 2 3 4 5 6 
#
# 1 0.031402 -0.003510 -0.000806 0.000000 -0.008033 0.000000
# 2 -0.003510 0.004802 -0.001583 0.000000 -0.001681 0.000000
# 3 -0.000806 -0.001583 0.007960 0.000000 0.000779 0.000000
# 4 0.000000 0.000000 0.000000 0.024599 0.000000 -0.008025
# 5 -0.008033 -0.001681 0.000779 0.000000 0.040860 0.000000
# 6 0.000000 0.000000 0.000000 -0.008025 0.000000 0.039614
#
#
# Mechanical properties :
#
#
# Convention : Reuss Voigt Hill
#
# Bulk Modulus (GPa) = 30.89762 69.46358 50.18060
# Shear Modulus (GPa) = 29.09963 41.78827 35.44395
#
# Velocity S-wave (km/s) = 3.49251 4.18525 3.85448
# Velocity P-wave (km/s) = 5.40507 7.24376 6.39089
#
# Compressibility (1/GPa) = 0.03236495
#
# Stress axis : x y z
#
# Youngs Moduli (GPa) = 31.84521 208.25715 125.63156
#
# Poissons Ratio (x) = 0.73104 0.10122
# Poissons Ratio (y) = 0.11179 0.19891
# Poissons Ratio (z) = 0.02566 0.32973
#
# Static dielectric constant tensor:
#      x y z
#    x 1.987510 0.000000 0.010200 
#    y 0.000000 2.016880 0.000000 
#    z 0.010200 0.000000 1.925830 
# 
# From -- ./inp_files/282095.got.cif
#   From: 2010.05.17/outbox.cif.g08.bks.cpg/sg12_142_cif.got.tgz:282095.got - 2010.06.03 13:09:07.
