data_PCOD9199482
_publ_section_title
;
Structure prediction by ZEFSAII (Michael W. Deem and Ramdas Pophale) SiO2 
 PCOD9199482
Probable space group: C 2/M
;
_chemical_formula_sum "Si O2"
_cell_formula_units_Z 40
_cell_length_a 10.286736
_cell_length_b 15.611719
_cell_length_c 10.675724
_cell_angle_alpha 90.000000
_cell_angle_beta 94.238514
_cell_angle_gamma 90.000000
_cell_volume 1709.764297
_symmetry_space_group_name_H-M "C 2/M"
_symmetry_group_IT_number 12
_symmetry_cell_setting 'monoclinic'
loop_
_space_group_symop_operation_xyz
x,y,z
-x,y,-z
-x,-y,-z
x,-y,z
1/2+x,1/2+y,z
1/2-x,1/2+y,-z
1/2-x,1/2-y,-z
1/2+x,1/2-y,z
loop_
_atom_site_type_symbol
_atom_site_label
_atom_site_fract_x
_atom_site_fract_y
_atom_site_fract_z
Si Si1 0.365837 0.733264 0.207632
Si Si2 0.346429 0.408840 0.012577
Si Si3 0.621101 0.729126 0.369420
Si Si4 0.691413 0.099902 0.512561
Si Si5 0.875123 0.589450 0.199635
O O1 0.317806 0.669990 0.098674
O O2 0.484966 0.700541 0.300333
O O3 0.239428 0.757359 0.279775
O O4 0.431242 0.820752 0.160038
O O5 0.316249 0.500000 0.073978
O O6 0.500000 0.405223 0.000000
O O7 0.265796 0.409339 0.878510
O O8 0.615148 0.824156 0.432675
O O9 0.671621 0.651057 0.460442
O O10 0.637904 0.090554 0.651052
O O11 0.694438 0.000000 0.464605
O O12 0.940842 0.500000 0.167884
#
# Coordination Sequence:
#
# PCOD9199482 Si02
#       5
#     8   8   8   8   8
#     4  11  22  39  60  85 120 154 191 242 292 339
#     4  10  20  36  60  88 117 153 195 236 287 349
#     4  10  23  38  58  87 116 153 198 236 287 352
#     4   9  19  38  60  84 118 155 193 241 289 340
#     4   9  19  35  57  84 114 154 198 236 285 347
#
# _framework density 23.395038
#
# number of rings (size 3 to 8) (size 9 to 14) (size 15 to 20)
#    0.000    2.200    0.000    3.000    0.000   11.200 
#    0.000    6.000    0.000    3.000    0.000    0.000 
#    0.000    0.000    0.000    0.000    0.000    0.000 
#
# Total GULP energy -111393.130405 kJ/mol
# GULP energy per Si atom -5569.656520 kJ/mol
# Density = 2.334179 g / cm^3
# Si number density = 23.395038 Si / 1000 Ang^3
#
#
#
# Elastic Constant Matrix: (Units=GPa)
#
#
# Indices 1 2 3 4 5 6 
#
# 1 65.0948 -11.9633 11.5268 0.0000 6.5674 0.0000
# 2 -11.9633 187.5065 38.7471 0.0000 -12.8189 0.0000
# 3 11.5268 38.7471 60.3564 0.0000 6.8493 0.0000
# 4 0.0000 0.0000 0.0000 35.9370 0.0000 -4.9360
# 5 6.5674 -12.8189 6.8493 0.0000 25.7374 0.0000
# 6 0.0000 0.0000 0.0000 -4.9360 0.0000 -5.4059
#
#
#
# Elastic Compliance Matrix: (Units=1/GPa)
#
#
# Indices 1 2 3 4 5 6 
#
# 1 0.016627 0.001735 -0.004028 0.000000 -0.002306 0.000000
# 2 0.001735 0.006814 -0.005198 0.000000 0.004334 0.000000
# 3 -0.004028 -0.005198 0.021501 0.000000 -0.007283 0.000000
# 4 0.000000 0.000000 0.000000 0.024726 0.000000 -0.022577
# 5 -0.002306 0.004334 -0.007283 0.000000 0.043539 0.000000
# 6 0.000000 0.000000 0.000000 -0.022577 0.000000 -0.164370
#
#
# Mechanical properties :
#
#
# Convention : Reuss Voigt Hill
#
# Bulk Modulus (GPa) = 33.37586 43.28655 38.33120
# Shear Modulus (GPa) = -190.87878 29.56351 -80.65764
#
# Velocity S-wave (km/s) = -9.04249 3.55866 -5.87803
# Velocity P-wave (km/s) = 9.73267 5.95215 5.44504
#
# Compressibility (1/GPa) = 0.02996178
#
# Stress axis : x y z
#
# Youngs Moduli (GPa) = 60.14282 146.74981 46.50976
#
# Poissons Ratio (x) = -0.25468 0.18733
# Poissons Ratio (y) = -0.10438 0.24175
# Poissons Ratio (z) = 0.24224 0.76279
#
# Static dielectric constant tensor:
#      x y z
#    x 1.871780 0.000000 0.008000 
#    y 0.000000 2.023950 0.000000 
#    z 0.008000 0.000000 1.937020 
# 
# From -- ./inp_files/129313.got.cif
#   From: 2010.05.17/outbox.cif.g08.bks.cpg/sg12_65_cif.got.tgz:129313.got - 2010.06.03 13:09:07.
