data_PCOD9199420
_publ_section_title
;
Structure prediction by ZEFSAII (Michael W. Deem and Ramdas Pophale) SiO2 
 PCOD9199420
Probable space group: C 2/M
;
_chemical_formula_sum "Si O2"
_cell_formula_units_Z 56
_cell_length_a 16.517237
_cell_length_b 7.790047
_cell_length_c 24.110500
_cell_angle_alpha 90.000000
_cell_angle_beta 58.433152
_cell_angle_gamma 90.000000
_cell_volume 2643.251999
_symmetry_space_group_name_H-M "C 2/M"
_symmetry_group_IT_number 12
_symmetry_cell_setting 'monoclinic'
loop_
_space_group_symop_operation_xyz
x,y,z
-x,y,-z
-x,-y,-z
x,-y,z
1/2+x,1/2+y,z
1/2-x,1/2+y,-z
1/2-x,1/2-y,-z
1/2+x,1/2-y,z
loop_
_atom_site_type_symbol
_atom_site_label
_atom_site_fract_x
_atom_site_fract_y
_atom_site_fract_z
Si Si1 0.550961 0.295974 0.926866
Si Si2 0.464137 0.291027 0.841477
Si Si3 0.749537 0.699928 0.436093
Si Si4 0.940750 0.206829 0.304502
Si Si5 0.229619 0.199040 0.149852
Si Si6 0.922153 0.305808 0.568153
Si Si7 0.369386 0.803427 0.705019
O O1 0.533241 0.500000 0.931677
O O2 0.502617 0.228839 0.887169
O O3 0.664677 0.274259 0.891762
O O4 0.500000 0.224675 0.000000
O O5 0.457923 0.500000 0.845350
O O6 0.542699 0.250817 0.766087
O O7 0.359716 0.231866 0.855673
O O8 0.724500 0.500000 0.440224
O O9 0.750000 0.750000 0.500000
O O10 0.846317 0.733795 0.368532
O O11 0.670558 0.812764 0.435335
O O12 0.027780 0.296213 0.304030
O O13 0.949609 0.000000 0.306867
O O14 0.197474 0.216490 0.225606
O O15 0.237984 0.000000 0.132366
O O16 0.957517 0.500000 0.569425
O O17 0.888221 0.223919 0.637912
O O18 0.000000 0.222217 0.500000
O O19 0.335466 0.000000 0.709903
#
# Coordination Sequence:
#
# PCOD9199420 Si02
#       7
#     8   8   8   8   8   8   8
#     4  10  21  38  61  89 120 158 205 253 305 371
#     4   8  18  37  59  84 119 160 195 240 305 364
#     4  12  25  39  57  82 114 151 196 242 291 350
#     4  10  20  37  60  84 115 152 192 240 297 354
#     4  10  21  38  59  85 120 160 202 249 306 366
#     4  10  22  39  58  81 112 150 190 238 297 355
#     4  10  20  36  60  87 116 151 193 242 297 355
#
# _framework density 21.186024
#
# number of rings (size 3 to 8) (size 9 to 14) (size 15 to 20)
#    0.000    2.000    0.000    4.286    2.000    3.429 
#    0.000    3.571    0.000    0.000    0.000    0.000 
#    0.000    0.000    0.000    0.000    0.000    0.000 
#
# Total GULP energy -156146.928813 kJ/mol
# GULP energy per Si atom -5576.676029 kJ/mol
# Density = 2.113780 g / cm^3
# Si number density = 21.186024 Si / 1000 Ang^3
#
#
#
# Elastic Constant Matrix: (Units=GPa)
#
#
# Indices 1 2 3 4 5 6 
#
# 1 98.5068 -4.8938 100.8434 -0.0001 9.9261 -0.0002
# 2 -4.8938 53.9596 0.1301 -0.0002 8.3301 -0.0002
# 3 100.8434 0.1301 180.6676 0.0000 10.8180 0.0000
# 4 -0.0001 -0.0002 0.0000 18.4841 0.0000 -3.8393
# 5 9.9261 8.3301 10.8180 0.0000 41.2565 0.0000
# 6 -0.0002 -0.0002 0.0000 -3.8393 0.0000 24.0086
#
#
#
# Elastic Compliance Matrix: (Units=1/GPa)
#
#
# Indices 1 2 3 4 5 6 
#
# 1 0.024265 0.002676 -0.013374 0.000000 -0.002872 0.000000
# 2 0.002676 0.019432 -0.001254 0.000000 -0.004239 0.000000
# 3 -0.013374 -0.001254 0.012997 0.000000 0.000063 0.000000
# 4 0.000000 0.000000 0.000000 0.055959 0.000000 0.008949
# 5 -0.002872 -0.004239 0.000063 0.000000 0.025769 0.000000
# 6 0.000000 0.000000 0.000000 0.008949 0.000000 0.043083
#
#
# Mechanical properties :
#
#
# Convention : Reuss Voigt Hill
#
# Bulk Modulus (GPa) = 30.49596 58.36593 44.43094
# Shear Modulus (GPa) = 23.11176 32.55347 27.83262
#
# Velocity S-wave (km/s) = 3.30646 3.92414 3.62847
# Velocity P-wave (km/s) = 5.38540 6.93837 6.21061
#
# Compressibility (1/GPa) = 0.03279123
#
# Stress axis : x y z
#
# Youngs Moduli (GPa) = 41.21106 51.46021 76.93939
#
# Poissons Ratio (x) = -0.13772 1.02900
# Poissons Ratio (y) = -0.11029 0.09648
# Poissons Ratio (z) = 0.55116 0.06453
#
# Static dielectric constant tensor:
#      x y z
#    x 1.714780 0.000000 0.065990 
#    y 0.000000 1.813270 0.000000 
#    z 0.065990 0.000000 1.769130 
# 
# From -- ./inp_files/338445.got.cif
#   From: 2010.05.17/outbox.cif.g08.bks.cpg/sg12_170_cif.got.tgz:338445.got - 2010.06.03 13:09:07.
