data_PCOD9199425
_publ_section_title
;
Structure prediction by ZEFSAII (Michael W. Deem and Ramdas Pophale) SiO2 
 PCOD9199425
Probable space group: C 2/M
;
_chemical_formula_sum "Si O2"
_cell_formula_units_Z 64
_cell_length_a 11.150836
_cell_length_b 26.117265
_cell_length_c 12.540885
_cell_angle_alpha 90.000000
_cell_angle_beta 71.670466
_cell_angle_gamma 90.000000
_cell_volume 3466.970062
_symmetry_space_group_name_H-M "C 2/M"
_symmetry_group_IT_number 12
_symmetry_cell_setting 'monoclinic'
loop_
_space_group_symop_operation_xyz
x,y,z
-x,y,-z
-x,-y,-z
x,-y,z
1/2+x,1/2+y,z
1/2-x,1/2+y,-z
1/2-x,1/2-y,-z
1/2+x,1/2-y,z
loop_
_atom_site_type_symbol
_atom_site_label
_atom_site_fract_x
_atom_site_fract_y
_atom_site_fract_z
Si Si1 0.948504 0.945089 0.894536
Si Si2 0.225836 0.852646 0.115712
Si Si3 0.866682 0.638102 0.862019
Si Si4 0.670575 0.237114 0.627952
Si Si5 0.378155 0.251214 0.757672
Si Si6 0.359795 0.122636 0.295224
Si Si7 0.223908 0.059353 0.753049
Si Si8 0.362043 0.938755 0.501270
O O1 0.870687 0.894741 0.898246
O O2 0.073887 0.942623 0.789521
O O3 0.881507 0.000000 0.894724
O O4 0.000000 0.946042 0.000000
O O5 0.163897 0.796841 0.150566
O O6 0.269527 0.871399 0.219608
O O7 0.335018 0.854406 0.995497
O O8 0.868385 0.695346 0.813425
O O9 0.769746 0.599545 0.829580
O O10 0.002396 0.614709 0.794325
O O11 0.750000 0.250000 0.500000
O O12 0.526354 0.259756 0.680173
O O13 0.770371 0.248887 0.695447
O O14 0.644285 0.176610 0.642085
O O15 0.329265 0.081699 0.394107
O O16 0.273704 0.076310 0.624072
O O17 0.267170 0.000000 0.763156
O O18 0.500000 0.920045 0.500000
O O19 0.364533 0.000000 0.496141
#
# Coordination Sequence:
#
# PCOD9199425 Si02
#       8
#     8   8   8   8   8   8   8   8
#     4  10  21  38  60  88 118 155 207 255 291 352
#     4  11  23  40  58  86 124 162 198 252 308 373
#     4  11  21  38  62  85 119 161 198 257 303 359
#     4  10  22  39  59  85 120 159 205 255 299 366
#     4  10  24  38  58  90 121 162 212 247 309 374
#     4  10  23  38  57  88 122 152 193 249 313 362
#     4  10  21  37  61  92 117 148 206 258 297 349
#     4  10  20  36  60  87 117 150 193 244 295 368
#
# _framework density 18.459923
#
# number of rings (size 3 to 8) (size 9 to 14) (size 15 to 20)
#    0.000    1.750    2.500    1.125    3.500    0.500 
#    0.000    3.125    0.000    4.500    0.000    0.000 
#    0.000    0.000    0.000    0.000    0.000    0.000 
#
# Total GULP energy -178276.416104 kJ/mol
# GULP energy per Si atom -5571.138003 kJ/mol
# Density = 1.841791 g / cm^3
# Si number density = 18.459923 Si / 1000 Ang^3
#
#
#
# Elastic Constant Matrix: (Units=GPa)
#
#
# Indices 1 2 3 4 5 6 
#
# 1 52.7781 14.7354 19.1004 0.0000 -8.5689 0.0000
# 2 14.7354 66.2241 28.9157 0.0000 8.8641 0.0000
# 3 19.1004 28.9157 128.1581 0.0000 -13.7634 0.0000
# 4 0.0000 0.0000 0.0000 30.9295 0.0000 5.2422
# 5 -8.5689 8.8641 -13.7634 0.0000 26.6390 0.0000
# 6 0.0000 0.0000 0.0000 5.2422 0.0000 22.7921
#
#
#
# Elastic Compliance Matrix: (Units=1/GPa)
#
#
# Indices 1 2 3 4 5 6 
#
# 1 0.022294 -0.005584 -0.001157 0.000000 0.008431 0.000000
# 2 -0.005584 0.019915 -0.004834 0.000000 -0.010920 0.000000
# 3 -0.001157 -0.004834 0.009739 0.000000 0.006268 0.000000
# 4 0.000000 0.000000 0.000000 0.033643 0.000000 -0.007738
# 5 0.008431 -0.010920 0.006268 0.000000 0.047123 0.000000
# 6 0.000000 0.000000 0.000000 -0.007738 0.000000 0.045654
#
#
# Mechanical properties :
#
#
# Convention : Reuss Voigt Hill
#
# Bulk Modulus (GPa) = 34.72452 41.40701 38.06577
# Shear Modulus (GPa) = 23.68341 28.36605 26.02473
#
# Velocity S-wave (km/s) = 3.58573 3.92424 3.75880
# Velocity P-wave (km/s) = 5.99958 6.55838 6.28519
#
# Compressibility (1/GPa) = 0.02879809
#
# Stress axis : x y z
#
# Youngs Moduli (GPa) = 44.85519 50.21336 102.67841
#
# Poissons Ratio (x) = 0.28038 0.11883
# Poissons Ratio (y) = 0.25046 0.49634
# Poissons Ratio (z) = 0.05191 0.24273
#
# Static dielectric constant tensor:
#      x y z
#    x 1.666300 0.000000 -0.040880 
#    y 0.000000 1.638110 0.000000 
#    z -0.040880 0.000000 1.694490 
# 
# From -- ./inp_files/135934.got.cif
#   From: 2010.05.17/outbox.cif.g08.bks.cpg/sg12_68_cif.got.tgz:135934.got - 2010.06.03 13:09:07.
