data_PCOD9199136
_publ_section_title
;
Structure prediction by ZEFSAII (Michael W. Deem and Ramdas Pophale) SiO2 
 PCOD9199136
Probable space group: C 2/M
;
_chemical_formula_sum "Si O2"
_cell_formula_units_Z 56
_cell_length_a 20.782796
_cell_length_b 9.591058
_cell_length_c 30.976959
_cell_angle_alpha 90.000000
_cell_angle_beta 28.475295
_cell_angle_gamma 90.000000
_cell_volume 2943.927469
_symmetry_space_group_name_H-M "C 2/M"
_symmetry_group_IT_number 12
_symmetry_cell_setting 'monoclinic'
loop_
_space_group_symop_operation_xyz
x,y,z
-x,y,-z
-x,-y,-z
x,-y,z
1/2+x,1/2+y,z
1/2-x,1/2+y,-z
1/2-x,1/2-y,-z
1/2+x,1/2-y,z
loop_
_atom_site_type_symbol
_atom_site_label
_atom_site_fract_x
_atom_site_fract_y
_atom_site_fract_z
Si Si1 0.938228 0.837246 0.420253
Si Si2 0.647861 0.338287 0.922709
Si Si3 0.981482 0.845347 0.217284
Si Si4 0.216904 0.715902 0.969630
Si Si5 0.799688 0.159648 0.408109
Si Si6 0.793755 0.331439 0.753211
Si Si7 0.424457 0.156778 0.169667
O O1 0.880270 0.828962 0.405569
O O2 0.822447 0.768674 0.518145
O O3 0.071813 0.743953 0.342356
O O4 0.962498 0.000000 0.415949
O O5 0.635781 0.500000 0.918561
O O6 0.688122 0.326851 0.948833
O O7 0.761025 0.288119 0.822278
O O8 0.500000 0.273620 0.000000
O O9 0.900860 0.819134 0.308733
O O10 0.949132 0.725311 0.201951
O O11 0.142933 0.850295 0.128684
O O12 0.941737 0.000000 0.224057
O O13 0.250000 0.750000 0.000000
O O14 0.070527 0.646652 0.060512
O O15 0.747470 0.000000 0.436405
O O16 0.803155 0.500000 0.743558
O O17 0.669364 0.265396 0.800280
O O18 0.367469 0.000000 0.205512
#
# Coordination Sequence:
#
# PCOD9199136 Si02
#       7
#     8   8   8   8   8   8   8
#     4  10  20  36  60  88 119 151 188 239 297 357
#     4  10  20  36  59  86 118 158 203 249 293 348
#     4  10  21  38  60  84 116 156 200 245 296 353
#     4  10  21  36  57  87 122 159 200 246 298 352
#     4   9  19  37  60  87 117 149 191 241 296 354
#     4  11  22  38  61  86 117 157 200 243 297 354
#     4  11  23  38  56  84 120 158 199 245 296 354
#
# _framework density 19.022207000000002
#
# number of rings (size 3 to 8) (size 9 to 14) (size 15 to 20)
#    0.000    1.857    1.429    2.571    0.000    5.714 
#    0.000    3.571    0.000    4.286    0.000    0.000 
#    0.000    0.000    0.000    0.000    0.000    0.000 
#
# Total GULP energy -155898.546991 kJ/mol
# GULP energy per Si atom -5567.805250 kJ/mol
# Density = 1.897891 g / cm^3
# Si number density = 19.022207 Si / 1000 Ang^3
#
#
#
# Elastic Constant Matrix: (Units=GPa)
#
#
# Indices 1 2 3 4 5 6 
#
# 1 51.7834 28.4677 37.2404 0.0001 -5.9394 0.0000
# 2 28.4677 112.7326 69.0243 0.0002 -6.9460 0.0000
# 3 37.2404 69.0243 147.7696 0.0005 -2.0085 0.0001
# 4 0.0001 0.0002 0.0005 19.9437 0.0001 1.6150
# 5 -5.9394 -6.9460 -2.0085 0.0001 27.0705 0.0001
# 6 0.0000 0.0000 0.0001 1.6150 0.0001 19.6879
#
#
#
# Elastic Compliance Matrix: (Units=1/GPa)
#
#
# Indices 1 2 3 4 5 6 
#
# 1 0.024952 -0.003110 -0.004777 0.000000 0.004322 0.000000
# 2 -0.003110 0.013021 -0.005268 0.000000 0.002268 0.000000
# 3 -0.004777 -0.005268 0.010410 0.000000 -0.001627 0.000000
# 4 0.000000 0.000000 0.000000 0.050476 0.000000 -0.004141
# 5 0.004322 0.002268 -0.001627 0.000000 0.038350 0.000000
# 6 0.000000 0.000000 0.000000 -0.004141 0.000000 0.051132
#
#
# Mechanical properties :
#
#
# Convention : Reuss Voigt Hill
#
# Bulk Modulus (GPa) = 45.30283 64.63894 54.97088
# Shear Modulus (GPa) = 22.52176 25.17731 23.84953
#
# Velocity S-wave (km/s) = 3.44462 3.64204 3.54471
# Velocity P-wave (km/s) = 6.29984 7.19309 6.76123
#
# Compressibility (1/GPa) = 0.02207367
#
# Stress axis : x y z
#
# Youngs Moduli (GPa) = 40.07709 76.79994 96.06545
#
# Poissons Ratio (x) = 0.23883 0.45890
# Poissons Ratio (y) = 0.12463 0.50603
# Poissons Ratio (z) = 0.19145 0.40455
#
# Static dielectric constant tensor:
#      x y z
#    x 1.652010 0.000000 -0.002890 
#    y 0.000000 1.739710 0.000000 
#    z -0.002890 0.000000 1.668130 
# 
# From -- ./inp_files/380562.got.cif
#   From: 2010.05.17/outbox.cif.g08.bks.cpg/sg12_191_cif.got.tgz:380562.got - 2010.06.03 13:09:07.
