data_PCOD9199097
_publ_section_title
;
Structure prediction by ZEFSAII (Michael W. Deem and Ramdas Pophale) SiO2 
 PCOD9199097
Probable space group: C 2/M
;
_chemical_formula_sum "Si O2"
_cell_formula_units_Z 56
_cell_length_a 29.155683
_cell_length_b 8.777050
_cell_length_c 19.572524
_cell_angle_alpha 90.000000
_cell_angle_beta 36.449679
_cell_angle_gamma 90.000000
_cell_volume 2975.707787
_symmetry_space_group_name_H-M "C 2/M"
_symmetry_group_IT_number 12
_symmetry_cell_setting 'monoclinic'
loop_
_space_group_symop_operation_xyz
x,y,z
-x,y,-z
-x,-y,-z
x,-y,z
1/2+x,1/2+y,z
1/2-x,1/2+y,-z
1/2-x,1/2-y,-z
1/2+x,1/2-y,z
loop_
_atom_site_type_symbol
_atom_site_label
_atom_site_fract_x
_atom_site_fract_y
_atom_site_fract_z
Si Si1 0.374263 0.181333 0.914229
Si Si2 0.432496 0.318625 0.452878
Si Si3 0.193121 0.816948 0.625808
Si Si4 0.465859 0.318280 0.253491
Si Si5 0.241600 0.183049 0.313284
Si Si6 0.248882 0.317518 0.162492
Si Si7 0.407659 0.817234 0.716958
O O1 0.455009 0.228775 0.852457
O O2 0.383566 0.226479 0.823444
O O3 0.362965 0.000000 0.930939
O O4 0.304559 0.265516 0.034853
O O5 0.436273 0.500000 0.457573
O O6 0.439605 0.287189 0.363091
O O7 0.348291 0.265488 0.576616
O O8 0.507304 0.246559 0.398362
O O9 0.250000 0.750000 0.500000
O O10 0.105392 0.778173 0.709753
O O11 0.216480 0.750971 0.670970
O O12 0.200012 0.000000 0.617209
O O13 0.480458 0.500000 0.230826
O O14 0.274690 0.242209 0.202301
O O15 0.243465 0.000000 0.314567
O O16 0.249962 0.500000 0.166830
O O17 0.161491 0.266834 0.249143
O O18 0.411753 0.000000 0.710018
#
# Coordination Sequence:
#
# PCOD9199097 Si02
#       7
#     8   8   8   8   8   8   8
#     4  10  20  36  59  86 111 144 189 236 280 329
#     4   9  18  34  55  81 113 147 184 228 281 332
#     4  11  21  36  60  88 117 149 187 229 279 335
#     4   9  18  35  57  84 114 145 182 228 278 331
#     4  11  23  39  56  82 117 151 191 234 280 338
#     4  11  23  39  56  79 113 154 190 231 285 337
#     4   9  20  36  57  84 112 144 190 235 279 334
#
# _framework density 18.819051000000002
#
# number of rings (size 3 to 8) (size 9 to 14) (size 15 to 20)
#    0.000    2.000    1.429    2.143    0.000    4.571 
#    0.000    3.571    0.000    4.286    0.000    0.000 
#    0.000    0.000    0.000    0.000    0.000    0.000 
#
# Total GULP energy -156380.032219 kJ/mol
# GULP energy per Si atom -5585.001151 kJ/mol
# Density = 1.877622 g / cm^3
# Si number density = 18.819051 Si / 1000 Ang^3
#
#
#
# Elastic Constant Matrix: (Units=GPa)
#
#
# Indices 1 2 3 4 5 6 
#
# 1 114.2575 30.3613 13.9362 -0.0025 -3.3216 0.0006
# 2 30.3613 32.9301 4.7332 -0.0039 -1.6883 0.0093
# 3 13.9362 4.7332 9.0795 -0.0057 -3.5965 0.0062
# 4 -0.0025 -0.0039 -0.0057 27.6362 0.0027 -7.2894
# 5 -3.3216 -1.6883 -3.5965 0.0027 23.6971 -0.0060
# 6 0.0006 0.0093 0.0062 -7.2894 -0.0060 26.3474
#
#
#
# Elastic Compliance Matrix: (Units=1/GPa)
#
#
# Indices 1 2 3 4 5 6 
#
# 1 0.013304 -0.010079 -0.015653 -0.000002 -0.001229 0.000006
# 2 -0.010079 0.040465 -0.005364 0.000000 0.000656 -0.000013
# 3 -0.015653 -0.005364 0.144635 0.000020 0.019375 -0.000022
# 4 -0.000002 0.000000 0.000020 0.039033 0.000001 0.010799
# 5 -0.001229 0.000656 0.019375 0.000001 0.045014 0.000006
# 6 0.000006 -0.000013 -0.000022 0.010799 0.000006 0.040942
#
#
# Mechanical properties :
#
#
# Convention : Reuss Voigt Hill
#
# Bulk Modulus (GPa) = 7.34152 28.25872 17.80012
# Shear Modulus (GPa) = 11.60122 22.68525 17.14324
#
# Velocity S-wave (km/s) = 2.48556 3.47571 3.02147
# Velocity P-wave (km/s) = 3.48524 5.58176 4.65312
#
# Compressibility (1/GPa) = 0.13621149
#
# Stress axis : x y z
#
# Youngs Moduli (GPa) = 75.16553 24.71272 6.91396
#
# Poissons Ratio (x) = 0.24909 0.10822
# Poissons Ratio (y) = 0.75761 0.03709
# Poissons Ratio (z) = 1.17655 0.13256
#
# Static dielectric constant tensor:
#      x y z
#    x 1.647100 0.000000 -0.006590 
#    y 0.000000 1.638660 0.000000 
#    z -0.006590 0.000000 1.639440 
# 
# From -- ./inp_files/238430.got.cif
#   From: 2010.05.17/outbox.cif.g08.bks.cpg/sg12_120_cif.got.tgz:238430.got - 2010.06.03 13:09:07.
