data_PCOD9199657
_publ_section_title
;
Structure prediction by ZEFSAII (Michael W. Deem and Ramdas Pophale) SiO2 
 PCOD9199657
Probable space group: C 2/M
;
_chemical_formula_sum "Si O2"
_cell_formula_units_Z 52
_cell_length_a 9.192711
_cell_length_b 18.664267
_cell_length_c 21.331606
_cell_angle_alpha 90.000000
_cell_angle_beta 128.243115
_cell_angle_gamma 90.000000
_cell_volume 2874.512463
_symmetry_space_group_name_H-M "C 2/M"
_symmetry_group_IT_number 12
_symmetry_cell_setting 'monoclinic'
loop_
_space_group_symop_operation_xyz
x,y,z
-x,y,-z
-x,-y,-z
x,-y,z
1/2+x,1/2+y,z
1/2-x,1/2+y,-z
1/2-x,1/2-y,-z
1/2+x,1/2-y,z
loop_
_atom_site_type_symbol
_atom_site_label
_atom_site_fract_x
_atom_site_fract_y
_atom_site_fract_z
Si Si1 0.957799 0.915803 0.157392
Si Si2 0.000000 0.228609 0.500000
Si Si3 0.087077 0.702495 0.390362
Si Si4 0.009606 0.332938 0.823457
Si Si5 0.608023 0.294876 0.762462
Si Si6 0.607699 0.918789 0.735354
Si Si7 0.328150 0.172148 0.002086
O O1 0.938368 0.869009 0.215523
O O2 0.172580 0.910448 0.195417
O O3 0.911719 0.000000 0.152737
O O4 0.825393 0.877452 0.071518
O O5 0.965287 0.274642 0.553520
O O6 0.805742 0.186833 0.441611
O O7 0.035541 0.766583 0.327950
O O8 0.963518 0.636360 0.335324
O O9 0.806756 0.302722 0.783619
O O10 0.115885 0.267078 0.817799
O O11 0.007579 0.395968 0.772633
O O12 0.098586 0.357482 0.912176
O O13 0.570128 0.000000 0.707589
O O14 0.500000 0.178921 0.000000
O O15 0.250000 0.250000 0.000000
#
# Coordination Sequence:
#
# PCOD9199657 Si02
#       7
#     8   4   8   8   8   8   8
#     4  11  24  39  57  84 119 158 204 249 294 341
#     4  10  20  36  60  96 114 142 182 238 290 350
#     4  10  20  36  63  87 120 145 188 235 289 350
#     4  11  21  36  60  84 114 155 205 245 291 338
#     4  11  20  38  60  87 112 157 194 242 289 347
#     4  10  23  41  60  85 118 158 199 241 287 348
#     4  12  24  38  58  85 116 157 199 254 298 340
#
# _framework density 18.090025000000001
#
# number of rings (size 3 to 8) (size 9 to 14) (size 15 to 20)
#    0.000    1.231    3.077    4.615    2.154    1.538 
#    0.000    2.308    0.000    3.692    0.000    0.000 
#    0.000    0.000    0.000    0.000    0.000    0.000 
#
# Total GULP energy -145157.769727 kJ/mol
# GULP energy per Si atom -5582.991143 kJ/mol
# Density = 1.804885 g / cm^3
# Si number density = 18.090025 Si / 1000 Ang^3
#
#
#
# Elastic Constant Matrix: (Units=GPa)
#
#
# Indices 1 2 3 4 5 6 
#
# 1 87.4666 29.3554 29.3361 0.0000 1.3508 0.0000
# 2 29.3554 100.5551 39.1298 0.0000 4.7869 0.0000
# 3 29.3361 39.1298 104.9396 0.0000 -2.6539 0.0000
# 4 0.0000 0.0000 0.0000 12.9354 0.0000 10.0645
# 5 1.3508 4.7869 -2.6539 0.0000 38.1274 0.0000
# 6 0.0000 0.0000 0.0000 10.0645 0.0000 14.8417
#
#
#
# Elastic Compliance Matrix: (Units=1/GPa)
#
#
# Indices 1 2 3 4 5 6 
#
# 1 0.013280 -0.002825 -0.002667 0.000000 -0.000301 0.000000
# 2 -0.002825 0.012353 -0.003860 0.000000 -0.001720 0.000000
# 3 -0.002667 -0.003860 0.011750 0.000000 0.001397 0.000000
# 4 0.000000 0.000000 0.000000 0.163655 0.000000 -0.110978
# 5 -0.000301 -0.001720 0.001397 0.000000 0.026552 0.000000
# 6 0.000000 0.000000 0.000000 -0.110978 0.000000 0.142635
#
#
# Mechanical properties :
#
#
# Convention : Reuss Voigt Hill
#
# Bulk Modulus (GPa) = 53.53453 54.28933 53.91193
# Shear Modulus (GPa) = 12.65327 26.19023 19.42175
#
# Velocity S-wave (km/s) = 2.64760 3.80909 3.28016
# Velocity P-wave (km/s) = 6.24532 7.03003 6.64926
#
# Compressibility (1/GPa) = 0.01867953
#
# Stress axis : x y z
#
# Youngs Moduli (GPa) = 75.30080 80.94907 85.11000
#
# Poissons Ratio (x) = 0.22867 0.22697
# Poissons Ratio (y) = 0.21271 0.32854
# Poissons Ratio (z) = 0.20081 0.31248
#
# Static dielectric constant tensor:
#      x y z
#    x 1.624740 0.000000 0.008090 
#    y 0.000000 1.609320 0.000000 
#    z 0.008090 0.000000 1.640490 
# 
# From -- ./inp_files/301198.got.cif
#   From: 2010.05.17/outbox.cif.g08.bks.cpg/sg12_151_cif.got.tgz:301198.got - 2010.06.03 13:09:07.
