data_PCOD9199712
_publ_section_title
;
Structure prediction by ZEFSAII (Michael W. Deem and Ramdas Pophale) SiO2 
 PCOD9199712
Probable space group: C 2/M
;
_chemical_formula_sum "Si O2"
_cell_formula_units_Z 64
_cell_length_a 20.260098
_cell_length_b 8.703508
_cell_length_c 31.773505
_cell_angle_alpha 90.000000
_cell_angle_beta 142.557502
_cell_angle_gamma 90.000000
_cell_volume 3406.273505
_symmetry_space_group_name_H-M "C 2/M"
_symmetry_group_IT_number 12
_symmetry_cell_setting 'monoclinic'
loop_
_space_group_symop_operation_xyz
x,y,z
-x,y,-z
-x,-y,-z
x,-y,z
1/2+x,1/2+y,z
1/2-x,1/2+y,-z
1/2-x,1/2-y,-z
1/2+x,1/2-y,z
loop_
_atom_site_type_symbol
_atom_site_label
_atom_site_fract_x
_atom_site_fract_y
_atom_site_fract_z
Si Si1 0.478106 0.316703 0.536725
Si Si2 0.244173 0.314900 0.950699
Si Si3 0.761968 0.321882 0.460392
Si Si4 0.370247 0.685872 0.808770
Si Si5 0.007701 0.684053 0.800739
Si Si6 0.523299 0.312613 0.964442
Si Si7 0.017174 0.178727 0.303954
Si Si8 0.615822 0.815288 0.684417
O O1 0.500000 0.265577 0.500000
O O2 0.492649 0.500000 0.546562
O O3 0.354501 0.271938 0.483747
O O4 0.554084 0.242617 0.611172
O O5 0.244653 0.500000 0.951709
O O6 0.130407 0.265500 0.873631
O O7 0.250000 0.250000 0.000000
O O8 0.354031 0.264926 0.983633
O O9 0.795943 0.500000 0.480147
O O10 0.750000 0.250000 0.500000
O O11 0.643504 0.314539 0.380376
O O12 0.374221 0.500000 0.809436
O O13 0.426481 0.747442 0.794670
O O14 0.440566 0.736291 0.885413
O O15 0.243332 0.730447 0.748040
O O16 0.000718 0.500000 0.799807
O O17 0.989941 0.737021 0.744165
O O18 0.518861 0.500000 0.962167
O O19 0.500000 0.260583 0.000000
O O20 0.945381 0.250772 0.305214
O O21 0.986324 0.000000 0.283771
O O22 0.610686 0.000000 0.683073
#
# Coordination Sequence:
#
# PCOD9199712 Si02
#       8
#     8   8   8   8   8   8   8   8
#     4  11  25  43  64  92 126 164 204 249 308 367
#     4  10  20  36  61  88 118 155 202 255 305 361
#     4  11  23  41  67  93 121 158 206 258 307 365
#     4  10  22  40  62  89 123 164 206 249 303 366
#     4  11  24  39  61  92 125 162 207 256 306 363
#     4   9  18  34  60  87 116 156 200 248 300 356
#     4  11  25  43  64  91 124 163 205 250 308 369
#     4  11  24  41  64  92 124 161 206 255 303 363
#
# _framework density 18.788862000000002
#
# number of rings (size 3 to 8) (size 9 to 14) (size 15 to 20)
#    0.000    1.500    2.500    1.875    3.500    4.000 
#    0.000    0.000    0.000    0.750    0.000    0.000 
#    0.000    0.000    0.000    0.000    0.000    0.000 
#
# Total GULP energy -178691.056381 kJ/mol
# GULP energy per Si atom -5584.095512 kJ/mol
# Density = 1.874610 g / cm^3
# Si number density = 18.788862 Si / 1000 Ang^3
#
#
#
# Elastic Constant Matrix: (Units=GPa)
#
#
# Indices 1 2 3 4 5 6 
#
# 1 192.3654 26.9571 73.4934 0.0000 -2.5278 0.0000
# 2 26.9571 24.5873 30.0152 0.0000 -0.1230 0.0000
# 3 73.4934 30.0152 100.5826 0.0000 -2.1486 -0.0001
# 4 0.0000 0.0000 0.0000 19.1083 0.0000 -0.1268
# 5 -2.5278 -0.1230 -2.1486 0.0000 38.8426 0.0000
# 6 0.0000 0.0000 -0.0001 -0.1268 0.0000 23.9550
#
#
#
# Elastic Compliance Matrix: (Units=1/GPa)
#
#
# Indices 1 2 3 4 5 6 
#
# 1 0.007298 -0.002354 -0.004626 0.000000 0.000212 0.000000
# 2 -0.002354 0.064765 -0.017627 0.000000 -0.000923 0.000000
# 3 -0.004626 -0.017627 0.018596 0.000000 0.000672 0.000000
# 4 0.000000 0.000000 0.000000 0.052335 0.000000 0.000277
# 5 0.000212 -0.000923 0.000672 0.000000 0.025793 0.000000
# 6 0.000000 0.000000 0.000000 0.000277 0.000000 0.041746
#
#
# Mechanical properties :
#
#
# Convention : Reuss Voigt Hill
#
# Bulk Modulus (GPa) = 24.12684 64.27406 44.20045
# Shear Modulus (GPa) = 18.27731 28.85250 23.56490
#
# Velocity S-wave (km/s) = 3.12232 3.92295 3.54530
# Velocity P-wave (km/s) = 5.08600 7.40285 6.35097
#
# Compressibility (1/GPa) = 0.04144762
#
# Stress axis : x y z
#
# Youngs Moduli (GPa) = 137.01688 15.44034 53.77356
#
# Poissons Ratio (x) = 0.03634 0.24875
# Poissons Ratio (y) = 0.32250 0.94785
# Poissons Ratio (z) = 0.63382 0.27216
#
# Static dielectric constant tensor:
#      x y z
#    x 1.639300 0.000000 -0.008890 
#    y 0.000000 1.641880 0.000000 
#    z -0.008890 0.000000 1.624730 
# 
# From -- ./inp_files/378536.got.cif
#   From: 2010.05.17/outbox.cif.g08.bks.cpg/sg12_190_cif.got.tgz:378536.got - 2010.06.03 13:09:07.
