data_PCOD9199189
_publ_section_title
;
Structure prediction by ZEFSAII (Michael W. Deem and Ramdas Pophale) SiO2 
 PCOD9199189
Probable space group: C 2/M
;
_chemical_formula_sum "Si O2"
_cell_formula_units_Z 64
_cell_length_a 20.025541
_cell_length_b 8.815545
_cell_length_c 21.195946
_cell_angle_alpha 90.000000
_cell_angle_beta 69.318267
_cell_angle_gamma 90.000000
_cell_volume 3500.711585
_symmetry_space_group_name_H-M "C 2/M"
_symmetry_group_IT_number 12
_symmetry_cell_setting 'monoclinic'
loop_
_space_group_symop_operation_xyz
x,y,z
-x,y,-z
-x,-y,-z
x,-y,z
1/2+x,1/2+y,z
1/2-x,1/2+y,-z
1/2-x,1/2-y,-z
1/2+x,1/2-y,z
loop_
_atom_site_type_symbol
_atom_site_label
_atom_site_fract_x
_atom_site_fract_y
_atom_site_fract_z
Si Si1 0.816721 0.680145 0.941036
Si Si2 0.822880 0.318853 0.679666
Si Si3 0.671387 0.819909 0.689373
Si Si4 0.026655 0.679724 0.060821
Si Si5 0.122926 0.182189 0.206753
Si Si6 0.678450 0.321732 0.551603
Si Si7 0.580674 0.320522 0.462650
Si Si8 0.531909 0.320398 0.795348
O O1 0.806942 0.500000 0.936131
O O2 0.888978 0.704513 0.957451
O O3 0.832196 0.755174 0.867813
O O4 0.750000 0.750000 0.000000
O O5 0.821043 0.500000 0.682707
O O6 0.743947 0.255860 0.690757
O O7 0.850540 0.252777 0.736811
O O8 0.875390 0.264635 0.606066
O O9 0.660017 0.763805 0.621720
O O10 0.601836 0.767923 0.750532
O O11 0.680151 0.000000 0.688325
O O12 0.013244 0.500000 0.076795
O O13 0.986886 0.776832 0.126863
O O14 0.000000 0.716340 0.000000
O O15 0.039621 0.220225 0.220488
O O16 0.128940 0.000000 0.206849
O O17 0.688754 0.500000 0.561802
O O18 0.750000 0.250000 0.500000
O O19 0.620305 0.306808 0.516216
O O20 0.500000 0.267087 0.500000
O O21 0.579059 0.500000 0.446152
O O22 0.543702 0.500000 0.784554
#
# Coordination Sequence:
#
# PCOD9199189 Si02
#       8
#     8   8   8   8   8   8   8   8
#     4  10  20  36  59  87 120 157 201 246 296 352
#     4  12  25  41  62  89 121 154 200 252 299 356
#     4  12  25  41  62  87 121 161 201 246 300 357
#     4   9  19  37  60  86 118 156 197 243 293 348
#     4  10  22  41  63  86 120 160 199 245 304 359
#     4  11  22  39  63  89 120 156 196 246 299 352
#     4  10  23  42  63  88 119 157 198 241 297 357
#     4  10  22  40  62  89 120 157 201 247 296 354
#
# _framework density 18.281998000000002
#
# number of rings (size 3 to 8) (size 9 to 14) (size 15 to 20)
#    0.000    1.500    1.250    3.750    1.750    4.000 
#    0.000    3.750    0.000    0.000    0.000    0.000 
#    0.000    0.000    0.000    0.000    0.000    0.000 
#
# Total GULP energy -178846.973504 kJ/mol
# GULP energy per Si atom -5588.967922 kJ/mol
# Density = 1.824039 g / cm^3
# Si number density = 18.281998 Si / 1000 Ang^3
#
#
#
# Elastic Constant Matrix: (Units=GPa)
#
#
# Indices 1 2 3 4 5 6 
#
# 1 104.0739 75.7723 86.6200 0.0000 -10.1612 0.0000
# 2 75.7723 118.4038 71.1661 0.0000 -2.8054 0.0000
# 3 86.6200 71.1661 115.4331 0.0000 -3.3513 0.0000
# 4 0.0000 0.0000 0.0000 40.9071 0.0000 -0.2562
# 5 -10.1612 -2.8054 -3.3513 0.0000 36.7053 0.0000
# 6 0.0000 0.0000 0.0000 -0.2562 0.0000 28.3715
#
#
#
# Elastic Compliance Matrix: (Units=1/GPa)
#
#
# Indices 1 2 3 4 5 6 
#
# 1 0.032410 -0.009663 -0.018172 0.000000 0.006574 0.000000
# 2 -0.009663 0.016301 -0.002848 0.000000 -0.001689 0.000000
# 3 -0.018172 -0.002848 0.023966 0.000000 -0.003060 0.000000
# 4 0.000000 0.000000 0.000000 0.024447 0.000000 0.000221
# 5 0.006574 -0.001689 -0.003060 0.000000 0.028656 0.000000
# 6 0.000000 0.000000 0.000000 0.000221 0.000000 0.035249
#
#
# Mechanical properties :
#
#
# Convention : Reuss Voigt Hill
#
# Bulk Modulus (GPa) = 88.40510 89.44751 88.92631
# Shear Modulus (GPa) = 22.10773 28.15361 25.13067
#
# Velocity S-wave (km/s) = 3.48122 3.92849 3.71160
# Velocity P-wave (km/s) = 8.03865 8.34327 8.19238
#
# Compressibility (1/GPa) = 0.01131156
#
# Stress axis : x y z
#
# Youngs Moduli (GPa) = 30.85460 61.34550 41.72513
#
# Poissons Ratio (x) = 0.59276 0.75824
# Poissons Ratio (y) = 0.29814 0.11884
# Poissons Ratio (z) = 0.56070 0.17472
#
# Static dielectric constant tensor:
#      x y z
#    x 1.608790 0.000000 -0.006160 
#    y 0.000000 1.610080 0.000000 
#    z -0.006160 0.000000 1.586300 
# 
# From -- ./inp_files/319960.got.cif
#   From: 2010.05.17/outbox.cif.g08.bks.cpg/sg12_160_cif.got.tgz:319960.got - 2010.06.03 13:09:07.
