data_PCOD9199015
_publ_section_title
;
Structure prediction by ZEFSAII (Michael W. Deem and Ramdas Pophale) SiO2 
 PCOD9199015
Probable space group: C 2/M
;
_chemical_formula_sum "Si O2"
_cell_formula_units_Z 48
_cell_length_a 18.342073
_cell_length_b 8.551626
_cell_length_c 15.906630
_cell_angle_alpha 90.000000
_cell_angle_beta 90.032216
_cell_angle_gamma 90.000000
_cell_volume 2495.026870
_symmetry_space_group_name_H-M "C 2/M"
_symmetry_group_IT_number 12
_symmetry_cell_setting 'monoclinic'
loop_
_space_group_symop_operation_xyz
x,y,z
-x,y,-z
-x,-y,-z
x,-y,z
1/2+x,1/2+y,z
1/2-x,1/2+y,-z
1/2-x,1/2-y,-z
1/2+x,1/2-y,z
loop_
_atom_site_type_symbol
_atom_site_label
_atom_site_fract_x
_atom_site_fract_y
_atom_site_fract_z
Si Si1 0.954509 0.811013 0.917326
Si Si2 0.791391 0.687551 0.246661
Si Si3 0.958464 0.190717 0.584150
Si Si4 0.955636 0.189263 0.248544
Si Si5 0.209488 0.685930 0.082385
Si Si6 0.290090 0.310843 0.582833
O O1 0.874136 0.740748 0.918089
O O2 0.998807 0.765029 0.833945
O O3 0.947788 0.000000 0.917214
O O4 0.000000 0.765683 0.000000
O O5 0.789281 0.500000 0.243926
O O6 0.874527 0.744151 0.246313
O O7 0.749191 0.751566 0.165739
O O8 0.751694 0.739397 0.332669
O O9 0.874371 0.241070 0.584820
O O10 0.000000 0.242141 0.500000
O O11 0.001677 0.239692 0.667524
O O12 0.958245 0.000000 0.584046
O O13 0.951001 0.000000 0.249195
O O14 0.213262 0.500000 0.081548
O O15 0.250000 0.750000 0.000000
O O16 0.289636 0.500000 0.580849
O O17 0.250000 0.250000 0.500000
#
# Coordination Sequence:
#
# PCOD9199015 Si02
#       6
#     8   8   8   8   8   8
#     4  10  21  38  60  86 117 152 191 237 290 348
#     4  11  23  39  59  86 122 158 196 245 297 350
#     4   9  17  31  53  79 108 146 192 237 283 341
#     4  10  20  36  59  84 113 152 196 240 289 349
#     4  12  25  41  63  89 119 156 198 243 292 349
#     4  10  21  37  58  85 117 154 195 243 297 350
#
# _framework density 19.23827
#
# number of rings (size 3 to 8) (size 9 to 14) (size 15 to 20)
#    0.000    1.667    0.000    5.000    0.000    7.667 
#    0.000    0.833    0.000    3.000    0.000    0.000 
#    0.000    0.000    0.000    0.000    0.000    0.000 
#
# Total GULP energy -134193.401107 kJ/mol
# GULP energy per Si atom -5591.391713 kJ/mol
# Density = 1.919448 g / cm^3
# Si number density = 19.238270 Si / 1000 Ang^3
#
#
#
# Elastic Constant Matrix: (Units=GPa)
#
#
# Indices 1 2 3 4 5 6 
#
# 1 238.7366 52.2696 149.8969 0.0000 -0.2906 0.0000
# 2 52.2696 30.8243 51.0127 0.0000 -1.7714 0.0000
# 3 149.8969 51.0127 245.9339 0.0000 -0.2715 0.0000
# 4 0.0000 0.0000 0.0000 19.5162 0.0000 4.7924
# 5 -0.2906 -1.7714 -0.2715 0.0000 45.6992 0.0000
# 6 0.0000 0.0000 0.0000 4.7924 0.0000 35.0629
#
#
#
# Elastic Compliance Matrix: (Units=1/GPa)
#
#
# Indices 1 2 3 4 5 6 
#
# 1 0.007990 -0.008383 -0.003131 0.000000 -0.000293 0.000000
# 2 -0.008383 0.058353 -0.006992 0.000000 0.002167 0.000000
# 3 -0.003131 -0.006992 0.007425 0.000000 -0.000247 0.000000
# 4 0.000000 0.000000 0.000000 0.053019 0.000000 -0.007247
# 5 -0.000293 0.002167 -0.000247 0.000000 0.021963 0.000000
# 6 0.000000 0.000000 0.000000 -0.007247 0.000000 0.029511
#
#
# Mechanical properties :
#
#
# Convention : Reuss Voigt Hill
#
# Bulk Modulus (GPa) = 27.20717 113.53923 70.37320
# Shear Modulus (GPa) = 21.97560 37.54338 29.75949
#
# Velocity S-wave (km/s) = 3.38344 4.42236 3.93732
# Velocity P-wave (km/s) = 5.42554 9.23157 7.57160
#
# Compressibility (1/GPa) = 0.03675502
#
# Stress axis : x y z
#
# Youngs Moduli (GPa) = 125.15857 17.13694 134.68690
#
# Poissons Ratio (x) = 0.14367 0.42174
# Poissons Ratio (y) = 1.04925 0.94171
# Poissons Ratio (z) = 0.39190 0.11982
#
# Static dielectric constant tensor:
#      x y z
#    x 1.625010 0.000000 -0.008330 
#    y 0.000000 1.657900 0.000000 
#    z -0.008330 0.000000 1.645680 
# 
# From -- ./inp_files/221652.got.cif
#   From: 2010.05.17/outbox.cif.g08.bks.cpg/sg12_111_cif.got.tgz:221652.got - 2010.06.03 13:09:07.
