data_PCOD9199056
_publ_section_title
;
Structure prediction by ZEFSAII (Michael W. Deem and Ramdas Pophale) SiO2 
 PCOD9199056
Probable space group: C 2/M
;
_chemical_formula_sum "Si O2"
_cell_formula_units_Z 56
_cell_length_a 9.771211
_cell_length_b 16.403454
_cell_length_c 22.663925
_cell_angle_alpha 90.000000
_cell_angle_beta 123.899978
_cell_angle_gamma 90.000000
_cell_volume 3015.112030
_symmetry_space_group_name_H-M "C 2/M"
_symmetry_group_IT_number 12
_symmetry_cell_setting 'monoclinic'
loop_
_space_group_symop_operation_xyz
x,y,z
-x,y,-z
-x,-y,-z
x,-y,z
1/2+x,1/2+y,z
1/2-x,1/2+y,-z
1/2-x,1/2-y,-z
1/2+x,1/2-y,z
loop_
_atom_site_type_symbol
_atom_site_label
_atom_site_fract_x
_atom_site_fract_y
_atom_site_fract_z
Si Si1 0.883373 0.912114 0.282099
Si Si2 0.815278 0.748738 0.949731
Si Si3 0.255187 0.679123 0.417565
Si Si4 0.523388 0.339542 0.812459
Si Si5 0.928124 0.665026 0.741420
Si Si6 0.282299 0.597156 0.858362
Si Si7 0.905371 0.840281 0.568451
O O1 0.943619 0.904975 0.230092
O O2 0.731986 0.851971 0.257154
O O3 0.030860 0.896884 0.363753
O O4 0.811436 0.000000 0.278025
O O5 0.692224 0.691550 0.883204
O O6 0.818895 0.838741 0.920374
O O7 0.750000 0.750000 0.000000
O O8 0.000000 0.716614 0.000000
O O9 0.124961 0.647119 0.338644
O O10 0.189868 0.765482 0.424924
O O11 0.425068 0.689074 0.422141
O O12 0.297058 0.628320 0.486979
O O13 0.462769 0.260181 0.761402
O O14 0.396753 0.371487 0.831504
O O15 0.090263 0.614502 0.797119
O O16 0.308519 0.500000 0.875698
#
# Coordination Sequence:
#
# PCOD9199056 Si02
#       7
#     8   8   8   8   8   8   8
#     4  11  22  36  55  86 122 151 190 246 300 338
#     4  11  23  44  67  91 114 151 194 233 277 343
#     4   9  17  31  54  80 108 146 205 244 279 331
#     4  11  22  39  64  86 115 156 197 230 280 349
#     4  10  20  36  59  85 113 157 203 240 281 343
#     4  11  24  40  61  91 123 153 187 235 292 344
#     4   9  18  32  51  82 108 150 194 248 285 334
#
# _framework density 18.573107
#
# number of rings (size 3 to 8) (size 9 to 14) (size 15 to 20)
#    0.000    1.714    2.857    2.571    4.000    0.286 
#    0.000    6.429    0.000    2.143    0.000    5.000 
#    0.000    0.000    0.000    0.000    0.000    0.000 
#
# Total GULP energy -155997.884299 kJ/mol
# GULP energy per Si atom -5571.353011 kJ/mol
# Density = 1.853083 g / cm^3
# Si number density = 18.573107 Si / 1000 Ang^3
#
#
#
# Elastic Constant Matrix: (Units=GPa)
#
#
# Indices 1 2 3 4 5 6 
#
# 1 67.8990 8.9386 46.6955 0.0000 -14.6963 0.0000
# 2 8.9386 55.2825 17.2139 0.0000 -0.5758 0.0000
# 3 46.6955 17.2139 126.3806 0.0000 -6.7306 0.0000
# 4 0.0000 0.0000 0.0000 8.4219 0.0000 -0.8909
# 5 -14.6963 -0.5758 -6.7306 0.0000 33.0887 0.0000
# 6 0.0000 0.0000 0.0000 -0.8909 0.0000 9.1005
#
#
#
# Elastic Compliance Matrix: (Units=1/GPa)
#
#
# Indices 1 2 3 4 5 6 
#
# 1 0.021761 -0.001112 -0.007456 0.000000 0.008129 0.000000
# 2 -0.001112 0.018948 -0.002203 0.000000 -0.000612 0.000000
# 3 -0.007456 -0.002203 0.010907 0.000000 -0.001131 0.000000
# 4 0.000000 0.000000 0.000000 0.119980 0.000000 0.011745
# 5 0.008129 -0.000612 -0.001131 0.000000 0.033592 0.000000
# 6 0.000000 0.000000 0.000000 0.011745 0.000000 0.111034
#
#
# Mechanical properties :
#
#
# Convention : Reuss Voigt Hill
#
# Bulk Modulus (GPa) = 33.25000 43.91756 38.58378
# Shear Modulus (GPa) = 14.37654 21.90318 18.13986
#
# Velocity S-wave (km/s) = 2.78520 3.43781 3.12857
# Velocity P-wave (km/s) = 5.31829 6.28134 5.81977
#
# Compressibility (1/GPa) = 0.03007518
#
# Stress axis : x y z
#
# Youngs Moduli (GPa) = 45.95305 52.77544 91.68237
#
# Poissons Ratio (x) = 0.05870 0.68358
# Poissons Ratio (y) = 0.05111 0.20193
# Poissons Ratio (z) = 0.34263 0.11624
#
# Static dielectric constant tensor:
#      x y z
#    x 1.604190 0.000000 -0.003700 
#    y 0.000000 1.618320 0.000000 
#    z -0.003700 0.000000 1.689230 
# 
# From -- ./inp_files/300882.got.cif
#   From: 2010.05.17/outbox.cif.g08.bks.cpg/sg12_151_cif.got.tgz:300882.got - 2010.06.03 13:09:07.
