data_PCOD9199170
_publ_section_title
;
Structure prediction by ZEFSAII (Michael W. Deem and Ramdas Pophale) SiO2 
 PCOD9199170
Probable space group: C 2/M
;
_chemical_formula_sum "Si O2"
_cell_formula_units_Z 64
_cell_length_a 17.578143
_cell_length_b 8.205697
_cell_length_c 31.901197
_cell_angle_alpha 90.000000
_cell_angle_beta 139.320329
_cell_angle_gamma 90.000000
_cell_volume 2999.365377
_symmetry_space_group_name_H-M "C 2/M"
_symmetry_group_IT_number 12
_symmetry_cell_setting 'monoclinic'
loop_
_space_group_symop_operation_xyz
x,y,z
-x,y,-z
-x,-y,-z
x,-y,z
1/2+x,1/2+y,z
1/2-x,1/2+y,-z
1/2-x,1/2-y,-z
1/2+x,1/2-y,z
loop_
_atom_site_type_symbol
_atom_site_label
_atom_site_fract_x
_atom_site_fract_y
_atom_site_fract_z
Si Si1 0.596478 0.684684 0.642057
Si Si2 0.864526 0.690223 0.427506
Si Si3 0.654233 0.804934 0.491716
Si Si4 0.258564 0.688109 0.774588
Si Si5 0.031319 0.815245 0.196788
Si Si6 0.111138 0.813776 0.017260
Si Si7 0.621649 0.814382 0.937238
Si Si8 0.675594 0.803446 0.832707
O O1 0.607892 0.500000 0.661173
O O2 0.662363 0.712372 0.625409
O O3 0.465348 0.724952 0.573530
O O4 0.643369 0.799812 0.697907
O O5 0.844219 0.500000 0.409797
O O6 0.802698 0.744819 0.443925
O O7 0.000000 0.703600 0.500000
O O8 0.750000 0.750000 0.500000
O O9 0.636891 0.000000 0.485881
O O10 0.295218 0.500000 0.796786
O O11 0.356924 0.760030 0.782844
O O12 0.222654 0.753502 0.806092
O O13 0.937821 0.803353 0.120422
O O14 0.953346 0.748203 0.203597
O O15 0.064898 0.000000 0.221902
O O16 0.225133 0.758987 0.091147
O O17 0.134239 0.000000 0.011784
O O18 0.070057 0.702330 0.961821
O O19 0.000000 0.822756 0.000000
O O20 0.615103 0.000000 0.919159
O O21 0.750000 0.750000 0.000000
O O22 0.673882 0.000000 0.829987
#
# Coordination Sequence:
#
# PCOD9199170 Si02
#       8
#     8   8   8   8   8   8   8   8
#     4  11  22  37  60  89 120 158 204 250 294 350
#     4   8  16  33  57  83 115 154 190 233 288 342
#     4  10  20  36  60  91 126 161 197 244 301 356
#     4  10  23  44  65  86 119 168 211 249 309 373
#     4  11  23  41  65  90 118 158 203 255 317 375
#     4  10  20  36  59  87 118 153 193 243 308 378
#     4  12  23  36  57  85 117 152 192 245 305 367
#     4  10  21  39  63  87 117 158 203 255 306 366
#
# _framework density 21.337847
#
# number of rings (size 3 to 8) (size 9 to 14) (size 15 to 20)
#    0.000    1.750    1.250    4.500    0.000    6.500 
#    2.250    1.250    0.000    0.000    0.000    0.000 
#    0.000    0.000    0.000    0.000    0.000    0.000 
#
# Total GULP energy -178195.187808 kJ/mol
# GULP energy per Si atom -5568.599619 kJ/mol
# Density = 2.128928 g / cm^3
# Si number density = 21.337847 Si / 1000 Ang^3
#
#
#
# Elastic Constant Matrix: (Units=GPa)
#
#
# Indices 1 2 3 4 5 6 
#
# 1 147.9079 12.2657 16.5606 0.0001 -13.5551 -0.0001
# 2 12.2657 33.7271 -6.9172 0.0001 -1.8398 -0.0001
# 3 16.5606 -6.9172 46.8866 0.0000 -14.9014 0.0000
# 4 0.0001 0.0001 0.0000 15.4073 0.0000 -0.4459
# 5 -13.5551 -1.8398 -14.9014 0.0000 21.4590 0.0000
# 6 -0.0001 -0.0001 0.0000 -0.4459 0.0000 29.0491
#
#
#
# Elastic Compliance Matrix: (Units=1/GPa)
#
#
# Indices 1 2 3 4 5 6 
#
# 1 0.007527 -0.003014 -0.002148 0.000000 0.003004 0.000000
# 2 -0.003014 0.032721 0.007928 0.000000 0.006407 0.000000
# 3 -0.002148 0.007928 0.029567 0.000000 0.019854 0.000000
# 4 0.000000 0.000000 0.000000 0.064933 0.000000 0.000997
# 5 0.003004 0.006407 0.019854 0.000000 0.062835 0.000000
# 6 0.000000 0.000000 0.000000 0.000997 0.000000 0.034440
#
#
# Mechanical properties :
#
#
# Convention : Reuss Voigt Hill
#
# Bulk Modulus (GPa) = 13.27204 30.25997 21.76601
# Shear Modulus (GPa) = 19.87234 26.95724 23.41479
#
# Velocity S-wave (km/s) = 3.05506 3.55822 3.31620
# Velocity P-wave (km/s) = 4.32181 5.57615 4.98856
#
# Compressibility (1/GPa) = 0.07534636
#
# Stress axis : x y z
#
# Youngs Moduli (GPa) = 132.85896 30.56106 33.82202
#
# Poissons Ratio (x) = 0.09211 0.07266
# Poissons Ratio (y) = 0.40044 -0.26815
# Poissons Ratio (z) = 0.28543 -0.24230
#
# Static dielectric constant tensor:
#      x y z
#    x 1.784290 0.000000 0.030440 
#    y 0.000000 1.627700 0.000000 
#    z 0.030440 0.000000 1.730980 
# 
# From -- ./inp_files/378308.got.cif
#   From: 2010.05.17/outbox.cif.g08.bks.cpg/sg12_190_cif.got.tgz:378308.got - 2010.06.03 13:09:07.
