data_PCOD9199960
_publ_section_title
;
Structure prediction by ZEFSAII (Michael W. Deem and Ramdas Pophale) SiO2 
 PCOD9199960
Probable space group: C 2/M
;
_chemical_formula_sum "Si O2"
_cell_formula_units_Z 56
_cell_length_a 9.083052
_cell_length_b 21.946902
_cell_length_c 14.975916
_cell_angle_alpha 90.000000
_cell_angle_beta 120.227306
_cell_angle_gamma 90.000000
_cell_volume 2579.465613
_symmetry_space_group_name_H-M "C 2/M"
_symmetry_group_IT_number 12
_symmetry_cell_setting 'monoclinic'
loop_
_space_group_symop_operation_xyz
x,y,z
-x,y,-z
-x,-y,-z
x,-y,z
1/2+x,1/2+y,z
1/2-x,1/2+y,-z
1/2-x,1/2-y,-z
1/2+x,1/2-y,z
loop_
_atom_site_type_symbol
_atom_site_label
_atom_site_fract_x
_atom_site_fract_y
_atom_site_fract_z
Si Si1 0.817404 0.261009 0.283118
Si Si2 0.821645 0.428815 0.998816
Si Si3 0.459739 0.566815 0.240848
Si Si4 0.326768 0.430366 0.399388
Si Si5 0.204572 0.805050 0.054909
Si Si6 0.411330 0.856256 0.558781
Si Si7 0.395706 0.317679 0.650534
O O1 0.768258 0.281142 0.169849
O O2 0.654758 0.264321 0.297003
O O3 0.949834 0.308654 0.366008
O O4 0.913318 0.197245 0.319968
O O5 0.818714 0.500000 0.033290
O O6 0.669241 0.424468 0.879814
O O7 0.789292 0.370245 0.052890
O O8 0.000000 0.421872 0.000000
O O9 0.539582 0.500000 0.257690
O O10 0.356737 0.568080 0.302878
O O11 0.596729 0.619996 0.291470
O O12 0.500000 0.406343 0.500000
O O13 0.311924 0.500000 0.426597
O O14 0.160859 0.396723 0.384126
O O15 0.250000 0.750000 0.000000
O O16 0.000000 0.813170 0.000000
O O17 0.500000 0.888385 0.500000
O O18 0.243388 0.822858 0.468312
#
# Coordination Sequence:
#
# PCOD9199960 Si02
#       7
#     8   8   8   8   8   8   8
#     4  11  25  40  63  93 123 164 204 253 314 370
#     4  10  23  42  65  94 128 166 214 269 318 371
#     4  10  21  39  66  91 121 165 210 252 307 368
#     4  10  20  36  62  92 122 163 208 249 299 367
#     4  12  25  44  67  94 126 166 216 267 319 376
#     4  10  23  40  58  90 130 159 200 249 308 370
#     4  11  23  42  63  92 126 162 203 252 307 375
#
# _framework density 21.709924999999998
#
# number of rings (size 3 to 8) (size 9 to 14) (size 15 to 20)
#    0.000    1.429    1.429    3.429    4.000    0.571 
#    0.000    2.857    0.000    0.000    0.000    0.000 
#    0.000    0.000    0.000    0.000    0.000    0.000 
#
# Total GULP energy -156364.230332 kJ/mol
# GULP energy per Si atom -5584.436798 kJ/mol
# Density = 2.166051 g / cm^3
# Si number density = 21.709925 Si / 1000 Ang^3
#
#
#
# Elastic Constant Matrix: (Units=GPa)
#
#
# Indices 1 2 3 4 5 6 
#
# 1 59.6469 30.6184 -10.3332 0.0000 4.8504 0.0000
# 2 30.6184 72.7949 -8.9018 0.0000 7.7559 0.0000
# 3 -10.3332 -8.9018 57.9780 0.0000 4.6451 0.0000
# 4 0.0000 0.0000 0.0000 20.9013 0.0000 5.1334
# 5 4.8504 7.7559 4.6451 0.0000 31.7021 0.0000
# 6 0.0000 0.0000 0.0000 5.1334 0.0000 40.7610
#
#
#
# Elastic Compliance Matrix: (Units=1/GPa)
#
#
# Indices 1 2 3 4 5 6 
#
# 1 0.021815 -0.008676 0.002685 0.000000 -0.001609 0.000000
# 2 -0.008676 0.017914 0.001466 0.000000 -0.003270 0.000000
# 3 0.002685 0.001466 0.018227 0.000000 -0.003440 0.000000
# 4 0.000000 0.000000 0.000000 0.049371 0.000000 -0.006218
# 5 -0.001609 -0.003270 -0.003440 0.000000 0.033094 0.000000
# 6 0.000000 0.000000 0.000000 -0.006218 0.000000 0.025316
#
#
# Mechanical properties :
#
#
# Convention : Reuss Voigt Hill
#
# Bulk Modulus (GPa) = 20.44727 23.68741 22.06734
# Shear Modulus (GPa) = 26.16581 30.60864 28.38722
#
# Velocity S-wave (km/s) = 3.47543 3.75893 3.61996
# Velocity P-wave (km/s) = 5.05408 5.45655 5.25916
#
# Compressibility (1/GPa) = 0.04890629
#
# Stress axis : x y z
#
# Youngs Moduli (GPa) = 45.84045 55.82196 54.86316
#
# Poissons Ratio (x) = 0.48430 -0.14729
# Poissons Ratio (y) = 0.39771 -0.08044
# Poissons Ratio (z) = -0.12307 -0.08185
#
# Static dielectric constant tensor:
#      x y z
#    x 1.853300 0.000000 -0.041000 
#    y 0.000000 1.826970 0.000000 
#    z -0.041000 0.000000 1.773060 
# 
# From -- ./inp_files/198980.got.cif
#   From: 2010.05.17/outbox.cif.g08.bks.cpg/sg12_100_cif.got.tgz:198980.got - 2010.06.03 13:09:07.
