data_PCOD9199298
_publ_section_title
;
Structure prediction by ZEFSAII (Michael W. Deem and Ramdas Pophale) SiO2 
 PCOD9199298
Probable space group: C 2/M
;
_chemical_formula_sum "Si O2"
_cell_formula_units_Z 56
_cell_length_a 23.474718
_cell_length_b 11.848171
_cell_length_c 11.036167
_cell_angle_alpha 90.000000
_cell_angle_beta 120.344593
_cell_angle_gamma 90.000000
_cell_volume 2649.000707
_symmetry_space_group_name_H-M "C 2/M"
_symmetry_group_IT_number 12
_symmetry_cell_setting 'monoclinic'
loop_
_space_group_symop_operation_xyz
x,y,z
-x,y,-z
-x,-y,-z
x,-y,z
1/2+x,1/2+y,z
1/2-x,1/2+y,-z
1/2-x,1/2-y,-z
1/2+x,1/2-y,z
loop_
_atom_site_type_symbol
_atom_site_label
_atom_site_fract_x
_atom_site_fract_y
_atom_site_fract_z
Si Si1 0.222086 0.874164 0.427485
Si Si2 0.846271 0.219265 0.858411
Si Si3 0.111269 0.870316 0.857572
Si Si4 0.379336 0.625911 0.477605
Si Si5 0.552500 0.872839 0.166679
Si Si6 0.268008 0.631627 0.173477
Si Si7 0.498973 0.789909 0.365861
O O1 0.250000 0.750000 0.500000
O O2 0.203221 0.861469 0.267241
O O3 0.154202 0.882144 0.428446
O O4 0.255129 0.000000 0.484505
O O5 0.889627 0.287233 0.807319
O O6 0.800257 0.305196 0.884136
O O7 0.892116 0.156593 0.004023
O O8 0.188199 0.860720 0.900368
O O9 0.067426 0.779852 0.737575
O O10 0.090743 0.000000 0.812720
O O11 0.394546 0.500000 0.449045
O O12 0.320662 0.672647 0.330548
O O13 0.443731 0.698686 0.552761
O O14 0.519452 0.853073 0.263232
O O15 0.579083 0.000000 0.193651
O O16 0.500000 0.863513 0.000000
O O17 0.255626 0.500000 0.184692
O O18 0.500000 0.850505 0.500000
#
# Coordination Sequence:
#
# PCOD9199298 Si02
#       7
#     8   8   8   8   8   8   8
#     4  11  23  39  62  93 133 172 221 282 342 406
#     4  12  22  41  66  94 130 175 225 279 340 403
#     4  11  24  40  62  96 135 172 218 276 343 411
#     4  10  20  36  59  92 125 162 211 267 326 395
#     4  11  25  45  66  93 130 177 230 281 340 415
#     4  10  21  38  63  94 128 169 216 271 333 405
#     4  12  23  41  69  97 131 172 222 278 341 407
#
# _framework density 21.140048
#
# number of rings (size 3 to 8) (size 9 to 14) (size 15 to 20)
#    0.000    1.000    5.714    1.714    0.000    1.429 
#    0.000    0.714    0.000    0.857    0.000    0.000 
#    0.000    0.000    0.000    0.000    0.000    0.000 
#
# Total GULP energy -156042.770305 kJ/mol
# GULP energy per Si atom -5572.956082 kJ/mol
# Density = 2.109193 g / cm^3
# Si number density = 21.140048 Si / 1000 Ang^3
#
#
#
# Elastic Constant Matrix: (Units=GPa)
#
#
# Indices 1 2 3 4 5 6 
#
# 1 66.8817 28.9833 6.9026 0.0000 -15.1012 0.0000
# 2 28.9833 97.3832 33.0761 0.0000 -3.8662 0.0000
# 3 6.9026 33.0761 102.8949 0.0000 -24.3614 0.0000
# 4 0.0000 0.0000 0.0000 18.0587 0.0000 -0.9632
# 5 -15.1012 -3.8662 -24.3614 0.0000 34.3895 0.0000
# 6 0.0000 0.0000 0.0000 -0.9632 0.0000 23.1805
#
#
#
# Elastic Compliance Matrix: (Units=1/GPa)
#
#
# Indices 1 2 3 4 5 6 
#
# 1 0.019773 -0.006567 0.003203 0.000000 0.010213 0.000000
# 2 -0.006567 0.013782 -0.005173 0.000000 -0.004999 0.000000
# 3 0.003203 -0.005173 0.013652 0.000000 0.010496 0.000000
# 4 0.000000 0.000000 0.000000 0.055498 0.000000 0.002306
# 5 0.010213 -0.004999 0.010496 0.000000 0.040437 0.000000
# 6 0.000000 0.000000 0.000000 0.002306 0.000000 0.043235
#
#
# Mechanical properties :
#
#
# Convention : Reuss Voigt Hill
#
# Bulk Modulus (GPa) = 33.18819 45.00931 39.09875
# Shear Modulus (GPa) = 23.41961 28.33895 25.87928
#
# Velocity S-wave (km/s) = 3.33202 3.66530 3.50263
# Velocity P-wave (km/s) = 5.52598 6.26497 5.90704
#
# Compressibility (1/GPa) = 0.03013120
#
# Stress axis : x y z
#
# Youngs Moduli (GPa) = 50.57341 72.55893 73.25073
#
# Poissons Ratio (x) = 0.47651 -0.23460
# Poissons Ratio (y) = 0.33213 0.37895
# Poissons Ratio (z) = -0.16197 0.37537
#
# Static dielectric constant tensor:
#      x y z
#    x 1.776850 0.000000 -0.054400 
#    y 0.000000 1.794080 0.000000 
#    z -0.054400 0.000000 1.819180 
# 
# From -- ./inp_files/174820.got.cif
#   From: 2010.05.17/outbox.cif.g08.bks.cpg/sg12_88_cif.got.tgz:174820.got - 2010.06.03 13:09:07.
