data_PCOD9199841
_publ_section_title
;
Structure prediction by ZEFSAII (Michael W. Deem and Ramdas Pophale) SiO2 
 PCOD9199841
Probable space group: C 2/M
;
_chemical_formula_sum "Si O2"
_cell_formula_units_Z 48
_cell_length_a 21.513935
_cell_length_b 22.602387
_cell_length_c 5.240058
_cell_angle_alpha 90.000000
_cell_angle_beta 123.429085
_cell_angle_gamma 90.000000
_cell_volume 2126.533093
_symmetry_space_group_name_H-M "C 2/M"
_symmetry_group_IT_number 12
_symmetry_cell_setting 'monoclinic'
loop_
_space_group_symop_operation_xyz
x,y,z
-x,y,-z
-x,-y,-z
x,-y,z
1/2+x,1/2+y,z
1/2-x,1/2+y,-z
1/2-x,1/2-y,-z
1/2+x,1/2-y,z
loop_
_atom_site_type_symbol
_atom_site_label
_atom_site_fract_x
_atom_site_fract_y
_atom_site_fract_z
Si Si1 0.919299 0.364912 0.394633
Si Si2 0.698871 0.665446 0.096127
Si Si3 0.078758 0.229399 0.546709
Si Si4 0.280919 0.563352 0.233728
Si Si5 0.915070 0.883612 0.789940
Si Si6 0.672102 0.121838 0.329442
O O1 0.928788 0.298280 0.528268
O O2 0.877049 0.395503 0.535311
O O3 0.000000 0.389422 0.500000
O O4 0.876911 0.361419 0.027190
O O5 0.631233 0.626287 0.058176
O O6 0.767315 0.672094 0.445861
O O7 0.654243 0.720660 0.883013
O O8 0.732665 0.622522 0.958628
O O9 0.087267 0.182167 0.340595
O O10 0.000000 0.212702 0.500000
O O11 0.269565 0.500000 0.081896
O O12 0.365645 0.571566 0.515871
O O13 0.226211 0.570033 0.351029
O O14 0.000000 0.901637 0.000000
#
# Coordination Sequence:
#
# PCOD9199841 Si02
#       6
#     8   8   8   8   8   8
#     4  11  25  42  68  97 130 168 213 257 328 391
#     4  10  21  39  61  93 128 172 218 263 313 374
#     4  10  21  36  60  92 133 182 212 251 307 379
#     4  10  23  43  66  92 125 173 219 269 335 382
#     4  10  20  36  61  93 135 174 220 264 304 369
#     4  11  23  45  64  98 128 167 210 275 317 385
#
# _framework density 22.571949
#
# number of rings (size 3 to 8) (size 9 to 14) (size 15 to 20)
#    0.000    1.667    3.333    0.500    2.333    4.333 
#    0.000    0.833    0.000    3.000    0.000    0.000 
#    0.000    0.000    0.000    0.000    0.000    0.000 
#
# Total GULP energy -133819.737213 kJ/mol
# GULP energy per Si atom -5575.822384 kJ/mol
# Density = 2.252057 g / cm^3
# Si number density = 22.571949 Si / 1000 Ang^3
#
#
#
# Elastic Constant Matrix: (Units=GPa)
#
#
# Indices 1 2 3 4 5 6 
#
# 1 156.5408 -2.7878 56.9995 0.0000 8.6971 0.0000
# 2 -2.7878 11.1955 6.5233 0.0000 0.5694 0.0000
# 3 56.9995 6.5233 112.3411 0.0000 18.4768 0.0000
# 4 0.0000 0.0000 0.0000 3.6182 0.0000 -3.2085
# 5 8.6971 0.5694 18.4768 0.0000 37.6233 0.0000
# 6 0.0000 0.0000 0.0000 -3.2085 0.0000 1.0731
#
#
#
# Elastic Compliance Matrix: (Units=1/GPa)
#
#
# Indices 1 2 3 4 5 6 
#
# 1 0.008054 0.004551 -0.004388 0.000000 0.000224 0.000000
# 2 0.004551 0.095084 -0.008073 0.000000 0.001474 0.000000
# 3 -0.004388 -0.008073 0.012412 0.000000 -0.004959 0.000000
# 4 0.000000 0.000000 0.000000 -0.167355 0.000000 -0.500393
# 5 0.000224 0.001474 -0.004959 0.000000 0.028941 0.000000
# 6 0.000000 0.000000 0.000000 -0.500393 0.000000 -0.564281
#
#
# Mechanical properties :
#
#
# Convention : Reuss Voigt Hill
#
# Bulk Modulus (GPa) = 10.02696 44.61637 27.32166
# Shear Modulus (GPa) = -9.29224 23.08574 6.89675
#
# Velocity S-wave (km/s) = -2.03117 3.20153 1.74988
# Velocity P-wave (km/s) = 1.02421 5.78581 4.02658
#
# Compressibility (1/GPa) = 0.09973112
#
# Stress axis : x y z
#
# Youngs Moduli (GPa) = 124.15646 10.51707 80.56676
#
# Poissons Ratio (x) = -0.04786 0.35350
# Poissons Ratio (y) = -0.56501 0.65038
# Poissons Ratio (z) = 0.54476 0.08490
#
# Static dielectric constant tensor:
#      x y z
#    x 1.892090 0.000000 -0.009820 
#    y 0.000000 1.787330 0.000000 
#    z -0.009820 0.000000 1.930340 
# 
# From -- ./inp_files/21996.got.cif
#   From: 2010.05.17/outbox.cif.g08.bks.cpg/sg12_11_cif.got.tgz:21996.got - 2010.06.03 13:09:07.
