data_PCOD9199024
_publ_section_title
;
Structure prediction by ZEFSAII (Michael W. Deem and Ramdas Pophale) SiO2 
 PCOD9199024
Probable space group: C 2/M
;
_chemical_formula_sum "Si O2"
_cell_formula_units_Z 60
_cell_length_a 15.882224
_cell_length_b 27.047994
_cell_length_c 17.495752
_cell_angle_alpha 90.000000
_cell_angle_beta 156.648693
_cell_angle_gamma 90.000000
_cell_volume 2979.046953
_symmetry_space_group_name_H-M "C 2/M"
_symmetry_group_IT_number 12
_symmetry_cell_setting 'monoclinic'
loop_
_space_group_symop_operation_xyz
x,y,z
-x,y,-z
-x,-y,-z
x,-y,z
1/2+x,1/2+y,z
1/2-x,1/2+y,-z
1/2-x,1/2-y,-z
1/2+x,1/2-y,z
loop_
_atom_site_type_symbol
_atom_site_label
_atom_site_fract_x
_atom_site_fract_y
_atom_site_fract_z
Si Si1 0.781421 0.056755 0.667696
Si Si2 0.542985 0.221902 0.734153
Si Si3 0.926038 0.613603 0.279027
Si Si4 0.362532 0.718363 0.320353
Si Si5 0.477772 0.761256 0.844489
Si Si6 0.000000 0.901632 0.000000
Si Si7 0.377165 0.862038 0.973487
Si Si8 0.242846 0.057492 0.982883
O O1 0.592783 0.091205 0.478732
O O2 0.991412 0.062614 0.790413
O O3 0.708205 0.000000 0.603916
O O4 0.876298 0.067855 0.831000
O O5 0.491890 0.164355 0.688279
O O6 0.501634 0.244302 0.616617
O O7 0.439889 0.246881 0.722773
O O8 0.797838 0.233365 0.954932
O O9 0.696094 0.626352 0.124434
O O10 0.869873 0.575002 0.164720
O O11 0.500000 0.693802 0.500000
O O12 0.180329 0.747726 0.215973
O O13 0.292275 0.675363 0.205076
O O14 0.500226 0.821170 0.873022
O O15 0.301696 0.906185 0.963078
O O16 0.500000 0.879709 0.000000
O O17 0.287853 0.000000 0.005114
#
# Coordination Sequence:
#
# PCOD9199024 Si02
#       8
#     8   8   8   8   8   4   8   8
#     4  10  22  40  59  84 121 160 204 253 302 357
#     4  10  20  36  59  84 115 158 198 237 298 359
#     4  11  22  37  59  91 121 156 200 252 301 357
#     4  10  22  36  56  89 122 158 198 248 301 366
#     4   9  19  38  60  82 117 163 194 241 304 359
#     4  10  23  36  58  88 116 164 200 248 301 354
#     4   9  18  38  61  83 118 155 198 247 307 362
#     4  10  21  39  62  88 117 157 204 252 309 362
#
# _framework density 20.14067
#
# number of rings (size 3 to 8) (size 9 to 14) (size 15 to 20)
#    0.000    2.133    1.333    2.200    1.867    5.067 
#    2.400    0.000    0.000    0.400    0.000    0.000 
#    0.000    0.000    0.000    0.000    0.000    0.000 
#
# Total GULP energy -167097.321607 kJ/mol
# GULP energy per Si atom -5569.910720 kJ/mol
# Density = 2.009483 g / cm^3
# Si number density = 20.140670 Si / 1000 Ang^3
#
#
#
# Elastic Constant Matrix: (Units=GPa)
#
#
# Indices 1 2 3 4 5 6 
#
# 1 104.6555 37.3178 36.3240 -0.0002 -13.5833 0.0000
# 2 37.3178 62.1947 28.6022 0.0001 -5.6625 0.0000
# 3 36.3240 28.6022 92.9836 -0.0004 -9.4267 -0.0003
# 4 -0.0002 0.0001 -0.0004 4.0647 -0.0001 0.1682
# 5 -13.5833 -5.6625 -9.4267 -0.0001 32.1507 -0.0001
# 6 0.0000 0.0000 -0.0003 0.1682 -0.0001 27.3976
#
#
#
# Elastic Compliance Matrix: (Units=1/GPa)
#
#
# Indices 1 2 3 4 5 6 
#
# 1 0.013278 -0.006312 -0.002875 0.000000 0.003655 0.000000
# 2 -0.006312 0.021815 -0.004252 -0.000001 -0.000071 0.000000
# 3 -0.002875 -0.004252 0.013384 0.000001 0.001961 0.000000
# 4 0.000000 -0.000001 0.000001 0.246085 0.000001 -0.001511
# 5 0.003655 -0.000071 0.001961 0.000001 0.033210 0.000000
# 6 0.000000 0.000000 0.000000 -0.001511 0.000000 0.036509
#
#
# Mechanical properties :
#
#
# Convention : Reuss Voigt Hill
#
# Bulk Modulus (GPa) = 46.29707 51.59132 48.94419
# Shear Modulus (GPa) = 12.55149 23.22858 17.89004
#
# Velocity S-wave (km/s) = 2.49909 3.39974 2.98359
# Velocity P-wave (km/s) = 5.60036 6.40953 6.01856
#
# Compressibility (1/GPa) = 0.02159964
#
# Stress axis : x y z
#
# Youngs Moduli (GPa) = 75.31150 45.84054 74.71450
#
# Poissons Ratio (x) = 0.28936 0.21480
# Poissons Ratio (y) = 0.47538 0.31766
# Poissons Ratio (z) = 0.21651 0.19490
#
# Static dielectric constant tensor:
#      x y z
#    x 1.802580 0.000000 -0.009560 
#    y 0.000000 1.676820 0.000000 
#    z -0.009560 0.000000 1.799030 
# 
# From -- ./inp_files/219245.got.cif
#   From: 2010.05.17/outbox.cif.g08.bks.cpg/sg12_110_cif.got.tgz:219245.got - 2010.06.03 13:09:07.
