data_PCOD9199011
_publ_section_title
;
Structure prediction by ZEFSAII (Michael W. Deem and Ramdas Pophale) SiO2 
 PCOD9199011
Probable space group: C 2/M
;
_chemical_formula_sum "Si O2"
_cell_formula_units_Z 40
_cell_length_a 26.252586
_cell_length_b 14.880716
_cell_length_c 9.097129
_cell_angle_alpha 90.000000
_cell_angle_beta 30.183437
_cell_angle_gamma 90.000000
_cell_volume 1786.774302
_symmetry_space_group_name_H-M "C 2/M"
_symmetry_group_IT_number 12
_symmetry_cell_setting 'monoclinic'
loop_
_space_group_symop_operation_xyz
x,y,z
-x,y,-z
-x,-y,-z
x,-y,z
1/2+x,1/2+y,z
1/2-x,1/2+y,-z
1/2-x,1/2-y,-z
1/2+x,1/2-y,z
loop_
_atom_site_type_symbol
_atom_site_label
_atom_site_fract_x
_atom_site_fract_y
_atom_site_fract_z
Si Si1 0.408537 0.895861 0.822351
Si Si2 0.394373 0.889589 0.190602
Si Si3 0.808849 0.895738 0.149675
Si Si4 0.488263 0.608960 0.201460
Si Si5 0.787009 0.848923 0.870316
O O1 0.500000 0.853202 0.500000
O O2 0.437892 0.000000 0.773746
O O3 0.391860 0.859777 0.027477
O O4 0.305634 0.892984 0.986756
O O5 0.295386 0.856584 0.525154
O O6 0.393212 0.000000 0.199140
O O7 0.500000 0.861244 0.000000
O O8 0.808833 0.000000 0.196075
O O9 0.808569 0.892276 0.974770
O O10 0.912169 0.858593 0.960085
O O11 0.478893 0.500000 0.241155
O O12 0.387165 0.649210 0.522728
O O13 0.500000 0.628021 0.000000
O O14 0.750000 0.750000 0.000000
#
# Coordination Sequence:
#
# PCOD9199011 Si02
#       5
#     8   8   8   8   8
#     4  10  20  36  59  84 112 151 199 247 293 350
#     4   9  17  32  57  89 119 146 188 248 307 358
#     4  10  20  37  63  90 115 151 202 257 306 356
#     4  10  21  41  69  94 117 153 207 264 307 352
#     4  12  25  39  56  85 125 163 195 240 304 370
#
# _framework density 22.386710999999998
#
# number of rings (size 3 to 8) (size 9 to 14) (size 15 to 20)
#    0.000    1.800    0.000    4.800    0.000    9.600 
#    0.000    7.000    0.000    0.000    0.000    0.000 
#    0.000    0.000    0.000    0.000    0.000    0.000 
#
# Total GULP energy -111852.076311 kJ/mol
# GULP energy per Si atom -5592.603816 kJ/mol
# Density = 2.233576 g / cm^3
# Si number density = 22.386711 Si / 1000 Ang^3
#
#
#
# Elastic Constant Matrix: (Units=GPa)
#
#
# Indices 1 2 3 4 5 6 
#
# 1 175.0420 -12.2495 104.2513 0.0000 -3.6503 0.0000
# 2 -12.2495 49.1794 12.5222 0.0000 2.6623 0.0000
# 3 104.2513 12.5222 253.9964 0.0000 1.0307 0.0000
# 4 0.0000 0.0000 0.0000 23.7926 0.0000 138.1106
# 5 -3.6503 2.6623 1.0307 0.0000 43.5486 0.0000
# 6 0.0000 0.0000 0.0000 138.1106 0.0000 1561.5615
#
#
#
# Elastic Compliance Matrix: (Units=1/GPa)
#
#
# Indices 1 2 3 4 5 6 
#
# 1 0.007949 0.002816 -0.003404 0.000000 0.000575 0.000000
# 2 0.002816 0.021656 -0.002219 0.000000 -0.001035 0.000000
# 3 -0.003404 -0.002219 0.005445 0.000000 -0.000279 0.000000
# 4 0.000000 0.000000 0.000000 0.086374 0.000000 -0.007639
# 5 0.000575 -0.001035 -0.000279 0.000000 0.023081 0.000000
# 6 0.000000 0.000000 0.000000 -0.007639 0.000000 0.001316
#
#
# Mechanical properties :
#
#
# Convention : Reuss Voigt Hill
#
# Bulk Modulus (GPa) = 33.97292 76.36285 55.16788
# Shear Modulus (GPa) = 31.00825 350.69347 190.85086
#
# Velocity S-wave (km/s) = 3.72576 12.52967 9.24321
# Velocity P-wave (km/s) = 5.80661 15.60475 11.77338
#
# Compressibility (1/GPa) = 0.02943521
#
# Stress axis : x y z
#
# Youngs Moduli (GPa) = 125.79901 46.17641 183.66554
#
# Poissons Ratio (x) = -0.13001 0.62517
# Poissons Ratio (y) = -0.35419 0.40757
# Poissons Ratio (z) = 0.42820 0.10247
#
# Static dielectric constant tensor:
#      x y z
#    x 1.798170 0.000000 -0.003690 
#    y 0.000000 1.901830 0.000000 
#    z -0.003690 0.000000 1.789960 
# 
# From -- ./inp_files/47147.got.cif
#   From: 2010.05.17/outbox.cif.g08.bks.cpg/sg12_24_cif.got.tgz:47147.got - 2010.06.03 13:09:07.
