data_PCOD9199564
_publ_section_title
;
Structure prediction by ZEFSAII (Michael W. Deem and Ramdas Pophale) SiO2 
 PCOD9199564
Probable space group: C 2/M
;
_chemical_formula_sum "Si O2"
_cell_formula_units_Z 64
_cell_length_a 15.270538
_cell_length_b 8.815167
_cell_length_c 29.411986
_cell_angle_alpha 90.000000
_cell_angle_beta 128.401714
_cell_angle_gamma 90.000000
_cell_volume 3102.738370
_symmetry_space_group_name_H-M "C 2/M"
_symmetry_group_IT_number 12
_symmetry_cell_setting 'monoclinic'
loop_
_space_group_symop_operation_xyz
x,y,z
-x,y,-z
-x,-y,-z
x,-y,z
1/2+x,1/2+y,z
1/2-x,1/2+y,-z
1/2-x,1/2-y,-z
1/2+x,1/2-y,z
loop_
_atom_site_type_symbol
_atom_site_label
_atom_site_fract_x
_atom_site_fract_y
_atom_site_fract_z
Si Si1 0.764626 0.178906 0.632031
Si Si2 0.547942 0.317082 0.871416
Si Si3 0.650738 0.822086 0.251709
Si Si4 0.408507 0.179187 0.603630
Si Si5 0.780420 0.182369 0.147687
Si Si6 0.962645 0.817217 0.938488
Si Si7 0.527291 0.325227 0.561993
Si Si8 0.612408 0.678523 0.723730
O O1 0.842331 0.233884 0.698551
O O2 0.804065 0.259562 0.598602
O O3 0.639851 0.229640 0.604658
O O4 0.771650 0.000000 0.628910
O O5 0.536755 0.500000 0.865113
O O6 0.444101 0.243954 0.811426
O O7 0.659054 0.275789 0.879730
O O8 0.542231 0.271792 0.922286
O O9 0.770560 0.807154 0.265389
O O10 0.631626 0.000000 0.254162
O O11 0.430239 0.259150 0.562407
O O12 0.516922 0.225350 0.668690
O O13 0.401124 0.000000 0.595604
O O14 0.660755 0.259032 0.112708
O O15 0.860184 0.224073 0.215706
O O16 0.766316 0.000000 0.145483
O O17 0.960752 0.000000 0.939422
O O18 0.000000 0.760385 0.000000
O O19 0.500000 0.320112 0.500000
O O20 0.548888 0.500000 0.582237
O O21 0.579542 0.500000 0.712436
#
# Coordination Sequence:
#
# PCOD9199564 Si02
#       8
#     8   8   8   8   8   8   8   8
#     4  12  25  42  66  94 128 167 207 253 307 368
#     4  10  21  37  59  85 118 157 199 244 301 366
#     4  11  21  36  62  93 125 157 198 249 304 367
#     4  12  25  41  66  97 129 166 208 253 309 370
#     4  10  21  38  59  85 114 152 196 243 298 359
#     4  10  22  39  57  81 115 154 198 250 301 354
#     4  11  25  46  69  93 125 165 211 262 311 363
#     4  10  20  36  60  89 126 159 194 250 309 365
#
# _framework density 20.626940000000001
#
# number of rings (size 3 to 8) (size 9 to 14) (size 15 to 20)
#    0.000    1.250    2.500    3.750    0.000    4.750 
#    0.000    0.000    0.000    0.000    0.000    0.000 
#    0.000    0.000    0.000    0.000    0.000    0.000 
#
# Total GULP energy -179017.739785 kJ/mol
# GULP energy per Si atom -5594.304368 kJ/mol
# Density = 2.057999 g / cm^3
# Si number density = 20.626940 Si / 1000 Ang^3
#
#
#
# Elastic Constant Matrix: (Units=GPa)
#
#
# Indices 1 2 3 4 5 6 
#
# 1 97.7175 22.4666 4.6253 0.0000 -31.8910 0.0000
# 2 22.4666 56.0314 2.0275 0.0000 -16.2728 0.0000
# 3 4.6253 2.0275 49.0704 0.0000 -28.6203 0.0000
# 4 0.0000 0.0000 0.0000 26.0579 0.0000 0.8153
# 5 -31.8910 -16.2728 -28.6203 0.0000 31.6113 0.0000
# 6 0.0000 0.0000 0.0000 0.8153 0.0000 23.6470
#
#
#
# Elastic Compliance Matrix: (Units=1/GPa)
#
#
# Indices 1 2 3 4 5 6 
#
# 1 0.025733 0.004588 0.029461 0.000000 0.054996 0.000000
# 2 0.004588 0.025398 0.018739 0.000000 0.034669 0.000000
# 3 0.029461 0.018739 0.084311 0.000000 0.115702 0.000000
# 4 0.000000 0.000000 0.000000 0.038417 0.000000 -0.001325
# 5 0.054996 0.034669 0.115702 0.000000 0.209718 0.000000
# 6 0.000000 0.000000 0.000000 -0.001325 0.000000 0.042334
#
#
# Mechanical properties :
#
#
# Convention : Reuss Voigt Hill
#
# Bulk Modulus (GPa) = 4.14907 29.00645 16.57776
# Shear Modulus (GPa) = 12.47897 27.84325 20.16111
#
# Velocity S-wave (km/s) = 2.46231 3.67801 3.12976
# Velocity P-wave (km/s) = 3.17802 5.66833 4.59510
#
# Compressibility (1/GPa) = 0.24101810
#
# Stress axis : x y z
#
# Youngs Moduli (GPa) = 38.86113 39.37307 11.86091
#
# Poissons Ratio (x) = -0.18065 -0.34944
# Poissons Ratio (y) = -0.17830 -0.22226
# Poissons Ratio (z) = -1.14490 -0.73781
#
# Static dielectric constant tensor:
#      x y z
#    x 1.743020 0.000000 -0.030670 
#    y 0.000000 1.690280 0.000000 
#    z -0.030670 0.000000 1.723620 
# 
# From -- ./inp_files/375536.got.cif
#   From: 2010.05.17/outbox.cif.g08.bks.cpg/sg12_188_cif.got.tgz:375536.got - 2010.06.03 13:09:07.
