data_PCOD9199860
_publ_section_title
;
Structure prediction by ZEFSAII (Michael W. Deem and Ramdas Pophale) SiO2 
 PCOD9199860
Probable space group: C 2/M
;
_chemical_formula_sum "Si O2"
_cell_formula_units_Z 32
_cell_length_a 14.988752
_cell_length_b 13.900413
_cell_length_c 14.786800
_cell_angle_alpha 90.000000
_cell_angle_beta 151.059737
_cell_angle_gamma 90.000000
_cell_volume 1490.804620
_symmetry_space_group_name_H-M "C 2/M"
_symmetry_group_IT_number 12
_symmetry_cell_setting 'monoclinic'
loop_
_space_group_symop_operation_xyz
x,y,z
-x,y,-z
-x,-y,-z
x,-y,z
1/2+x,1/2+y,z
1/2-x,1/2+y,-z
1/2-x,1/2-y,-z
1/2+x,1/2-y,z
loop_
_atom_site_type_symbol
_atom_site_label
_atom_site_fract_x
_atom_site_fract_y
_atom_site_fract_z
Si Si1 0.095087 0.386592 0.309553
Si Si2 0.367698 0.226087 0.965395
Si Si3 0.390632 0.111337 0.315217
Si Si4 0.503614 0.389511 0.611982
O O1 0.068261 0.500000 0.254691
O O2 0.307605 0.362109 0.479884
O O3 0.031589 0.384272 0.356504
O O4 0.975910 0.308262 0.149570
O O5 0.294602 0.333070 0.878711
O O6 0.175216 0.170504 0.796867
O O7 0.500000 0.195850 0.000000
O O8 0.500000 0.151461 0.500000
O O9 0.346563 0.000000 0.295098
O O10 0.500000 0.382995 0.500000
O O11 0.536009 0.500000 0.665437
#
# Coordination Sequence:
#
# PCOD9199860 Si02
#       4
#     8   8   8   8
#     4  10  22  42  68  98 129 165 209 261 323 381
#     4  12  23  38  66  99 130 165 209 263 324 382
#     4  10  24  47  67  87 126 176 223 265 304 366
#     4  10  20  36  61  96 135 168 199 252 326 391
#
# _framework density 21.464919999999999
#
# number of rings (size 3 to 8) (size 9 to 14) (size 15 to 20)
#    0.000    1.500    2.500    2.250    0.000    2.500 
#    4.500    0.000    0.000    0.000    0.000    0.000 
#    0.000    0.000    0.000    0.000    0.000    0.000 
#
# Total GULP energy -89410.397732 kJ/mol
# GULP energy per Si atom -5588.149858 kJ/mol
# Density = 2.141607 g / cm^3
# Si number density = 21.464920 Si / 1000 Ang^3
#
#
#
# Elastic Constant Matrix: (Units=GPa)
#
#
# Indices 1 2 3 4 5 6 
#
# 1 96.3697 14.2881 48.1424 -0.0001 2.7577 0.0000
# 2 14.2881 98.3989 66.4930 0.0015 6.9566 0.0006
# 3 48.1424 66.4930 89.9093 0.0021 21.3074 0.0007
# 4 -0.0001 0.0015 0.0021 14.0606 0.0003 -5.1845
# 5 2.7577 6.9566 21.3074 0.0003 32.4025 0.0001
# 6 0.0000 0.0006 0.0007 -5.1845 0.0001 15.5281
#
#
#
# Elastic Compliance Matrix: (Units=1/GPa)
#
#
# Indices 1 2 3 4 5 6 
#
# 1 0.018072 0.009388 -0.018690 0.000002 0.008737 0.000001
# 2 0.009388 0.026433 -0.027295 0.000001 0.011475 0.000001
# 3 -0.018690 -0.027295 0.046851 -0.000005 -0.023358 -0.000003
# 4 0.000002 0.000001 -0.000005 0.081106 0.000002 0.027079
# 5 0.008737 0.011475 -0.023358 0.000002 0.043015 0.000001
# 6 0.000001 0.000001 -0.000003 0.027079 0.000001 0.073441
#
#
# Mechanical properties :
#
#
# Convention : Reuss Voigt Hill
#
# Bulk Modulus (GPa) = 55.05854 60.28055 57.66955
# Shear Modulus (GPa) = 13.58091 22.78185 18.18138
#
# Velocity S-wave (km/s) = 2.51809 3.26138 2.91353
# Velocity P-wave (km/s) = 5.84470 6.50587 6.18413
#
# Compressibility (1/GPa) = 0.01816249
#
# Stress axis : x y z
#
# Youngs Moduli (GPa) = 55.33575 37.83201 21.34405
#
# Poissons Ratio (x) = -0.35516 0.39892
# Poissons Ratio (y) = -0.51949 0.58258
# Poissons Ratio (z) = 1.03422 1.03261
#
# Static dielectric constant tensor:
#      x y z
#    x 1.745770 0.000000 -0.032000 
#    y 0.000000 1.866880 0.000000 
#    z -0.032000 0.000000 1.783530 
# 
# From -- ./inp_files/215136.got.cif
#   From: 2010.05.17/outbox.cif.g08.bks.cpg/sg12_108_cif.got.tgz:215136.got - 2010.06.03 13:09:07.
