data_PCOD9199708
_publ_section_title
;
Structure prediction by ZEFSAII (Michael W. Deem and Ramdas Pophale) SiO2 
 PCOD9199708
Probable space group: C 2/M
;
_chemical_formula_sum "Si O2"
_cell_formula_units_Z 56
_cell_length_a 30.763229
_cell_length_b 14.012006
_cell_length_c 7.331004
_cell_angle_alpha 90.000000
_cell_angle_beta 73.696987
_cell_angle_gamma 90.000000
_cell_volume 3032.998186
_symmetry_space_group_name_H-M "C 2/M"
_symmetry_group_IT_number 12
_symmetry_cell_setting 'monoclinic'
loop_
_space_group_symop_operation_xyz
x,y,z
-x,y,-z
-x,-y,-z
x,-y,z
1/2+x,1/2+y,z
1/2-x,1/2+y,-z
1/2-x,1/2-y,-z
1/2+x,1/2-y,z
loop_
_atom_site_type_symbol
_atom_site_label
_atom_site_fract_x
_atom_site_fract_y
_atom_site_fract_z
Si Si1 0.666904 0.389004 0.560113
Si Si2 0.510783 0.391429 0.205263
Si Si3 0.553604 0.890526 0.394829
Si Si4 0.914897 0.742436 0.943002
Si Si5 0.188988 0.776854 0.900963
Si Si6 0.076734 0.226514 0.636014
Si Si7 0.240764 0.110588 0.153323
O O1 0.658891 0.500000 0.617212
O O2 0.683795 0.330421 0.715149
O O3 0.619939 0.340722 0.554801
O O4 0.704520 0.384297 0.359442
O O5 0.514199 0.500000 0.265239
O O6 0.556883 0.332182 0.168408
O O7 0.469221 0.333417 0.340839
O O8 0.500000 0.394417 0.000000
O O9 0.500000 0.885708 0.500000
O O10 0.564864 0.849389 0.181910
O O11 0.577306 0.818498 0.507443
O O12 0.568062 0.000000 0.396885
O O13 0.861746 0.755164 0.970788
O O14 0.922431 0.742061 0.152110
O O15 0.216935 0.678780 0.853054
O O16 0.216003 0.845464 0.006223
O O17 0.253386 0.000000 0.111184
#
# Coordination Sequence:
#
# PCOD9199708 Si02
#       7
#     8   8   8   8   8   8   8
#     4  10  20  36  61  88 116 148 185 231 286 344
#     4   9  17  31  53  81 113 145 177 219 274 330
#     4  11  23  38  56  77 108 151 197 238 276 321
#     4  10  21  37  57  82 113 147 188 235 279 334
#     4  10  21  37  59  83 115 152 188 234 288 340
#     4  10  20  37  58  84 117 148 186 231 279 334
#     4  10  21  37  57  83 115 150 192 237 285 340
#
# _framework density 18.463577999999998
#
# number of rings (size 3 to 8) (size 9 to 14) (size 15 to 20)
#    0.000    2.000    1.429    2.143    0.000    5.143 
#    0.000    5.714    0.000    6.000    0.000    0.000 
#    0.000    0.000    0.000    0.000    0.000    0.000 
#
# Total GULP energy -156402.864840 kJ/mol
# GULP energy per Si atom -5585.816601 kJ/mol
# Density = 1.842155 g / cm^3
# Si number density = 18.463578 Si / 1000 Ang^3
#
#
#
# Elastic Constant Matrix: (Units=GPa)
#
#
# Indices 1 2 3 4 5 6 
#
# 1 94.2291 64.1047 32.6577 0.0000 -23.3408 0.0000
# 2 64.1047 172.6189 55.6707 0.0000 -18.8515 0.0000
# 3 32.6577 55.6707 60.0693 0.0000 -12.6024 0.0000
# 4 0.0000 0.0000 0.0000 -118.8926 0.0000 307.0755
# 5 -23.3408 -18.8515 -12.6024 0.0000 22.0147 0.0000
# 6 0.0000 0.0000 0.0000 307.0755 0.0000 -625.3362
#
#
#
# Elastic Compliance Matrix: (Units=1/GPa)
#
#
# Indices 1 2 3 4 5 6 
#
# 1 0.017876 -0.004188 -0.002970 0.000000 0.013667 0.000000
# 2 -0.004188 0.009429 -0.006477 0.000000 -0.000074 0.000000
# 3 -0.002970 -0.006477 0.025504 0.000000 0.005904 0.000000
# 4 0.000000 0.000000 0.000000 0.031349 0.000000 0.015394
# 5 0.013667 -0.000074 0.005904 0.000000 0.063230 0.000000
# 6 0.000000 0.000000 0.000000 0.015394 0.000000 0.005960
#
#
# Mechanical properties :
#
#
# Convention : Reuss Voigt Hill
#
# Bulk Modulus (GPa) = 39.15696 70.19819 54.67757
# Shear Modulus (GPa) = 26.43632 -132.81055 -53.18711
#
# Velocity S-wave (km/s) = 3.78803 -8.49042 -5.37299
# Velocity P-wave (km/s) = 6.35499 7.61669 2.96884
#
# Compressibility (1/GPa) = 0.02553825
#
# Stress axis : x y z
#
# Youngs Moduli (GPa) = 55.93989 106.05084 39.20966
#
# Poissons Ratio (x) = 0.44418 0.11645
# Poissons Ratio (y) = 0.23429 0.25398
# Poissons Ratio (z) = 0.16614 0.68694
#
# Static dielectric constant tensor:
#      x y z
#    x 1.620080 0.000000 0.013870 
#    y 0.000000 1.607230 0.000000 
#    z 0.013870 0.000000 1.641950 
# 
# From -- ./inp_files/110361.got.cif
#   From: 2010.05.17/outbox.cif.g08.bks.cpg/sg12_56_cif.got.tgz:110361.got - 2010.06.03 13:09:07.
