data_PCOD9199691
_publ_section_title
;
Structure prediction by ZEFSAII (Michael W. Deem and Ramdas Pophale) SiO2 
 PCOD9199691
Probable space group: C 2/M
;
_chemical_formula_sum "Si O2"
_cell_formula_units_Z 40
_cell_length_a 28.678678
_cell_length_b 10.997501
_cell_length_c 5.123750
_cell_angle_alpha 90.000000
_cell_angle_beta 95.942843
_cell_angle_gamma 90.000000
_cell_volume 1607.314029
_symmetry_space_group_name_H-M "C 2/M"
_symmetry_group_IT_number 12
_symmetry_cell_setting 'monoclinic'
loop_
_space_group_symop_operation_xyz
x,y,z
-x,y,-z
-x,-y,-z
x,-y,z
1/2+x,1/2+y,z
1/2-x,1/2+y,-z
1/2-x,1/2-y,-z
1/2+x,1/2-y,z
loop_
_atom_site_type_symbol
_atom_site_label
_atom_site_fract_x
_atom_site_fract_y
_atom_site_fract_z
Si Si1 0.031875 0.644798 0.278461
Si Si2 0.324581 0.500000 0.615858
Si Si3 0.118011 0.500000 0.814561
Si Si4 0.818848 0.500000 0.639418
Si Si5 0.900825 0.746978 0.055701
Si Si6 0.793587 0.246630 0.830801
Si Si7 0.889225 0.000000 0.155762
O O1 0.042444 0.500000 0.310354
O O2 0.000000 0.685840 0.500000
O O3 0.077409 0.722124 0.216983
O O4 0.000000 0.656651 0.000000
O O5 0.296489 0.623493 0.662908
O O6 0.347620 0.500000 0.344720
O O7 0.366809 0.500000 0.852243
O O8 0.159053 0.500000 0.631120
O O9 0.089565 0.624180 0.777576
O O10 0.140427 0.500000 0.116199
O O11 0.793093 0.372909 0.672716
O O12 0.916689 0.873506 0.187152
O O13 0.844012 0.753305 0.008577
O O14 0.750000 0.250000 0.000000
#
# Coordination Sequence:
#
# PCOD9199691 Si02
#       7
#     8   4   4   4   8   8   4
#     4  10  22  40  64  94 124 159 203 259 319 373
#     4  10  21  40  56  85 122 166 202 249 302 366
#     4  10  20  36  61  87 116 154 206 253 307 354
#     4  10  21  36  56  87 116 156 206 257 294 354
#     4  10  21  41  61  93 123 166 203 259 308 373
#     4  10  21  39  62  90 125 165 210 255 308 368
#     4  10  22  38  63  85 122 162 202 241 311 368
#
# _framework density 24.886236
#
# number of rings (size 3 to 8) (size 9 to 14) (size 15 to 20)
#    0.000    2.000    1.000    1.800    0.000    6.400 
#    0.000   25.000    0.000    0.000    0.000    0.000 
#    0.000    0.000    0.000    0.000    0.000    0.000 
#
# Total GULP energy -111950.808362 kJ/mol
# GULP energy per Si atom -5597.540418 kJ/mol
# Density = 2.482959 g / cm^3
# Si number density = 24.886236 Si / 1000 Ang^3
#
#
#
# Elastic Constant Matrix: (Units=GPa)
#
#
# Indices 1 2 3 4 5 6 
#
# 1 99.2910 18.1669 43.5581 0.0000 -28.0710 0.0000
# 2 18.1669 266.0535 61.7064 0.0000 -40.6611 0.0000
# 3 43.5581 61.7064 143.5497 0.0000 -54.4480 0.0000
# 4 0.0000 0.0000 0.0000 64.0373 0.0000 13.6040
# 5 -28.0710 -40.6611 -54.4480 0.0000 66.0495 0.0000
# 6 0.0000 0.0000 0.0000 13.6040 0.0000 48.0388
#
#
#
# Elastic Compliance Matrix: (Units=1/GPa)
#
#
# Indices 1 2 3 4 5 6 
#
# 1 0.012044 0.000256 -0.002565 0.000000 0.003161 0.000000
# 2 0.000256 0.004298 -0.001281 0.000000 0.001699 0.000000
# 3 -0.002565 -0.001281 0.011032 0.000000 0.007216 0.000000
# 4 0.000000 0.000000 0.000000 0.016615 0.000000 -0.004705
# 5 0.003161 0.001699 0.007216 0.000000 0.023478 0.000000
# 6 0.000000 0.000000 0.000000 -0.004705 0.000000 0.022149
#
#
# Mechanical properties :
#
#
# Convention : Reuss Voigt Hill
#
# Bulk Modulus (GPa) = 49.52252 83.97301 66.74777
# Shear Modulus (GPa) = 48.29638 61.32265 54.80951
#
# Velocity S-wave (km/s) = 4.41010 4.96937 4.69807
# Velocity P-wave (km/s) = 6.77309 8.16959 7.50390
#
# Compressibility (1/GPa) = 0.02019283
#
# Stress axis : x y z
#
# Youngs Moduli (GPa) = 83.03056 232.67483 90.64510
#
# Poissons Ratio (x) = -0.05951 0.23254
# Poissons Ratio (y) = -0.02124 0.11609
# Poissons Ratio (z) = 0.21301 0.29800
#
# Static dielectric constant tensor:
#      x y z
#    x 2.016430 0.000000 0.063730 
#    y 0.000000 2.070780 0.000000 
#    z 0.063730 0.000000 1.974690 
# 
# From -- ./inp_files/30623.got.cif
#   From: 2010.05.17/outbox.cif.g08.bks.cpg/sg12_16_cif.got.tgz:30623.got - 2010.06.03 13:09:07.
