data_PCOD9199031
_publ_section_title
;
Structure prediction by ZEFSAII (Michael W. Deem and Ramdas Pophale) SiO2 
 PCOD9199031
Probable space group: C 2/M
;
_chemical_formula_sum "Si O2"
_cell_formula_units_Z 48
_cell_length_a 15.062351
_cell_length_b 7.612203
_cell_length_c 19.166791
_cell_angle_alpha 90.000000
_cell_angle_beta 54.948388
_cell_angle_gamma 90.000000
_cell_volume 1799.048450
_symmetry_space_group_name_H-M "C 2/M"
_symmetry_group_IT_number 12
_symmetry_cell_setting 'monoclinic'
loop_
_space_group_symop_operation_xyz
x,y,z
-x,y,-z
-x,-y,-z
x,-y,z
1/2+x,1/2+y,z
1/2-x,1/2+y,-z
1/2-x,1/2-y,-z
1/2+x,1/2-y,z
loop_
_atom_site_type_symbol
_atom_site_label
_atom_site_fract_x
_atom_site_fract_y
_atom_site_fract_z
Si Si1 0.292518 0.201542 0.863889
Si Si2 0.171429 0.784363 0.441381
Si Si3 0.904655 0.289110 0.949391
Si Si4 0.401628 0.203257 0.321834
Si Si5 0.462956 0.706639 0.623131
Si Si6 0.142003 0.790448 0.817479
O O1 0.376438 0.274810 0.883027
O O2 0.246057 0.281904 0.812934
O O3 0.325908 0.000000 0.834551
O O4 0.181673 0.201837 0.960530
O O5 0.291102 0.715074 0.403395
O O6 0.073324 0.728096 0.535298
O O7 0.135431 0.724657 0.379421
O O8 0.177012 0.000000 0.440882
O O9 0.887124 0.500000 0.959527
O O10 0.029703 0.252274 0.907478
O O11 0.512081 0.271032 0.306627
O O12 0.380553 0.219441 0.249374
O O13 0.404937 0.000000 0.337338
O O14 0.459646 0.500000 0.612709
O O15 0.153485 0.000000 0.808520
#
# Coordination Sequence:
#
# PCOD9199031 Si02
#       6
#     8   8   8   8   8   8
#     4   9  20  38  58  80 108 141 177 216 261 315
#     4   8  17  34  57  80 105 138 177 218 261 315
#     4  10  20  36  59  85 109 135 173 222 268 310
#     4  11  22  35  51  78 111 140 174 220 268 312
#     4   9  17  35  59  80 103 138 179 216 261 318
#     4  11  23  38  54  75 107 147 182 214 260 317
#
# _framework density 26.680769000000002
#
# number of rings (size 3 to 8) (size 9 to 14) (size 15 to 20)
#    0.000    2.333    0.000    3.500    0.000    5.333 
#    0.000    7.500    0.000    0.000    0.000    0.000 
#    0.000    0.000    0.000    0.000    0.000    0.000 
#
# Total GULP energy -134166.231196 kJ/mol
# GULP energy per Si atom -5590.259633 kJ/mol
# Density = 2.662004 g / cm^3
# Si number density = 26.680769 Si / 1000 Ang^3
#
#
#
# Elastic Constant Matrix: (Units=GPa)
#
#
# Indices 1 2 3 4 5 6 
#
# 1 206.6931 3.6592 5.2621 0.0000 22.6844 0.0001
# 2 3.6592 83.2336 -13.2652 0.0001 -0.4373 0.0003
# 3 5.2621 -13.2652 63.5546 0.0000 21.7699 0.0000
# 4 0.0000 0.0001 0.0000 17.5530 0.0000 4.7906
# 5 22.6844 -0.4373 21.7699 0.0000 55.1472 0.0000
# 6 0.0001 0.0003 0.0000 4.7906 0.0000 15.6371
#
#
#
# Elastic Compliance Matrix: (Units=1/GPa)
#
#
# Indices 1 2 3 4 5 6 
#
# 1 0.005076 -0.000188 0.000296 0.000000 -0.002206 0.000000
# 2 -0.000188 0.012490 0.002963 0.000000 -0.000993 0.000000
# 3 0.000296 0.002963 0.018921 0.000000 -0.007567 0.000000
# 4 0.000000 0.000000 0.000000 0.062169 0.000000 -0.019046
# 5 -0.002206 -0.000993 -0.007567 0.000000 0.022020 0.000000
# 6 0.000000 0.000000 0.000000 -0.019046 0.000000 0.069785
#
#
# Mechanical properties :
#
#
# Convention : Reuss Voigt Hill
#
# Bulk Modulus (GPa) = 23.45814 38.31037 30.88425
# Shear Modulus (GPa) = 25.18547 41.52247 33.35397
#
# Velocity S-wave (km/s) = 3.07572 3.94924 3.53953
# Velocity P-wave (km/s) = 4.62868 5.93172 5.32024
#
# Compressibility (1/GPa) = 0.04262913
#
# Stress axis : x y z
#
# Youngs Moduli (GPa) = 197.00452 80.06681 52.85271
#
# Poissons Ratio (x) = 0.01501 -0.01567
# Poissons Ratio (y) = 0.03694 -0.15658
# Poissons Ratio (z) = -0.05839 -0.23721
#
# Static dielectric constant tensor:
#      x y z
#    x 2.086410 0.000000 0.036910 
#    y 0.000000 2.002770 0.000000 
#    z 0.036910 0.000000 2.234570 
# 
# From -- ./inp_files/308284.got.cif
#   From: 2010.05.17/outbox.cif.g08.bks.cpg/sg12_155_cif.got.tgz:308284.got - 2010.06.03 13:09:07.
