data_PCOD9199198
_publ_section_title
;
Structure prediction by ZEFSAII (Michael W. Deem and Ramdas Pophale) SiO2 
 PCOD9199198
Probable space group: C 2/M
;
_chemical_formula_sum "Si O2"
_cell_formula_units_Z 60
_cell_length_a 29.853051
_cell_length_b 12.462106
_cell_length_c 9.401885
_cell_angle_alpha 90.000000
_cell_angle_beta 62.229738
_cell_angle_gamma 90.000000
_cell_volume 3094.934512
_symmetry_space_group_name_H-M "C 2/M"
_symmetry_group_IT_number 12
_symmetry_cell_setting 'monoclinic'
loop_
_space_group_symop_operation_xyz
x,y,z
-x,y,-z
-x,-y,-z
x,-y,z
1/2+x,1/2+y,z
1/2-x,1/2+y,-z
1/2-x,1/2-y,-z
1/2+x,1/2-y,z
loop_
_atom_site_type_symbol
_atom_site_label
_atom_site_fract_x
_atom_site_fract_y
_atom_site_fract_z
Si Si1 0.453714 0.254519 0.151866
Si Si2 0.467507 0.124596 0.411922
Si Si3 0.302077 0.308419 0.757948
Si Si4 0.628554 0.880996 0.257952
Si Si5 0.300821 0.705661 0.201118
Si Si6 0.297929 0.500000 0.994660
Si Si7 0.851699 0.873288 0.394751
Si Si8 0.890347 0.623165 0.027785
O O1 0.472583 0.197910 0.267463
O O2 0.405957 0.327390 0.264409
O O3 0.432541 0.164798 0.073720
O O4 0.500000 0.309947 0.000000
O O5 0.500000 0.160057 0.500000
O O6 0.409489 0.126916 0.553527
O O7 0.480285 0.000000 0.362069
O O8 0.330162 0.211029 0.796698
O O9 0.251747 0.260066 0.763187
O O10 0.291838 0.405431 0.879925
O O11 0.338835 0.344476 0.575711
O O12 0.652911 0.000000 0.223200
O O13 0.596507 0.874094 0.159415
O O14 0.309101 0.675459 0.353685
O O15 0.344019 0.794413 0.108589
O O16 0.306471 0.596352 0.102296
O O17 0.851982 0.000000 0.378909
O O18 0.876723 0.500000 0.081889
#
# Coordination Sequence:
#
# PCOD9199198 Si02
#       8
#     8   8   8   8   8   4   8   8
#     4  11  23  40  64  93 125 165 213 268 322 383
#     4  10  20  36  59  87 122 160 201 257 326 385
#     4  12  24  41  66  94 129 173 216 259 318 375
#     4  10  21  36  58  90 128 165 210 263 317 377
#     4  11  25  41  63  96 130 171 215 263 317 375
#     4  12  24  40  68  94 125 174 214 270 308 371
#     4  11  24  46  66  89 128 171 218 261 318 383
#     4  10  22  38  61  94 131 169 210 263 320 384
#
# _framework density 19.386517000000001
#
# number of rings (size 3 to 8) (size 9 to 14) (size 15 to 20)
#    0.000    1.200    4.000    2.000    1.867    2.400 
#    0.000    0.000    0.000    0.400    0.000    0.000 
#    0.000    0.000    0.000    0.000    0.000    0.000 
#
# Total GULP energy -167013.701857 kJ/mol
# GULP energy per Si atom -5567.123395 kJ/mol
# Density = 1.934239 g / cm^3
# Si number density = 19.386517 Si / 1000 Ang^3
#
#
#
# Elastic Constant Matrix: (Units=GPa)
#
#
# Indices 1 2 3 4 5 6 
#
# 1 72.5852 19.2451 10.2018 0.0000 6.1978 0.0000
# 2 19.2451 98.0843 16.0272 0.0000 -7.1783 0.0000
# 3 10.2018 16.0272 63.2942 0.0000 11.0985 0.0000
# 4 0.0000 0.0000 0.0000 20.1148 0.0000 11.1254
# 5 6.1978 -7.1783 11.0985 0.0000 29.6035 0.0000
# 6 0.0000 0.0000 0.0000 11.1254 0.0000 15.2085
#
#
#
# Elastic Compliance Matrix: (Units=1/GPa)
#
#
# Indices 1 2 3 4 5 6 
#
# 1 0.015026 -0.003033 -0.001042 0.000000 -0.003491 0.000000
# 2 -0.003033 0.011672 -0.003291 0.000000 0.004699 0.000000
# 3 -0.001042 -0.003291 0.018091 0.000000 -0.007362 0.000000
# 4 0.000000 0.000000 0.000000 0.083498 0.000000 -0.061081
# 5 -0.003491 0.004699 -0.007362 0.000000 0.038410 0.000000
# 6 0.000000 0.000000 0.000000 -0.061081 0.000000 0.110435
#
#
# Mechanical properties :
#
#
# Convention : Reuss Voigt Hill
#
# Bulk Modulus (GPa) = 33.26926 36.10131 34.68529
# Shear Modulus (GPa) = 16.56266 25.55132 21.05699
#
# Velocity S-wave (km/s) = 2.92608 3.63436 3.29928
# Velocity P-wave (km/s) = 5.34922 6.02277 5.69596
#
# Compressibility (1/GPa) = 0.03005777
#
# Stress axis : x y z
#
# Youngs Moduli (GPa) = 66.55273 85.67436 55.27504
#
# Poissons Ratio (x) = 0.25989 0.05757
# Poissons Ratio (y) = 0.20189 0.18189
# Poissons Ratio (z) = 0.06932 0.28192
#
# Static dielectric constant tensor:
#      x y z
#    x 1.697010 0.000000 -0.026300 
#    y 0.000000 1.639460 0.000000 
#    z -0.026300 0.000000 1.715560 
# 
# From -- ./inp_files/110408.got.cif
#   From: 2010.05.17/outbox.cif.g08.bks.cpg/sg12_56_cif.got.tgz:110408.got - 2010.06.03 13:09:07.
