data_PCOD9199037
_publ_section_title
;
Structure prediction by ZEFSAII (Michael W. Deem and Ramdas Pophale) SiO2 
 PCOD9199037
Probable space group: C 2/M
;
_chemical_formula_sum "Si O2"
_cell_formula_units_Z 56
_cell_length_a 16.326754
_cell_length_b 8.932986
_cell_length_c 20.680199
_cell_angle_alpha 90.000000
_cell_angle_beta 125.405972
_cell_angle_gamma 90.000000
_cell_volume 2458.355838
_symmetry_space_group_name_H-M "C 2/M"
_symmetry_group_IT_number 12
_symmetry_cell_setting 'monoclinic'
loop_
_space_group_symop_operation_xyz
x,y,z
-x,y,-z
-x,-y,-z
x,-y,z
1/2+x,1/2+y,z
1/2-x,1/2+y,-z
1/2-x,1/2-y,-z
1/2+x,1/2-y,z
loop_
_atom_site_type_symbol
_atom_site_label
_atom_site_fract_x
_atom_site_fract_y
_atom_site_fract_z
Si Si1 0.303760 0.176228 0.612436
Si Si2 0.501235 0.675142 0.100383
Si Si3 0.405806 0.674750 0.537391
Si Si4 0.692102 0.176030 0.238653
Si Si5 0.706358 0.318713 0.046465
Si Si6 0.409695 0.823340 0.327619
Si Si7 0.107184 0.823969 0.809328
O O1 0.353168 0.280382 0.581295
O O2 0.183239 0.203805 0.554285
O O3 0.341206 0.199779 0.701961
O O4 0.318953 0.000000 0.601813
O O5 0.524229 0.500000 0.100711
O O6 0.604528 0.763645 0.152407
O O7 0.448795 0.690773 0.147451
O O8 0.412259 0.717419 0.009849
O O9 0.430274 0.500000 0.546770
O O10 0.509260 0.764309 0.584016
O O11 0.798662 0.257248 0.283547
O O12 0.706648 0.000000 0.235370
O O13 0.715756 0.500000 0.051342
O O14 0.780665 0.244200 0.131719
O O15 0.750000 0.250000 0.000000
O O16 0.443454 0.764912 0.272141
O O17 0.406441 0.000000 0.327303
O O18 0.111754 0.000000 0.796338
#
# Coordination Sequence:
#
# PCOD9199037 Si02
#       7
#     8   8   8   8   8   8   8
#     4   9  20  38  60  86 113 144 182 226 276 326
#     4   9  19  35  56  83 113 144 179 223 274 325
#     4  10  20  37  61  86 113 143 181 228 274 325
#     4  11  23  38  56  79 110 147 187 228 272 325
#     4   9  17  31  53  82 114 146 183 228 276 325
#     4  12  25  39  55  78 112 149 186 227 276 333
#     4  10  20  36  59  85 112 143 184 231 279 330
#
# _framework density 22.779451999999999
#
# number of rings (size 3 to 8) (size 9 to 14) (size 15 to 20)
#    0.000    2.000    0.000    4.714    0.000    8.000 
#    0.000    3.571    0.000    4.286    0.000    0.000 
#    0.000    0.000    0.000    0.000    0.000    0.000 
#
# Total GULP energy -156585.777420 kJ/mol
# GULP energy per Si atom -5592.349194 kJ/mol
# Density = 2.272761 g / cm^3
# Si number density = 22.779452 Si / 1000 Ang^3
#
#
#
# Elastic Constant Matrix: (Units=GPa)
#
#
# Indices 1 2 3 4 5 6 
#
# 1 76.2513 34.5674 17.5957 0.0000 22.3041 0.0000
# 2 34.5674 97.7557 56.9260 0.0000 34.2593 0.0000
# 3 17.5957 56.9260 133.1246 0.0000 32.0848 0.0000
# 4 0.0000 0.0000 0.0000 33.9874 0.0000 13.0239
# 5 22.3041 34.2593 32.0848 0.0000 43.6973 0.0000
# 6 0.0000 0.0000 0.0000 13.0239 0.0000 27.9242
#
#
#
# Elastic Compliance Matrix: (Units=1/GPa)
#
#
# Indices 1 2 3 4 5 6 
#
# 1 0.016579 -0.004496 0.001119 0.000000 -0.005759 0.000000
# 2 -0.004496 0.017431 -0.005004 0.000000 -0.007697 0.000000
# 3 0.001119 -0.005004 0.010566 0.000000 -0.004405 0.000000
# 4 0.000000 0.000000 0.000000 0.035826 0.000000 -0.016709
# 5 -0.005759 -0.007697 -0.004405 0.000000 0.035094 0.000000
# 6 0.000000 0.000000 0.000000 -0.016709 0.000000 0.043604
#
#
# Mechanical properties :
#
#
# Convention : Reuss Voigt Hill
#
# Bulk Modulus (GPa) = 35.95389 58.36775 47.16082
# Shear Modulus (GPa) = 27.00769 34.32462 30.66616
#
# Velocity S-wave (km/s) = 3.44701 3.88599 3.67307
# Velocity P-wave (km/s) = 5.62675 6.76855 6.22388
#
# Compressibility (1/GPa) = 0.02781340
#
# Stress axis : x y z
#
# Youngs Moduli (GPa) = 60.31719 57.36892 94.64681
#
# Poissons Ratio (x) = 0.25792 -0.10593
# Poissons Ratio (y) = 0.27118 0.47366
# Poissons Ratio (z) = -0.06751 0.28710
#
# Static dielectric constant tensor:
#      x y z
#    x 1.835510 0.000000 0.140410 
#    y 0.000000 1.751710 0.000000 
#    z 0.140410 0.000000 1.550200 
# 
# From -- ./inp_files/342608.got.cif
#   From: 2010.05.17/outbox.cif.g08.bks.cpg/sg12_172_cif.got.tgz:342608.got - 2010.06.03 13:09:07.
