data_PCOD9199074
_publ_section_title
;
Structure prediction by ZEFSAII (Michael W. Deem and Ramdas Pophale) SiO2 
 PCOD9199074
Probable space group: C 2/M
;
_chemical_formula_sum "Si O2"
_cell_formula_units_Z 56
_cell_length_a 31.837121
_cell_length_b 7.717783
_cell_length_c 12.180372
_cell_angle_alpha 90.000000
_cell_angle_beta 57.704755
_cell_angle_gamma 90.000000
_cell_volume 2529.885966
_symmetry_space_group_name_H-M "C 2/M"
_symmetry_group_IT_number 12
_symmetry_cell_setting 'monoclinic'
loop_
_space_group_symop_operation_xyz
x,y,z
-x,y,-z
-x,-y,-z
x,-y,z
1/2+x,1/2+y,z
1/2-x,1/2+y,-z
1/2-x,1/2-y,-z
1/2+x,1/2-y,z
loop_
_atom_site_type_symbol
_atom_site_label
_atom_site_fract_x
_atom_site_fract_y
_atom_site_fract_z
Si Si1 0.328774 0.299399 0.153633
Si Si2 0.379059 0.287200 0.675943
Si Si3 0.192770 0.694192 0.576206
Si Si4 0.598265 0.300527 0.590339
Si Si5 0.510889 0.711868 0.861496
Si Si6 0.913107 0.211291 0.866625
Si Si7 0.764757 0.793031 0.854672
O O1 0.340977 0.500000 0.160892
O O2 0.326993 0.205073 0.271850
O O3 0.275169 0.288712 0.171143
O O4 0.368965 0.232505 0.010021
O O5 0.379768 0.500000 0.674337
O O6 0.403890 0.224339 0.528726
O O7 0.403630 0.230329 0.755648
O O8 0.321187 0.236147 0.756787
O O9 0.190915 0.500000 0.536705
O O10 0.250000 0.750000 0.500000
O O11 0.154926 0.798252 0.553030
O O12 0.582532 0.500000 0.600245
O O13 0.561947 0.226387 0.734116
O O14 0.512269 0.500000 0.866554
O O15 0.465476 0.760330 0.845618
O O16 0.500000 0.773519 0.000000
O O17 0.910999 0.000000 0.867651
O O18 0.762370 0.000000 0.842898
O O19 0.750000 0.750000 0.000000
#
# Coordination Sequence:
#
# PCOD9199074 Si02
#       7
#     8   8   8   8   8   8   8
#     4  11  21  36  59  85 116 154 193 241 298 349
#     4   9  18  32  51  80 115 149 189 240 290 343
#     4  12  25  41  60  84 115 151 193 239 289 352
#     4  10  20  36  59  85 115 152 193 242 297 346
#     4   9  17  30  52  84 116 149 194 244 292 345
#     4   9  17  31  53  83 117 149 189 241 292 343
#     4  11  20  33  52  79 116 155 196 243 294 353
#
# _framework density 22.135384999999999
#
# number of rings (size 3 to 8) (size 9 to 14) (size 15 to 20)
#    0.000    1.857    1.429    3.857    0.000    4.000 
#    0.000    3.571    0.000    4.714    0.000    1.000 
#    0.000    0.000    0.000    0.000    0.000    0.000 
#
# Total GULP energy -156503.899070 kJ/mol
# GULP energy per Si atom -5589.424967 kJ/mol
# Density = 2.208500 g / cm^3
# Si number density = 22.135385 Si / 1000 Ang^3
#
#
#
# Elastic Constant Matrix: (Units=GPa)
#
#
# Indices 1 2 3 4 5 6 
#
# 1 106.7113 -11.7233 61.5724 0.0000 -0.1724 0.0000
# 2 -11.7233 41.8643 4.5779 0.0000 -5.4966 0.0000
# 3 61.5724 4.5779 172.1507 0.0000 6.2335 0.0000
# 4 0.0000 0.0000 0.0000 11.3106 0.0000 2.1735
# 5 -0.1724 -5.4966 6.2335 0.0000 32.2677 0.0000
# 6 0.0000 0.0000 0.0000 2.1735 0.0000 14.5317
#
#
#
# Elastic Compliance Matrix: (Units=1/GPa)
#
#
# Indices 1 2 3 4 5 6 
#
# 1 0.012524 0.004238 -0.004653 0.000000 0.001688 0.000000
# 2 0.004238 0.025979 -0.002384 0.000000 0.004909 0.000000
# 3 -0.004653 -0.002384 0.007605 0.000000 -0.001900 0.000000
# 4 0.000000 0.000000 0.000000 0.091029 0.000000 -0.013615
# 5 0.001688 0.004909 -0.001900 0.000000 0.032203 0.000000
# 6 0.000000 0.000000 0.000000 -0.013615 0.000000 0.070851
#
#
# Mechanical properties :
#
#
# Convention : Reuss Voigt Hill
#
# Bulk Modulus (GPa) = 24.68620 47.73113 36.20866
# Shear Modulus (GPa) = 19.28314 29.37531 24.32922
#
# Velocity S-wave (km/s) = 2.95472 3.64686 3.31888
# Velocity P-wave (km/s) = 4.77672 6.27239 5.57494
#
# Compressibility (1/GPa) = 0.04050847
#
# Stress axis : x y z
#
# Youngs Moduli (GPa) = 79.84468 38.49329 131.48545
#
# Poissons Ratio (x) = -0.16312 0.61184
# Poissons Ratio (y) = -0.33835 0.31349
# Poissons Ratio (z) = 0.37154 0.09178
#
# Static dielectric constant tensor:
#      x y z
#    x 1.681240 0.000000 0.034590 
#    y 0.000000 1.878480 0.000000 
#    z 0.034590 0.000000 1.793680 
# 
# From -- ./inp_files/187177.got.cif
#   From: 2010.05.17/outbox.cif.g08.bks.cpg/sg12_94_cif.got.tgz:187177.got - 2010.06.03 13:09:07.
