data_PCOD9199453
_publ_section_title
;
Structure prediction by ZEFSAII (Michael W. Deem and Ramdas Pophale) SiO2 
 PCOD9199453
Probable space group: C 2/M
;
_chemical_formula_sum "Si O2"
_cell_formula_units_Z 56
_cell_length_a 9.120332
_cell_length_b 30.426812
_cell_length_c 20.966949
_cell_angle_alpha 90.000000
_cell_angle_beta 27.191038
_cell_angle_gamma 90.000000
_cell_volume 2658.761523
_symmetry_space_group_name_H-M "C 2/M"
_symmetry_group_IT_number 12
_symmetry_cell_setting 'monoclinic'
loop_
_space_group_symop_operation_xyz
x,y,z
-x,y,-z
-x,-y,-z
x,-y,z
1/2+x,1/2+y,z
1/2-x,1/2+y,-z
1/2-x,1/2-y,-z
1/2+x,1/2-y,z
loop_
_atom_site_type_symbol
_atom_site_label
_atom_site_fract_x
_atom_site_fract_y
_atom_site_fract_z
Si Si1 0.922117 0.551059 0.697219
Si Si2 0.177999 0.195652 0.297543
Si Si3 0.888436 0.549894 0.854540
Si Si4 0.130403 0.174200 0.018596
Si Si5 0.986054 0.717653 0.700314
Si Si6 0.723560 0.633923 0.475854
Si Si7 0.733772 0.912135 0.968789
O O1 0.013694 0.500000 0.651582
O O2 0.002263 0.563714 0.740366
O O3 0.088304 0.588254 0.590172
O O4 0.536418 0.555682 0.841780
O O5 0.503970 0.188017 0.132336
O O6 0.976498 0.234810 0.344729
O O7 0.293353 0.211512 0.322996
O O8 0.987363 0.150653 0.383319
O O9 0.997218 0.500000 0.822046
O O10 0.953187 0.576624 0.893227
O O11 0.500000 0.549662 0.000000
O O12 0.116971 0.135480 0.074886
O O13 0.000000 0.157446 0.000000
O O14 0.882673 0.211774 0.134507
O O15 0.060705 0.676668 0.625149
O O16 0.500000 0.628642 0.500000
O O17 0.500000 0.912755 0.000000
#
# Coordination Sequence:
#
# PCOD9199453 Si02
#       7
#     8   8   8   8   8   8   8
#     4  10  20  38  63  87 118 161 208 257 302 363
#     4  10  22  36  61  91 122 162 198 252 304 365
#     4   8  16  30  53  82 111 147 192 243 294 349
#     4  10  20  36  60  87 123 164 198 254 307 357
#     4  10  20  38  60  87 123 159 201 248 305 364
#     4  10  21  37  61  88 120 160 205 250 303 354
#     4  11  21  32  57  92 125 158 200 256 313 370
#
# _framework density 21.062438
#
# number of rings (size 3 to 8) (size 9 to 14) (size 15 to 20)
#    0.000    2.143    1.429    3.429    4.000    2.571 
#    0.000    0.000    0.000    0.000    0.000    1.000 
#    0.000    0.000    0.000    0.000    0.000    0.000 
#
# Total GULP energy -156309.205142 kJ/mol
# GULP energy per Si atom -5582.471612 kJ/mol
# Density = 2.101450 g / cm^3
# Si number density = 21.062438 Si / 1000 Ang^3
#
#
#
# Elastic Constant Matrix: (Units=GPa)
#
#
# Indices 1 2 3 4 5 6 
#
# 1 57.5527 28.2364 4.2324 0.0006 2.2527 -0.0001
# 2 28.2364 114.5197 41.7150 0.0001 1.3266 0.0000
# 3 4.2324 41.7150 80.3909 0.0010 -0.1936 0.0001
# 4 0.0006 0.0001 0.0010 23.5287 -0.0004 11.3089
# 5 2.2527 1.3266 -0.1936 -0.0004 9.9226 0.0002
# 6 -0.0001 0.0000 0.0001 11.3089 0.0002 12.5001
#
#
#
# Elastic Compliance Matrix: (Units=1/GPa)
#
#
# Indices 1 2 3 4 5 6 
#
# 1 0.020130 -0.005586 0.001830 -0.000001 -0.003787 0.000001
# 2 -0.005586 0.012341 -0.006111 0.000001 -0.000501 -0.000001
# 3 0.001830 -0.006111 0.015516 -0.000001 0.000704 0.000001
# 4 -0.000001 0.000001 -0.000001 0.075201 0.000005 -0.068035
# 5 -0.003787 -0.000501 0.000704 0.000005 0.101721 -0.000007
# 6 0.000001 -0.000001 0.000001 -0.068035 -0.000007 0.141550
#
#
# Mechanical properties :
#
#
# Convention : Reuss Voigt Hill
#
# Bulk Modulus (GPa) = 35.39578 44.53675 39.96626
# Shear Modulus (GPa) = 12.63871 21.07560 16.85716
#
# Velocity S-wave (km/s) = 2.45227 3.16670 2.83210
# Velocity P-wave (km/s) = 4.98596 5.87891 5.45075
#
# Compressibility (1/GPa) = 0.02825196
#
# Stress axis : x y z
#
# Youngs Moduli (GPa) = 49.67813 81.02967 64.45135
#
# Poissons Ratio (x) = 0.45261 -0.11792
# Poissons Ratio (y) = 0.27749 0.39386
# Poissons Ratio (z) = -0.09089 0.49517
#
# Static dielectric constant tensor:
#      x y z
#    x 1.725380 0.000000 0.010880 
#    y 0.000000 1.775010 0.000000 
#    z 0.010880 0.000000 1.835450 
# 
# From -- ./inp_files/302982.got.cif
#   From: 2010.05.17/outbox.cif.g08.bks.cpg/sg12_152_cif.got.tgz:302982.got - 2010.06.03 13:09:07.
