data_PCOD9199834
_publ_section_title
;
Structure prediction by ZEFSAII (Michael W. Deem and Ramdas Pophale) SiO2 
 PCOD9199834
Probable space group: C 2/M
;
_chemical_formula_sum "Si O2"
_cell_formula_units_Z 56
_cell_length_a 9.529329
_cell_length_b 28.688316
_cell_length_c 12.778548
_cell_angle_alpha 90.000000
_cell_angle_beta 124.071355
_cell_angle_gamma 90.000000
_cell_volume 2893.728578
_symmetry_space_group_name_H-M "C 2/M"
_symmetry_group_IT_number 12
_symmetry_cell_setting 'monoclinic'
loop_
_space_group_symop_operation_xyz
x,y,z
-x,y,-z
-x,-y,-z
x,-y,z
1/2+x,1/2+y,z
1/2-x,1/2+y,-z
1/2-x,1/2-y,-z
1/2+x,1/2-y,z
loop_
_atom_site_type_symbol
_atom_site_label
_atom_site_fract_x
_atom_site_fract_y
_atom_site_fract_z
Si Si1 0.993351 0.051455 0.369451
Si Si2 0.817447 0.815620 0.949871
Si Si3 0.670182 0.360621 0.644990
Si Si4 0.560236 0.235136 0.413927
Si Si5 0.968171 0.635837 0.296600
Si Si6 0.298188 0.281070 0.175957
Si Si7 0.324391 0.051200 0.365176
O O1 0.172253 0.057566 0.384964
O O2 0.000000 0.050787 0.500000
O O3 0.884652 0.097292 0.301554
O O4 0.927780 0.000000 0.311597
O O5 0.655414 0.844879 0.845297
O O6 0.812674 0.765781 0.885135
O O7 0.799343 0.805847 0.065139
O O8 0.000000 0.837390 0.000000
O O9 0.500000 0.352636 0.500000
O O10 0.730306 0.316248 0.739108
O O11 0.840050 0.377607 0.656444
O O12 0.500000 0.252456 0.500000
O O13 0.750000 0.250000 0.500000
O O14 0.507560 0.181323 0.383406
O O15 0.481310 0.260484 0.281241
O O16 0.860510 0.595007 0.305946
O O17 0.500000 0.048159 0.500000
O O18 0.296067 0.000000 0.302035
#
# Coordination Sequence:
#
# PCOD9199834 Si02
#       7
#     8   8   8   8   8   8   8
#     4   9  19  35  57  86 122 160 192 234 302 373
#     4  10  25  41  60  82 117 165 215 262 296 353
#     4  11  22  37  60  92 125 156 197 252 311 376
#     4  11  23  36  56  86 123 159 195 247 310 369
#     4  11  24  38  60  90 122 165 211 248 307 365
#     4  10  23  38  60  81 118 160 207 254 307 354
#     4  10  20  36  61  93 127 158 197 252 313 377
#
# _framework density 19.352194999999998
#
# number of rings (size 3 to 8) (size 9 to 14) (size 15 to 20)
#    0.000    1.714    0.000    4.286   12.000    1.714 
#    0.000    0.000    0.000    1.286    0.000    2.000 
#    0.000    0.000    0.000    0.000    0.000    0.000 
#
# Total GULP energy -155885.257825 kJ/mol
# GULP energy per Si atom -5567.330637 kJ/mol
# Density = 1.930815 g / cm^3
# Si number density = 19.352195 Si / 1000 Ang^3
#
#
#
# Elastic Constant Matrix: (Units=GPa)
#
#
# Indices 1 2 3 4 5 6 
#
# 1 117.7394 36.1185 44.0309 0.0000 6.5560 0.0000
# 2 36.1185 113.4509 38.4850 0.0000 -9.3852 0.0000
# 3 44.0309 38.4850 99.8244 0.0000 8.6264 0.0000
# 4 0.0000 0.0000 0.0000 3.7858 0.0000 -6.7582
# 5 6.5560 -9.3852 8.6264 0.0000 27.6883 0.0000
# 6 0.0000 0.0000 0.0000 -6.7582 0.0000 32.0389
#
#
#
# Elastic Compliance Matrix: (Units=1/GPa)
#
#
# Indices 1 2 3 4 5 6 
#
# 1 0.010692 -0.002360 -0.003616 0.000000 -0.002205 0.000000
# 2 -0.002360 0.011318 -0.003805 0.000000 0.005580 0.000000
# 3 -0.003616 -0.003805 0.013480 0.000000 -0.004633 0.000000
# 4 0.000000 0.000000 0.000000 0.423687 0.000000 0.089372
# 5 -0.002205 0.005580 -0.004633 0.000000 0.039973 0.000000
# 6 0.000000 0.000000 0.000000 0.089372 0.000000 0.050064
#
#
# Mechanical properties :
#
#
# Convention : Reuss Voigt Hill
#
# Bulk Modulus (GPa) = 62.77838 63.14263 62.96050
# Shear Modulus (GPa) = 8.70951 26.86129 17.78540
#
# Velocity S-wave (km/s) = 2.12375 3.72966 3.03485
# Velocity P-wave (km/s) = 6.20678 7.15864 6.69963
#
# Compressibility (1/GPa) = 0.01592905
#
# Stress axis : x y z
#
# Youngs Moduli (GPa) = 93.52562 88.35509 74.18571
#
# Poissons Ratio (x) = 0.20851 0.26824
# Poissons Ratio (y) = 0.22071 0.28226
# Poissons Ratio (z) = 0.33817 0.33617
#
# Static dielectric constant tensor:
#      x y z
#    x 1.689570 0.000000 -0.009090 
#    y 0.000000 1.752680 0.000000 
#    z -0.009090 0.000000 1.659650 
# 
# From -- ./inp_files/125851.got.cif
#   From: 2010.05.17/outbox.cif.g08.bks.cpg/sg12_63_cif.got.tgz:125851.got - 2010.06.03 13:09:07.
