data_PCOD9199809
_publ_section_title
;
Structure prediction by ZEFSAII (Michael W. Deem and Ramdas Pophale) SiO2 
 PCOD9199809
Probable space group: C 2/M
;
_chemical_formula_sum "Si O2"
_cell_formula_units_Z 52
_cell_length_a 29.683666
_cell_length_b 13.862262
_cell_length_c 6.866065
_cell_angle_alpha 90.000000
_cell_angle_beta 111.225880
_cell_angle_gamma 90.000000
_cell_volume 2633.602234
_symmetry_space_group_name_H-M "C 2/M"
_symmetry_group_IT_number 12
_symmetry_cell_setting 'monoclinic'
loop_
_space_group_symop_operation_xyz
x,y,z
-x,y,-z
-x,-y,-z
x,-y,z
1/2+x,1/2+y,z
1/2-x,1/2+y,-z
1/2-x,1/2-y,-z
1/2+x,1/2-y,z
loop_
_atom_site_type_symbol
_atom_site_label
_atom_site_fract_x
_atom_site_fract_y
_atom_site_fract_z
Si Si1 0.043746 0.613582 0.724778
Si Si2 0.638494 0.393594 0.160658
Si Si3 0.610613 0.279596 0.753956
Si Si4 0.441542 0.609876 0.644638
Si Si5 0.251029 0.609864 0.536374
Si Si6 0.500000 0.238915 0.000000
Si Si7 0.782280 0.228867 0.239304
O O1 0.052383 0.500000 0.768667
O O2 0.089612 0.671993 0.713461
O O3 0.000000 0.623212 0.500000
O O4 0.029829 0.668346 0.903277
O O5 0.631882 0.500000 0.058629
O O6 0.608514 0.393404 0.312172
O O7 0.694925 0.380854 0.290207
O O8 0.617876 0.314048 0.985449
O O9 0.571931 0.348611 0.587012
O O10 0.663057 0.290402 0.738586
O O11 0.461060 0.500000 0.671191
O O12 0.472945 0.687709 0.810771
O O13 0.235206 0.500000 0.525637
O O14 0.218656 0.681948 0.610936
O O15 0.257513 0.643552 0.324375
O O16 0.750000 0.250000 0.000000
#
# Coordination Sequence:
#
# PCOD9199809 Si02
#       7
#     8   8   8   8   8   4   8
#     4  11  25  44  65  88 117 162 217 263 307 360
#     4  10  20  36  61  92 124 159 198 245 312 385
#     4  12  22  40  65  91 127 164 206 258 317 368
#     4  11  23  38  62  98 130 158 196 248 320 390
#     4  10  22  40  61  88 123 165 209 253 306 372
#     4  12  22  44  68  90 122 166 198 262 314 372
#     4  11  23  38  63  91 127 163 204 258 309 364
#
# _framework density 19.744819
#
# number of rings (size 3 to 8) (size 9 to 14) (size 15 to 20)
#    0.000    1.077    6.154    0.923    0.000    1.846 
#    0.000    0.769    0.000    0.000    0.000    0.000 
#    0.000    0.000    0.000    0.000    0.000    0.000 
#
# Total GULP energy -145187.448099 kJ/mol
# GULP energy per Si atom -5584.132619 kJ/mol
# Density = 1.969988 g / cm^3
# Si number density = 19.744819 Si / 1000 Ang^3
#
#
#
# Elastic Constant Matrix: (Units=GPa)
#
#
# Indices 1 2 3 4 5 6 
#
# 1 12.4808 2.8447 4.3642 0.0000 -6.0139 0.0000
# 2 2.8447 114.9001 26.8174 0.0000 1.3769 0.0000
# 3 4.3642 26.8174 80.5600 0.0000 3.6881 0.0000
# 4 0.0000 0.0000 0.0000 29.7021 0.0000 1.3832
# 5 -6.0139 1.3769 3.6881 0.0000 24.9942 0.0000
# 6 0.0000 0.0000 0.0000 1.3832 0.0000 25.2941
#
#
#
# Elastic Compliance Matrix: (Units=1/GPa)
#
#
# Indices 1 2 3 4 5 6 
#
# 1 0.093722 -0.001264 -0.005731 0.000000 0.023466 0.000000
# 2 -0.001264 0.009453 -0.003061 0.000000 -0.000373 0.000000
# 3 -0.005731 -0.003061 0.013892 0.000000 -0.003260 0.000000
# 4 0.000000 0.000000 0.000000 0.033754 0.000000 -0.001846
# 5 0.023466 -0.000373 -0.003260 0.000000 0.046157 0.000000
# 6 0.000000 0.000000 0.000000 -0.001846 0.000000 0.039636
#
#
# Mechanical properties :
#
#
# Convention : Reuss Voigt Hill
#
# Bulk Modulus (GPa) = 10.31406 30.66596 20.49001
# Shear Modulus (GPa) = 17.29838 27.59239 22.44538
#
# Velocity S-wave (km/s) = 2.96310 3.74230 3.37526
# Velocity P-wave (km/s) = 4.11603 5.85132 5.05864
#
# Compressibility (1/GPa) = 0.09695500
#
# Stress axis : x y z
#
# Youngs Moduli (GPa) = 10.66986 105.78093 71.98427
#
# Poissons Ratio (x) = 0.13371 0.41253
# Poissons Ratio (y) = 0.01349 0.22037
# Poissons Ratio (z) = 0.06115 0.32384
#
# Static dielectric constant tensor:
#      x y z
#    x 1.689000 0.000000 -0.006630 
#    y 0.000000 1.694920 0.000000 
#    z -0.006630 0.000000 1.680740 
# 
# From -- ./inp_files/31558.got.cif
#   From: 2010.05.17/outbox.cif.g08.bks.cpg/sg12_16_cif.got.tgz:31558.got - 2010.06.03 13:09:07.
