data_PCOD9199757
_publ_section_title
;
Structure prediction by ZEFSAII (Michael W. Deem and Ramdas Pophale) SiO2 
 PCOD9199757
Probable space group: C 2/M
;
_chemical_formula_sum "Si O2"
_cell_formula_units_Z 56
_cell_length_a 28.518347
_cell_length_b 8.779338
_cell_length_c 12.211760
_cell_angle_alpha 90.000000
_cell_angle_beta 109.755809
_cell_angle_gamma 90.000000
_cell_volume 2877.527075
_symmetry_space_group_name_H-M "C 2/M"
_symmetry_group_IT_number 12
_symmetry_cell_setting 'monoclinic'
loop_
_space_group_symop_operation_xyz
x,y,z
-x,y,-z
-x,-y,-z
x,-y,z
1/2+x,1/2+y,z
1/2-x,1/2+y,-z
1/2-x,1/2-y,-z
1/2+x,1/2-y,z
loop_
_atom_site_type_symbol
_atom_site_label
_atom_site_fract_x
_atom_site_fract_y
_atom_site_fract_z
Si Si1 0.998909 0.819375 0.127896
Si Si2 0.743507 0.179028 0.875145
Si Si3 0.157202 0.677765 0.063600
Si Si4 0.389307 0.319401 0.777662
Si Si5 0.653023 0.681611 0.670525
Si Si6 0.909144 0.680871 0.195015
Si Si7 0.305977 0.316378 0.532555
O O1 0.958176 0.741125 0.172718
O O2 0.054456 0.798336 0.220098
O O3 0.987389 0.000000 0.116762
O O4 0.000000 0.770558 0.000000
O O5 0.797102 0.215439 0.866212
O O6 0.701180 0.265252 0.776372
O O7 0.733118 0.000000 0.871324
O O8 0.750000 0.250000 0.000000
O O9 0.171480 0.500000 0.077777
O O10 0.115469 0.716558 0.118707
O O11 0.135636 0.714034 0.926899
O O12 0.385111 0.500000 0.801787
O O13 0.344554 0.278600 0.660279
O O14 0.648632 0.500000 0.667298
O O15 0.606203 0.748554 0.700519
O O16 0.666055 0.732086 0.557406
O O17 0.912057 0.500000 0.208418
O O18 0.300882 0.500000 0.525848
O O19 0.250000 0.250000 0.500000
#
# Coordination Sequence:
#
# PCOD9199757 Si02
#       7
#     8   8   8   8   8   8   8
#     4  10  20  36  61  90 120 157 200 247 302 362
#     4  12  23  35  54  82 116 153 193 240 297 359
#     4  11  22  35  54  85 121 155 194 242 298 359
#     4  10  21  39  62  88 119 156 202 250 302 360
#     4  11  23  40  61  85 119 159 203 250 301 359
#     4  11  23  37  57  86 122 158 196 244 302 359
#     4  10  23  42  64  90 119 158 203 250 299 357
#
# _framework density 19.461155000000002
#
# number of rings (size 3 to 8) (size 9 to 14) (size 15 to 20)
#    0.000    1.286    2.857    3.429    0.000    6.000 
#    0.000    0.714    0.000    4.286    0.000    0.000 
#    0.000    0.000    0.000    0.000    0.000    0.000 
#
# Total GULP energy -156314.777194 kJ/mol
# GULP energy per Si atom -5582.670614 kJ/mol
# Density = 1.941686 g / cm^3
# Si number density = 19.461155 Si / 1000 Ang^3
#
#
#
# Elastic Constant Matrix: (Units=GPa)
#
#
# Indices 1 2 3 4 5 6 
#
# 1 132.1850 39.0148 35.4474 0.0000 -15.2270 0.0000
# 2 39.0148 29.1815 24.6966 0.0000 -10.0154 0.0000
# 3 35.4474 24.6966 82.9316 0.0000 -15.7631 0.0000
# 4 0.0000 0.0000 0.0000 18.2839 0.0000 -0.1412
# 5 -15.2270 -10.0154 -15.7631 0.0000 36.3266 0.0000
# 6 0.0000 0.0000 0.0000 -0.1412 0.0000 34.7581
#
#
#
# Elastic Compliance Matrix: (Units=1/GPa)
#
#
# Indices 1 2 3 4 5 6 
#
# 1 0.012523 -0.016180 -0.000419 0.000000 0.000606 0.000000
# 2 -0.016180 0.068575 -0.012208 0.000000 0.006827 0.000000
# 3 -0.000419 -0.012208 0.016566 0.000000 0.003647 0.000000
# 4 0.000000 0.000000 0.000000 0.054695 0.000000 0.000222
# 5 0.000606 0.006827 0.003647 0.000000 0.031247 0.000000
# 6 0.000000 0.000000 0.000000 0.000222 0.000000 0.028771
#
#
# Mechanical properties :
#
#
# Convention : Reuss Voigt Hill
#
# Bulk Modulus (GPa) = 24.96873 49.17953 37.07413
# Shear Modulus (GPa) = 17.64659 27.54967 22.59813
#
# Velocity S-wave (km/s) = 3.01451 3.76656 3.41132
# Velocity P-wave (km/s) = 4.99743 6.65142 5.88284
#
# Compressibility (1/GPa) = 0.04005009
#
# Stress axis : x y z
#
# Youngs Moduli (GPa) = 79.85308 14.58253 60.36504
#
# Poissons Ratio (x) = 0.23595 0.02530
# Poissons Ratio (y) = 1.29203 0.73693
# Poissons Ratio (z) = 0.03347 0.17802
#
# Static dielectric constant tensor:
#      x y z
#    x 1.724310 0.000000 0.014030 
#    y 0.000000 1.667190 0.000000 
#    z 0.014030 0.000000 1.625610 
# 
# From -- ./inp_files/180667.got.cif
#   From: 2010.05.17/outbox.cif.g08.bks.cpg/sg12_91_cif.got.tgz:180667.got - 2010.06.03 13:09:07.
