data_PCOD9199720
_publ_section_title
;
Structure prediction by ZEFSAII (Michael W. Deem and Ramdas Pophale) SiO2 
 PCOD9199720
Probable space group: C 2/M
;
_chemical_formula_sum "Si O2"
_cell_formula_units_Z 64
_cell_length_a 16.969544
_cell_length_b 18.208385
_cell_length_c 14.495600
_cell_angle_alpha 90.000000
_cell_angle_beta 142.698399
_cell_angle_gamma 90.000000
_cell_volume 2714.301188
_symmetry_space_group_name_H-M "C 2/M"
_symmetry_group_IT_number 12
_symmetry_cell_setting 'monoclinic'
loop_
_space_group_symop_operation_xyz
x,y,z
-x,y,-z
-x,-y,-z
x,-y,z
1/2+x,1/2+y,z
1/2-x,1/2+y,-z
1/2-x,1/2-y,-z
1/2+x,1/2-y,z
loop_
_atom_site_type_symbol
_atom_site_label
_atom_site_fract_x
_atom_site_fract_y
_atom_site_fract_z
Si Si1 0.768159 0.912655 0.968839
Si Si2 0.853273 0.581476 0.757757
Si Si3 0.587307 0.822399 0.943533
Si Si4 0.190191 0.415866 0.503590
Si Si5 0.960135 0.088145 0.858431
Si Si6 0.039921 0.270702 0.340353
Si Si7 0.782323 0.709272 0.203968
Si Si8 0.364735 0.312057 0.421196
O O1 0.691204 0.865459 0.974303
O O2 0.726742 0.875285 0.832724
O O3 0.742988 0.000000 0.952077
O O4 0.922930 0.898485 0.106112
O O5 0.847892 0.500000 0.789484
O O6 0.808158 0.579545 0.607527
O O7 0.747594 0.632253 0.707853
O O8 0.997153 0.614173 0.899753
O O9 0.477485 0.777465 0.783735
O O10 0.657872 0.759267 0.066127
O O11 0.155177 0.500000 0.500172
O O12 0.322194 0.394245 0.681546
O O13 0.085785 0.350863 0.417673
O O14 0.956436 0.000000 0.865818
O O15 0.000000 0.116512 0.000000
O O16 0.123197 0.205240 0.459495
O O17 0.895558 0.258458 0.244172
O O18 0.829740 0.732572 0.347399
O O19 0.500000 0.335338 0.500000
#
# Coordination Sequence:
#
# PCOD9199720 Si02
#       8
#     8   8   8   8   8   8   8   8
#     4  10  20  36  61  88 123 163 202 257 309 361
#     4  10  22  41  65  91 117 152 208 265 309 374
#     4  10  21  40  64  89 120 160 209 259 310 371
#     4   9  19  35  59  89 122 160 208 260 307 357
#     4   9  19  33  50  83 126 163 201 248 305 370
#     4   9  19  36  60  84 116 159 202 248 299 369
#     4  10  22  39  59  88 127 162 206 254 307 375
#     4  10  23  41  59  86 126 164 200 251 309 375
#
# _framework density 23.578811999999999
#
# number of rings (size 3 to 8) (size 9 to 14) (size 15 to 20)
#    0.000    2.375    0.000    1.875    1.750    9.750 
#    0.000    1.875    0.000    5.250    0.000    0.000 
#    0.000    0.000    0.000    0.000    0.000    0.000 
#
# Total GULP energy -178392.715185 kJ/mol
# GULP energy per Si atom -5574.772350 kJ/mol
# Density = 2.352515 g / cm^3
# Si number density = 23.578812 Si / 1000 Ang^3
#
#
#
# Elastic Constant Matrix: (Units=GPa)
#
#
# Indices 1 2 3 4 5 6 
#
# 1 61.3116 29.5123 31.9331 0.0000 7.3691 0.0000
# 2 29.5123 105.4865 20.5683 0.0000 15.3588 0.0000
# 3 31.9331 20.5683 90.5859 0.0000 17.9541 0.0000
# 4 0.0000 0.0000 0.0000 35.5234 0.0000 6.0644
# 5 7.3691 15.3588 17.9541 0.0000 35.0686 0.0000
# 6 0.0000 0.0000 0.0000 6.0644 0.0000 27.5842
#
#
#
# Elastic Compliance Matrix: (Units=1/GPa)
#
#
# Indices 1 2 3 4 5 6 
#
# 1 0.022188 -0.005019 -0.006893 0.000000 0.001065 0.000000
# 2 -0.005019 0.011468 -0.000054 0.000000 -0.003941 0.000000
# 3 -0.006893 -0.000054 0.014679 0.000000 -0.006043 0.000000
# 4 0.000000 0.000000 0.000000 0.029248 0.000000 -0.006430
# 5 0.001065 -0.003941 -0.006043 0.000000 0.033112 0.000000
# 6 0.000000 0.000000 0.000000 -0.006430 0.000000 0.037666
#
#
# Mechanical properties :
#
#
# Convention : Reuss Voigt Hill
#
# Bulk Modulus (GPa) = 40.97630 46.82350 43.89990
# Shear Modulus (GPa) = 27.71196 31.32659 29.51928
#
# Velocity S-wave (km/s) = 3.43197 3.64894 3.54212
# Velocity P-wave (km/s) = 5.75506 6.13632 5.94875
#
# Compressibility (1/GPa) = 0.02440435
#
# Stress axis : x y z
#
# Youngs Moduli (GPa) = 45.06927 87.19779 68.12362
#
# Poissons Ratio (x) = 0.43761 0.46959
# Poissons Ratio (y) = 0.22618 0.00366
# Poissons Ratio (z) = 0.31067 0.00469
#
# Static dielectric constant tensor:
#      x y z
#    x 1.951480 0.000000 -0.035640 
#    y 0.000000 1.858110 0.000000 
#    z -0.035640 0.000000 1.942630 
# 
# From -- ./inp_files/285241.got.cif
#   From: 2010.05.17/outbox.cif.g08.bks.cpg/sg12_143_cif.got.tgz:285241.got - 2010.06.03 13:09:07.
