data_PCOD9199644
_publ_section_title
;
Structure prediction by ZEFSAII (Michael W. Deem and Ramdas Pophale) SiO2 
 PCOD9199644
Probable space group: C 2/M
;
_chemical_formula_sum "Si O2"
_cell_formula_units_Z 64
_cell_length_a 17.888990
_cell_length_b 28.840900
_cell_length_c 12.987678
_cell_angle_alpha 90.000000
_cell_angle_beta 27.396102
_cell_angle_gamma 90.000000
_cell_volume 3083.298336
_symmetry_space_group_name_H-M "C 2/M"
_symmetry_group_IT_number 12
_symmetry_cell_setting 'monoclinic'
loop_
_space_group_symop_operation_xyz
x,y,z
-x,y,-z
-x,-y,-z
x,-y,z
1/2+x,1/2+y,z
1/2-x,1/2+y,-z
1/2-x,1/2-y,-z
1/2+x,1/2-y,z
loop_
_atom_site_type_symbol
_atom_site_label
_atom_site_fract_x
_atom_site_fract_y
_atom_site_fract_z
Si Si1 0.561134 0.412348 0.037210
Si Si2 0.010358 0.633998 0.870329
Si Si3 0.903683 0.823797 0.896239
Si Si4 0.814667 0.736160 0.696927
Si Si5 0.835510 0.838557 0.743200
Si Si6 0.757283 0.699614 0.539953
Si Si7 0.281898 0.055551 0.463786
Si Si8 0.620923 0.052451 0.431738
O O1 0.652075 0.372925 0.990336
O O2 0.408686 0.432616 0.286614
O O3 0.500000 0.394030 0.000000
O O4 0.699546 0.448375 0.835829
O O5 0.097629 0.670308 0.687409
O O6 0.121517 0.587667 0.734096
O O7 0.000000 0.651705 0.000000
O O8 0.823629 0.629842 0.063488
O O9 0.876782 0.821810 0.807941
O O10 0.089895 0.823345 0.706961
O O11 0.808192 0.782621 0.067398
O O12 0.803942 0.792280 0.712407
O O13 0.772985 0.709815 0.641937
O O14 0.000000 0.725217 0.500000
O O15 0.000000 0.861572 0.500000
O O16 0.750000 0.750000 0.500000
O O17 0.361434 0.071672 0.475585
O O18 0.299038 0.000000 0.428952
O O19 0.500000 0.076325 0.500000
O O20 0.561199 0.000000 0.520655
#
# Coordination Sequence:
#
# PCOD9199644 Si02
#       8
#     8   8   8   8   8   8   8   8
#     4  10  20  36  60  93 130 164 211 257 324 380
#     4  12  25  43  66  93 123 168 222 268 330 386
#     4  12  23  38  62  94 128 165 209 265 313 377
#     4  11  23  40  61  92 130 169 210 261 316 381
#     4  11  25  44  62  87 128 172 214 259 323 384
#     4  12  23  40  65  92 125 166 215 265 314 381
#     4  10  22  41  65  93 129 169 218 269 323 390
#     4   9  19  35  60  93 130 165 201 255 325 387
#
# _framework density 20.756992
#
# number of rings (size 3 to 8) (size 9 to 14) (size 15 to 20)
#    0.000    1.125    1.250    6.375    3.500    2.250 
#    0.000    0.000    0.000    0.375    0.000    0.000 
#    0.000    0.000    0.000    0.000    0.000    0.000 
#
# Total GULP energy -178641.092071 kJ/mol
# GULP energy per Si atom -5582.534127 kJ/mol
# Density = 2.070975 g / cm^3
# Si number density = 20.756992 Si / 1000 Ang^3
#
#
#
# Elastic Constant Matrix: (Units=GPa)
#
#
# Indices 1 2 3 4 5 6 
#
# 1 80.0942 -8.5979 20.4481 0.0005 -0.5606 -0.0083
# 2 -8.5979 65.7272 12.1127 0.0024 3.2314 -0.0044
# 3 20.4481 12.1127 104.3111 0.0044 -9.2341 -0.0080
# 4 0.0005 0.0024 0.0044 30.1512 -0.0026 -4.3466
# 5 -0.5606 3.2314 -9.2341 -0.0026 32.4311 0.0076
# 6 -0.0083 -0.0044 -0.0080 -4.3466 0.0076 9.5273
#
#
#
# Elastic Compliance Matrix: (Units=1/GPa)
#
#
# Indices 1 2 3 4 5 6 
#
# 1 0.013497 0.002360 -0.002996 0.000002 -0.000855 0.000012
# 2 0.002360 0.016103 -0.002535 0.000000 -0.002285 0.000009
# 3 -0.002996 -0.002535 0.010757 -0.000001 0.003264 0.000002
# 4 0.000002 0.000000 -0.000001 0.035501 -0.000001 0.016197
# 5 -0.000855 -0.002285 0.003264 -0.000001 0.031977 -0.000025
# 6 0.000012 0.000009 0.000002 0.016197 -0.000025 0.112351
#
#
# Mechanical properties :
#
#
# Convention : Reuss Voigt Hill
#
# Bulk Modulus (GPa) = 29.39800 33.11760 31.25780
# Shear Modulus (GPa) = 21.02021 29.49988 25.26004
#
# Velocity S-wave (km/s) = 3.18572 3.77397 3.49225
# Velocity P-wave (km/s) = 5.26549 5.91439 5.59935
#
# Compressibility (1/GPa) = 0.03401592
#
# Stress axis : x y z
#
# Youngs Moduli (GPa) = 74.08839 62.10191 92.96115
#
# Poissons Ratio (x) = -0.14654 0.27847
# Poissons Ratio (y) = -0.17483 0.23563
# Poissons Ratio (z) = 0.22194 0.15741
#
# Static dielectric constant tensor:
#      x y z
#    x 1.802890 0.000010 -0.018830 
#    y 0.000010 1.995020 -0.000040 
#    z -0.018830 -0.000040 1.829690 
# 
# From -- ./inp_files/161201.got.cif
#   From: 2010.05.17/outbox.cif.g08.bks.cpg/sg12_81_cif.got.tgz:161201.got - 2010.06.03 13:09:07.
