data_PCOD9199148
_publ_section_title
;
Structure prediction by ZEFSAII (Michael W. Deem and Ramdas Pophale) SiO2 
 PCOD9199148
Probable space group: C 2/M
;
_chemical_formula_sum "Si O2"
_cell_formula_units_Z 40
_cell_length_a 16.782869
_cell_length_b 8.008705
_cell_length_c 14.442335
_cell_angle_alpha 90.000000
_cell_angle_beta 60.620060
_cell_angle_gamma 90.000000
_cell_volume 1691.516776
_symmetry_space_group_name_H-M "C 2/M"
_symmetry_group_IT_number 12
_symmetry_cell_setting 'monoclinic'
loop_
_space_group_symop_operation_xyz
x,y,z
-x,y,-z
-x,-y,-z
x,-y,z
1/2+x,1/2+y,z
1/2-x,1/2+y,-z
1/2-x,1/2-y,-z
1/2+x,1/2-y,z
loop_
_atom_site_type_symbol
_atom_site_label
_atom_site_fract_x
_atom_site_fract_y
_atom_site_fract_z
Si Si1 0.740248 0.187503 0.610896
Si Si2 0.389164 0.687931 0.166487
Si Si3 0.764317 0.297866 0.885743
Si Si4 0.082249 0.690123 0.521864
Si Si5 0.526934 0.199897 0.236117
O O1 0.750000 0.250000 0.500000
O O2 0.681867 0.306905 0.707591
O O3 0.846127 0.197489 0.573808
O O4 0.704749 0.000000 0.642468
O O5 0.411835 0.500000 0.125275
O O6 0.323352 0.765946 0.124200
O O7 0.481099 0.761130 0.161904
O O8 0.764039 0.500000 0.874036
O O9 0.869060 0.239285 0.805987
O O10 0.750000 0.250000 0.000000
O O11 0.119239 0.500000 0.512600
O O12 0.042919 0.754461 0.642345
O O13 0.000000 0.674737 0.500000
O O14 0.530554 0.000000 0.242488
#
# Coordination Sequence:
#
# PCOD9199148 Si02
#       5
#     8   8   8   8   8
#     4  12  23  36  57  88 125 164 205 249 300 362
#     4  11  23  41  65  93 126 166 209 258 315 374
#     4  10  24  45  67  92 123 162 207 259 322 378
#     4  10  20  36  59  86 122 166 207 252 306 365
#     4  10  21  39  63  90 122 164 210 255 309 375
#
# _framework density 23.647414999999999
#
# number of rings (size 3 to 8) (size 9 to 14) (size 15 to 20)
#    0.000    1.400    2.000    3.600    0.000    6.800 
#    0.000    6.000    0.000    0.000    0.000    0.000 
#    0.000    0.000    0.000    0.000    0.000    0.000 
#
# Total GULP energy -111496.629950 kJ/mol
# GULP energy per Si atom -5574.831497 kJ/mol
# Density = 2.359359 g / cm^3
# Si number density = 23.647415 Si / 1000 Ang^3
#
#
#
# Elastic Constant Matrix: (Units=GPa)
#
#
# Indices 1 2 3 4 5 6 
#
# 1 132.0891 7.0673 17.5601 0.0000 25.6218 0.0000
# 2 7.0673 38.3064 -5.0659 0.0000 -6.2219 0.0000
# 3 17.5601 -5.0659 64.0605 0.0000 8.8468 0.0000
# 4 0.0000 0.0000 0.0000 19.1293 0.0000 0.8468
# 5 25.6218 -6.2219 8.8468 0.0000 43.4056 0.0000
# 6 0.0000 0.0000 0.0000 0.8468 0.0000 24.9327
#
#
#
# Elastic Compliance Matrix: (Units=1/GPa)
#
#
# Indices 1 2 3 4 5 6 
#
# 1 0.009012 -0.002785 -0.001956 0.000000 -0.005320 0.000000
# 2 -0.002785 0.027755 0.002245 0.000000 0.005165 0.000000
# 3 -0.001956 0.002245 0.016587 0.000000 -0.001904 0.000000
# 4 0.000000 0.000000 0.000000 0.052355 0.000000 -0.001778
# 5 -0.005320 0.005165 -0.001904 0.000000 0.027307 0.000000
# 6 0.000000 0.000000 0.000000 -0.001778 0.000000 0.040168
#
#
# Mechanical properties :
#
#
# Convention : Reuss Voigt Hill
#
# Bulk Modulus (GPa) = 20.67764 30.39764 25.53764
# Shear Modulus (GPa) = 25.73388 31.81983 28.77686
#
# Velocity S-wave (km/s) = 3.30242 3.67221 3.49221
# Velocity P-wave (km/s) = 4.82746 5.55542 5.20418
#
# Compressibility (1/GPa) = 0.04836142
#
# Stress axis : x y z
#
# Youngs Moduli (GPa) = 110.96761 36.02956 60.28854
#
# Poissons Ratio (x) = 0.10035 0.11791
# Poissons Ratio (y) = 0.30908 -0.13535
# Poissons Ratio (z) = 0.21703 -0.08089
#
# Static dielectric constant tensor:
#      x y z
#    x -1.140000 0.000000 0.836350 
#    y 0.000000 2.499500 0.000000 
#    z 0.836350 0.000000 1.656990 
# 
# From -- ./inp_files/220600.got.cif
#   From: 2010.05.17/outbox.cif.g08.bks.cpg/sg12_111_cif.got.tgz:220600.got - 2010.06.03 13:09:07.
