data_PCOD9199624
_publ_section_title
;
Structure prediction by ZEFSAII (Michael W. Deem and Ramdas Pophale) SiO2 
 PCOD9199624
Probable space group: C 2/M
;
_chemical_formula_sum "Si O2"
_cell_formula_units_Z 60
_cell_length_a 23.395937
_cell_length_b 18.648443
_cell_length_c 14.292596
_cell_angle_alpha 90.000000
_cell_angle_beta 153.302562
_cell_angle_gamma 90.000000
_cell_volume 2801.626955
_symmetry_space_group_name_H-M "C 2/M"
_symmetry_group_IT_number 12
_symmetry_cell_setting 'monoclinic'
loop_
_space_group_symop_operation_xyz
x,y,z
-x,y,-z
-x,-y,-z
x,-y,z
1/2+x,1/2+y,z
1/2-x,1/2+y,-z
1/2-x,1/2-y,-z
1/2+x,1/2-y,z
loop_
_atom_site_type_symbol
_atom_site_label
_atom_site_fract_x
_atom_site_fract_y
_atom_site_fract_z
Si Si1 0.777620 0.921953 0.968670
Si Si2 0.742615 0.919541 0.496086
Si Si3 0.158058 0.419077 0.156569
Si Si4 0.781961 0.808398 0.699529
Si Si5 0.653586 0.622992 0.729505
Si Si6 0.545728 0.578984 0.936069
Si Si7 0.500000 0.802979 0.000000
Si Si8 0.147753 0.717454 0.693128
O O1 0.798738 0.917070 0.109110
O O2 0.911108 0.917912 0.108450
O O3 0.720104 0.000000 0.860333
O O4 0.703977 0.853651 0.821835
O O5 0.702850 0.913667 0.329919
O O6 0.707431 0.854626 0.513336
O O7 0.895974 0.914420 0.722694
O O8 0.705404 0.000000 0.473964
O O9 0.108149 0.500000 0.068551
O O10 0.274511 0.405690 0.256926
O O11 0.052046 0.356741 0.995337
O O12 0.877544 0.747428 0.800104
O O13 0.686105 0.780760 0.639462
O O14 0.877132 0.862076 0.894320
O O15 0.500000 0.617869 0.500000
O O16 0.693336 0.706305 0.799241
O O17 0.583090 0.500000 0.026662
O O18 0.000000 0.715528 0.500000
#
# Coordination Sequence:
#
# PCOD9199624 Si02
#       8
#     8   8   8   8   8   8   4   8
#     4  10  21  37  62  92 124 165 204 246 307 364
#     4  10  20  36  60  92 121 157 202 249 300 351
#     4  11  25  43  61  85 123 163 205 249 292 354
#     4  11  20  38  62  91 120 156 198 243 309 364
#     4  11  22  41  65  93 122 161 208 256 300 353
#     4   9  17  32  58  92 126 152 190 252 304 354
#     4  12  23  42  59  88 120 162 202 242 303 360
#     4  10  23  43  62  91 125 158 200 257 307 360
#
# _framework density 21.416129000000002
#
# number of rings (size 3 to 8) (size 9 to 14) (size 15 to 20)
#    0.000    1.600    2.667    2.200    0.000    4.533 
#    2.400    0.000    0.000    0.000    0.000    0.000 
#    0.000    0.000    0.000    0.000    0.000    0.000 
#
# Total GULP energy -167497.695147 kJ/mol
# GULP energy per Si atom -5583.256505 kJ/mol
# Density = 2.136738 g / cm^3
# Si number density = 21.416129 Si / 1000 Ang^3
#
#
#
# Elastic Constant Matrix: (Units=GPa)
#
#
# Indices 1 2 3 4 5 6 
#
# 1 133.0947 41.5050 34.1730 0.0000 7.5260 0.0000
# 2 41.5050 142.4192 22.0729 0.0000 0.4315 0.0000
# 3 34.1730 22.0729 37.5957 0.0000 0.6672 0.0000
# 4 0.0000 0.0000 0.0000 15.9803 0.0000 6.0045
# 5 7.5260 0.4315 0.6672 0.0000 30.8406 0.0000
# 6 0.0000 0.0000 0.0000 6.0045 0.0000 51.7951
#
#
#
# Elastic Compliance Matrix: (Units=1/GPa)
#
#
# Indices 1 2 3 4 5 6 
#
# 1 0.010317 -0.001708 -0.008334 0.000000 -0.002313 0.000000
# 2 -0.001708 0.008007 -0.003155 0.000000 0.000373 0.000000
# 3 -0.008334 -0.003155 0.036003 0.000000 0.001299 0.000000
# 4 0.000000 0.000000 0.000000 0.065427 0.000000 -0.007585
# 5 -0.002313 0.000373 0.001299 0.000000 0.032956 0.000000
# 6 0.000000 0.000000 0.000000 -0.007585 0.000000 0.020186
#
#
# Mechanical properties :
#
#
# Convention : Reuss Voigt Hill
#
# Bulk Modulus (GPa) = 35.79956 56.51237 46.15596
# Shear Modulus (GPa) = 23.96928 34.08046 29.02487
#
# Velocity S-wave (km/s) = 3.34910 3.99349 3.68541
# Velocity P-wave (km/s) = 5.63096 6.90717 6.30146
#
# Compressibility (1/GPa) = 0.02793331
#
# Stress axis : x y z
#
# Youngs Moduli (GPa) = 96.93143 124.88822 27.77543
#
# Poissons Ratio (x) = 0.21330 0.23147
# Poissons Ratio (y) = 0.16556 0.08764
# Poissons Ratio (z) = 0.80778 0.39405
#
# Static dielectric constant tensor:
#      x y z
#    x 1.793620 0.000000 0.000400 
#    y 0.000000 1.845500 0.000000 
#    z 0.000400 0.000000 1.763380 
# 
# From -- ./inp_files/241309.got.cif
#   From: 2010.05.17/outbox.cif.g08.bks.cpg/sg12_121_cif.got.tgz:241309.got - 2010.06.03 13:09:07.
