data_PCOD9199409
_publ_section_title
;
Structure prediction by ZEFSAII (Michael W. Deem and Ramdas Pophale) SiO2 
 PCOD9199409
Probable space group: C 2/M
;
_chemical_formula_sum "Si O2"
_cell_formula_units_Z 64
_cell_length_a 27.165240
_cell_length_b 7.572566
_cell_length_c 14.347762
_cell_angle_alpha 90.000000
_cell_angle_beta 86.469949
_cell_angle_gamma 90.000000
_cell_volume 2945.886313
_symmetry_space_group_name_H-M "C 2/M"
_symmetry_group_IT_number 12
_symmetry_cell_setting 'monoclinic'
loop_
_space_group_symop_operation_xyz
x,y,z
-x,y,-z
-x,-y,-z
x,-y,z
1/2+x,1/2+y,z
1/2-x,1/2+y,-z
1/2-x,1/2-y,-z
1/2+x,1/2-y,z
loop_
_atom_site_type_symbol
_atom_site_label
_atom_site_fract_x
_atom_site_fract_y
_atom_site_fract_z
Si Si1 0.023853 0.284445 0.400877
Si Si2 0.135909 0.715110 0.408843
Si Si3 0.508139 0.214077 0.795939
Si Si4 0.106532 0.207424 0.896870
Si Si5 0.595167 0.203808 0.110010
Si Si6 0.298875 0.210102 0.434120
Si Si7 0.811633 0.716356 0.785183
Si Si8 0.703544 0.707135 0.782418
O O1 0.023678 0.500000 0.401123
O O2 0.995275 0.230125 0.311373
O O3 0.000000 0.225328 0.500000
O O4 0.080771 0.228125 0.391352
O O5 0.135730 0.500000 0.410522
O O6 0.156105 0.774856 0.506330
O O7 0.172362 0.766934 0.321332
O O8 0.557336 0.272555 0.841700
O O9 0.457489 0.278080 0.850850
O O10 0.508722 0.000000 0.799391
O O11 0.154314 0.279867 0.836418
O O12 0.113600 0.000000 0.913492
O O13 0.099390 0.291232 0.998790
O O14 0.644645 0.278073 0.151850
O O15 0.593839 0.000000 0.142502
O O16 0.250000 0.250000 0.500000
O O17 0.298092 0.280508 0.329597
O O18 0.302897 0.000000 0.424942
O O19 0.810027 0.500000 0.788511
O O20 0.756243 0.781036 0.809896
O O21 0.704109 0.500000 0.805072
#
# Coordination Sequence:
#
# PCOD9199409 Si02
#       8
#     8   8   8   8   8   8   8   8
#     4   9  17  29  50  84 117 140 174 230 283 323
#     4   9  16  29  51  80 110 144 182 221 274 328
#     4  10  20  36  60  87 112 141 186 237 279 331
#     4  11  25  40  55  79 116 155 185 226 291 347
#     4  10  20  37  63  87 105 137 191 246 288 331
#     4  11  21  33  56  85 115 150 187 225 270 329
#     4   9  16  33  59  81 107 144 185 233 284 330
#     4  10  22  40  57  79 115 154 189 230 281 336
#
# _framework density 21.725211000000002
#
# number of rings (size 3 to 8) (size 9 to 14) (size 15 to 20)
#    0.000    2.125    2.500    1.125    1.750    3.500 
#    0.000    0.625    0.000    1.875    0.000    0.000 
#    0.000    0.000    0.000    0.000    0.000    0.000 
#
# Total GULP energy -178731.146119 kJ/mol
# GULP energy per Si atom -5585.348316 kJ/mol
# Density = 2.167576 g / cm^3
# Si number density = 21.725211 Si / 1000 Ang^3
#
#
#
# Elastic Constant Matrix: (Units=GPa)
#
#
# Indices 1 2 3 4 5 6 
#
# 1 163.6268 0.2196 70.9334 0.0000 2.5415 0.0000
# 2 0.2196 50.8270 -12.8379 0.0000 -1.9389 0.0000
# 3 70.9334 -12.8379 102.7074 0.0000 -12.2999 0.0000
# 4 0.0000 0.0000 0.0000 6.7662 0.0000 -5.9513
# 5 2.5415 -1.9389 -12.2999 0.0000 34.1955 0.0000
# 6 0.0000 0.0000 0.0000 -5.9513 0.0000 6.2907
#
#
#
# Elastic Compliance Matrix: (Units=1/GPa)
#
#
# Indices 1 2 3 4 5 6 
#
# 1 0.009194 -0.001931 -0.006987 0.000000 -0.003306 0.000000
# 2 -0.001931 0.020875 0.004286 0.000000 0.002869 0.000000
# 3 -0.006987 0.004286 0.015873 0.000000 0.006472 0.000000
# 4 0.000000 0.000000 0.000000 0.880326 0.000000 0.832829
# 5 -0.003306 0.002869 0.006472 0.000000 0.031980 0.000000
# 6 0.000000 0.000000 0.000000 0.832829 0.000000 0.946859
#
#
# Mechanical properties :
#
#
# Convention : Reuss Voigt Hill
#
# Bulk Modulus (GPa) = 27.26370 48.19904 37.73137
# Shear Modulus (GPa) = 2.59525 26.70689 14.65107
#
# Velocity S-wave (km/s) = 1.09415 3.50995 2.59970
# Velocity P-wave (km/s) = 3.76468 6.21774 5.13970
#
# Compressibility (1/GPa) = 0.03667881
#
# Stress axis : x y z
#
# Youngs Moduli (GPa) = 108.76145 47.90425 63.00076
#
# Poissons Ratio (x) = 0.09249 0.44020
# Poissons Ratio (y) = 0.20998 -0.27004
# Poissons Ratio (z) = 0.75994 -0.20533
#
# Static dielectric constant tensor:
#      x y z
#    x 1.792910 0.000000 -0.000260 
#    y 0.000000 1.874030 0.000000 
#    z -0.000260 0.000000 1.739810 
# 
# From -- ./inp_files/238740.got.cif
#   From: 2010.05.17/outbox.cif.g08.bks.cpg/sg12_120_cif.got.tgz:238740.got - 2010.06.03 13:09:07.
