data_PCOD9199366
_publ_section_title
;
Structure prediction by ZEFSAII (Michael W. Deem and Ramdas Pophale) SiO2 
 PCOD9199366
Probable space group: C 2/M
;
_chemical_formula_sum "Si O2"
_cell_formula_units_Z 40
_cell_length_a 11.358883
_cell_length_b 27.847819
_cell_length_c 8.877996
_cell_angle_alpha 90.000000
_cell_angle_beta 46.761433
_cell_angle_gamma 90.000000
_cell_volume 2045.859913
_symmetry_space_group_name_H-M "C 2/M"
_symmetry_group_IT_number 12
_symmetry_cell_setting 'monoclinic'
loop_
_space_group_symop_operation_xyz
x,y,z
-x,y,-z
-x,-y,-z
x,-y,z
1/2+x,1/2+y,z
1/2-x,1/2+y,-z
1/2-x,1/2-y,-z
1/2+x,1/2-y,z
loop_
_atom_site_type_symbol
_atom_site_label
_atom_site_fract_x
_atom_site_fract_y
_atom_site_fract_z
Si Si1 0.198784 0.598993 0.559945
Si Si2 0.500000 0.140242 0.000000
Si Si3 0.856044 0.000000 0.951451
Si Si4 0.714352 0.805464 0.055379
Si Si5 0.051886 0.896205 0.131887
Si Si6 0.500000 0.836904 0.500000
Si Si7 0.749658 0.000000 0.370040
O O1 0.390572 0.607939 0.373764
O O2 0.103614 0.631482 0.524114
O O3 0.179311 0.545553 0.514989
O O4 0.121299 0.609168 0.789829
O O5 0.399113 0.173939 0.976718
O O6 0.843590 0.943577 0.908570
O O7 0.053557 0.000000 0.789951
O O8 0.738462 0.000000 0.199732
O O9 0.621855 0.806993 0.294180
O O10 0.750000 0.750000 0.000000
O O11 0.854211 0.845915 0.943622
O O12 0.000000 0.904593 0.000000
#
# Coordination Sequence:
#
# PCOD9199366 Si02
#       7
#     8   4   4   8   8   4   4
#     4  10  20  36  60  85 125 157 199 246 298 357
#     4  10  26  43  52  86 128 157 192 244 312 368
#     4   9  14  30  59  99 115 141 210 266 281 332
#     4  11  25  41  64  87 120 160 203 249 304 357
#     4  11  18  36  66  94 113 152 212 256 290 343
#     4  10  20  39  58  86 118 159 198 254 296 350
#     4   9  14  28  55  86 118 156 194 244 295 352
#
# _framework density 19.551680000000001
#
# number of rings (size 3 to 8) (size 9 to 14) (size 15 to 20)
#    0.000    1.800    6.000    0.000    1.400    3.200 
#    0.000    9.000    0.000    3.600    0.000    0.000 
#    0.000    0.000    0.000    0.000    0.000    0.000 
#
# Total GULP energy -111391.761204 kJ/mol
# GULP energy per Si atom -5569.588060 kJ/mol
# Density = 1.950718 g / cm^3
# Si number density = 19.551680 Si / 1000 Ang^3
#
#
#
# Elastic Constant Matrix: (Units=GPa)
#
#
# Indices 1 2 3 4 5 6 
#
# 1 32.7602 22.9429 26.8719 0.0000 3.4314 0.0000
# 2 22.9429 189.0809 94.9710 0.0000 -13.8308 0.0000
# 3 26.8719 94.9710 191.7583 0.0000 1.5093 0.0000
# 4 0.0000 0.0000 0.0000 39.2777 0.0000 -7.1347
# 5 3.4314 -13.8308 1.5093 0.0000 19.4283 0.0000
# 6 0.0000 0.0000 0.0000 -7.1347 0.0000 16.0115
#
#
#
# Elastic Compliance Matrix: (Units=1/GPa)
#
#
# Indices 1 2 3 4 5 6 
#
# 1 0.036560 -0.003361 -0.003391 0.000000 -0.008586 0.000000
# 2 -0.003361 0.007937 -0.003511 0.000000 0.006516 0.000000
# 3 -0.003391 -0.003511 0.007449 0.000000 -0.002479 0.000000
# 4 0.000000 0.000000 0.000000 0.027702 0.000000 0.012344
# 5 -0.008586 0.006516 -0.002479 0.000000 0.057819 0.000000
# 6 0.000000 0.000000 0.000000 0.012344 0.000000 0.067955
#
#
# Mechanical properties :
#
#
# Convention : Reuss Voigt Hill
#
# Bulk Modulus (GPa) = 31.82829 78.13011 54.97920
# Shear Modulus (GPa) = 21.14874 32.86443 27.00659
#
# Velocity S-wave (km/s) = 3.29246 4.10433 3.72061
# Velocity P-wave (km/s) = 5.54691 7.90621 6.82922
#
# Compressibility (1/GPa) = 0.03141859
#
# Stress axis : x y z
#
# Youngs Moduli (GPa) = 27.35266 125.99601 134.25423
#
# Poissons Ratio (x) = 0.42346 0.45528
# Poissons Ratio (y) = 0.09193 0.47138
# Poissons Ratio (z) = 0.09276 0.44239
#
# Static dielectric constant tensor:
#      x y z
#    x 1.728540 0.000000 -0.013090 
#    y 0.000000 1.980750 0.000000 
#    z -0.013090 0.000000 1.689120 
# 
# From -- ./inp_files/52388.got.cif
#   From: 2010.05.17/outbox.cif.g08.bks.cpg/sg12_27_cif.got.tgz:52388.got - 2010.06.03 13:09:07.
