data_PCOD9199994
_publ_section_title
;
Structure prediction by ZEFSAII (Michael W. Deem and Ramdas Pophale) SiO2 
 PCOD9199994
Probable space group: C 2/M
;
_chemical_formula_sum "Si O2"
_cell_formula_units_Z 56
_cell_length_a 11.459435
_cell_length_b 26.497607
_cell_length_c 8.418077
_cell_angle_alpha 90.000000
_cell_angle_beta 74.321372
_cell_angle_gamma 90.000000
_cell_volume 2461.022052
_symmetry_space_group_name_H-M "C 2/M"
_symmetry_group_IT_number 12
_symmetry_cell_setting 'monoclinic'
loop_
_space_group_symop_operation_xyz
x,y,z
-x,y,-z
-x,-y,-z
x,-y,z
1/2+x,1/2+y,z
1/2-x,1/2+y,-z
1/2-x,1/2-y,-z
1/2+x,1/2-y,z
loop_
_atom_site_type_symbol
_atom_site_label
_atom_site_fract_x
_atom_site_fract_y
_atom_site_fract_z
Si Si1 0.429452 0.943850 0.788997
Si Si2 0.605642 0.443029 0.348193
Si Si3 0.396416 0.740085 0.407906
Si Si4 0.249784 0.583579 0.414928
Si Si5 0.386041 0.348255 0.156252
Si Si6 0.737368 0.118680 0.936396
Si Si7 0.606211 0.849285 0.680399
O O1 0.342548 0.943999 0.666646
O O2 0.518868 0.897371 0.726213
O O3 0.480593 0.000000 0.791570
O O4 0.350261 0.925889 0.969095
O O5 0.500000 0.422118 0.500000
O O6 0.574118 0.500000 0.310251
O O7 0.714916 0.444377 0.436955
O O8 0.648909 0.408529 0.189124
O O9 0.500000 0.723885 0.500000
O O10 0.250000 0.750000 0.500000
O O11 0.396774 0.698576 0.269624
O O12 0.445657 0.794555 0.332020
O O13 0.362705 0.600764 0.265792
O O14 0.191541 0.635485 0.501514
O O15 0.500000 0.350215 0.000000
O O16 0.272574 0.348579 0.076083
O O17 0.677447 0.151204 0.820111
#
# Coordination Sequence:
#
# PCOD9199994 Si02
#       7
#     8   8   8   8   8   8   8
#     4  11  23  40  65 102 144 191 238 299 377 445
#     4  10  20  36  62  94 132 182 237 294 352 425
#     4  12  28  50  78 110 145 193 249 313 379 446
#     4  10  21  40  63  93 136 182 242 294 355 428
#     4  11  25  43  70 101 136 186 240 304 372 442
#     4  10  24  41  64  98 143 182 236 295 369 434
#     4  11  24  43  69  97 141 185 236 300 356 447
#
# _framework density 22.754773
#
# number of rings (size 3 to 8) (size 9 to 14) (size 15 to 20)
#    0.000    1.286    1.429    3.429    4.000    6.857 
#    0.000    0.000    0.000    6.857    0.000    0.000 
#    0.000    0.000    0.000    0.000    0.000    0.000 
#
# Total GULP energy -156333.995032 kJ/mol
# GULP energy per Si atom -5583.356965 kJ/mol
# Density = 2.270298 g / cm^3
# Si number density = 22.754773 Si / 1000 Ang^3
#
#
#
# Elastic Constant Matrix: (Units=GPa)
#
#
# Indices 1 2 3 4 5 6 
#
# 1 82.0179 30.7659 44.0980 0.0000 0.9891 0.0000
# 2 30.7659 120.4990 41.0520 0.0000 3.0210 0.0000
# 3 44.0980 41.0520 116.4433 0.0000 11.1337 0.0000
# 4 0.0000 0.0000 0.0000 9.8139 0.0000 -3.6261
# 5 0.9891 3.0210 11.1337 0.0000 39.3347 0.0000
# 6 0.0000 0.0000 0.0000 -3.6261 0.0000 16.6836
#
#
#
# Elastic Compliance Matrix: (Units=1/GPa)
#
#
# Indices 1 2 3 4 5 6 
#
# 1 0.015903 -0.002272 -0.005345 0.000000 0.001287 0.000000
# 2 -0.002272 0.009758 -0.002584 0.000000 0.000039 0.000000
# 3 -0.005345 -0.002584 0.011811 0.000000 -0.003010 0.000000
# 4 0.000000 0.000000 0.000000 0.110794 0.000000 0.024080
# 5 0.001287 0.000039 -0.003010 0.000000 0.026240 0.000000
# 6 0.000000 0.000000 0.000000 0.024080 0.000000 0.065173
#
#
# Mechanical properties :
#
#
# Convention : Reuss Voigt Hill
#
# Bulk Modulus (GPa) = 58.57762 61.19909 59.88836
# Shear Modulus (GPa) = 18.81339 26.70271 22.75805
#
# Velocity S-wave (km/s) = 2.87851 3.42935 3.16594
# Velocity P-wave (km/s) = 6.07015 6.52948 6.30400
#
# Compressibility (1/GPa) = 0.01707137
#
# Stress axis : x y z
#
# Youngs Moduli (GPa) = 62.88229 102.47944 84.66964
#
# Poissons Ratio (x) = 0.23281 0.45253
# Poissons Ratio (y) = 0.14285 0.21875
# Poissons Ratio (z) = 0.33609 0.26477
#
# Static dielectric constant tensor:
#      x y z
#    x 2.004900 0.000000 -0.022730 
#    y 0.000000 1.823040 0.000000 
#    z -0.022730 0.000000 1.850050 
# 
# From -- ./inp_files/53207.got.cif
#   From: 2010.05.17/outbox.cif.g08.bks.cpg/sg12_27_cif.got.tgz:53207.got - 2010.06.03 13:09:07.
