data_PCOD9199003
_publ_section_title
;
Structure prediction by ZEFSAII (Michael W. Deem and Ramdas Pophale) SiO2 
 PCOD9199003
Probable space group: C 2/M
;
_chemical_formula_sum "Si O2"
_cell_formula_units_Z 60
_cell_length_a 20.634722
_cell_length_b 7.447240
_cell_length_c 21.769656
_cell_angle_alpha 90.000000
_cell_angle_beta 126.917635
_cell_angle_gamma 90.000000
_cell_volume 2674.631209
_symmetry_space_group_name_H-M "C 2/M"
_symmetry_group_IT_number 12
_symmetry_cell_setting 'monoclinic'
loop_
_space_group_symop_operation_xyz
x,y,z
-x,y,-z
-x,-y,-z
x,-y,z
1/2+x,1/2+y,z
1/2-x,1/2+y,-z
1/2-x,1/2-y,-z
1/2+x,1/2-y,z
loop_
_atom_site_type_symbol
_atom_site_label
_atom_site_fract_x
_atom_site_fract_y
_atom_site_fract_z
Si Si1 0.314886 0.778509 0.374220
Si Si2 0.000000 0.252479 0.500000
Si Si3 0.191837 0.787286 0.410123
Si Si4 0.909715 0.285179 0.954926
Si Si5 0.384647 0.217488 0.200211
Si Si6 0.473950 0.288180 0.623481
Si Si7 0.243368 0.786225 0.203427
Si Si8 0.344764 0.214692 0.046507
O O1 0.403909 0.699072 0.438567
O O2 0.244224 0.724203 0.381660
O O3 0.282492 0.723475 0.289071
O O4 0.324871 0.000000 0.383052
O O5 0.990597 0.307451 0.567626
O O6 0.250000 0.750000 0.500000
O O7 0.104369 0.719463 0.383290
O O8 0.180456 0.000000 0.393743
O O9 0.914446 0.500000 0.963118
O O10 0.849565 0.252200 0.864124
O O11 0.872994 0.212368 0.997350
O O12 0.000000 0.214722 0.000000
O O13 0.451832 0.274749 0.287209
O O14 0.298346 0.278892 0.178289
O O15 0.391260 0.280998 0.133891
O O16 0.385955 0.000000 0.200107
O O17 0.462291 0.500000 0.600657
O O18 0.251226 0.000000 0.210013
O O19 0.356065 0.000000 0.051889
O O20 0.250000 0.250000 0.000000
#
# Coordination Sequence:
#
# PCOD9199003 Si02
#       8
#     8   4   8   8   8   8   8   8
#     4  10  21  36  59  86 115 152 196 240 283 337
#     4  12  20  36  60  84 115 152 197 240 285 338
#     4  10  21  39  57  79 111 148 188 233 283 335
#     4  10  22  39  59  86 119 153 187 230 287 350
#     4  10  21  37  58  85 115 147 188 236 280 336
#     4  11  24  38  56  85 118 148 186 238 290 339
#     4  10  20  37  58  87 117 148 192 240 284 333
#     4  10  20  36  59  84 111 145 186 229 275 334
#
# _framework density 22.432998999999999
#
# number of rings (size 3 to 8) (size 9 to 14) (size 15 to 20)
#    0.000    1.733    4.000    0.400    0.000    3.467 
#    0.000    0.667    0.000    0.000    0.000    0.000 
#    0.000    0.000    0.000    0.000    0.000    0.000 
#
# Total GULP energy -167210.869473 kJ/mol
# GULP energy per Si atom -5573.695649 kJ/mol
# Density = 2.238194 g / cm^3
# Si number density = 22.432999 Si / 1000 Ang^3
#
#
#
# Elastic Constant Matrix: (Units=GPa)
#
#
# Indices 1 2 3 4 5 6 
#
# 1 149.4344 6.2270 61.9339 0.0000 6.7922 0.0000
# 2 6.2270 80.4341 1.1703 0.0000 -7.4307 0.0000
# 3 61.9339 1.1703 187.4980 0.0000 3.9865 0.0000
# 4 0.0000 0.0000 0.0000 60.6294 0.0000 38.4396
# 5 6.7922 -7.4307 3.9865 0.0000 44.9459 0.0000
# 6 0.0000 0.0000 0.0000 38.4396 0.0000 24.0491
#
#
#
# Elastic Compliance Matrix: (Units=1/GPa)
#
#
# Indices 1 2 3 4 5 6 
#
# 1 0.007829 -0.000667 -0.002559 0.000000 -0.001066 0.000000
# 2 -0.000667 0.012685 0.000095 0.000000 0.002190 0.000000
# 3 -0.002559 0.000095 0.006181 0.000000 -0.000146 0.000000
# 4 0.000000 0.000000 0.000000 -1.231730 0.000000 1.968775
# 5 -0.001066 0.002190 -0.000146 0.000000 0.022785 0.000000
# 6 0.000000 0.000000 0.000000 1.968775 0.000000 -3.105273
#
#
# Mechanical properties :
#
#
# Convention : Reuss Voigt Hill
#
# Bulk Modulus (GPa) = 48.94396 61.78100 55.36248
# Shear Modulus (GPa) = -1.16974 49.12722 23.97874
#
# Velocity S-wave (km/s) = -0.72289 4.68477 3.27296
# Velocity P-wave (km/s) = 4.60092 7.54074 6.24625
#
# Compressibility (1/GPa) = 0.02043153
#
# Stress axis : x y z
#
# Youngs Moduli (GPa) = 127.73282 78.83261 161.77993
#
# Poissons Ratio (x) = 0.05261 0.41402
# Poissons Ratio (y) = 0.08525 -0.01532
# Poissons Ratio (z) = 0.32689 -0.00747
#
# Static dielectric constant tensor:
#      x y z
#    x 1.868660 0.000000 -0.002330 
#    y 0.000000 1.879160 0.000000 
#    z -0.002330 0.000000 1.775500 
# 
# From -- ./inp_files/320530.got.cif
#   From: 2010.05.17/outbox.cif.g08.bks.cpg/sg12_161_cif.got.tgz:320530.got - 2010.06.03 13:09:07.
