data_PCOD9199968
_publ_section_title
;
Structure prediction by ZEFSAII (Michael W. Deem and Ramdas Pophale) SiO2 
 PCOD9199968
Probable space group: C 2/M
;
_chemical_formula_sum "Si O2"
_cell_formula_units_Z 58
_cell_length_a 16.169896
_cell_length_b 26.829744
_cell_length_c 11.716833
_cell_angle_alpha 90.000000
_cell_angle_beta 25.210805
_cell_angle_gamma 90.000000
_cell_volume 2165.172664
_symmetry_space_group_name_H-M "C 2/M"
_symmetry_group_IT_number 12
_symmetry_cell_setting 'monoclinic'
loop_
_space_group_symop_operation_xyz
x,y,z
-x,y,-z
-x,-y,-z
x,-y,z
1/2+x,1/2+y,z
1/2-x,1/2+y,-z
1/2-x,1/2-y,-z
1/2+x,1/2-y,z
loop_
_atom_site_type_symbol
_atom_site_label
_atom_site_fract_x
_atom_site_fract_y
_atom_site_fract_z
Si Si1 0.007569 0.783185 0.241291
Si Si2 0.193002 0.230481 0.734230
Si Si3 0.271973 0.443495 0.064834
Si Si4 0.146145 0.575433 0.966384
Si Si5 0.500000 0.500000 0.500000
Si Si6 0.164694 0.325540 0.043994
Si Si7 0.784295 0.057038 0.456752
Si Si8 0.302193 0.869849 0.638226
O O1 0.127495 0.732487 0.061521
O O2 0.846256 0.791604 0.344807
O O3 0.878917 0.763677 0.507733
O O4 0.141339 0.825926 0.122677
O O5 0.194953 0.181287 0.808695
O O6 0.000000 0.260527 0.000000
O O7 0.242311 0.500000 0.143166
O O8 0.158941 0.437702 0.087275
O O9 0.503294 0.438813 0.751442
O O10 0.202026 0.405894 0.248659
O O11 0.326375 0.543013 0.697161
O O12 0.176833 0.634922 0.927046
O O13 0.918489 0.565126 0.221340
O O14 0.990675 0.344333 0.344126
O O15 0.788212 0.096668 0.349186
O O16 0.773873 0.000000 0.426849
#
# Coordination Sequence:
#
# PCOD9199968 Si02
#       8
#     8   8   8   8   2   8   8   8
#     4   9  20  42  62  90 135 168 225 274 341 409
#     4  10  20  36  62  92 128 174 210 278 334 404
#     4  11  22  39  63 100 139 180 214 268 342 417
#     4  11  24  44  69  91 131 177 231 294 340 391
#     4  12  24  52  70  90 128 182 248 292 338 400
#     4   9  21  41  64  93 126 180 215 279 334 409
#     4  10  20  37  59  92 135 170 211 273 327 404
#     4  10  21  35  59  98 135 172 213 257 338 420
#
# _framework density 26.787701999999999
#
# number of rings (size 3 to 8) (size 9 to 14) (size 15 to 20)
#    0.000    1.931    1.379    1.655    3.862    3.310 
#    7.448    6.207    0.000    0.000    0.000    0.000 
#    0.000    0.000    0.000    0.000    0.000    0.000 
#
# Total GULP energy -161795.944848 kJ/mol
# GULP energy per Si atom -5579.170512 kJ/mol
# Density = 2.672673 g / cm^3
# Si number density = 26.787702 Si / 1000 Ang^3
#
#
#
# Elastic Constant Matrix: (Units=GPa)
#
#
# Indices 1 2 3 4 5 6 
#
# 1 48.2872 10.8199 8.5161 0.0003 -10.5162 -0.0059
# 2 10.8199 139.0010 17.0223 0.0006 -15.3662 0.0001
# 3 8.5161 17.0223 115.1331 -0.0184 -30.2587 0.0150
# 4 0.0003 0.0006 -0.0184 34.8862 0.0045 -17.4099
# 5 -10.5162 -15.3662 -30.2587 0.0045 44.0273 0.0014
# 6 -0.0059 0.0001 0.0150 -17.4099 0.0014 12.4880
#
#
#
# Elastic Compliance Matrix: (Units=1/GPa)
#
#
# Indices 1 2 3 4 5 6 
#
# 1 0.022035 -0.001168 -0.000221 0.000014 0.004704 0.000030
# 2 -0.001168 0.007570 -0.000503 -0.000003 0.002018 -0.000004
# 3 -0.000221 -0.000503 0.010638 -0.000007 0.007083 -0.000023
# 4 0.000014 -0.000003 -0.000007 0.094210 -0.000016 0.131341
# 5 0.004704 0.002018 0.007083 -0.000016 0.029409 -0.000032
# 6 0.000030 -0.000004 -0.000023 0.131341 -0.000032 0.263184
#
#
# Mechanical properties :
#
#
# Convention : Reuss Voigt Hill
#
# Bulk Modulus (GPa) = 27.42837 41.68199 34.55518
# Shear Modulus (GPa) = 11.28717 36.01781 23.65249
#
# Velocity S-wave (km/s) = 2.05492 3.67081 2.97469
# Velocity P-wave (km/s) = 3.98644 5.79313 4.97253
#
# Compressibility (1/GPa) = 0.03645860
#
# Stress axis : x y z
#
# Youngs Moduli (GPa) = 45.38333 132.10572 94.00515
#
# Poissons Ratio (x) = 0.15432 0.02077
# Poissons Ratio (y) = 0.05301 0.04724
# Poissons Ratio (z) = 0.01003 0.06639
#
# Static dielectric constant tensor:
#      x y z
#    x 2.184040 0.000000 0.023680 
#    y 0.000000 2.122530 0.000000 
#    z 0.023680 0.000000 2.194460 
# 
# From -- ./inp_files/235811.got.cif
#   From: 2010.05.17/outbox.cif.g08.bks.cpg/sg12_118_cif.got.tgz:235811.got - 2010.06.03 13:09:07.
