data_PCOD9199754
_publ_section_title
;
Structure prediction by ZEFSAII (Michael W. Deem and Ramdas Pophale) SiO2 
 PCOD9199754
Probable space group: C 2/M
;
_chemical_formula_sum "Si O2"
_cell_formula_units_Z 40
_cell_length_a 7.975905
_cell_length_b 19.434154
_cell_length_c 17.848982
_cell_angle_alpha 90.000000
_cell_angle_beta 41.685239
_cell_angle_gamma 90.000000
_cell_volume 1839.947837
_symmetry_space_group_name_H-M "C 2/M"
_symmetry_group_IT_number 12
_symmetry_cell_setting 'monoclinic'
loop_
_space_group_symop_operation_xyz
x,y,z
-x,y,-z
-x,-y,-z
x,-y,z
1/2+x,1/2+y,z
1/2-x,1/2+y,-z
1/2-x,1/2-y,-z
1/2+x,1/2-y,z
loop_
_atom_site_type_symbol
_atom_site_label
_atom_site_fract_x
_atom_site_fract_y
_atom_site_fract_z
Si Si1 0.367951 0.191941 0.350318
Si Si2 0.568942 0.579381 0.233393
Si Si3 0.631961 0.339913 0.576682
Si Si4 0.575077 0.674137 0.857864
Si Si5 0.037259 0.328342 0.077928
O O1 0.347382 0.273345 0.376007
O O2 0.343639 0.159835 0.442117
O O3 0.628447 0.170184 0.224697
O O4 0.128018 0.170723 0.382123
O O5 0.583981 0.500000 0.208177
O O6 0.394613 0.593906 0.363109
O O7 0.469326 0.626353 0.199107
O O8 0.845069 0.610867 0.160017
O O9 0.534389 0.756289 0.859526
O O10 0.332565 0.656394 0.990118
O O11 0.000000 0.315790 0.000000
#
# Coordination Sequence:
#
# PCOD9199754 Si02
#       5
#     8   8   8   8   8
#     4  10  20  36  62  89 120 153 209 258 299 357
#     4  11  23  40  62  91 130 166 201 250 314 373
#     4  10  21  36  59  92 119 160 201 253 309 362
#     4  10  20  36  61  90 119 157 206 256 296 361
#     4   9  20  35  60  90 119 160 208 257 302 362
#
# _framework density 21.739747000000001
#
# number of rings (size 3 to 8) (size 9 to 14) (size 15 to 20)
#    0.000    2.000    2.000    1.200    2.800    6.000 
#    0.000    5.000    0.000    1.800    0.000    0.000 
#    0.000    0.000    0.000    0.000    0.000    0.000 
#
# Total GULP energy -111701.982183 kJ/mol
# GULP energy per Si atom -5585.099109 kJ/mol
# Density = 2.169027 g / cm^3
# Si number density = 21.739747 Si / 1000 Ang^3
#
#
#
# Elastic Constant Matrix: (Units=GPa)
#
#
# Indices 1 2 3 4 5 6 
#
# 1 74.3421 31.3191 15.6253 0.0000 -12.2745 0.0001
# 2 31.3191 98.0354 35.5163 0.0000 22.0861 0.0000
# 3 15.6253 35.5163 97.7415 -0.0001 -13.3748 0.0001
# 4 0.0000 0.0000 -0.0001 15.5040 0.0000 -2.2737
# 5 -12.2745 22.0861 -13.3748 0.0000 35.7979 -0.0001
# 6 0.0001 0.0000 0.0001 -2.2737 -0.0001 20.0693
#
#
#
# Elastic Compliance Matrix: (Units=1/GPa)
#
#
# Indices 1 2 3 4 5 6 
#
# 1 0.019599 -0.010354 0.002554 0.000000 0.014062 0.000000
# 2 -0.010354 0.021156 -0.008751 0.000000 -0.019872 0.000000
# 3 0.002554 -0.008751 0.014608 0.000000 0.011733 0.000000
# 4 0.000000 0.000000 0.000000 0.065589 0.000000 0.007431
# 5 0.014062 -0.019872 0.011733 0.000000 0.049401 0.000000
# 6 0.000000 0.000000 0.000000 0.007431 0.000000 0.050669
#
#
# Mechanical properties :
#
#
# Convention : Reuss Voigt Hill
#
# Bulk Modulus (GPa) = 44.92673 48.33781 46.63227
# Shear Modulus (GPa) = 19.11718 26.78481 22.95099
#
# Velocity S-wave (km/s) = 2.96863 3.51389 3.25270
# Velocity P-wave (km/s) = 5.69745 6.22465 5.96687
#
# Compressibility (1/GPa) = 0.02225847
#
# Stress axis : x y z
#
# Youngs Moduli (GPa) = 51.02427 47.26860 68.45416
#
# Poissons Ratio (x) = 0.48943 -0.17481
# Poissons Ratio (y) = 0.52832 0.59907
# Poissons Ratio (z) = -0.13030 0.41366
#
# Static dielectric constant tensor:
#      x y z
#    x 1.876100 0.000000 0.018810 
#    y 0.000000 1.712620 0.000000 
#    z 0.018810 0.000000 1.882250 
# 
# From -- ./inp_files/300570.got.cif
#   From: 2010.05.17/outbox.cif.g08.bks.cpg/sg12_151_cif.got.tgz:300570.got - 2010.06.03 13:09:07.
