data_PCOD9199007
_publ_section_title
;
Structure prediction by ZEFSAII (Michael W. Deem and Ramdas Pophale) SiO2 
 PCOD9199007
Probable space group: C 2/M
;
_chemical_formula_sum "Si O2"
_cell_formula_units_Z 64
_cell_length_a 28.095894
_cell_length_b 9.300650
_cell_length_c 24.443272
_cell_angle_alpha 90.000000
_cell_angle_beta 29.325091
_cell_angle_gamma 90.000000
_cell_volume 3128.258437
_symmetry_space_group_name_H-M "C 2/M"
_symmetry_group_IT_number 12
_symmetry_cell_setting 'monoclinic'
loop_
_space_group_symop_operation_xyz
x,y,z
-x,y,-z
-x,-y,-z
x,-y,z
1/2+x,1/2+y,z
1/2-x,1/2+y,-z
1/2-x,1/2-y,-z
1/2+x,1/2-y,z
loop_
_atom_site_type_symbol
_atom_site_label
_atom_site_fract_x
_atom_site_fract_y
_atom_site_fract_z
Si Si1 0.302950 0.667764 0.256962
Si Si2 0.385107 0.834347 0.278519
Si Si3 0.619332 0.164670 0.045221
Si Si4 0.206793 0.671315 0.843867
Si Si5 0.595455 0.670826 0.297283
Si Si6 0.602808 0.168034 0.514538
Si Si7 0.620008 0.663454 0.150746
Si Si8 0.116837 0.834204 0.611332
O O1 0.329793 0.500000 0.229642
O O2 0.353074 0.748717 0.257105
O O3 0.324768 0.744130 0.178000
O O4 0.187596 0.677711 0.385056
O O5 0.502404 0.834890 0.162717
O O6 0.350578 0.754732 0.368262
O O7 0.352483 0.000000 0.309265
O O8 0.652979 0.242947 0.066478
O O9 0.653566 0.000000 0.012719
O O10 0.654093 0.223367 0.952032
O O11 0.188283 0.500000 0.855740
O O12 0.321509 0.690327 0.741049
O O13 0.571908 0.500000 0.317324
O O14 0.497823 0.760431 0.403531
O O15 0.639606 0.711382 0.193346
O O16 0.637552 0.254008 0.533712
O O17 0.587883 0.000000 0.543469
O O18 0.652861 0.500000 0.110518
O O19 0.501543 0.663090 0.267647
O O20 0.149494 0.000000 0.579848
#
# Coordination Sequence:
#
# PCOD9199007 Si02
#       8
#     8   8   8   8   8   8   8   8
#     4  11  25  41  55  77 108 143 188 234 274 321
#     4  10  20  36  59  84 112 146 181 221 272 325
#     4   9  19  35  56  83 112 142 178 221 269 321
#     4  10  22  40  58  78 108 145 186 228 270 322
#     4   9  19  36  58  83 111 144 180 220 270 328
#     4  10  21  37  57  81 111 144 179 225 276 324
#     4   8  15  29  51  81 113 141 172 213 264 322
#     4   9  17  32  56  85 115 143 176 220 269 326
#
# _framework density 20.458669
#
# number of rings (size 3 to 8) (size 9 to 14) (size 15 to 20)
#    0.000    2.500    0.000    2.250    0.000    8.500 
#    0.000    5.000    0.000    0.000    0.000    0.000 
#    0.000    0.000    0.000    0.000    0.000    0.000 
#
# Total GULP energy -178786.683998 kJ/mol
# GULP energy per Si atom -5587.083875 kJ/mol
# Density = 2.041210 g / cm^3
# Si number density = 20.458669 Si / 1000 Ang^3
#
#
#
# Elastic Constant Matrix: (Units=GPa)
#
#
# Indices 1 2 3 4 5 6 
#
# 1 77.3952 36.4789 11.6173 -0.0045 17.9011 0.0008
# 2 36.4789 95.4859 22.0044 -0.0122 14.0405 0.0127
# 3 11.6173 22.0044 48.1792 -0.0063 7.8367 0.0111
# 4 -0.0045 -0.0122 -0.0063 25.1397 0.0043 6.1624
# 5 17.9011 14.0405 7.8367 0.0043 29.1841 -0.0068
# 6 0.0008 0.0127 0.0111 6.1624 -0.0068 26.5748
#
#
#
# Elastic Compliance Matrix: (Units=1/GPa)
#
#
# Indices 1 2 3 4 5 6 
#
# 1 0.017350 -0.005358 -0.000444 0.000002 -0.007946 0.000000
# 2 -0.005358 0.013922 -0.004718 0.000007 -0.002145 -0.000007
# 3 -0.000444 -0.004718 0.023637 0.000007 -0.003805 -0.000010
# 4 0.000002 0.000007 0.000007 0.042175 -0.000015 -0.009780
# 5 -0.007946 -0.002145 -0.003805 -0.000015 0.041192 0.000017
# 6 0.000000 -0.000007 -0.000010 -0.009780 0.000017 0.039897
#
#
# Mechanical properties :
#
#
# Convention : Reuss Voigt Hill
#
# Bulk Modulus (GPa) = 29.52500 40.14015 34.83258
# Shear Modulus (GPa) = 23.75259 26.24371 24.99815
#
# Velocity S-wave (km/s) = 3.41105 3.58546 3.49934
# Velocity P-wave (km/s) = 5.47508 6.06658 5.77840
#
# Compressibility (1/GPa) = 0.03386960
#
# Stress axis : x y z
#
# Youngs Moduli (GPa) = 57.63548 71.82797 42.30741
#
# Poissons Ratio (x) = 0.38484 0.01880
# Poissons Ratio (y) = 0.30880 0.19960
# Poissons Ratio (z) = 0.02560 0.33887
#
# Static dielectric constant tensor:
#      x y z
#    x 1.717700 0.000000 -0.036690 
#    y 0.000000 1.697270 0.000000 
#    z -0.036690 0.000000 1.757770 
# 
# From -- ./inp_files/353351.got.cif
#   From: 2010.05.17/outbox.cif.g08.bks.cpg/sg12_177_cif.got.tgz:353351.got - 2010.06.03 13:09:07.
