data_PCOD9199112
_publ_section_title
;
Structure prediction by ZEFSAII (Michael W. Deem and Ramdas Pophale) SiO2 
 PCOD9199112
Probable space group: C 2/M
;
_chemical_formula_sum "Si O2"
_cell_formula_units_Z 64
_cell_length_a 30.124903
_cell_length_b 7.602880
_cell_length_c 24.341742
_cell_angle_alpha 90.000000
_cell_angle_beta 29.818163
_cell_angle_gamma 90.000000
_cell_volume 2772.230805
_symmetry_space_group_name_H-M "C 2/M"
_symmetry_group_IT_number 12
_symmetry_cell_setting 'monoclinic'
loop_
_space_group_symop_operation_xyz
x,y,z
-x,y,-z
-x,-y,-z
x,-y,z
1/2+x,1/2+y,z
1/2-x,1/2+y,-z
1/2-x,1/2-y,-z
1/2+x,1/2-y,z
loop_
_atom_site_type_symbol
_atom_site_label
_atom_site_fract_x
_atom_site_fract_y
_atom_site_fract_z
Si Si1 0.358462 0.703107 0.001270
Si Si2 0.492506 0.709466 0.236829
Si Si3 0.835040 0.714882 0.754988
Si Si4 0.007712 0.288587 0.635079
Si Si5 0.492851 0.791232 0.072610
Si Si6 0.373422 0.799576 0.593391
Si Si7 0.295328 0.799498 0.285071
Si Si8 0.308610 0.709278 0.384785
O O1 0.338873 0.500000 0.008424
O O2 0.415266 0.779314 0.888963
O O3 0.428165 0.709109 0.977082
O O4 0.263637 0.779512 0.122521
O O5 0.493360 0.500000 0.226457
O O6 0.478917 0.735326 0.316220
O O7 0.407784 0.778006 0.293217
O O8 0.830755 0.500000 0.754499
O O9 0.907774 0.756897 0.722966
O O10 0.871603 0.779144 0.656417
O O11 0.018000 0.500000 0.624049
O O12 0.071929 0.220563 0.516744
O O13 0.393381 0.721699 0.189675
O O14 0.495314 0.000000 0.082248
O O15 0.500000 0.768648 0.000000
O O16 0.270621 0.798108 0.684329
O O17 0.406349 0.000000 0.563727
O O18 0.260485 0.795429 0.384404
O O19 0.304590 0.000000 0.254994
O O20 0.310632 0.500000 0.373877
O O21 0.250000 0.750000 0.500000
#
# Coordination Sequence:
#
# PCOD9199112 Si02
#       8
#     8   8   8   8   8   8   8   8
#     4  10  20  37  59  82 111 149 191 235 281 336
#     4  10  22  38  55  80 115 149 187 236 282 332
#     4   9  19  37  61  86 111 144 190 241 290 340
#     4  10  21  37  59  85 112 147 190 236 288 343
#     4  10  21  36  54  80 115 150 184 228 281 336
#     4  10  20  36  59  86 115 147 188 238 287 342
#     4  11  22  35  54  82 115 149 185 225 277 337
#     4  11  22  37  56  80 113 149 189 232 277 333
#
# _framework density 23.086102
#
# number of rings (size 3 to 8) (size 9 to 14) (size 15 to 20)
#    0.000    1.875    1.250    2.625    0.000    6.750 
#    0.000    1.250    0.000    1.500    0.000    0.000 
#    0.000    0.000    0.000    0.000    0.000    0.000 
#
# Total GULP energy -178678.495834 kJ/mol
# GULP energy per Si atom -5583.702995 kJ/mol
# Density = 2.303356 g / cm^3
# Si number density = 23.086102 Si / 1000 Ang^3
#
#
#
# Elastic Constant Matrix: (Units=GPa)
#
#
# Indices 1 2 3 4 5 6 
#
# 1 100.7800 -1.5202 13.7316 -0.0027 3.5156 -0.0056
# 2 -1.5202 55.6141 8.3528 0.0320 4.0066 -0.0036
# 3 13.7316 8.3528 96.2143 -0.0051 3.3709 -0.0135
# 4 -0.0027 0.0320 -0.0051 10.8024 -0.0081 2.4354
# 5 3.5156 4.0066 3.3709 -0.0081 34.3841 -0.0135
# 6 -0.0056 -0.0036 -0.0135 2.4354 -0.0135 1.4351
#
#
#
# Elastic Compliance Matrix: (Units=1/GPa)
#
#
# Indices 1 2 3 4 5 6 
#
# 1 0.010164 0.000567 -0.001466 -0.000008 -0.000962 0.000031
# 2 0.000567 0.018385 -0.001605 -0.000097 -0.002043 0.000177
# 3 -0.001466 -0.001605 0.010767 -0.000016 -0.000719 0.000113
# 4 -0.000008 -0.000097 -0.000016 0.149936 -0.000051 -0.254446
# 5 -0.000962 -0.002043 -0.000719 -0.000051 0.029490 0.000347
# 6 0.000031 0.000177 0.000113 -0.254446 0.000347 1.128635
#
#
# Mechanical properties :
#
#
# Convention : Reuss Voigt Hill
#
# Bulk Modulus (GPa) = 29.14769 32.63741 30.89255
# Shear Modulus (GPa) = 3.66617 24.79395 14.23006
#
# Velocity S-wave (km/s) = 1.26154 3.28071 2.48541
# Velocity P-wave (km/s) = 3.84383 5.34029 4.65262
#
# Compressibility (1/GPa) = 0.03430804
#
# Stress axis : x y z
#
# Youngs Moduli (GPa) = 98.38178 54.39244 92.87389
#
# Poissons Ratio (x) = -0.03086 0.13617
# Poissons Ratio (y) = -0.05582 0.14910
# Poissons Ratio (z) = 0.14425 0.08732
#
# Static dielectric constant tensor:
#      x y z
#    x 1.835850 -0.000010 0.041930 
#    y -0.000010 1.910650 0.000010 
#    z 0.041930 0.000010 2.005550 
# 
# From -- ./inp_files/250021.got.cif
#   From: 2010.05.17/outbox.cif.g08.bks.cpg/sg12_126_cif.got.tgz:250021.got - 2010.06.03 13:09:07.
