data_PCOD9199044
_publ_section_title
;
Structure prediction by ZEFSAII (Michael W. Deem and Ramdas Pophale) SiO2 
 PCOD9199044
Probable space group: C 2/M
;
_chemical_formula_sum "Si O2"
_cell_formula_units_Z 48
_cell_length_a 16.463030
_cell_length_b 9.120393
_cell_length_c 21.632792
_cell_angle_alpha 90.000000
_cell_angle_beta 125.331562
_cell_angle_gamma 90.000000
_cell_volume 2649.901864
_symmetry_space_group_name_H-M "C 2/M"
_symmetry_group_IT_number 12
_symmetry_cell_setting 'monoclinic'
loop_
_space_group_symop_operation_xyz
x,y,z
-x,y,-z
-x,-y,-z
x,-y,z
1/2+x,1/2+y,z
1/2-x,1/2+y,-z
1/2-x,1/2-y,-z
1/2+x,1/2-y,z
loop_
_atom_site_type_symbol
_atom_site_label
_atom_site_fract_x
_atom_site_fract_y
_atom_site_fract_z
Si Si1 0.280667 0.824711 0.415154
Si Si2 0.364535 0.323993 0.327449
Si Si3 0.899478 0.824776 0.578760
Si Si4 0.683872 0.170504 0.020483
Si Si5 0.000726 0.159049 0.925456
Si Si6 0.277913 0.327778 0.832635
O O1 0.319653 0.744135 0.370869
O O2 0.166909 0.794809 0.388782
O O3 0.349072 0.767074 0.501564
O O4 0.290384 0.000000 0.411397
O O5 0.352743 0.500000 0.323411
O O6 0.482506 0.293457 0.369179
O O7 0.302109 0.251891 0.244675
O O8 0.887934 0.000000 0.561301
O O9 0.707937 0.247065 0.096069
O O10 0.701408 0.000000 0.033084
O O11 0.750000 0.250000 0.000000
O O12 0.572478 0.205485 0.947863
O O13 0.889183 0.178299 0.852632
O O14 0.039970 0.000000 0.920412
O O15 0.000000 0.147495 0.000000
O O16 0.254858 0.500000 0.831356
#
# Coordination Sequence:
#
# PCOD9199044 Si02
#       6
#     8   8   8   8   8   8
#     4  10  20  36  59  85 112 149 194 238 286 340
#     4  11  22  37  57  83 117 155 191 233 289 347
#     4   9  20  38  58  82 115 152 190 235 285 341
#     4  11  21  35  57  83 110 143 185 229 275 331
#     4   8  16  33  55  76 102 137 174 218 270 322
#     4  10  21  38  57  80 111 145 183 230 282 336
#
# _framework density 18.113878
#
# number of rings (size 3 to 8) (size 9 to 14) (size 15 to 20)
#    0.000    2.167    0.000    4.500    0.000    7.667 
#    3.000    0.000    0.000    0.000    0.000    0.000 
#    0.000    0.000    0.000    0.000    0.000    0.000 
#
# Total GULP energy -133728.893994 kJ/mol
# GULP energy per Si atom -5572.037250 kJ/mol
# Density = 1.807265 g / cm^3
# Si number density = 18.113878 Si / 1000 Ang^3
#
#
#
# Elastic Constant Matrix: (Units=GPa)
#
#
# Indices 1 2 3 4 5 6 
#
# 1 121.5094 80.0811 62.1809 0.0000 10.8974 0.0000
# 2 80.0811 132.7953 62.9499 0.0000 6.2178 0.0000
# 3 62.1809 62.9499 85.3205 0.0000 16.1414 0.0000
# 4 0.0000 0.0000 0.0000 31.2957 0.0000 -0.2930
# 5 10.8974 6.2178 16.1414 0.0000 18.6691 0.0000
# 6 0.0000 0.0000 0.0000 -0.2930 0.0000 29.8960
#
#
#
# Elastic Compliance Matrix: (Units=1/GPa)
#
#
# Indices 1 2 3 4 5 6 
#
# 1 0.015995 -0.006432 -0.006636 0.000000 -0.001457 0.000000
# 2 -0.006432 0.014452 -0.006904 0.000000 0.004911 0.000000
# 3 -0.006636 -0.006904 0.024489 0.000000 -0.015000 0.000000
# 4 0.000000 0.000000 0.000000 0.031956 0.000000 0.000313
# 5 -0.001457 0.004911 -0.015000 0.000000 0.065748 0.000000
# 6 0.000000 0.000000 0.000000 0.000313 0.000000 0.033452
#
#
# Mechanical properties :
#
#
# Convention : Reuss Voigt Hill
#
# Bulk Modulus (GPa) = 66.70496 83.33875 75.02186
# Shear Modulus (GPa) = 21.64172 24.93305 23.28739
#
# Velocity S-wave (km/s) = 3.46028 3.71409 3.58943
# Velocity P-wave (km/s) = 7.27117 8.03124 7.66064
#
# Compressibility (1/GPa) = 0.01499139
#
# Stress axis : x y z
#
# Youngs Moduli (GPa) = 62.51788 69.19437 40.83498
#
# Poissons Ratio (x) = 0.44505 0.27099
# Poissons Ratio (y) = 0.40211 0.28194
# Poissons Ratio (z) = 0.41489 0.47774
#
# Static dielectric constant tensor:
#      x y z
#    x 1.661550 0.000000 0.033410 
#    y 0.000000 1.741820 0.000000 
#    z 0.033410 0.000000 1.597740 
# 
# From -- ./inp_files/314494.got.cif
#   From: 2010.05.17/outbox.cif.g08.bks.cpg/sg12_158_cif.got.tgz:314494.got - 2010.06.03 13:09:07.
