data_PCOD9199692
_publ_section_title
;
Structure prediction by ZEFSAII (Michael W. Deem and Ramdas Pophale) SiO2 
 PCOD9199692
Probable space group: C 2/M
;
_chemical_formula_sum "Si O2"
_cell_formula_units_Z 44
_cell_length_a 10.761573
_cell_length_b 27.657632
_cell_length_c 8.939292
_cell_angle_alpha 90.000000
_cell_angle_beta 57.879605
_cell_angle_gamma 90.000000
_cell_volume 2253.423300
_symmetry_space_group_name_H-M "C 2/M"
_symmetry_group_IT_number 12
_symmetry_cell_setting 'monoclinic'
loop_
_space_group_symop_operation_xyz
x,y,z
-x,y,-z
-x,-y,-z
x,-y,z
1/2+x,1/2+y,z
1/2-x,1/2+y,-z
1/2-x,1/2-y,-z
1/2+x,1/2-y,z
loop_
_atom_site_type_symbol
_atom_site_label
_atom_site_fract_x
_atom_site_fract_y
_atom_site_fract_z
Si Si1 0.274455 0.787998 0.703615
Si Si2 0.000000 0.632355 0.000000
Si Si3 0.782878 0.554026 0.015146
Si Si4 0.162786 0.894119 0.823981
Si Si5 0.951758 0.713626 0.279341
Si Si6 0.461601 0.555103 0.364676
O O1 0.221381 0.840127 0.790653
O O2 0.137858 0.752791 0.760223
O O3 0.391976 0.769474 0.751439
O O4 0.355664 0.794960 0.491192
O O5 0.027649 0.666912 0.839190
O O6 0.867381 0.595860 0.048718
O O7 0.846481 0.500000 0.987641
O O8 0.765610 0.570902 0.855061
O O9 0.617184 0.551769 0.182010
O O10 0.145866 0.913720 0.667221
O O11 0.000000 0.894796 0.000000
O O12 0.500000 0.576937 0.500000
O O13 0.405586 0.500000 0.421261
#
# Coordination Sequence:
#
# PCOD9199692 Si02
#       6
#     8   4   8   8   8   8
#     4  10  22  44  60  88 118 161 193 255 303 362
#     4  12  23  38  62  90 116 162 197 248 294 366
#     4  10  21  38  58  86 123 160 199 243 296 351
#     4  10  20  36  61  87 116 157 199 242 298 358
#     4  10  24  41  64  84 123 153 204 246 307 359
#     4   9  19  35  57  86 117 152 199 250 294 349
#
# _framework density 19.525849000000001
#
# number of rings (size 3 to 8) (size 9 to 14) (size 15 to 20)
#    0.000    2.000    1.818    0.818    3.818    5.818 
#    3.273    0.000    0.000    1.091    0.000    0.000 
#    0.000    0.000    0.000    0.000    0.000    0.000 
#
# Total GULP energy -122713.206777 kJ/mol
# GULP energy per Si atom -5577.873035 kJ/mol
# Density = 1.948141 g / cm^3
# Si number density = 19.525849 Si / 1000 Ang^3
#
#
#
# Elastic Constant Matrix: (Units=GPa)
#
#
# Indices 1 2 3 4 5 6 
#
# 1 126.6550 56.5807 26.6298 0.0000 27.4481 0.0000
# 2 56.5807 105.8662 25.7643 0.0000 9.8154 0.0000
# 3 26.6298 25.7643 33.5434 0.0000 21.9369 0.0000
# 4 0.0000 0.0000 0.0000 26.5275 0.0000 4.7576
# 5 27.4481 9.8154 21.9369 0.0000 26.6766 0.0000
# 6 0.0000 0.0000 0.0000 4.7576 0.0000 -74.1096
#
#
#
# Elastic Compliance Matrix: (Units=1/GPa)
#
#
# Indices 1 2 3 4 5 6 
#
# 1 0.013156 -0.006709 0.004213 0.000000 -0.014532 0.000000
# 2 -0.006709 0.015607 -0.016054 0.000000 0.014363 0.000000
# 3 0.004213 -0.016054 0.081717 0.000000 -0.065626 0.000000
# 4 0.000000 0.000000 0.000000 0.037268 0.000000 0.002392
# 5 -0.014532 0.014363 -0.065626 0.000000 0.101120 0.000000
# 6 0.000000 0.000000 0.000000 0.002392 0.000000 -0.013340
#
#
# Mechanical properties :
#
#
# Convention : Reuss Voigt Hill
#
# Bulk Modulus (GPa) = 13.62794 53.77935 33.70364
# Shear Modulus (GPa) = 16.82995 6.29155 11.56075
#
# Velocity S-wave (km/s) = 2.93905 1.79699 2.43590
# Velocity P-wave (km/s) = 4.30255 5.64871 5.02095
#
# Compressibility (1/GPa) = 0.07337868
#
# Stress axis : x y z
#
# Youngs Moduli (GPa) = 76.00849 64.07326 12.23738
#
# Poissons Ratio (x) = 0.42989 -0.05155
# Poissons Ratio (y) = 0.50997 0.19646
# Poissons Ratio (z) = -0.32020 1.02864
#
# Static dielectric constant tensor:
#      x y z
#    x 1.697320 0.000000 0.009600 
#    y 0.000000 1.651820 0.000000 
#    z 0.009600 0.000000 1.697790 
# 
# From -- ./inp_files/51211.got.cif
#   From: 2010.05.17/outbox.cif.g08.bks.cpg/sg12_26_cif.got.tgz:51211.got - 2010.06.03 13:09:07.
