data_PCOD9199948
_publ_section_title
;
Structure prediction by ZEFSAII (Michael W. Deem and Ramdas Pophale) SiO2 
 PCOD9199948
Probable space group: C 2/M
;
_chemical_formula_sum "Si O2"
_cell_formula_units_Z 40
_cell_length_a 11.469201
_cell_length_b 15.012323
_cell_length_c 11.986485
_cell_angle_alpha 90.000000
_cell_angle_beta 119.957224
_cell_angle_gamma 90.000000
_cell_volume 1788.094958
_symmetry_space_group_name_H-M "C 2/M"
_symmetry_group_IT_number 12
_symmetry_cell_setting 'monoclinic'
loop_
_space_group_symop_operation_xyz
x,y,z
-x,y,-z
-x,-y,-z
x,-y,z
1/2+x,1/2+y,z
1/2-x,1/2+y,-z
1/2-x,1/2-y,-z
1/2+x,1/2-y,z
loop_
_atom_site_type_symbol
_atom_site_label
_atom_site_fract_x
_atom_site_fract_y
_atom_site_fract_z
Si Si1 0.347544 0.406259 0.380373
Si Si2 0.112732 0.602020 0.712012
Si Si3 0.765924 0.846130 0.563968
Si Si4 0.059202 0.210092 0.758787
Si Si5 0.138007 0.900586 0.998169
O O1 0.500000 0.403106 0.500000
O O2 0.326599 0.500000 0.310262
O O3 0.260885 0.404722 0.450448
O O4 0.343375 0.324080 0.294517
O O5 0.061122 0.500000 0.690153
O O6 0.163250 0.625263 0.610819
O O7 0.029684 0.686337 0.719803
O O8 0.241851 0.605388 0.855956
O O9 0.750000 0.750000 0.500000
O O10 0.917920 0.843762 0.686249
O O11 0.131178 0.178627 0.905589
O O12 0.146180 0.000000 0.949293
O O13 0.000000 0.896746 0.000000
#
# Coordination Sequence:
#
# PCOD9199948 Si02
#       5
#     8   8   8   8   8
#     4   9  18  31  53  81 108 142 186 238 288 331
#     4  11  23  39  61  88 121 159 196 241 297 356
#     4  11  21  37  57  82 119 158 197 238 288 352
#     4  11  21  37  61  85 119 151 195 247 294 348
#     4  10  20  36  62  92 114 147 199 250 300 347
#
# _framework density 22.370176000000001
#
# number of rings (size 3 to 8) (size 9 to 14) (size 15 to 20)
#    0.000    1.600    4.000    1.800    0.000    1.600 
#    0.000    3.000    0.000    0.600    0.000    0.000 
#    0.000    0.000    0.000    0.000    0.000    0.000 
#
# Total GULP energy -111588.929709 kJ/mol
# GULP energy per Si atom -5579.446485 kJ/mol
# Density = 2.231926 g / cm^3
# Si number density = 22.370176 Si / 1000 Ang^3
#
#
#
# Elastic Constant Matrix: (Units=GPa)
#
#
# Indices 1 2 3 4 5 6 
#
# 1 44.7411 18.7236 30.0302 0.0000 -2.9171 0.0000
# 2 18.7236 149.4723 35.1411 0.0000 -20.9347 0.0000
# 3 30.0302 35.1411 87.5965 0.0000 -21.3789 0.0000
# 4 0.0000 0.0000 0.0000 29.6807 0.0000 -7.7211
# 5 -2.9171 -20.9347 -21.3789 0.0000 30.4440 0.0000
# 6 0.0000 0.0000 0.0000 -7.7211 0.0000 17.6037
#
#
#
# Elastic Compliance Matrix: (Units=1/GPa)
#
#
# Indices 1 2 3 4 5 6 
#
# 1 0.030239 -0.002067 -0.011075 0.000000 -0.006301 0.000000
# 2 -0.002067 0.007874 -0.001421 0.000000 0.004219 0.000000
# 3 -0.011075 -0.001421 0.018447 0.000000 0.010916 0.000000
# 4 0.000000 0.000000 0.000000 0.038031 0.000000 0.016681
# 5 -0.006301 0.004219 0.010916 0.000000 0.042810 0.000000
# 6 0.000000 0.000000 0.000000 0.016681 0.000000 0.064122
#
#
# Mechanical properties :
#
#
# Convention : Reuss Voigt Hill
#
# Bulk Modulus (GPa) = 36.45065 49.95554 43.20309
# Shear Modulus (GPa) = 20.85130 28.74001 24.79565
#
# Velocity S-wave (km/s) = 3.05635 3.58823 3.33291
# Velocity P-wave (km/s) = 5.36514 6.28864 5.84515
#
# Compressibility (1/GPa) = 0.02743436
#
# Stress axis : x y z
#
# Youngs Moduli (GPa) = 33.07035 127.00118 54.20933
#
# Poissons Ratio (x) = 0.26245 0.60039
# Poissons Ratio (y) = 0.06834 0.07701
# Poissons Ratio (z) = 0.36627 0.18043
#
# Static dielectric constant tensor:
#      x y z
#    x 1.855910 0.000000 0.015430 
#    y 0.000000 1.948340 0.000000 
#    z 0.015430 0.000000 1.816800 
# 
# From -- ./inp_files/129152.got.cif
#   From: 2010.05.17/outbox.cif.g08.bks.cpg/sg12_65_cif.got.tgz:129152.got - 2010.06.03 13:09:07.
