data_PCOD9199824
_publ_section_title
;
Structure prediction by ZEFSAII (Michael W. Deem and Ramdas Pophale) SiO2 
 PCOD9199824
Probable space group: C 2/M
;
_chemical_formula_sum "Si O2"
_cell_formula_units_Z 40
_cell_length_a 9.523895
_cell_length_b 25.139664
_cell_length_c 16.897375
_cell_angle_alpha 90.000000
_cell_angle_beta 28.496260
_cell_angle_gamma 90.000000
_cell_volume 1930.207486
_symmetry_space_group_name_H-M "C 2/M"
_symmetry_group_IT_number 12
_symmetry_cell_setting 'monoclinic'
loop_
_space_group_symop_operation_xyz
x,y,z
-x,y,-z
-x,-y,-z
x,-y,z
1/2+x,1/2+y,z
1/2-x,1/2+y,-z
1/2-x,1/2-y,-z
1/2+x,1/2-y,z
loop_
_atom_site_type_symbol
_atom_site_label
_atom_site_fract_x
_atom_site_fract_y
_atom_site_fract_z
Si Si1 0.152344 0.500000 0.337226
Si Si2 0.635749 0.000000 0.022219
Si Si3 0.434132 0.224966 0.167708
Si Si4 0.923375 0.714666 0.352421
Si Si5 0.154720 0.395499 0.838141
Si Si6 0.640365 0.107918 0.518235
O O1 0.508651 0.500000 0.159564
O O2 0.000000 0.500000 0.500000
O O3 0.024562 0.555293 0.367904
O O4 0.500000 0.000000 0.000000
O O5 0.501099 0.946145 0.126169
O O6 0.327958 0.226992 0.310969
O O7 0.413512 0.162337 0.161845
O O8 0.244149 0.260581 0.203010
O O9 0.750000 0.250000 0.000000
O O10 0.750000 0.750000 0.500000
O O11 0.900663 0.655217 0.398134
O O12 0.508996 0.402219 0.666823
O O13 0.000000 0.393587 0.000000
O O14 0.500000 0.120707 0.500000
#
# Coordination Sequence:
#
# PCOD9199824 Si02
#       6
#     4   4   8   8   8   8
#     4  10  20  36  61  94 127 169 220 264 320 382
#     4  10  20  36  61  92 131 169 216 266 318 388
#     4  12  27  44  65  97 130 174 213 269 324 389
#     4  12  25  44  67  95 132 168 218 264 324 382
#     4  11  22  39  64  94 132 171 217 265 324 384
#     4  11  22  38  66  94 130 171 218 268 319 384
#
# _framework density 20.72316
#
# number of rings (size 3 to 8) (size 9 to 14) (size 15 to 20)
#    0.000    0.800    2.000    9.000    5.600    0.000 
#    0.000    1.000    0.000    3.600    0.000    0.000 
#    0.000    0.000    0.000    0.000    0.000    0.000 
#
# Total GULP energy -111580.545396 kJ/mol
# GULP energy per Si atom -5579.027270 kJ/mol
# Density = 2.067599 g / cm^3
# Si number density = 20.723160 Si / 1000 Ang^3
#
#
#
# Elastic Constant Matrix: (Units=GPa)
#
#
# Indices 1 2 3 4 5 6 
#
# 1 52.1688 31.0208 24.6132 0.0001 5.2146 0.0015
# 2 31.0208 145.5913 68.1794 -0.0038 -13.9904 0.0023
# 3 24.6132 68.1794 140.7967 -0.0245 -37.8314 0.0102
# 4 0.0001 -0.0038 -0.0245 43.6645 -0.0030 -4.6008
# 5 5.2146 -13.9904 -37.8314 -0.0030 42.3073 0.0006
# 6 0.0015 0.0023 0.0102 -4.6008 0.0006 38.0519
#
#
#
# Elastic Compliance Matrix: (Units=1/GPa)
#
#
# Indices 1 2 3 4 5 6 
#
# 1 0.024524 -0.003834 -0.004717 -0.000004 -0.008508 0.000000
# 2 -0.003834 0.009529 -0.003910 -0.000001 0.000128 0.000000
# 3 -0.004717 -0.003910 0.012674 0.000007 0.010622 -0.000002
# 4 -0.000004 -0.000001 0.000007 0.023197 0.000008 0.002805
# 5 -0.008508 0.000128 0.010622 0.000008 0.034225 -0.000002
# 6 0.000000 0.000000 -0.000002 0.002805 -0.000002 0.026619
#
#
# Mechanical properties :
#
#
# Convention : Reuss Voigt Hill
#
# Bulk Modulus (GPa) = 45.85850 65.13149 55.49500
# Shear Modulus (GPa) = 30.68270 39.12098 34.90184
#
# Velocity S-wave (km/s) = 3.85203 4.34958 4.10835
# Velocity P-wave (km/s) = 6.47776 7.53145 7.02439
#
# Compressibility (1/GPa) = 0.02180621
#
# Stress axis : x y z
#
# Youngs Moduli (GPa) = 40.77609 104.94772 78.90062
#
# Poissons Ratio (x) = 0.40238 0.37215
# Poissons Ratio (y) = 0.15634 0.30847
# Poissons Ratio (z) = 0.19233 0.41030
#
# Static dielectric constant tensor:
#      x y z
#    x 1.707750 -0.000010 -0.005520 
#    y -0.000010 1.710140 0.000030 
#    z -0.005520 0.000030 1.765010 
# 
# From -- ./inp_files/259654.got.cif
#   From: 2010.05.17/outbox.cif.g08.bks.cpg/sg12_130_cif.got.tgz:259654.got - 2010.06.03 13:09:07.
