data_PCOD9199552
_publ_section_title
;
Structure prediction by ZEFSAII (Michael W. Deem and Ramdas Pophale) SiO2 
 PCOD9199552
Probable space group: C 2/M
;
_chemical_formula_sum "Si O2"
_cell_formula_units_Z 64
_cell_length_a 14.790705
_cell_length_b 9.033256
_cell_length_c 28.481614
_cell_angle_alpha 90.000000
_cell_angle_beta 126.423877
_cell_angle_gamma 90.000000
_cell_volume 3061.983731
_symmetry_space_group_name_H-M "C 2/M"
_symmetry_group_IT_number 12
_symmetry_cell_setting 'monoclinic'
loop_
_space_group_symop_operation_xyz
x,y,z
-x,y,-z
-x,-y,-z
x,-y,z
1/2+x,1/2+y,z
1/2-x,1/2+y,-z
1/2-x,1/2-y,-z
1/2+x,1/2-y,z
loop_
_atom_site_type_symbol
_atom_site_label
_atom_site_fract_x
_atom_site_fract_y
_atom_site_fract_z
Si Si1 0.762866 0.828741 0.859196
Si Si2 0.120660 0.325057 0.899625
Si Si3 0.084693 0.825602 0.622844
Si Si4 0.020021 0.825992 0.953916
Si Si5 0.356524 0.824723 0.556954
Si Si6 0.928594 0.823827 0.777318
Si Si7 0.710647 0.674066 0.754064
Si Si8 0.168948 0.676728 0.340701
O O1 0.733955 0.799889 0.904759
O O2 0.895874 0.813840 0.892763
O O3 0.696496 0.723676 0.803201
O O4 0.731505 0.000000 0.840331
O O5 0.103678 0.500000 0.899466
O O6 0.106437 0.251136 0.945739
O O7 0.026578 0.257042 0.836085
O O8 0.110788 0.801991 0.686350
O O9 0.201305 0.786919 0.632695
O O10 0.974882 0.736734 0.574742
O O11 0.064875 0.000000 0.609311
O O12 0.048941 0.000000 0.966869
O O13 0.000000 0.765529 0.000000
O O14 0.250000 0.750000 0.500000
O O15 0.351268 0.793410 0.611114
O O16 0.350816 0.000000 0.548717
O O17 0.812792 0.773133 0.766361
O O18 0.912122 0.765582 0.719214
O O19 0.942883 0.000000 0.783503
O O20 0.740040 0.500000 0.760712
O O21 0.154888 0.500000 0.327459
#
# Coordination Sequence:
#
# PCOD9199552 Si02
#       8
#     8   8   8   8   8   8   8   8
#     4  10  22  38  58  87 122 160 198 245 300 357
#     4  11  23  38  58  88 122 158 202 247 298 357
#     4   9  20  39  60  85 118 154 197 242 295 353
#     4  10  22  42  64  86 118 161 206 253 303 355
#     4  11  24  41  62  87 119 158 203 247 297 353
#     4  11  21  35  59  89 122 157 197 246 303 357
#     4  10  20  36  60  89 123 159 196 243 300 362
#     4   9  21  41  61  85 118 160 198 240 299 360
#
# _framework density 20.901482999999999
#
# number of rings (size 3 to 8) (size 9 to 14) (size 15 to 20)
#    0.000    1.875    1.250    3.000    1.750    5.750 
#    0.000    2.500    0.000    0.000    0.000    0.000 
#    0.000    0.000    0.000    0.000    0.000    0.000 
#
# Total GULP energy -178819.155334 kJ/mol
# GULP energy per Si atom -5588.098604 kJ/mol
# Density = 2.085391 g / cm^3
# Si number density = 20.901483 Si / 1000 Ang^3
#
#
#
# Elastic Constant Matrix: (Units=GPa)
#
#
# Indices 1 2 3 4 5 6 
#
# 1 67.0733 23.7022 -1.5985 0.0000 -3.5846 0.0000
# 2 23.7022 44.5257 18.4082 0.0000 -8.2709 0.0000
# 3 -1.5985 18.4082 30.9830 0.0000 4.5807 0.0000
# 4 0.0000 0.0000 0.0000 30.1905 0.0000 -7.4045
# 5 -3.5846 -8.2709 4.5807 0.0000 20.6257 0.0000
# 6 0.0000 0.0000 0.0000 -7.4045 0.0000 27.1593
#
#
#
# Elastic Compliance Matrix: (Units=1/GPa)
#
#
# Indices 1 2 3 4 5 6 
#
# 1 0.021037 -0.017427 0.012337 0.000000 -0.006072 0.000000
# 2 -0.017427 0.050758 -0.034759 0.000000 0.025045 0.000000
# 3 0.012337 -0.034759 0.057186 0.000000 -0.024494 0.000000
# 4 0.000000 0.000000 0.000000 0.035497 0.000000 0.009677
# 5 -0.006072 0.025045 -0.024494 0.000000 0.062911 0.000000
# 6 0.000000 0.000000 0.000000 0.009677 0.000000 0.039458
#
#
# Mechanical properties :
#
#
# Convention : Reuss Voigt Hill
#
# Bulk Modulus (GPa) = 20.29124 24.84510 22.56817
# Shear Modulus (GPa) = 13.77516 22.39977 18.08747
#
# Velocity S-wave (km/s) = 2.56999 3.27721 2.94490
# Velocity P-wave (km/s) = 4.30529 5.12179 4.73119
#
# Compressibility (1/GPa) = 0.04928234
#
# Stress axis : x y z
#
# Youngs Moduli (GPa) = 47.53569 19.70116 17.48694
#
# Poissons Ratio (x) = 0.34333 -0.21574
# Poissons Ratio (y) = 0.82840 0.60784
# Poissons Ratio (z) = -0.58645 0.68480
#
# Static dielectric constant tensor:
#      x y z
#    x 1.789170 0.000000 -0.022430 
#    y 0.000000 1.697040 0.000000 
#    z -0.022430 0.000000 1.749600 
# 
# From -- ./inp_files/375562.got.cif
#   From: 2010.05.17/outbox.cif.g08.bks.cpg/sg12_188_cif.got.tgz:375562.got - 2010.06.03 13:09:07.
