data_PCOD9199338
_publ_section_title
;
Structure prediction by ZEFSAII (Michael W. Deem and Ramdas Pophale) SiO2 
 PCOD9199338
Probable space group: C 2/M
;
_chemical_formula_sum "Si O2"
_cell_formula_units_Z 48
_cell_length_a 16.572067
_cell_length_b 16.391643
_cell_length_c 11.606999
_cell_angle_alpha 90.000000
_cell_angle_beta 40.872883
_cell_angle_gamma 90.000000
_cell_volume 2063.246556
_symmetry_space_group_name_H-M "C 2/M"
_symmetry_group_IT_number 12
_symmetry_cell_setting 'monoclinic'
loop_
_space_group_symop_operation_xyz
x,y,z
-x,y,-z
-x,-y,-z
x,-y,z
1/2+x,1/2+y,z
1/2-x,1/2+y,-z
1/2-x,1/2-y,-z
1/2+x,1/2-y,z
loop_
_atom_site_type_symbol
_atom_site_label
_atom_site_fract_x
_atom_site_fract_y
_atom_site_fract_z
Si Si1 0.952769 0.877696 0.668087
Si Si2 0.071874 0.871544 0.768263
Si Si3 0.804958 0.086234 0.037657
Si Si4 0.609927 0.187170 0.797879
Si Si5 0.164867 0.274163 0.315115
Si Si6 0.150742 0.406738 0.515532
O O1 0.936912 0.882354 0.359904
O O2 0.838503 0.910845 0.865652
O O3 0.916372 0.786142 0.673642
O O4 0.000000 0.915795 0.500000
O O5 0.066575 0.775609 0.798143
O O6 0.201330 0.906542 0.667383
O O7 0.941337 0.908307 0.947660
O O8 0.744769 0.000000 0.131423
O O9 0.732684 0.164541 0.155064
O O10 0.735078 0.214047 0.730170
O O11 0.630516 0.128229 0.666480
O O12 0.500000 0.157098 0.000000
O O13 0.108187 0.336645 0.471549
O O14 0.104851 0.500000 0.552636
#
# Coordination Sequence:
#
# PCOD9199338 Si02
#       6
#     8   8   8   8   8   8
#     4  10  20  36  60  84 115 163 200 238 283 354
#     4   9  20  37  59  88 119 154 196 239 293 357
#     4  10  21  35  58  90 122 149 188 249 301 335
#     4  11  20  38  60  87 115 157 205 235 290 360
#     4  11  21  38  61  85 119 162 201 236 287 360
#     4  11  23  37  61  91 121 152 194 252 301 340
#
# _framework density 23.264306000000001
#
# number of rings (size 3 to 8) (size 9 to 14) (size 15 to 20)
#    1.000    0.667    1.667    5.500    0.000    0.667 
#    0.000    3.333    0.000   13.000    0.000    0.000 
#    0.000    0.000    0.000    0.000    0.000    0.000 
#
# Total GULP energy -133904.624581 kJ/mol
# GULP energy per Si atom -5579.359358 kJ/mol
# Density = 2.321136 g / cm^3
# Si number density = 23.264306 Si / 1000 Ang^3
#
#
#
# Elastic Constant Matrix: (Units=GPa)
#
#
# Indices 1 2 3 4 5 6 
#
# 1 35.3645 12.1125 -13.9285 0.0000 14.5426 0.0000
# 2 12.1125 147.3880 30.4515 0.0000 -4.1297 0.0000
# 3 -13.9285 30.4515 123.3916 0.0000 21.4464 0.0000
# 4 0.0000 0.0000 0.0000 -17.3405 0.0000 0.3012
# 5 14.5426 -4.1297 21.4464 0.0000 29.6119 0.0000
# 6 0.0000 0.0000 0.0000 0.3012 0.0000 18.0435
#
#
#
# Elastic Compliance Matrix: (Units=1/GPa)
#
#
# Indices 1 2 3 4 5 6 
#
# 1 0.052040 -0.008286 0.014371 0.000000 -0.037121 0.000000
# 2 -0.008286 0.008648 -0.004561 0.000000 0.008578 0.000000
# 3 0.014371 -0.004561 0.013945 0.000000 -0.017793 0.000000
# 4 0.000000 0.000000 0.000000 -0.057652 0.000000 0.000962
# 5 -0.037121 0.008578 -0.017793 0.000000 0.066083 0.000000
# 6 0.000000 0.000000 0.000000 0.000962 0.000000 0.055406
#
#
# Mechanical properties :
#
#
# Convention : Reuss Voigt Hill
#
# Bulk Modulus (GPa) = 12.87307 40.37946 26.62627
# Shear Modulus (GPa) = 30.99531 24.56355 27.77943
#
# Velocity S-wave (km/s) = 3.65404 3.25291 3.45929
# Velocity P-wave (km/s) = 4.83199 5.61276 5.23694
#
# Compressibility (1/GPa) = 0.07768154
#
# Stress axis : x y z
#
# Youngs Moduli (GPa) = 19.21610 115.62858 71.71250
#
# Poissons Ratio (x) = 0.95809 -1.03058
# Poissons Ratio (y) = 0.15922 0.32705
# Poissons Ratio (z) = -0.27615 0.52734
#
# Static dielectric constant tensor:
#      x y z
#    x 1.892300 0.000000 0.011700 
#    y 0.000000 1.853530 0.000000 
#    z 0.011700 0.000000 1.953230 
# 
# From -- ./inp_files/143519.got.cif
#   From: 2010.05.17/outbox.cif.g08.bks.cpg/sg12_72_cif.got.tgz:143519.got - 2010.06.03 13:09:07.
