data_PCOD9199955
_publ_section_title
;
Structure prediction by ZEFSAII (Michael W. Deem and Ramdas Pophale) SiO2 
 PCOD9199955
Probable space group: C 2/M
;
_chemical_formula_sum "Si O2"
_cell_formula_units_Z 56
_cell_length_a 10.965153
_cell_length_b 14.285889
_cell_length_c 18.437467
_cell_angle_alpha 90.000000
_cell_angle_beta 116.417984
_cell_angle_gamma 90.000000
_cell_volume 2586.567432
_symmetry_space_group_name_H-M "C 2/M"
_symmetry_group_IT_number 12
_symmetry_cell_setting 'monoclinic'
loop_
_space_group_symop_operation_xyz
x,y,z
-x,y,-z
-x,-y,-z
x,-y,z
1/2+x,1/2+y,z
1/2-x,1/2+y,-z
1/2-x,1/2-y,-z
1/2+x,1/2-y,z
loop_
_atom_site_type_symbol
_atom_site_label
_atom_site_fract_x
_atom_site_fract_y
_atom_site_fract_z
Si Si1 0.151897 0.196858 0.182552
Si Si2 0.135084 0.885396 0.492061
Si Si3 0.088400 0.731117 0.950273
Si Si4 0.597972 0.892061 0.815436
Si Si5 0.863033 0.606815 0.655984
Si Si6 0.223294 0.103071 0.773575
Si Si7 0.100924 0.108493 0.315930
O O1 0.248489 0.126949 0.165549
O O2 0.208487 0.301352 0.180250
O O3 0.163853 0.172769 0.270247
O O4 0.997294 0.188205 0.114054
O O5 0.273022 0.851845 0.567828
O O6 0.130138 0.862848 0.405992
O O7 0.000000 0.853948 0.500000
O O8 0.134562 0.000000 0.496547
O O9 0.074652 0.648221 0.888557
O O10 0.250000 0.750000 0.000000
O O11 0.000000 0.716229 0.000000
O O12 0.499390 0.848856 0.726859
O O13 0.564129 0.000000 0.807870
O O14 0.898291 0.500000 0.642485
O O15 0.763390 0.601248 0.699211
O O16 0.061824 0.109868 0.737247
O O17 0.265698 0.000000 0.814651
O O18 0.145948 0.000000 0.317823
#
# Coordination Sequence:
#
# PCOD9199955 Si02
#       7
#     8   8   8   8   8   8   8
#     4  12  24  42  68  93 139 173 217 274 344 402
#     4   9  15  30  58  92 131 171 221 280 330 381
#     4  12  26  47  73 101 132 175 222 279 344 405
#     4  11  24  44  69  99 138 181 220 270 341 409
#     4   9  17  33  61  92 124 170 220 270 325 384
#     4  10  20  36  62  92 120 167 225 270 320 380
#     4  10  21  37  63  96 129 174 223 266 327 398
#
# _framework density 21.650314000000002
#
# number of rings (size 3 to 8) (size 9 to 14) (size 15 to 20)
#    0.000    1.571    4.286    1.286    0.000    0.286 
#    0.000    3.571    3.143    3.429    0.000    0.000 
#    0.000    0.571    0.000    0.000    0.000    0.000 
#
# Total GULP energy -156226.297015 kJ/mol
# GULP energy per Si atom -5579.510608 kJ/mol
# Density = 2.160104 g / cm^3
# Si number density = 21.650314 Si / 1000 Ang^3
#
#
#
# Elastic Constant Matrix: (Units=GPa)
#
#
# Indices 1 2 3 4 5 6 
#
# 1 88.1925 32.0213 58.5852 0.0000 0.6763 0.0000
# 2 32.0213 53.2822 28.9102 0.0000 12.9967 0.0000
# 3 58.5852 28.9102 150.0655 0.0000 10.1217 0.0000
# 4 0.0000 0.0000 0.0000 10.4785 0.0000 -1.0893
# 5 0.6763 12.9967 10.1217 0.0000 34.2295 0.0000
# 6 0.0000 0.0000 0.0000 -1.0893 0.0000 27.4668
#
#
#
# Elastic Compliance Matrix: (Units=1/GPa)
#
#
# Indices 1 2 3 4 5 6 
#
# 1 0.018448 -0.009130 -0.005767 0.000000 0.004808 0.000000
# 2 -0.009130 0.027207 -0.001013 0.000000 -0.009851 0.000000
# 3 -0.005767 -0.001013 0.009262 0.000000 -0.002240 0.000000
# 4 0.000000 0.000000 0.000000 0.095829 0.000000 0.003801
# 5 0.004808 -0.009851 -0.002240 0.000000 0.033522 0.000000
# 6 0.000000 0.000000 0.000000 0.003801 0.000000 0.036558
#
#
# Mechanical properties :
#
#
# Convention : Reuss Voigt Hill
#
# Bulk Modulus (GPa) = 43.29702 58.95262 51.12482
# Shear Modulus (GPa) = 19.20521 25.90319 22.55420
#
# Velocity S-wave (km/s) = 2.98159 3.46270 3.23112
# Velocity P-wave (km/s) = 5.64756 6.57842 6.13069
#
# Compressibility (1/GPa) = 0.02309628
#
# Stress axis : x y z
#
# Youngs Moduli (GPa) = 54.20550 36.75481 107.97330
#
# Poissons Ratio (x) = 0.33558 0.62273
# Poissons Ratio (y) = 0.49491 0.10934
# Poissons Ratio (z) = 0.31263 0.03722
#
# Static dielectric constant tensor:
#      x y z
#    x 1.791010 0.000000 0.037960 
#    y 0.000000 1.873690 0.000000 
#    z 0.037960 0.000000 1.806690 
# 
# From -- ./inp_files/263412.got.cif
#   From: 2010.05.17/outbox.cif.g08.bks.cpg/sg12_132_cif.got.tgz:263412.got - 2010.06.03 13:09:07.
