data_PCOD9199870
_publ_section_title
;
Structure prediction by ZEFSAII (Michael W. Deem and Ramdas Pophale) SiO2 
 PCOD9199870
Probable space group: C 2/M
;
_chemical_formula_sum "Si O2"
_cell_formula_units_Z 60
_cell_length_a 32.199497
_cell_length_b 16.614887
_cell_length_c 5.728221
_cell_angle_alpha 90.000000
_cell_angle_beta 64.463842
_cell_angle_gamma 90.000000
_cell_volume 2765.181616
_symmetry_space_group_name_H-M "C 2/M"
_symmetry_group_IT_number 12
_symmetry_cell_setting 'monoclinic'
loop_
_space_group_symop_operation_xyz
x,y,z
-x,y,-z
-x,-y,-z
x,-y,z
1/2+x,1/2+y,z
1/2-x,1/2+y,-z
1/2-x,1/2-y,-z
1/2+x,1/2-y,z
loop_
_atom_site_type_symbol
_atom_site_label
_atom_site_fract_x
_atom_site_fract_y
_atom_site_fract_z
Si Si1 0.686145 0.091683 0.797495
Si Si2 0.128677 0.190544 0.679943
Si Si3 0.555495 0.259164 0.481703
Si Si4 0.681032 0.591512 0.229685
Si Si5 0.278059 0.097002 0.788974
Si Si6 0.091837 0.343460 0.007946
Si Si7 0.413232 0.589674 0.842992
Si Si8 0.500000 0.813783 0.000000
O O1 0.704490 0.127836 0.505978
O O2 0.704373 0.000000 0.759490
O O3 0.699232 0.127553 0.021397
O O4 0.630867 0.090658 0.916994
O O5 0.098636 0.226250 0.545162
O O6 0.174690 0.154620 0.456115
O O7 0.123012 0.262867 0.877598
O O8 0.102083 0.115569 0.861020
O O9 0.567738 0.179681 0.307250
O O10 0.554516 0.340683 0.335158
O O11 0.512198 0.241669 0.749562
O O12 0.687578 0.500000 0.303614
O O13 0.634119 0.591534 0.193129
O O14 0.723893 0.610630 0.960161
O O15 0.286649 0.000000 0.762341
O O16 0.048307 0.357033 0.941972
O O17 0.432316 0.500000 0.787699
#
# Coordination Sequence:
#
# PCOD9199870 Si02
#       8
#     8   8   8   8   8   8   8   4
#     4  10  22  40  61  86 116 151 189 236 291 346
#     4   9  18  31  52  79 113 151 189 231 281 328
#     4   9  19  35  54  80 110 141 186 227 284 342
#     4   9  17  30  52  80 113 155 202 239 268 316
#     4   9  20  36  57  84 117 156 197 235 280 336
#     4  10  21  37  61  81 109 142 184 232 287 351
#     4   9  17  30  52  80 113 150 192 237 277 318
#     4  10  20  36  62  84 102 142 184 228 282 356
#
# _framework density 21.698395000000001
#
# number of rings (size 3 to 8) (size 9 to 14) (size 15 to 20)
#    0.000    2.667    0.000    0.800    5.600    0.533 
#    0.000    2.000    0.000   12.800    0.000    0.000 
#    0.000    0.000    0.000    0.000    0.000    0.000 
#
# Total GULP energy -167032.866663 kJ/mol
# GULP energy per Si atom -5567.762222 kJ/mol
# Density = 2.164901 g / cm^3
# Si number density = 21.698395 Si / 1000 Ang^3
#
#
#
# Elastic Constant Matrix: (Units=GPa)
#
#
# Indices 1 2 3 4 5 6 
#
# 1 72.1333 5.6945 22.0128 0.0000 -5.7657 0.0000
# 2 5.6945 21.8304 12.7207 0.0000 -1.8840 0.0000
# 3 22.0128 12.7207 126.4298 0.0000 1.6731 0.0000
# 4 0.0000 0.0000 0.0000 13.5859 0.0000 -8.9497
# 5 -5.7657 -1.8840 1.6731 0.0000 32.0654 0.0000
# 6 0.0000 0.0000 0.0000 -8.9497 0.0000 13.3857
#
#
#
# Elastic Compliance Matrix: (Units=1/GPa)
#
#
# Indices 1 2 3 4 5 6 
#
# 1 0.014995 -0.002270 -0.002418 0.000000 0.002689 0.000000
# 2 -0.002270 0.049318 -0.004603 0.000000 0.002730 0.000000
# 3 -0.002418 -0.004603 0.008809 0.000000 -0.001165 0.000000
# 4 0.000000 0.000000 0.000000 0.131542 0.000000 0.087949
# 5 0.002689 0.002730 -0.001165 0.000000 0.031891 0.000000
# 6 0.000000 0.000000 0.000000 0.087949 0.000000 0.133510
#
#
# Mechanical properties :
#
#
# Convention : Reuss Voigt Hill
#
# Bulk Modulus (GPa) = 18.33541 33.47217 25.90379
# Shear Modulus (GPa) = 12.29023 23.80509 18.04766
#
# Velocity S-wave (km/s) = 2.38252 3.31583 2.88714
# Velocity P-wave (km/s) = 4.00462 5.48810 4.80397
#
# Compressibility (1/GPa) = 0.05453929
#
# Stress axis : x y z
#
# Youngs Moduli (GPa) = 66.68759 20.27672 113.51953
#
# Poissons Ratio (x) = 0.04604 0.27449
# Poissons Ratio (y) = 0.15141 0.52252
# Poissons Ratio (z) = 0.16125 0.09333
#
# Static dielectric constant tensor:
#      x y z
#    x 1.825060 0.000000 0.028930 
#    y 0.000000 1.821160 0.000000 
#    z 0.028930 0.000000 1.826860 
# 
# From -- ./inp_files/32324.got.cif
#   From: 2010.05.17/outbox.cif.g08.bks.cpg/sg12_17_cif.got.tgz:32324.got - 2010.06.03 13:09:07.
