data_PCOD9199609
_publ_section_title
;
Structure prediction by ZEFSAII (Michael W. Deem and Ramdas Pophale) SiO2 
 PCOD9199609
Probable space group: C 2/M
;
_chemical_formula_sum "Si O2"
_cell_formula_units_Z 48
_cell_length_a 26.532800
_cell_length_b 9.768293
_cell_length_c 14.779648
_cell_angle_alpha 90.000000
_cell_angle_beta 36.884216
_cell_angle_gamma 90.000000
_cell_volume 2299.120708
_symmetry_space_group_name_H-M "C 2/M"
_symmetry_group_IT_number 12
_symmetry_cell_setting 'monoclinic'
loop_
_space_group_symop_operation_xyz
x,y,z
-x,y,-z
-x,-y,-z
x,-y,z
1/2+x,1/2+y,z
1/2-x,1/2+y,-z
1/2-x,1/2-y,-z
1/2+x,1/2-y,z
loop_
_atom_site_type_symbol
_atom_site_label
_atom_site_fract_x
_atom_site_fract_y
_atom_site_fract_z
Si Si1 0.265014 0.845448 0.274745
Si Si2 0.146749 0.349718 0.223652
Si Si3 0.017358 0.843730 0.747800
Si Si4 0.078228 0.655862 0.818699
Si Si5 0.104418 0.334127 0.479142
Si Si6 0.331186 0.277984 0.003275
O O1 0.336869 0.825306 0.246307
O O2 0.192728 0.731728 0.385464
O O3 0.231251 0.000000 0.331892
O O4 0.307990 0.831896 0.113885
O O5 0.112567 0.500000 0.253641
O O6 0.099373 0.295537 0.380017
O O7 0.150162 0.271507 0.125071
O O8 0.243808 0.357975 0.117821
O O9 0.064630 0.769322 0.762243
O O10 0.035719 0.745293 0.636192
O O11 0.917597 0.845481 0.910525
O O12 0.044643 0.000000 0.694055
O O13 0.078333 0.500000 0.780009
O O14 0.000000 0.663273 0.000000
O O15 0.102824 0.500000 0.489100
#
# Coordination Sequence:
#
# PCOD9199609 Si02
#       6
#     8   8   8   8   8   8
#     4  10  20  38  64  90 120 158 197 242 297 358
#     4   9  19  37  60  86 116 155 200 241 296 359
#     4  12  25  40  60  89 122 159 202 248 298 352
#     4  10  21  39  62  92 122 153 196 244 298 356
#     4  10  23  41  60  86 123 162 201 247 296 353
#     4  10  20  36  60  91 120 153 195 249 297 351
#
# _framework density 20.877547
#
# number of rings (size 3 to 8) (size 9 to 14) (size 15 to 20)
#    0.000    1.833    1.667    2.000    0.000    5.000 
#    0.000    5.000    0.000    0.000    0.000    0.000 
#    0.000    0.000    0.000    0.000    0.000    0.000 
#
# Total GULP energy -133871.148613 kJ/mol
# GULP energy per Si atom -5577.964526 kJ/mol
# Density = 2.083003 g / cm^3
# Si number density = 20.877547 Si / 1000 Ang^3
#
#
#
# Elastic Constant Matrix: (Units=GPa)
#
#
# Indices 1 2 3 4 5 6 
#
# 1 81.7727 36.6225 24.6246 0.0000 -5.8448 0.0000
# 2 36.6225 105.7026 35.1781 -0.0002 0.9626 0.0000
# 3 24.6246 35.1781 85.3426 0.0000 -6.6527 -0.0001
# 4 0.0000 -0.0002 0.0000 19.1692 0.0001 0.9452
# 5 -5.8448 0.9626 -6.6527 0.0001 33.7889 0.0000
# 6 0.0000 0.0000 -0.0001 0.9452 0.0000 -20.0600
#
#
#
# Elastic Compliance Matrix: (Units=1/GPa)
#
#
# Indices 1 2 3 4 5 6 
#
# 1 0.015099 -0.004475 -0.002334 0.000000 0.002280 0.000000
# 2 -0.004475 0.012341 -0.003944 0.000000 -0.001902 0.000000
# 3 -0.002334 -0.003944 0.014212 0.000000 0.002507 0.000000
# 4 0.000000 0.000000 0.000000 0.052046 0.000000 0.002452
# 5 0.002280 -0.001902 0.002507 0.000000 0.030538 0.000000
# 6 0.000000 0.000000 0.000000 0.002452 0.000000 -0.049735
#
#
# Mechanical properties :
#
#
# Convention : Reuss Voigt Hill
#
# Bulk Modulus (GPa) = 49.63944 51.74092 50.69018
# Shear Modulus (GPa) = 48.67468 18.33915 33.50692
#
# Velocity S-wave (km/s) = 4.83373 2.96702 4.01050
# Velocity P-wave (km/s) = 7.41494 6.04768 6.76594
#
# Compressibility (1/GPa) = 0.02014527
#
# Stress axis : x y z
#
# Youngs Moduli (GPa) = 66.22879 81.03140 70.36266
#
# Poissons Ratio (x) = 0.36264 0.16425
# Poissons Ratio (y) = 0.29639 0.27750
# Poissons Ratio (z) = 0.15460 0.31958
#
# Static dielectric constant tensor:
#      x y z
#    x 1.761050 0.000000 -0.013960 
#    y 0.000000 1.861370 0.000000 
#    z -0.013960 0.000000 1.771620 
# 
# From -- ./inp_files/244754.got.cif
#   From: 2010.05.17/outbox.cif.g08.bks.cpg/sg12_123_cif.got.tgz:244754.got - 2010.06.03 13:09:07.
