data_PCOD9199929
_publ_section_title
;
Structure prediction by ZEFSAII (Michael W. Deem and Ramdas Pophale) SiO2 
 PCOD9199929
Probable space group: C 2/M
;
_chemical_formula_sum "Si O2"
_cell_formula_units_Z 40
_cell_length_a 10.847743
_cell_length_b 18.151776
_cell_length_c 16.888310
_cell_angle_alpha 90.000000
_cell_angle_beta 145.477685
_cell_angle_gamma 90.000000
_cell_volume 1884.598038
_symmetry_space_group_name_H-M "C 2/M"
_symmetry_group_IT_number 12
_symmetry_cell_setting 'monoclinic'
loop_
_space_group_symop_operation_xyz
x,y,z
-x,y,-z
-x,-y,-z
x,-y,z
1/2+x,1/2+y,z
1/2-x,1/2+y,-z
1/2-x,1/2-y,-z
1/2+x,1/2-y,z
loop_
_atom_site_type_symbol
_atom_site_label
_atom_site_fract_x
_atom_site_fract_y
_atom_site_fract_z
Si Si1 0.520975 0.088302 0.420181
Si Si2 0.280946 0.687130 0.829956
Si Si3 0.942614 0.776310 0.158807
Si Si4 0.252142 0.586364 0.135474
Si Si5 0.045106 0.911763 0.437130
O O1 0.500000 0.114780 0.500000
O O2 0.324803 0.113251 0.259945
O O3 0.743718 0.116442 0.497815
O O4 0.529648 0.000000 0.428362
O O5 0.099300 0.729780 0.784518
O O6 0.347843 0.730568 0.785376
O O7 0.500000 0.678292 0.000000
O O8 0.895158 0.861268 0.155776
O O9 0.750000 0.750000 0.000000
O O10 0.269217 0.500000 0.122712
O O11 0.341145 0.595274 0.271088
O O12 0.000000 0.609080 0.000000
O O13 0.000000 0.880544 0.500000
O O14 0.083258 0.000000 0.466902
#
# Coordination Sequence:
#
# PCOD9199929 Si02
#       5
#     8   8   8   8   8
#     4  10  21  39  60  84 120 158 192 239 295 343
#     4  10  22  39  61  85 115 157 198 237 289 350
#     4  10  21  39  59  85 122 154 187 242 300 341
#     4  10  20  36  62  91 116 151 199 241 284 347
#     4   9  19  35  55  84 121 154 186 236 296 341
#
# _framework density 21.224685999999998
#
# number of rings (size 3 to 8) (size 9 to 14) (size 15 to 20)
#    0.000    2.200    0.000    3.000    0.000    7.600 
#    0.000   12.000    0.000    0.000    0.000    0.000 
#    0.000    0.000    0.000    0.000    0.000    0.000 
#
# Total GULP energy -111573.424096 kJ/mol
# GULP energy per Si atom -5578.671205 kJ/mol
# Density = 2.117638 g / cm^3
# Si number density = 21.224686 Si / 1000 Ang^3
#
#
#
# Elastic Constant Matrix: (Units=GPa)
#
#
# Indices 1 2 3 4 5 6 
#
# 1 189.7245 22.7002 53.6029 0.0007 -20.7951 0.0000
# 2 22.7002 29.9493 12.4636 0.0008 -15.5845 0.0002
# 3 53.6029 12.4636 82.8317 0.0053 1.3795 0.0017
# 4 0.0007 0.0008 0.0053 20.1259 0.0030 -8.6078
# 5 -20.7951 -15.5845 1.3795 0.0030 14.8767 0.0009
# 6 0.0000 0.0002 0.0017 -8.6078 0.0009 14.7786
#
#
#
# Elastic Compliance Matrix: (Units=1/GPa)
#
#
# Indices 1 2 3 4 5 6 
#
# 1 0.008541 0.006375 -0.006807 -0.000002 0.019249 -0.000002
# 2 0.006375 0.093377 -0.019984 -0.000023 0.108584 -0.000019
# 3 -0.006807 -0.019984 0.020023 0.000001 -0.032307 0.000000
# 4 -0.000002 -0.000023 0.000001 0.066171 -0.000043 0.038542
# 5 0.019249 0.108584 -0.032307 -0.000043 0.210871 -0.000035
# 6 -0.000002 -0.000019 0.000000 0.038542 -0.000035 0.090114
#
#
# Mechanical properties :
#
#
# Convention : Reuss Voigt Hill
#
# Bulk Modulus (GPa) = 12.32912 53.33767 32.83339
# Shear Modulus (GPa) = 8.97721 24.20549 16.59135
#
# Velocity S-wave (km/s) = 2.05883 3.38070 2.79892
# Velocity P-wave (km/s) = 3.38721 6.35794 5.09395
#
# Compressibility (1/GPa) = 0.08110878
#
# Stress axis : x y z
#
# Youngs Moduli (GPa) = 117.08292 10.70925 49.94312
#
# Poissons Ratio (x) = -0.06828 0.33996
# Poissons Ratio (y) = -0.74644 0.99809
# Poissons Ratio (z) = 0.79698 0.21402
#
# Static dielectric constant tensor:
#      x y z
#    x 1.804530 0.000000 0.021480 
#    y 0.000000 1.774960 0.000000 
#    z 0.021480 0.000000 1.738210 
# 
# From -- ./inp_files/264446.got.cif
#   From: 2010.05.17/outbox.cif.g08.bks.cpg/sg12_133_cif.got.tgz:264446.got - 2010.06.03 13:09:07.
