data_PCOD9199487
_publ_section_title
;
Structure prediction by ZEFSAII (Michael W. Deem and Ramdas Pophale) SiO2 
 PCOD9199487
Probable space group: C 2/M
;
_chemical_formula_sum "Si O2"
_cell_formula_units_Z 40
_cell_length_a 18.375563
_cell_length_b 14.717540
_cell_length_c 16.170823
_cell_angle_alpha 90.000000
_cell_angle_beta 22.426492
_cell_angle_gamma 90.000000
_cell_volume 1668.399548
_symmetry_space_group_name_H-M "C 2/M"
_symmetry_group_IT_number 12
_symmetry_cell_setting 'monoclinic'
loop_
_space_group_symop_operation_xyz
x,y,z
-x,y,-z
-x,-y,-z
x,-y,z
1/2+x,1/2+y,z
1/2-x,1/2+y,-z
1/2-x,1/2-y,-z
1/2+x,1/2-y,z
loop_
_atom_site_type_symbol
_atom_site_label
_atom_site_fract_x
_atom_site_fract_y
_atom_site_fract_z
Si Si1 0.501991 0.399206 0.687671
Si Si2 0.642783 0.695995 0.684538
Si Si3 0.268256 0.744438 0.836716
Si Si4 0.725884 0.098747 0.748732
Si Si5 0.733142 0.395109 0.751523
O O1 0.415547 0.500000 0.764900
O O2 0.559793 0.390367 0.722198
O O3 0.374518 0.311077 0.797703
O O4 0.688909 0.393481 0.432439
O O5 0.750000 0.750000 0.500000
O O6 0.765934 0.663248 0.633231
O O7 0.457620 0.751891 0.907496
O O8 0.302121 0.678125 0.724471
O O9 0.309055 0.843773 0.754133
O O10 0.788517 0.000000 0.713781
O O11 0.500000 0.101021 0.000000
O O12 0.791664 0.500000 0.684318
O O13 0.500000 0.393651 0.000000
#
# Coordination Sequence:
#
# PCOD9199487 Si02
#       5
#     8   8   8   8   8
#     4  11  23  39  62  92 126 160 197 252 315 366
#     4  11  22  38  61  88 123 164 205 249 300 360
#     4  11  21  37  60  89 121 157 199 247 305 363
#     4  10  20  36  60  88 117 155 204 250 295 358
#     4   9  19  37  62  87 114 157 209 252 293 352
#
# _framework density 23.975072000000001
#
# number of rings (size 3 to 8) (size 9 to 14) (size 15 to 20)
#    0.000    1.600    0.000    6.600    0.000    2.400 
#    0.000    3.000    0.000   10.800    0.000    0.000 
#    0.000    0.000    0.000    0.000    0.000    0.000 
#
# Total GULP energy -111701.999218 kJ/mol
# GULP energy per Si atom -5585.099961 kJ/mol
# Density = 2.392050 g / cm^3
# Si number density = 23.975072 Si / 1000 Ang^3
#
#
#
# Elastic Constant Matrix: (Units=GPa)
#
#
# Indices 1 2 3 4 5 6 
#
# 1 99.8672 40.5358 22.2047 0.0109 -3.7173 -0.0098
# 2 40.5358 151.5544 44.2793 0.0321 5.7403 -0.0311
# 3 22.2047 44.2793 121.0864 0.0164 -4.0997 -0.0199
# 4 0.0109 0.0321 0.0164 25.7619 -0.0140 14.4940
# 5 -3.7173 5.7403 -4.0997 -0.0140 37.6223 0.0138
# 6 -0.0098 -0.0311 -0.0199 14.4940 0.0138 10.4908
#
#
#
# Elastic Compliance Matrix: (Units=1/GPa)
#
#
# Indices 1 2 3 4 5 6 
#
# 1 0.011437 -0.002816 -0.001018 0.000004 0.001449 -0.000007
# 2 -0.002816 0.008158 -0.002528 -0.000086 -0.001799 0.000137
# 3 -0.001018 -0.002528 0.009414 -0.000027 0.001311 0.000045
# 4 0.000004 -0.000086 -0.000027 0.174307 0.000164 -0.240821
# 5 0.001449 -0.001799 0.001311 0.000164 0.027141 -0.000263
# 6 -0.000007 0.000137 0.000045 -0.240821 -0.000263 0.428039
#
#
# Mechanical properties :
#
#
# Convention : Reuss Voigt Hill
#
# Bulk Modulus (GPa) = 61.40885 65.17197 63.29041
# Shear Modulus (GPa) = 7.38937 32.47421 19.93179
#
# Velocity S-wave (km/s) = 1.75750 3.68434 2.88645
# Velocity P-wave (km/s) = 5.45780 6.73360 6.12899
#
# Compressibility (1/GPa) = 0.01628430
#
# Stress axis : x y z
#
# Youngs Moduli (GPa) = 87.43723 122.57519 106.22413
#
# Poissons Ratio (x) = 0.34521 0.10817
# Poissons Ratio (y) = 0.24625 0.26851
# Poissons Ratio (z) = 0.08904 0.30984
#
# Static dielectric constant tensor:
#      x y z
#    x 1.984490 0.000000 -0.043230 
#    y 0.000000 1.983240 0.000000 
#    z -0.043230 0.000000 1.925980 
# 
# From -- ./inp_files/226231.got.cif
#   From: 2010.05.17/outbox.cif.g08.bks.cpg/sg12_114_cif.got.tgz:226231.got - 2010.06.03 13:09:07.
