data_PCOD9199184
_publ_section_title
;
Structure prediction by ZEFSAII (Michael W. Deem and Ramdas Pophale) SiO2 
 PCOD9199184
Probable space group: C 2/M
;
_chemical_formula_sum "Si O2"
_cell_formula_units_Z 56
_cell_length_a 22.502457
_cell_length_b 11.320866
_cell_length_c 11.799999
_cell_angle_alpha 90.000000
_cell_angle_beta 61.446206
_cell_angle_gamma 90.000000
_cell_volume 2640.392114
_symmetry_space_group_name_H-M "C 2/M"
_symmetry_group_IT_number 12
_symmetry_cell_setting 'monoclinic'
loop_
_space_group_symop_operation_xyz
x,y,z
-x,y,-z
-x,-y,-z
x,-y,z
1/2+x,1/2+y,z
1/2-x,1/2+y,-z
1/2-x,1/2-y,-z
1/2+x,1/2-y,z
loop_
_atom_site_type_symbol
_atom_site_label
_atom_site_fract_x
_atom_site_fract_y
_atom_site_fract_z
Si Si1 0.662595 0.866879 0.698105
Si Si2 0.502877 0.126125 0.863366
Si Si3 0.728701 0.704918 0.827078
Si Si4 0.569100 0.366130 0.508983
Si Si5 0.530010 0.371346 0.200024
Si Si6 0.338574 0.133388 0.557180
Si Si7 0.677943 0.371766 0.108157
O O1 0.581450 0.864211 0.759565
O O2 0.685936 0.781125 0.776416
O O3 0.687991 0.845548 0.546970
O O4 0.682651 0.000000 0.712596
O O5 0.466774 0.247090 0.865526
O O6 0.475962 0.000000 0.840746
O O7 0.500000 0.118111 0.000000
O O8 0.777706 0.629735 0.702261
O O9 0.780023 0.781082 0.857172
O O10 0.683608 0.646333 0.966783
O O11 0.500000 0.354790 0.500000
O O12 0.598278 0.500000 0.462126
O O13 0.538055 0.367847 0.664252
O O14 0.615491 0.249129 0.455941
O O15 0.531047 0.500000 0.138725
O O16 0.598846 0.370242 0.210803
O O17 0.370755 0.000000 0.527671
O O18 0.707007 0.500000 0.106557
#
# Coordination Sequence:
#
# PCOD9199184 Si02
#       7
#     8   8   8   8   8   8   8
#     4  10  21  38  60  88 125 165 208 254 308 369
#     4  10  20  36  59  87 119 156 198 244 297 362
#     4  11  22  39  62  88 121 165 211 254 306 371
#     4  10  21  38  61  89 120 158 204 249 301 368
#     4  10  20  37  59  86 117 151 195 246 300 355
#     4  11  23  40  61  91 129 164 205 256 308 371
#     4  10  22  40  62  88 121 159 206 263 312 362
#
# _framework density 21.208971999999999
#
# number of rings (size 3 to 8) (size 9 to 14) (size 15 to 20)
#    0.000    1.714    1.429    3.000    0.000    2.857 
#    0.000    7.857    0.000    0.000    0.000    0.000 
#    0.000    0.000    0.000    0.000    0.000    0.000 
#
# Total GULP energy -155979.983284 kJ/mol
# GULP energy per Si atom -5570.713689 kJ/mol
# Density = 2.116070 g / cm^3
# Si number density = 21.208972 Si / 1000 Ang^3
#
#
#
# Elastic Constant Matrix: (Units=GPa)
#
#
# Indices 1 2 3 4 5 6 
#
# 1 28.3788 38.2806 -2.1370 0.0000 -1.9515 0.0000
# 2 38.2806 174.2876 11.1390 0.0000 3.3382 0.0000
# 3 -2.1370 11.1390 87.7678 0.0000 -4.7163 0.0000
# 4 0.0000 0.0000 0.0000 26.2511 0.0000 8.0074
# 5 -1.9515 3.3382 -4.7163 0.0000 29.3370 0.0000
# 6 0.0000 0.0000 0.0000 8.0074 0.0000 -7.9987
#
#
#
# Elastic Compliance Matrix: (Units=1/GPa)
#
#
# Indices 1 2 3 4 5 6 
#
# 1 0.051465 -0.011596 0.003006 0.000000 0.005226 0.000000
# 2 -0.011596 0.008415 -0.001456 0.000000 -0.001963 0.000000
# 3 0.003006 -0.001456 0.011773 0.000000 0.002258 0.000000
# 4 0.000000 0.000000 0.000000 0.029182 0.000000 0.029214
# 5 0.005226 -0.001963 0.002258 0.000000 0.035021 0.000000
# 6 0.000000 0.000000 0.000000 0.029214 0.000000 -0.095775
#
#
# Mechanical properties :
#
#
# Convention : Reuss Voigt Hill
#
# Bulk Modulus (GPa) = 19.39451 42.77774 31.08612
# Shear Modulus (GPa) = 64.63148 25.72800 45.17974
#
# Velocity S-wave (km/s) = 5.52628 3.48670 4.62044
# Velocity P-wave (km/s) = 7.06287 6.03513 6.56913
#
# Compressibility (1/GPa) = 0.05156098
#
# Stress axis : x y z
#
# Youngs Moduli (GPa) = 19.43055 118.83181 84.94018
#
# Poissons Ratio (x) = 1.37798 -0.25530
# Poissons Ratio (y) = 0.22532 0.12366
# Poissons Ratio (z) = -0.05840 0.17300
#
# Static dielectric constant tensor:
#      x y z
#    x 1.748380 0.000000 -0.065470 
#    y 0.000000 1.825770 0.000000 
#    z -0.065470 0.000000 1.928520 
# 
# From -- ./inp_files/165609.got.cif
#   From: 2010.05.17/outbox.cif.g08.bks.cpg/sg12_83_cif.got.tgz:165609.got - 2010.06.03 13:09:07.
