data_PCOD9199365
_publ_section_title
;
Structure prediction by ZEFSAII (Michael W. Deem and Ramdas Pophale) SiO2 
 PCOD9199365
Probable space group: C 2/M
;
_chemical_formula_sum "Si O2"
_cell_formula_units_Z 56
_cell_length_a 23.816251
_cell_length_b 21.368447
_cell_length_c 10.135500
_cell_angle_alpha 90.000000
_cell_angle_beta 153.289243
_cell_angle_gamma 90.000000
_cell_volume 2318.506932
_symmetry_space_group_name_H-M "C 2/M"
_symmetry_group_IT_number 12
_symmetry_cell_setting 'monoclinic'
loop_
_space_group_symop_operation_xyz
x,y,z
-x,y,-z
-x,-y,-z
x,-y,z
1/2+x,1/2+y,z
1/2-x,1/2+y,-z
1/2-x,1/2-y,-z
1/2+x,1/2-y,z
loop_
_atom_site_type_symbol
_atom_site_label
_atom_site_fract_x
_atom_site_fract_y
_atom_site_fract_z
Si Si1 0.518763 0.598591 0.338406
Si Si2 0.867870 0.931546 0.678061
Si Si3 0.093822 0.423273 0.074834
Si Si4 0.697271 0.389513 0.960145
Si Si5 0.387657 0.862268 0.175293
Si Si6 0.485837 0.730347 0.125137
Si Si7 0.751550 0.258288 0.216479
O O1 0.607919 0.562376 0.426289
O O2 0.380096 0.574907 0.086588
O O3 0.598841 0.608882 0.635655
O O4 0.500755 0.664169 0.228226
O O5 0.733310 0.901552 0.413055
O O6 0.862046 0.000000 0.730217
O O7 0.000000 0.903688 0.000000
O O8 0.094905 0.500000 0.063392
O O9 0.075907 0.392757 0.890440
O O10 0.000000 0.408057 0.000000
O O11 0.822360 0.409038 0.145183
O O12 0.718562 0.320473 0.065354
O O13 0.500000 0.835210 0.500000
O O14 0.288642 0.805857 0.941838
O O15 0.605129 0.765467 0.438819
O O16 0.500000 0.731846 0.000000
O O17 0.344745 0.748397 0.864080
#
# Coordination Sequence:
#
# PCOD9199365 Si02
#       7
#     8   8   8   8   8   8   8
#     4  10  20  36  60  85 118 161 200 248 312 372
#     4  10  20  38  66  95 121 156 205 255 307 377
#     4  10  23  45  67  90 128 170 206 258 328 383
#     4  10  21  37  59  86 120 161 204 249 314 365
#     4  12  24  38  64  94 122 163 217 265 306 375
#     4  11  22  37  57  84 121 163 205 254 307 369
#     4  11  23  38  60  87 123 163 208 256 309 372
#
# _framework density 24.153476000000001
#
# number of rings (size 3 to 8) (size 9 to 14) (size 15 to 20)
#    0.000    1.429    2.857    2.143    4.000    2.000 
#    0.000    5.000    0.000    0.000    0.000    0.000 
#    0.000    0.000    0.000    0.000    0.000    0.000 
#
# Total GULP energy -155906.551840 kJ/mol
# GULP energy per Si atom -5568.091137 kJ/mol
# Density = 2.409850 g / cm^3
# Si number density = 24.153476 Si / 1000 Ang^3
#
#
#
# Elastic Constant Matrix: (Units=GPa)
#
#
# Indices 1 2 3 4 5 6 
#
# 1 181.1350 8.1760 46.7828 0.0000 29.6357 0.0000
# 2 8.1760 50.7882 10.7142 0.0000 3.0636 0.0000
# 3 46.7828 10.7142 109.6269 0.0000 -3.0791 0.0000
# 4 0.0000 0.0000 0.0000 -46.9321 0.0000 -7.0553
# 5 29.6357 3.0636 -3.0791 0.0000 36.7409 0.0000
# 6 0.0000 0.0000 0.0000 -7.0553 0.0000 21.3865
#
#
#
# Elastic Compliance Matrix: (Units=1/GPa)
#
#
# Indices 1 2 3 4 5 6 
#
# 1 0.007406 -0.000114 -0.003325 0.000000 -0.006243 0.000000
# 2 -0.000114 0.020231 -0.001978 0.000000 -0.001761 0.000000
# 3 -0.003325 -0.001978 0.010839 0.000000 0.003755 0.000000
# 4 0.000000 0.000000 0.000000 -0.020301 0.000000 -0.006697
# 5 -0.006243 -0.001761 0.003755 0.000000 0.032715 0.000000
# 6 0.000000 0.000000 0.000000 -0.006697 0.000000 0.044549
#
#
# Mechanical properties :
#
#
# Convention : Reuss Voigt Hill
#
# Bulk Modulus (GPa) = 36.17547 52.54403 44.35975
# Shear Modulus (GPa) = 43.29442 20.63085 31.96264
#
# Velocity S-wave (km/s) = 4.23835 2.92577 3.64168
# Velocity P-wave (km/s) = 6.24190 5.76324 6.00734
#
# Compressibility (1/GPa) = 0.02764304
#
# Stress axis : x y z
#
# Youngs Moduli (GPa) = 135.02596 49.42797 92.25598
#
# Poissons Ratio (x) = 0.00565 0.30672
# Poissons Ratio (y) = 0.01543 0.18248
# Poissons Ratio (z) = 0.44891 0.09777
#
# Static dielectric constant tensor:
#      x y z
#    x 2.527060 0.000000 -0.405720 
#    y 0.000000 1.984830 0.000000 
#    z -0.405720 0.000000 2.493790 
# 
# From -- ./inp_files/91652.got.cif
#   From: 2010.05.17/outbox.cif.g08.bks.cpg/sg12_46_cif.got.tgz:91652.got - 2010.06.03 13:09:07.
