data_PCOD9199559
_publ_section_title
;
Structure prediction by ZEFSAII (Michael W. Deem and Ramdas Pophale) SiO2 
 PCOD9199559
Probable space group: C 2/M
;
_chemical_formula_sum "Si O2"
_cell_formula_units_Z 64
_cell_length_a 9.832346
_cell_length_b 24.116573
_cell_length_c 15.317496
_cell_angle_alpha 90.000000
_cell_angle_beta 69.490103
_cell_angle_gamma 90.000000
_cell_volume 3401.888639
_symmetry_space_group_name_H-M "C 2/M"
_symmetry_group_IT_number 12
_symmetry_cell_setting 'monoclinic'
loop_
_space_group_symop_operation_xyz
x,y,z
-x,y,-z
-x,-y,-z
x,-y,z
1/2+x,1/2+y,z
1/2-x,1/2+y,-z
1/2-x,1/2-y,-z
1/2+x,1/2-y,z
loop_
_atom_site_type_symbol
_atom_site_label
_atom_site_fract_x
_atom_site_fract_y
_atom_site_fract_z
Si Si1 0.060283 0.565132 0.214468
Si Si2 0.692799 0.349041 0.877114
Si Si3 0.692974 0.219767 0.645156
Si Si4 0.367202 0.252661 0.766770
Si Si5 0.366661 0.934548 0.098715
Si Si6 0.674941 0.170477 0.470301
Si Si7 0.868910 0.846464 0.909737
Si Si8 0.123900 0.561320 0.398662
O O1 0.084949 0.500000 0.193399
O O2 0.196628 0.600451 0.153072
O O3 0.051843 0.573191 0.320651
O O4 0.925996 0.580183 0.182237
O O5 0.759128 0.298486 0.807669
O O6 0.535578 0.365793 0.877363
O O7 0.676901 0.331707 0.981393
O O8 0.526451 0.227739 0.712187
O O9 0.802421 0.212602 0.700637
O O10 0.704875 0.173818 0.566827
O O11 0.743079 0.278037 0.591139
O O12 0.366706 0.292502 0.849890
O O13 0.237339 0.894085 0.101117
O O14 0.327444 0.000000 0.105292
O O15 0.500000 0.927157 0.000000
O O16 0.500000 0.178571 0.500000
O O17 0.715277 0.113994 0.410750
O O18 0.194073 0.500000 0.377348
O O19 0.000000 0.557908 0.500000
#
# Coordination Sequence:
#
# PCOD9199559 Si02
#       8
#     8   8   8   8   8   8   8   8
#     4  10  21  38  65  92 121 164 207 252 307 368
#     4  11  24  41  58  86 125 164 212 252 310 374
#     4  11  23  38  61  88 116 166 202 256 309 364
#     4  12  24  41  59  86 124 159 213 255 310 372
#     4  10  21  40  63  92 123 158 210 260 305 364
#     4  10  20  36  60  89 125 152 201 255 306 364
#     4  11  25  39  59  88 122 164 203 259 317 361
#     4   9  19  34  58  93 125 155 194 248 307 363
#
# _framework density 18.813078000000001
#
# number of rings (size 3 to 8) (size 9 to 14) (size 15 to 20)
#    0.000    1.500    3.750    1.125    3.500    0.500 
#    2.250    1.250    0.000    0.000    0.000    0.875 
#    0.000    0.500    0.000    0.000    0.000    0.000 
#
# Total GULP energy -178617.522287 kJ/mol
# GULP energy per Si atom -5581.797571 kJ/mol
# Density = 1.877026 g / cm^3
# Si number density = 18.813078 Si / 1000 Ang^3
#
#
#
# Elastic Constant Matrix: (Units=GPa)
#
#
# Indices 1 2 3 4 5 6 
#
# 1 73.8617 30.5139 27.0604 0.0000 10.6516 0.0000
# 2 30.5139 70.9981 21.1382 0.0000 7.3011 0.0000
# 3 27.0604 21.1382 83.6252 0.0000 16.5060 0.0000
# 4 0.0000 0.0000 0.0000 29.4132 0.0000 4.2322
# 5 10.6516 7.3011 16.5060 0.0000 33.2861 0.0000
# 6 0.0000 0.0000 0.0000 4.2322 0.0000 27.3357
#
#
#
# Elastic Compliance Matrix: (Units=1/GPa)
#
#
# Indices 1 2 3 4 5 6 
#
# 1 0.017862 -0.006322 -0.003689 0.000000 -0.002500 0.000000
# 2 -0.006322 0.017544 -0.002249 0.000000 -0.000710 0.000000
# 3 -0.003689 -0.002249 0.014843 0.000000 -0.005687 0.000000
# 4 0.000000 0.000000 0.000000 0.034773 0.000000 -0.005384
# 5 -0.002500 -0.000710 -0.005687 0.000000 0.033818 0.000000
# 6 0.000000 0.000000 0.000000 -0.005384 0.000000 0.037416
#
#
# Mechanical properties :
#
#
# Convention : Reuss Voigt Hill
#
# Bulk Modulus (GPa) = 38.86382 42.87888 40.87135
# Shear Modulus (GPa) = 26.40584 27.99181 27.19883
#
# Velocity S-wave (km/s) = 3.75052 3.86150 3.80641
# Velocity P-wave (km/s) = 6.28155 6.53630 6.41019
#
# Compressibility (1/GPa) = 0.02573087
#
# Stress axis : x y z
#
# Youngs Moduli (GPa) = 55.98360 56.99815 67.37345
#
# Poissons Ratio (x) = 0.36032 0.24852
# Poissons Ratio (y) = 0.35391 0.15152
# Poissons Ratio (z) = 0.20651 0.12819
#
# Static dielectric constant tensor:
#      x y z
#    x 1.634810 0.000000 0.030690 
#    y 0.000000 1.664440 0.000000 
#    z 0.030690 0.000000 1.681640 
# 
# From -- ./inp_files/199772.got.cif
#   From: 2010.05.17/outbox.cif.g08.bks.cpg/sg12_100_cif.got.tgz:199772.got - 2010.06.03 13:09:07.
