data_PCOD9199972
_publ_section_title
;
Structure prediction by ZEFSAII (Michael W. Deem and Ramdas Pophale) SiO2 
 PCOD9199972
Probable space group: C 2/M
;
_chemical_formula_sum "Si O2"
_cell_formula_units_Z 40
_cell_length_a 12.456184
_cell_length_b 14.864623
_cell_length_c 18.588910
_cell_angle_alpha 90.000000
_cell_angle_beta 151.349232
_cell_angle_gamma 90.000000
_cell_volume 1650.265940
_symmetry_space_group_name_H-M "C 2/M"
_symmetry_group_IT_number 12
_symmetry_cell_setting 'monoclinic'
loop_
_space_group_symop_operation_xyz
x,y,z
-x,y,-z
-x,-y,-z
x,-y,z
1/2+x,1/2+y,z
1/2-x,1/2+y,-z
1/2-x,1/2-y,-z
1/2+x,1/2-y,z
loop_
_atom_site_type_symbol
_atom_site_label
_atom_site_fract_x
_atom_site_fract_y
_atom_site_fract_z
Si Si1 0.126741 0.331370 0.385369
Si Si2 0.969929 0.271915 0.826717
Si Si3 0.283435 0.899936 0.925767
Si Si4 0.821462 0.395295 0.332589
Si Si5 0.911055 0.900497 0.335356
O O1 0.250000 0.250000 0.500000
O O2 0.011186 0.298602 0.245080
O O3 0.336829 0.393861 0.489449
O O4 0.951667 0.378207 0.334948
O O5 0.893952 0.168711 0.790943
O O6 0.744941 0.324440 0.723075
O O7 0.161867 0.319162 0.987794
O O8 0.267744 0.000000 0.949768
O O9 0.500000 0.900550 0.000000
O O10 0.088633 0.890264 0.751781
O O11 0.765894 0.500000 0.308987
O O12 0.000000 0.369914 0.500000
O O13 0.819065 0.000000 0.296455
#
# Coordination Sequence:
#
# PCOD9199972 Si02
#       5
#     8   8   8   8   8
#     4  12  22  37  59  91 116 154 203 251 293 351
#     4  11  20  37  63  88 120 152 201 248 298 351
#     4   8  17  34  59  90 121 151 187 241 307 361
#     4  11  23  39  58  84 125 165 196 242 304 363
#     4  10  20  36  62  93 121 151 191 245 308 362
#
# _framework density 24.238519
#
# number of rings (size 3 to 8) (size 9 to 14) (size 15 to 20)
#    0.000    1.600    4.000    3.000    0.000    4.000 
#    0.000    1.000    0.000    5.400    0.000    0.000 
#    0.000    0.000    0.000    0.000    0.000    0.000 
#
# Total GULP energy -111995.469323 kJ/mol
# GULP energy per Si atom -5599.773466 kJ/mol
# Density = 2.418335 g / cm^3
# Si number density = 24.238519 Si / 1000 Ang^3
#
#
#
# Elastic Constant Matrix: (Units=GPa)
#
#
# Indices 1 2 3 4 5 6 
#
# 1 60.4199 10.1367 23.9269 0.0045 0.4546 0.0020
# 2 10.1367 147.4498 48.3443 0.0055 -9.4904 0.0025
# 3 23.9269 48.3443 141.7552 0.0042 -5.9164 0.0027
# 4 0.0045 0.0055 0.0042 36.3022 0.0011 -3.1921
# 5 0.4546 -9.4904 -5.9164 0.0011 48.7490 0.0007
# 6 0.0020 0.0025 0.0027 -3.1921 0.0007 19.2915
#
#
#
# Elastic Compliance Matrix: (Units=1/GPa)
#
#
# Indices 1 2 3 4 5 6 
#
# 1 0.017762 -0.000301 -0.002919 -0.000002 -0.000579 -0.000002
# 2 -0.000301 0.007709 -0.002528 -0.000001 0.001197 -0.000001
# 3 -0.002919 -0.002528 0.008433 0.000000 0.000558 -0.000001
# 4 -0.000002 -0.000001 0.000000 0.027953 -0.000001 0.004625
# 5 -0.000579 0.001197 0.000558 -0.000001 0.020819 -0.000001
# 6 -0.000002 -0.000001 -0.000001 0.004625 -0.000001 0.052602
#
#
# Mechanical properties :
#
#
# Convention : Reuss Voigt Hill
#
# Bulk Modulus (GPa) = 44.63161 57.16007 50.89584
# Shear Modulus (GPa) = 32.41625 38.68300 35.54962
#
# Velocity S-wave (km/s) = 3.66100 3.99924 3.83385
# Velocity P-wave (km/s) = 6.02694 6.70513 6.37506
#
# Compressibility (1/GPa) = 0.02240564
#
# Stress axis : x y z
#
# Youngs Moduli (GPa) = 56.30040 129.72517 118.58573
#
# Poissons Ratio (x) = 0.03906 0.34621
# Poissons Ratio (y) = 0.01695 0.29981
# Poissons Ratio (z) = 0.16437 0.32797
#
# Static dielectric constant tensor:
#      x y z
#    x 1.977670 0.000000 0.047140 
#    y 0.000000 2.016230 0.000000 
#    z 0.047140 0.000000 1.951230 
# 
# From -- ./inp_files/205924.got.cif
#   From: 2010.05.17/outbox.cif.g08.bks.cpg/sg12_103_cif.got.tgz:205924.got - 2010.06.03 13:09:07.
