data_PCOD9199931
_publ_section_title
;
Structure prediction by ZEFSAII (Michael W. Deem and Ramdas Pophale) SiO2 
 PCOD9199931
Probable space group: C 2/M
;
_chemical_formula_sum "Si O2"
_cell_formula_units_Z 56
_cell_length_a 31.561111
_cell_length_b 8.010718
_cell_length_c 12.600941
_cell_angle_alpha 90.000000
_cell_angle_beta 51.842157
_cell_angle_gamma 90.000000
_cell_volume 2505.079066
_symmetry_space_group_name_H-M "C 2/M"
_symmetry_group_IT_number 12
_symmetry_cell_setting 'monoclinic'
loop_
_space_group_symop_operation_xyz
x,y,z
-x,y,-z
-x,-y,-z
x,-y,z
1/2+x,1/2+y,z
1/2-x,1/2+y,-z
1/2-x,1/2-y,-z
1/2+x,1/2-y,z
loop_
_atom_site_type_symbol
_atom_site_label
_atom_site_fract_x
_atom_site_fract_y
_atom_site_fract_z
Si Si1 0.224735 0.801789 0.271124
Si Si2 0.094974 0.813310 0.821177
Si Si3 0.152287 0.698144 0.945004
Si Si4 0.384653 0.797902 0.612908
Si Si5 0.806709 0.309549 0.455190
Si Si6 0.457241 0.799111 0.305542
Si Si7 0.067372 0.295643 0.243701
O O1 0.285774 0.740369 0.157199
O O2 0.175154 0.770870 0.268228
O O3 0.201151 0.704495 0.408236
O O4 0.227596 0.000000 0.290098
O O5 0.116045 0.726027 0.895654
O O6 0.147953 0.805107 0.664785
O O7 0.051254 0.745017 0.804983
O O8 0.080050 0.000000 0.873619
O O9 0.157536 0.500000 0.950388
O O10 0.118472 0.763507 0.096444
O O11 0.410836 0.741281 0.460252
O O12 0.424812 0.749596 0.646127
O O13 0.381513 0.000000 0.616230
O O14 0.819305 0.500000 0.404586
O O15 0.750000 0.250000 0.500000
O O16 0.513366 0.739630 0.268162
O O17 0.455727 0.000000 0.312191
O O18 0.066203 0.500000 0.242557
#
# Coordination Sequence:
#
# PCOD9199931 Si02
#       7
#     8   8   8   8   8   8   8
#     4  11  22  35  56  87 122 158 196 238 292 353
#     4  12  24  37  58  88 123 156 195 242 299 359
#     4  10  22  40  60  83 119 162 204 242 289 357
#     4  10  20  36  62  91 118 150 199 254 302 350
#     4  12  22  35  57  87 120 155 194 241 298 351
#     4  10  20  37  63  90 117 151 199 253 304 351
#     4   9  20  40  63  86 113 157 209 252 292 350
#
# _framework density 22.354583999999999
#
# number of rings (size 3 to 8) (size 9 to 14) (size 15 to 20)
#    0.000    1.429    2.857    3.429    0.000    3.429 
#    0.000    5.000    0.000    1.714    0.000    0.000 
#    0.000    0.000    0.000    0.000    0.000    0.000 
#
# Total GULP energy -156255.804337 kJ/mol
# GULP energy per Si atom -5580.564441 kJ/mol
# Density = 2.230370 g / cm^3
# Si number density = 22.354584 Si / 1000 Ang^3
#
#
#
# Elastic Constant Matrix: (Units=GPa)
#
#
# Indices 1 2 3 4 5 6 
#
# 1 102.3917 -8.1479 -6.0902 0.0000 -2.3665 0.0000
# 2 -8.1479 33.9557 -4.2160 0.0000 -2.8107 0.0000
# 3 -6.0902 -4.2160 44.0101 0.0000 -1.8327 0.0000
# 4 0.0000 0.0000 0.0000 7.2990 0.0000 -2.7450
# 5 -2.3665 -2.8107 -1.8327 0.0000 16.3000 0.0000
# 6 0.0000 0.0000 0.0000 -2.7450 0.0000 17.8829
#
#
#
# Elastic Compliance Matrix: (Units=1/GPa)
#
#
# Indices 1 2 3 4 5 6 
#
# 1 0.010147 0.002833 0.001765 0.000000 0.002160 0.000000
# 2 0.002833 0.031092 0.003628 0.000000 0.006181 0.000000
# 3 0.001765 0.003628 0.023460 0.000000 0.003520 0.000000
# 4 0.000000 0.000000 0.000000 0.145398 0.000000 0.022318
# 5 0.002160 0.006181 0.003520 0.000000 0.063125 0.000000
# 6 0.000000 0.000000 0.000000 0.022318 0.000000 0.059345
#
#
# Mechanical properties :
#
#
# Convention : Reuss Voigt Hill
#
# Bulk Modulus (GPa) = 12.32263 15.93880 14.13072
# Shear Modulus (GPa) = 14.57025 21.55050 18.06038
#
# Velocity S-wave (km/s) = 2.55577 3.10825 2.84545
# Velocity P-wave (km/s) = 3.77274 4.47517 4.13888
#
# Compressibility (1/GPa) = 0.08115148
#
# Stress axis : x y z
#
# Youngs Moduli (GPa) = 98.55354 32.16269 42.62485
#
# Poissons Ratio (x) = -0.09111 -0.07525
# Poissons Ratio (y) = -0.27918 -0.15464
# Poissons Ratio (z) = -0.17399 -0.11668
#
# Static dielectric constant tensor:
#      x y z
#    x 1.933110 0.000000 -0.014580 
#    y 0.000000 1.813260 0.000000 
#    z -0.014580 0.000000 1.798540 
# 
# From -- ./inp_files/187265.got.cif
#   From: 2010.05.17/outbox.cif.g08.bks.cpg/sg12_94_cif.got.tgz:187265.got - 2010.06.03 13:09:07.
