data_PCOD9199690
_publ_section_title
;
Structure prediction by ZEFSAII (Michael W. Deem and Ramdas Pophale) SiO2 
 PCOD9199690
Probable space group: C 2/M
;
_chemical_formula_sum "Si O2"
_cell_formula_units_Z 64
_cell_length_a 25.949015
_cell_length_b 13.562839
_cell_length_c 9.974119
_cell_angle_alpha 90.000000
_cell_angle_beta 104.406699
_cell_angle_gamma 90.000000
_cell_volume 3399.929431
_symmetry_space_group_name_H-M "C 2/M"
_symmetry_group_IT_number 12
_symmetry_cell_setting 'monoclinic'
loop_
_space_group_symop_operation_xyz
x,y,z
-x,y,-z
-x,-y,-z
x,-y,z
1/2+x,1/2+y,z
1/2-x,1/2+y,-z
1/2-x,1/2-y,-z
1/2+x,1/2-y,z
loop_
_atom_site_type_symbol
_atom_site_label
_atom_site_fract_x
_atom_site_fract_y
_atom_site_fract_z
Si Si1 0.659401 0.612645 0.739899
Si Si2 0.504799 0.614513 0.160400
Si Si3 0.378024 0.112431 0.361785
Si Si4 0.806399 0.244454 0.464722
Si Si5 0.313595 0.318002 0.947435
Si Si6 0.369899 0.613464 0.714071
Si Si7 0.697764 0.888078 0.943478
Si Si8 0.450872 0.702861 0.370983
O O1 0.674887 0.500000 0.737250
O O2 0.696647 0.682747 0.675458
O O3 0.599752 0.630909 0.647396
O O4 0.661797 0.645016 0.895971
O O5 0.487210 0.500000 0.169385
O O6 0.566559 0.620934 0.239970
O O7 0.471539 0.686299 0.233610
O O8 0.500000 0.636305 0.000000
O O9 0.335312 0.154305 0.441349
O O10 0.347875 0.116238 0.198963
O O11 0.426597 0.189414 0.385556
O O12 0.393217 0.000000 0.399435
O O13 0.750000 0.250000 0.500000
O O14 0.844951 0.184611 0.588211
O O15 0.346201 0.356788 0.842974
O O16 0.253894 0.361458 0.909386
O O17 0.311340 0.199256 0.956178
O O18 0.355469 0.500000 0.675664
O O19 0.700362 0.000000 0.997916
O O20 0.500000 0.680118 0.500000
#
# Coordination Sequence:
#
# PCOD9199690 Si02
#       8
#     8   8   8   8   8   8   8   8
#     4  11  22  38  59  87 118 152 198 244 291 353
#     4  10  21  36  57  87 120 151 186 236 306 365
#     4  10  22  42  63  85 115 160 207 248 294 345
#     4  11  23  38  56  88 118 158 193 239 294 353
#     4  11  21  37  62  92 118 155 199 239 287 354
#     4  11  23  38  58  86 124 159 187 234 304 364
#     4  10  20  36  61  87 116 151 195 244 289 339
#     4  11  22  38  60  86 112 151 200 252 297 346
#
# _framework density 18.823920000000001
#
# number of rings (size 3 to 8) (size 9 to 14) (size 15 to 20)
#    0.000    1.375    2.500    4.875    1.750    5.250 
#    0.000    0.625    0.000    1.125    0.000    0.000 
#    0.000    0.000    0.000    0.000    0.000    0.000 
#
# Total GULP energy -178819.404145 kJ/mol
# GULP energy per Si atom -5588.106380 kJ/mol
# Density = 1.878108 g / cm^3
# Si number density = 18.823920 Si / 1000 Ang^3
#
#
#
# Elastic Constant Matrix: (Units=GPa)
#
#
# Indices 1 2 3 4 5 6 
#
# 1 63.6094 4.0636 13.4702 0.0000 -7.3235 0.0000
# 2 4.0636 84.6688 5.2304 0.0000 -7.8544 0.0000
# 3 13.4702 5.2304 69.7237 0.0000 1.8608 0.0000
# 4 0.0000 0.0000 0.0000 22.3170 0.0000 2.7534
# 5 -7.3235 -7.8544 1.8608 0.0000 33.5848 0.0000
# 6 0.0000 0.0000 0.0000 2.7534 0.0000 15.0160
#
#
#
# Elastic Compliance Matrix: (Units=1/GPa)
#
#
# Indices 1 2 3 4 5 6 
#
# 1 0.016884 -0.000250 -0.003345 0.000000 0.003808 0.000000
# 2 -0.000250 0.012144 -0.000938 0.000000 0.002837 0.000000
# 3 -0.003345 -0.000938 0.015107 0.000000 -0.001786 0.000000
# 4 0.000000 0.000000 0.000000 0.045846 0.000000 -0.008406
# 5 0.003808 0.002837 -0.001786 0.000000 0.031368 0.000000
# 6 0.000000 0.000000 0.000000 -0.008406 0.000000 0.068137
#
#
# Mechanical properties :
#
#
# Convention : Reuss Voigt Hill
#
# Bulk Modulus (GPa) = 28.51660 29.28115 28.89888
# Shear Modulus (GPa) = 23.78217 27.19940 25.49079
#
# Velocity S-wave (km/s) = 3.55829 3.80536 3.68390
# Velocity P-wave (km/s) = 5.66250 5.90735 5.78622
#
# Compressibility (1/GPa) = 0.03506729
#
# Stress axis : x y z
#
# Youngs Moduli (GPa) = 59.22875 82.34565 66.19641
#
# Poissons Ratio (x) = 0.02062 0.22141
# Poissons Ratio (y) = 0.01483 0.06211
# Poissons Ratio (z) = 0.19810 0.07727
#
# Static dielectric constant tensor:
#      x y z
#    x 1.751100 0.000000 -0.005600 
#    y 0.000000 1.654500 0.000000 
#    z -0.005600 0.000000 1.667640 
# 
# From -- ./inp_files/104638.got.cif
#   From: 2010.05.17/outbox.cif.g08.bks.cpg/sg12_53_cif.got.tgz:104638.got - 2010.06.03 13:09:07.
