data_PCOD9199491
_publ_section_title
;
Structure prediction by ZEFSAII (Michael W. Deem and Ramdas Pophale) SiO2 
 PCOD9199491
Probable space group: C 2/M
;
_chemical_formula_sum "Si O2"
_cell_formula_units_Z 48
_cell_length_a 23.731782
_cell_length_b 8.832370
_cell_length_c 17.285335
_cell_angle_alpha 90.000000
_cell_angle_beta 47.865542
_cell_angle_gamma 90.000000
_cell_volume 2686.822809
_symmetry_space_group_name_H-M "C 2/M"
_symmetry_group_IT_number 12
_symmetry_cell_setting 'monoclinic'
loop_
_space_group_symop_operation_xyz
x,y,z
-x,y,-z
-x,-y,-z
x,-y,z
1/2+x,1/2+y,z
1/2-x,1/2+y,-z
1/2-x,1/2-y,-z
1/2+x,1/2-y,z
loop_
_atom_site_type_symbol
_atom_site_label
_atom_site_fract_x
_atom_site_fract_y
_atom_site_fract_z
Si Si1 0.256751 0.180457 0.868142
Si Si2 0.965701 0.319483 0.291975
Si Si3 0.550828 0.319806 0.527046
Si Si4 0.807979 0.819735 0.383662
Si Si5 0.866412 0.318238 0.908774
Si Si6 0.275045 0.320376 0.682608
O O1 0.324565 0.218522 0.865995
O O2 0.267075 0.261520 0.777011
O O3 0.256090 0.000000 0.857978
O O4 0.180306 0.234978 0.981425
O O5 0.955708 0.500000 0.295835
O O6 0.971090 0.271179 0.376558
O O7 0.892323 0.238095 0.324576
O O8 0.045147 0.278467 0.178096
O O9 0.500000 0.278560 0.500000
O O10 0.540786 0.500000 0.550770
O O11 0.638913 0.293497 0.425743
O O12 0.750000 0.750000 0.500000
O O13 0.780559 0.764278 0.325133
O O14 0.804839 0.000000 0.392462
O O15 0.859572 0.500000 0.925714
O O16 0.260889 0.500000 0.692433
#
# Coordination Sequence:
#
# PCOD9199491 Si02
#       6
#     8   8   8   8   8   8
#     4  10  20  36  60  88 118 154 194 238 287 342
#     4  11  22  37  59  85 115 152 193 239 289 344
#     4  10  21  35  54  83 117 151 188 234 287 345
#     4  12  24  40  60  83 114 153 196 240 287 345
#     4   9  20  38  59  86 119 155 193 235 289 346
#     4  11  22  37  58  84 117 154 192 237 288 344
#
# _framework density 17.864965999999999
#
# number of rings (size 3 to 8) (size 9 to 14) (size 15 to 20)
#    0.000    1.500    1.667    4.000    0.000    3.000 
#    0.000    0.833    0.000    5.000    0.000    0.000 
#    0.000    0.000    0.000    0.000    0.000    0.000 
#
# Total GULP energy -134147.412951 kJ/mol
# GULP energy per Si atom -5589.475540 kJ/mol
# Density = 1.782430 g / cm^3
# Si number density = 17.864966 Si / 1000 Ang^3
#
#
#
# Elastic Constant Matrix: (Units=GPa)
#
#
# Indices 1 2 3 4 5 6 
#
# 1 52.5752 22.6981 0.5669 -0.0001 -24.0553 0.0002
# 2 22.6981 64.5942 29.8316 -0.0009 -16.3515 0.0007
# 3 0.5669 29.8316 56.5832 0.0000 -17.8950 0.0002
# 4 -0.0001 -0.0009 0.0000 31.9190 0.0000 5.7445
# 5 -24.0553 -16.3515 -17.8950 0.0000 30.1830 0.0001
# 6 0.0002 0.0007 0.0002 5.7445 0.0001 31.8690
#
#
#
# Elastic Compliance Matrix: (Units=1/GPa)
#
#
# Indices 1 2 3 4 5 6 
#
# 1 0.041505 -0.013858 0.018434 0.000000 0.036500 0.000000
# 2 -0.013858 0.025942 -0.015491 0.000001 -0.006175 -0.000001
# 3 0.018434 -0.015491 0.034028 0.000000 0.026474 0.000000
# 4 0.000000 0.000001 0.000000 0.032380 0.000000 -0.005837
# 5 0.036500 -0.006175 0.026474 0.000000 0.074572 0.000000
# 6 0.000000 -0.000001 0.000000 -0.005837 0.000000 0.032430
#
#
# Mechanical properties :
#
#
# Convention : Reuss Voigt Hill
#
# Bulk Modulus (GPa) = 12.55586 31.10509 21.83048
# Shear Modulus (GPa) = 17.28691 26.83794 22.06242
#
# Velocity S-wave (km/s) = 3.11407 3.88011 3.51800
# Velocity P-wave (km/s) = 4.46916 6.12558 5.36172
#
# Compressibility (1/GPa) = 0.07964407
#
# Stress axis : x y z
#
# Youngs Moduli (GPa) = 24.09360 38.54734 29.38732
#
# Poissons Ratio (x) = 0.53420 -0.54172
# Poissons Ratio (y) = 0.33390 0.45525
# Poissons Ratio (z) = -0.44414 0.59715
#
# Static dielectric constant tensor:
#      x y z
#    x 1.597240 0.000000 -0.008040 
#    y 0.000000 1.596220 0.000000 
#    z -0.008040 0.000000 1.578450 
# 
# From -- ./inp_files/281815.got.cif
#   From: 2010.05.17/outbox.cif.g08.bks.cpg/sg12_141_cif.got.tgz:281815.got - 2010.06.03 13:09:07.
