data_PCOD9199125
_publ_section_title
;
Structure prediction by ZEFSAII (Michael W. Deem and Ramdas Pophale) SiO2 
 PCOD9199125
Probable space group: C 2/M
;
_chemical_formula_sum "Si O2"
_cell_formula_units_Z 64
_cell_length_a 12.627451
_cell_length_b 14.981820
_cell_length_c 21.902533
_cell_angle_alpha 90.000000
_cell_angle_beta 137.705763
_cell_angle_gamma 90.000000
_cell_volume 2788.365739
_symmetry_space_group_name_H-M "C 2/M"
_symmetry_group_IT_number 12
_symmetry_cell_setting 'monoclinic'
loop_
_space_group_symop_operation_xyz
x,y,z
-x,y,-z
-x,-y,-z
x,-y,z
1/2+x,1/2+y,z
1/2-x,1/2+y,-z
1/2-x,1/2-y,-z
1/2+x,1/2-y,z
loop_
_atom_site_type_symbol
_atom_site_label
_atom_site_fract_x
_atom_site_fract_y
_atom_site_fract_z
Si Si1 0.830068 0.147278 0.792200
Si Si2 0.757026 0.606432 0.854752
Si Si3 0.382198 0.148326 0.783283
Si Si4 0.816524 0.898576 0.048468
Si Si5 0.875917 0.652688 0.401062
Si Si6 0.281892 0.105539 0.123465
Si Si7 0.049516 0.142708 0.587476
Si Si8 0.920859 0.104308 0.657536
O O1 0.866332 0.245461 0.781800
O O2 0.690843 0.109810 0.689712
O O3 0.775327 0.150976 0.838850
O O4 0.997234 0.098814 0.858598
O O5 0.744900 0.500000 0.857158
O O6 0.882943 0.620221 0.855003
O O7 0.767954 0.643000 0.928194
O O8 0.589153 0.636461 0.755271
O O9 0.533683 0.118122 0.810996
O O10 0.223292 0.113448 0.683429
O O11 0.756300 0.000000 0.015835
O O12 0.795325 0.858315 0.972236
O O13 0.946070 0.749094 0.413200
O O14 0.718872 0.661502 0.374630
O O15 0.000000 0.607637 0.500000
O O16 0.243214 0.000000 0.114551
O O17 0.000000 0.110731 0.500000
O O18 0.931722 0.112361 0.589712
O O19 0.898639 0.000000 0.664852
#
# Coordination Sequence:
#
# PCOD9199125 Si02
#       8
#     8   8   8   8   8   8   8   8
#     4  11  23  39  63  88 123 158 200 249 300 354
#     4   9  18  37  63  83 113 161 202 237 292 366
#     4  10  23  38  61  91 123 151 200 257 302 340
#     4  10  21  40  65  86 114 164 208 234 291 376
#     4  10  22  38  61  90 119 156 202 245 294 354
#     4  11  25  43  62  89 125 161 197 246 306 362
#     4   9  21  39  61  85 118 163 201 234 294 372
#     4  10  20  36  59  86 117 153 197 249 296 344
#
# _framework density 22.952513
#
# number of rings (size 3 to 8) (size 9 to 14) (size 15 to 20)
#    0.000    2.000    1.250    1.125    1.750    9.500 
#    2.250    3.125    0.000    0.000    0.000    0.000 
#    0.000    0.000    0.000    0.000    0.000    0.000 
#
# Total GULP energy -178721.893932 kJ/mol
# GULP energy per Si atom -5585.059185 kJ/mol
# Density = 2.290027 g / cm^3
# Si number density = 22.952513 Si / 1000 Ang^3
#
#
#
# Elastic Constant Matrix: (Units=GPa)
#
#
# Indices 1 2 3 4 5 6 
#
# 1 95.0548 -5.1539 21.0862 0.0000 -29.8367 0.0000
# 2 -5.1539 57.4751 -3.4184 0.0000 -1.4066 0.0000
# 3 21.0862 -3.4184 122.6612 0.0000 -34.6973 0.0000
# 4 0.0000 0.0000 0.0000 16.4321 0.0000 3.7416
# 5 -29.8367 -1.4066 -34.6973 0.0000 42.3036 0.0000
# 6 0.0000 0.0000 0.0000 3.7416 0.0000 14.5630
#
#
#
# Elastic Compliance Matrix: (Units=1/GPa)
#
#
# Indices 1 2 3 4 5 6 
#
# 1 0.013662 0.001507 0.000564 0.000000 0.010149 0.000000
# 2 0.001507 0.017647 0.000911 0.000000 0.002397 0.000000
# 3 0.000564 0.000911 0.010680 0.000000 0.009188 0.000000
# 4 0.000000 0.000000 0.000000 0.064638 0.000000 -0.016607
# 5 0.010149 0.002397 0.009188 0.000000 0.038412 0.000000
# 6 0.000000 0.000000 0.000000 -0.016607 0.000000 0.072934
#
#
# Mechanical properties :
#
#
# Convention : Reuss Voigt Hill
#
# Bulk Modulus (GPa) = 20.85377 33.35765 27.10571
# Shear Modulus (GPa) = 21.93042 32.17156 27.05099
#
# Velocity S-wave (km/s) = 3.09442 3.74793 3.43675
# Velocity P-wave (km/s) = 4.67681 5.77011 5.25199
#
# Compressibility (1/GPa) = 0.04795296
#
# Stress axis : x y z
#
# Youngs Moduli (GPa) = 73.19328 56.66753 93.63392
#
# Poissons Ratio (x) = -0.08540 -0.05283
# Poissons Ratio (y) = -0.11031 -0.08527
# Poissons Ratio (z) = -0.04129 -0.05160
#
# Static dielectric constant tensor:
#      x y z
#    x 1.821710 0.000000 -0.021120 
#    y 0.000000 1.905290 0.000000 
#    z -0.021120 0.000000 1.922910 
# 
# From -- ./inp_files/306209.got.cif
#   From: 2010.05.17/outbox.cif.g08.bks.cpg/sg12_154_cif.got.tgz:306209.got - 2010.06.03 13:09:07.
