data_PCOD9199084
_publ_section_title
;
Structure prediction by ZEFSAII (Michael W. Deem and Ramdas Pophale) SiO2 
 PCOD9199084
Probable space group: C 2/M
;
_chemical_formula_sum "Si O2"
_cell_formula_units_Z 56
_cell_length_a 25.668735
_cell_length_b 7.968926
_cell_length_c 18.963142
_cell_angle_alpha 90.000000
_cell_angle_beta 38.636167
_cell_angle_gamma 90.000000
_cell_volume 2421.912946
_symmetry_space_group_name_H-M "C 2/M"
_symmetry_group_IT_number 12
_symmetry_cell_setting 'monoclinic'
loop_
_space_group_symop_operation_xyz
x,y,z
-x,y,-z
-x,-y,-z
x,-y,z
1/2+x,1/2+y,z
1/2-x,1/2+y,-z
1/2-x,1/2-y,-z
1/2+x,1/2-y,z
loop_
_atom_site_type_symbol
_atom_site_label
_atom_site_fract_x
_atom_site_fract_y
_atom_site_fract_z
Si Si1 0.200159 0.190811 0.123516
Si Si2 0.577717 0.694867 0.370115
Si Si3 0.887620 0.802831 0.160158
Si Si4 0.337880 0.796983 0.442548
Si Si5 0.855349 0.806134 0.039027
Si Si6 0.689940 0.801807 0.373687
Si Si7 0.484605 0.193204 0.190497
O O1 0.118904 0.265459 0.252682
O O2 0.177358 0.000000 0.132787
O O3 0.250000 0.250000 0.000000
O O4 0.275352 0.204560 0.100360
O O5 0.500000 0.767094 0.500000
O O6 0.556371 0.500000 0.378494
O O7 0.652567 0.706559 0.347374
O O8 0.789129 0.788319 0.277615
O O9 0.938426 0.703004 0.164007
O O10 0.911872 0.000000 0.140820
O O11 0.894913 0.750184 0.071332
O O12 0.250000 0.750000 0.500000
O O13 0.345826 0.740239 0.514417
O O14 0.416246 0.734288 0.315549
O O15 0.340175 0.000000 0.440090
O O16 0.928785 0.789672 0.904970
O O17 0.829611 0.000000 0.075299
O O18 0.671356 0.000000 0.383527
O O19 0.503121 0.000000 0.188352
#
# Coordination Sequence:
#
# PCOD9199084 Si02
#       7
#     8   8   8   8   8   8   8
#     4  11  24  43  68  94 125 161 203 255 311 372
#     4  10  23  43  66  94 124 155 199 253 311 371
#     4  10  20  36  59  85 116 156 202 244 292 353
#     4  10  21  36  55  82 118 157 200 244 293 353
#     4  11  23  40  61  86 119 159 204 250 302 359
#     4  10  20  37  61  87 116 154 199 244 293 354
#     4  11  23  36  55  88 125 161 204 249 298 356
#
# _framework density 23.122216999999999
#
# number of rings (size 3 to 8) (size 9 to 14) (size 15 to 20)
#    0.000    1.571    2.857    1.714    0.000    6.571 
#    0.000    2.857    0.000    0.000    0.000    0.000 
#    0.000    0.000    0.000    0.000    0.000    0.000 
#
# Total GULP energy -156258.147171 kJ/mol
# GULP energy per Si atom -5580.648113 kJ/mol
# Density = 2.306959 g / cm^3
# Si number density = 23.122217 Si / 1000 Ang^3
#
#
#
# Elastic Constant Matrix: (Units=GPa)
#
#
# Indices 1 2 3 4 5 6 
#
# 1 21.9300 1.6961 32.2870 -0.0105 5.4206 0.0042
# 2 1.6961 24.8002 10.5779 -0.0099 2.8211 0.0048
# 3 32.2870 10.5779 209.2403 -0.0103 14.8347 0.0090
# 4 -0.0105 -0.0099 -0.0103 19.0431 0.0084 2.7555
# 5 5.4206 2.8211 14.8347 0.0084 32.6271 -0.0049
# 6 0.0042 0.0048 0.0090 2.7555 -0.0049 14.7979
#
#
#
# Elastic Compliance Matrix: (Units=1/GPa)
#
#
# Indices 1 2 3 4 5 6 
#
# 1 0.060109 0.000353 -0.008869 0.000034 -0.005984 -0.000020
# 2 0.000353 0.041445 -0.001954 0.000025 -0.002753 -0.000018
# 3 -0.008869 -0.001954 0.006334 -0.000002 -0.001238 -0.000001
# 4 0.000034 0.000025 -0.000002 0.053967 -0.000022 -0.010049
# 5 -0.005984 -0.002753 -0.001238 -0.000022 0.032444 0.000018
# 6 -0.000020 -0.000018 -0.000001 -0.010049 0.000018 0.069448
#
#
# Mechanical properties :
#
#
# Convention : Reuss Voigt Hill
#
# Bulk Modulus (GPa) = 11.50124 38.34362 24.92243
# Shear Modulus (GPa) = 15.94028 27.38759 21.66394
#
# Velocity S-wave (km/s) = 2.62848 3.44535 3.06425
# Velocity P-wave (km/s) = 3.76786 5.69616 4.82923
#
# Compressibility (1/GPa) = 0.08694712
#
# Stress axis : x y z
#
# Youngs Moduli (GPa) = 16.63649 24.12834 157.87231
#
# Poissons Ratio (x) = -0.00851 1.40012
# Poissons Ratio (y) = -0.00587 0.30855
# Poissons Ratio (z) = 0.14754 0.04716
#
# Static dielectric constant tensor:
#      x y z
#    x 1.814390 -0.000010 0.039440 
#    y -0.000010 1.822440 0.000010 
#    z 0.039440 0.000010 2.000200 
# 
# From -- ./inp_files/292383.got.cif
#   From: 2010.05.17/outbox.cif.g08.bks.cpg/sg12_147_cif.got.tgz:292383.got - 2010.06.03 13:09:07.
