data_PCOD9199626
_publ_section_title
;
Structure prediction by ZEFSAII (Michael W. Deem and Ramdas Pophale) SiO2 
 PCOD9199626
Probable space group: C 2/M
;
_chemical_formula_sum "Si O2"
_cell_formula_units_Z 60
_cell_length_a 32.207388
_cell_length_b 14.687621
_cell_length_c 15.742784
_cell_angle_alpha 90.000000
_cell_angle_beta 155.799584
_cell_angle_gamma 90.000000
_cell_volume 3052.796379
_symmetry_space_group_name_H-M "C 2/M"
_symmetry_group_IT_number 12
_symmetry_cell_setting 'monoclinic'
loop_
_space_group_symop_operation_xyz
x,y,z
-x,y,-z
-x,-y,-z
x,-y,z
1/2+x,1/2+y,z
1/2-x,1/2+y,-z
1/2-x,1/2-y,-z
1/2+x,1/2-y,z
loop_
_atom_site_type_symbol
_atom_site_label
_atom_site_fract_x
_atom_site_fract_y
_atom_site_fract_z
Si Si1 0.096132 0.811977 0.341182
Si Si2 0.171545 0.300801 0.195016
Si Si3 0.123897 0.393959 0.927439
Si Si4 0.115848 0.896474 0.021653
Si Si5 0.440640 0.228665 0.553447
Si Si6 0.427400 0.396391 0.248215
Si Si7 0.000000 0.279471 0.000000
Si Si8 0.807502 0.190935 0.175384
O O1 0.215555 0.832409 0.568794
O O2 0.084108 0.735845 0.393236
O O3 0.006965 0.884323 0.196939
O O4 0.063659 0.777313 0.188269
O O5 0.139426 0.347028 0.047343
O O6 0.162526 0.190482 0.159442
O O7 0.087244 0.327085 0.107418
O O8 0.104246 0.500000 0.898651
O O9 0.028749 0.344301 0.705044
O O10 0.228122 0.374415 0.073353
O O11 0.138376 0.887701 0.962334
O O12 0.143725 0.000000 0.100140
O O13 0.484545 0.326420 0.607893
O O14 0.346936 0.232493 0.315747
O O15 0.461047 0.500000 0.314243
O O16 0.380838 0.367169 0.251040
O O17 0.750000 0.250000 0.000000
#
# Coordination Sequence:
#
# PCOD9199626 Si02
#       8
#     8   8   8   8   8   8   4   8
#     4  10  20  37  66  94 127 160 206 254 322 383
#     4  11  20  41  64  98 125 162 211 263 317 383
#     4  12  25  43  65  92 130 175 216 261 319 382
#     4   9  19  38  64  91 128 167 205 257 319 375
#     4  11  22  42  62  90 130 167 203 263 322 370
#     4  10  20  36  60  92 123 159 209 259 309 361
#     4  10  20  38  70  92 126 164 202 260 326 386
#     4  12  23  39  65  89 128 169 216 265 305 367
#
# _framework density 19.654112000000001
#
# number of rings (size 3 to 8) (size 9 to 14) (size 15 to 20)
#    0.000    1.333    6.667    1.200    0.000    2.133 
#    0.000    8.333    0.000    3.200    0.000    0.000 
#    0.000    0.000    0.000    0.000    0.000    0.000 
#
# Total GULP energy -167041.641487 kJ/mol
# GULP energy per Si atom -5568.054716 kJ/mol
# Density = 1.960938 g / cm^3
# Si number density = 19.654112 Si / 1000 Ang^3
#
#
#
# Elastic Constant Matrix: (Units=GPa)
#
#
# Indices 1 2 3 4 5 6 
#
# 1 123.2243 -11.6127 34.0711 0.0000 -4.3752 0.0000
# 2 -11.6127 148.3693 -4.2620 0.0000 9.5353 0.0000
# 3 34.0711 -4.2620 117.3502 0.0000 -13.0438 0.0000
# 4 0.0000 0.0000 0.0000 -9.9369 0.0000 -21.9643
# 5 -4.3752 9.5353 -13.0438 0.0000 37.7546 0.0000
# 6 0.0000 0.0000 0.0000 -21.9643 0.0000 -13.1749
#
#
#
# Elastic Compliance Matrix: (Units=1/GPa)
#
#
# Indices 1 2 3 4 5 6 
#
# 1 0.008881 0.000622 -0.002557 0.000000 -0.000011 0.000000
# 2 0.000622 0.006895 -0.000120 0.000000 -0.001711 0.000000
# 3 -0.002557 -0.000120 0.009599 0.000000 0.003050 0.000000
# 4 0.000000 0.000000 0.000000 0.037481 0.000000 -0.062485
# 5 -0.000011 -0.001711 0.003050 0.000000 0.027971 0.000000
# 6 0.000000 0.000000 0.000000 -0.062485 0.000000 0.028269
#
#
# Mechanical properties :
#
#
# Convention : Reuss Voigt Hill
#
# Bulk Modulus (GPa) = 47.02777 47.25962 47.14370
# Shear Modulus (GPa) = 38.37483 27.64504 33.00993
#
# Velocity S-wave (km/s) = 4.42351 3.75451 4.10267
# Velocity P-wave (km/s) = 7.07599 6.54927 6.81772
#
# Compressibility (1/GPa) = 0.02126403
#
# Stress axis : x y z
#
# Youngs Moduli (GPa) = 112.60586 145.02956 104.18217
#
# Poissons Ratio (x) = -0.09026 0.26640
# Poissons Ratio (y) = -0.07008 0.01255
# Poissons Ratio (z) = 0.28794 0.01747
#
# Static dielectric constant tensor:
#      x y z
#    x 1.722100 0.000000 -0.026910 
#    y 0.000000 1.676350 0.000000 
#    z -0.026910 0.000000 1.720130 
# 
# From -- ./inp_files/251337.got.cif
#   From: 2010.05.17/outbox.cif.g08.bks.cpg/sg12_126_cif.got.tgz:251337.got - 2010.06.03 13:09:07.
