data_PCOD9199625
_publ_section_title
;
Structure prediction by ZEFSAII (Michael W. Deem and Ramdas Pophale) SiO2 
 PCOD9199625
Probable space group: C 2/M
;
_chemical_formula_sum "Si O2"
_cell_formula_units_Z 56
_cell_length_a 13.859209
_cell_length_b 23.561505
_cell_length_c 7.937954
_cell_angle_alpha 90.000000
_cell_angle_beta 69.086185
_cell_angle_gamma 90.000000
_cell_volume 2421.318895
_symmetry_space_group_name_H-M "C 2/M"
_symmetry_group_IT_number 12
_symmetry_cell_setting 'monoclinic'
loop_
_space_group_symop_operation_xyz
x,y,z
-x,y,-z
-x,-y,-z
x,-y,z
1/2+x,1/2+y,z
1/2-x,1/2+y,-z
1/2-x,1/2-y,-z
1/2+x,1/2-y,z
loop_
_atom_site_type_symbol
_atom_site_label
_atom_site_fract_x
_atom_site_fract_y
_atom_site_fract_z
Si Si1 0.972440 0.623680 0.840839
Si Si2 0.254788 0.649731 0.943378
Si Si3 0.609850 0.697783 0.850888
Si Si4 0.391950 0.434084 0.655345
Si Si5 0.477341 0.000000 0.261120
Si Si6 0.681224 0.000000 0.327047
Si Si7 0.295934 0.604194 0.380097
Si Si8 0.846657 0.310598 0.350915
O O1 0.030065 0.562414 0.812509
O O2 0.041012 0.662005 0.678284
O O3 0.849918 0.624775 0.906366
O O4 0.000000 0.652365 0.000000
O O5 0.341645 0.604079 0.832413
O O6 0.211896 0.673752 0.790880
O O7 0.308094 0.691599 0.045662
O O8 0.608202 0.635603 0.765511
O O9 0.636208 0.744193 0.690773
O O10 0.500000 0.712016 0.000000
O O11 0.500000 0.416111 0.500000
O O12 0.401096 0.500000 0.700499
O O13 0.315677 0.427483 0.543399
O O14 0.598457 0.000000 0.231550
O O15 0.396510 0.000000 0.463559
O O16 0.749085 0.055899 0.292661
O O17 0.221068 0.657062 0.467484
#
# Coordination Sequence:
#
# PCOD9199625 Si02
#       8
#     8   8   8   8   4   4   8   8
#     4  10  20  36  60  92 121 157 203 249 313 377
#     4  10  22  38  61  90 123 159 206 255 316 363
#     4  12  24  41  62  90 127 164 208 264 311 352
#     4  10  21  39  61  84 117 163 211 254 296 366
#     4  11  21  34  58  88 132 157 188 252 318 374
#     4  11  22  38  60  88 126 166 196 250 312 372
#     4  11  22  41  64  90 122 166 208 251 310 376
#     4  10  22  41  64  88 121 163 210 251 306 377
#
# _framework density 23.127891000000002
#
# number of rings (size 3 to 8) (size 9 to 14) (size 15 to 20)
#    0.000    1.429    2.143    4.071    1.000    0.000 
#    1.286    0.357    0.000    3.429    0.000    0.000 
#    0.000    0.000    0.000    0.000    0.000    0.000 
#
# Total GULP energy -155990.294778 kJ/mol
# GULP energy per Si atom -5571.081956 kJ/mol
# Density = 2.307525 g / cm^3
# Si number density = 23.127891 Si / 1000 Ang^3
#
#
#
# Elastic Constant Matrix: (Units=GPa)
#
#
# Indices 1 2 3 4 5 6 
#
# 1 68.5407 25.2999 20.0797 0.0000 -20.1931 0.0000
# 2 25.2999 123.8938 32.9041 0.0000 -22.2705 0.0000
# 3 20.0797 32.9041 26.4380 0.0000 -10.5395 0.0000
# 4 0.0000 0.0000 0.0000 27.1972 0.0000 -2.6107
# 5 -20.1931 -22.2705 -10.5395 0.0000 44.1733 0.0000
# 6 0.0000 0.0000 0.0000 -2.6107 0.0000 30.3706
#
#
#
# Elastic Compliance Matrix: (Units=1/GPa)
#
#
# Indices 1 2 3 4 5 6 
#
# 1 0.020203 0.000620 -0.013604 0.000000 0.006302 0.000000
# 2 0.000620 0.012388 -0.014683 0.000000 0.003026 0.000000
# 3 -0.013604 -0.014683 0.067412 0.000000 0.002463 0.000000
# 4 0.000000 0.000000 0.000000 0.037074 0.000000 0.003187
# 5 0.006302 0.003026 0.002463 0.000000 0.027632 0.000000
# 6 0.000000 0.000000 0.000000 0.003187 0.000000 0.033201
#
#
# Mechanical properties :
#
#
# Convention : Reuss Voigt Hill
#
# Bulk Modulus (GPa) = 22.38600 41.71555 32.05077
# Shear Modulus (GPa) = 18.64736 29.72079 24.18408
#
# Velocity S-wave (km/s) = 2.84257 3.58867 3.23719
# Velocity P-wave (km/s) = 4.52481 5.93695 5.27832
#
# Compressibility (1/GPa) = 0.04467078
#
# Stress axis : x y z
#
# Youngs Moduli (GPa) = 49.49734 80.72173 14.83406
#
# Poissons Ratio (x) = -0.05007 0.20180
# Poissons Ratio (y) = -0.03070 0.21781
# Poissons Ratio (z) = 0.67335 1.18523
#
# Static dielectric constant tensor:
#      x y z
#    x 1.921610 0.000000 -0.019500 
#    y 0.000000 1.890480 0.000000 
#    z -0.019500 0.000000 1.902180 
# 
# From -- ./inp_files/65826.got.cif
#   From: 2010.05.17/outbox.cif.g08.bks.cpg/sg12_33_cif.got.tgz:65826.got - 2010.06.03 13:09:07.
