data_PCOD9199634
_publ_section_title
;
Structure prediction by ZEFSAII (Michael W. Deem and Ramdas Pophale) SiO2 
 PCOD9199634
Probable space group: C 2/M
;
_chemical_formula_sum "Si O2"
_cell_formula_units_Z 48
_cell_length_a 13.879840
_cell_length_b 12.742833
_cell_length_c 13.056910
_cell_angle_alpha 90.000000
_cell_angle_beta 62.525531
_cell_angle_gamma 90.000000
_cell_volume 2048.898630
_symmetry_space_group_name_H-M "C 2/M"
_symmetry_group_IT_number 12
_symmetry_cell_setting 'monoclinic'
loop_
_space_group_symop_operation_xyz
x,y,z
-x,y,-z
-x,-y,-z
x,-y,z
1/2+x,1/2+y,z
1/2-x,1/2+y,-z
1/2-x,1/2-y,-z
1/2+x,1/2-y,z
loop_
_atom_site_type_symbol
_atom_site_label
_atom_site_fract_x
_atom_site_fract_y
_atom_site_fract_z
Si Si1 0.397532 0.660966 0.114787
Si Si2 0.394835 0.664414 0.352788
Si Si3 0.336343 0.118095 0.068849
Si Si4 0.630724 0.668867 0.286166
Si Si5 0.214675 0.617013 0.597675
Si Si6 0.157176 0.615640 0.173172
O O1 0.403604 0.633762 0.230330
O O2 0.387492 0.788108 0.108998
O O3 0.287258 0.617456 0.121652
O O4 0.500000 0.626563 0.000000
O O5 0.507434 0.631062 0.350049
O O6 0.289064 0.619252 0.459885
O O7 0.372755 0.790368 0.366529
O O8 0.207018 0.125857 0.156569
O O9 0.370817 0.000000 0.078592
O O10 0.362530 0.138474 0.937089
O O11 0.700811 0.645275 0.352371
O O12 0.620658 0.792275 0.265847
O O13 0.171493 0.500000 0.636456
O O14 0.115171 0.500000 0.218216
#
# Coordination Sequence:
#
# PCOD9199634 Si02
#       6
#     8   8   8   8   8   8
#     4  11  21  38  61  91 130 166 208 267 323 381
#     4  11  24  41  66  99 127 168 216 271 324 376
#     4  10  20  36  60  92 129 171 214 260 318 387
#     4  11  21  41  66  91 129 168 215 266 326 378
#     4  11  25  46  68  95 131 172 221 269 316 385
#     4  10  21  37  57  88 131 171 210 260 323 387
#
# _framework density 23.427219999999998
#
# number of rings (size 3 to 8) (size 9 to 14) (size 15 to 20)
#    0.000    1.333    3.333    5.000    0.000    4.000 
#    0.000    0.000    0.000    3.000    0.000    0.000 
#    0.000    0.000    0.000    0.000    0.000    0.000 
#
# Total GULP energy -134281.049515 kJ/mol
# GULP energy per Si atom -5595.043730 kJ/mol
# Density = 2.337390 g / cm^3
# Si number density = 23.427220 Si / 1000 Ang^3
#
#
#
# Elastic Constant Matrix: (Units=GPa)
#
#
# Indices 1 2 3 4 5 6 
#
# 1 93.1823 -0.1734 6.7512 0.0000 -13.6720 0.0000
# 2 -0.1734 134.7710 11.5702 0.0000 13.7983 0.0000
# 3 6.7512 11.5702 90.8983 0.0000 1.7915 0.0000
# 4 0.0000 0.0000 0.0000 10.8719 0.0000 10.6430
# 5 -13.6720 13.7983 1.7915 0.0000 25.7988 0.0000
# 6 0.0000 0.0000 0.0000 10.6430 0.0000 -14.4693
#
#
#
# Elastic Compliance Matrix: (Units=1/GPa)
#
#
# Indices 1 2 3 4 5 6 
#
# 1 0.011768 -0.000582 -0.000930 0.000000 0.006612 0.000000
# 2 -0.000582 0.007956 -0.000881 0.000000 -0.004502 0.000000
# 3 -0.000930 -0.000881 0.011198 0.000000 -0.000800 0.000000
# 4 0.000000 0.000000 0.000000 0.053475 0.000000 0.039334
# 5 0.006612 -0.004502 -0.000800 0.000000 0.044729 0.000000
# 6 0.000000 0.000000 0.000000 0.039334 0.000000 -0.040180
#
#
# Mechanical properties :
#
#
# Convention : Reuss Voigt Hill
#
# Bulk Modulus (GPa) = 38.26100 39.46083 38.86092
# Shear Modulus (GPa) = 48.80669 24.48717 36.64693
#
# Velocity S-wave (km/s) = 4.56931 3.23653 3.95940
# Velocity P-wave (km/s) = 6.64871 5.55405 6.12588
#
# Compressibility (1/GPa) = 0.02613627
#
# Stress axis : x y z
#
# Youngs Moduli (GPa) = 84.97506 125.69405 89.29952
#
# Poissons Ratio (x) = 0.07315 0.08307
# Poissons Ratio (y) = 0.04945 0.07865
# Poissons Ratio (z) = 0.07905 0.11070
#
# Static dielectric constant tensor:
#      x y z
#    x 1.853230 0.000000 -0.024270 
#    y 0.000000 1.942410 0.000000 
#    z -0.024270 0.000000 1.870690 
# 
# From -- ./inp_files/142706.got.cif
#   From: 2010.05.17/outbox.cif.g08.bks.cpg/sg12_72_cif.got.tgz:142706.got - 2010.06.03 13:09:07.
