data_PCOD9199432
_publ_section_title
;
Structure prediction by ZEFSAII (Michael W. Deem and Ramdas Pophale) SiO2 
 PCOD9199432
Probable space group: C 2/M
;
_chemical_formula_sum "Si O2"
_cell_formula_units_Z 56
_cell_length_a 16.957104
_cell_length_b 9.001844
_cell_length_c 18.397257
_cell_angle_alpha 90.000000
_cell_angle_beta 67.815859
_cell_angle_gamma 90.000000
_cell_volume 2600.372504
_symmetry_space_group_name_H-M "C 2/M"
_symmetry_group_IT_number 12
_symmetry_cell_setting 'monoclinic'
loop_
_space_group_symop_operation_xyz
x,y,z
-x,y,-z
-x,-y,-z
x,-y,z
1/2+x,1/2+y,z
1/2-x,1/2+y,-z
1/2-x,1/2-y,-z
1/2+x,1/2-y,z
loop_
_atom_site_type_symbol
_atom_site_label
_atom_site_fract_x
_atom_site_fract_y
_atom_site_fract_z
Si Si1 0.043319 0.674344 0.322434
Si Si2 0.258774 0.673737 0.380966
Si Si3 0.157741 0.176010 0.037936
Si Si4 0.724031 0.325426 0.247521
Si Si5 0.631189 0.324870 0.882969
Si Si6 0.992013 0.675164 0.828493
Si Si7 0.878170 0.324379 0.456734
O O1 0.068026 0.500000 0.319053
O O2 0.127445 0.771467 0.288811
O O3 0.994686 0.694884 0.262351
O O4 0.977134 0.708559 0.409696
O O5 0.269407 0.500000 0.359035
O O6 0.267522 0.775242 0.307797
O O7 0.165098 0.694173 0.449749
O O8 0.324449 0.724052 0.419939
O O9 0.097406 0.250601 0.118311
O O10 0.165873 0.000000 0.048316
O O11 0.250000 0.250000 0.000000
O O12 0.113638 0.197368 0.974311
O O13 0.729718 0.500000 0.234246
O O14 0.775860 0.240495 0.167263
O O15 0.630477 0.500000 0.868794
O O16 0.564195 0.246768 0.853438
O O17 0.988128 0.500000 0.844254
O O18 0.866611 0.500000 0.442075
#
# Coordination Sequence:
#
# PCOD9199432 Si02
#       7
#     8   8   8   8   8   8   8
#     4  10  22  40  59  83 117 153 192 239 291 345
#     4  10  20  36  60  87 117 154 194 240 293 347
#     4  11  24  41  62  89 122 158 196 242 293 346
#     4  12  25  39  58  85 117 153 195 243 294 350
#     4  11  24  42  63  87 117 154 197 243 291 344
#     4  11  23  39  63  92 121 155 194 239 291 349
#     4   9  19  37  61  87 116 153 197 242 288 344
#
# _framework density 21.535374999999998
#
# number of rings (size 3 to 8) (size 9 to 14) (size 15 to 20)
#    0.000    1.429    0.000    5.143    0.000   11.429 
#    0.000    2.857    0.000    0.000    0.000    0.000 
#    0.000    0.000    0.000    0.000    0.000    0.000 
#
# Total GULP energy -156683.947308 kJ/mol
# GULP energy per Si atom -5595.855261 kJ/mol
# Density = 2.148636 g / cm^3
# Si number density = 21.535375 Si / 1000 Ang^3
#
#
#
# Elastic Constant Matrix: (Units=GPa)
#
#
# Indices 1 2 3 4 5 6 
#
# 1 62.7330 12.5732 -4.7886 0.0000 -10.6761 0.0000
# 2 12.5732 55.2793 17.6433 0.0000 2.0742 0.0000
# 3 -4.7886 17.6433 64.6168 0.0000 -16.3484 0.0000
# 4 0.0000 0.0000 0.0000 26.0191 0.0000 -1.8042
# 5 -10.6761 2.0742 -16.3484 0.0000 36.6241 0.0000
# 6 0.0000 0.0000 0.0000 -1.8042 0.0000 40.2915
#
#
#
# Elastic Compliance Matrix: (Units=1/GPa)
#
#
# Indices 1 2 3 4 5 6 
#
# 1 0.018997 -0.006290 0.005204 0.000000 0.008217 0.000000
# 2 -0.006290 0.022430 -0.008315 0.000000 -0.006816 0.000000
# 3 0.005204 -0.008315 0.021007 0.000000 0.011365 0.000000
# 4 0.000000 0.000000 0.000000 0.038553 0.000000 0.001726
# 5 0.008217 -0.006816 0.011365 0.000000 0.035159 0.000000
# 6 0.000000 0.000000 0.000000 0.001726 0.000000 0.024896
#
#
# Mechanical properties :
#
#
# Convention : Reuss Voigt Hill
#
# Bulk Modulus (GPa) = 22.91853 25.94274 24.43064
# Shear Modulus (GPa) = 25.72160 31.06703 28.39431
#
# Velocity S-wave (km/s) = 3.45974 3.80228 3.63505
# Velocity P-wave (km/s) = 5.15995 5.59904 5.38397
#
# Compressibility (1/GPa) = 0.04363282
#
# Stress axis : x y z
#
# Youngs Moduli (GPa) = 52.64002 44.58262 47.60225
#
# Poissons Ratio (x) = 0.28043 -0.24774
# Poissons Ratio (y) = 0.33112 0.39581
# Poissons Ratio (z) = -0.27395 0.37071
#
# Static dielectric constant tensor:
#      x y z
#    x 1.800530 0.000000 0.006570 
#    y 0.000000 1.711160 0.000000 
#    z 0.006570 0.000000 1.793700 
# 
# From -- ./inp_files/275192.got.cif
#   From: 2010.05.17/outbox.cif.g08.bks.cpg/sg12_138_cif.got.tgz:275192.got - 2010.06.03 13:09:07.
