data_PCOD9199800
_publ_section_title
;
Structure prediction by ZEFSAII (Michael W. Deem and Ramdas Pophale) SiO2 
 PCOD9199800
Probable space group: C 2/M
;
_chemical_formula_sum "Si O2"
_cell_formula_units_Z 64
_cell_length_a 14.887927
_cell_length_b 8.781411
_cell_length_c 30.854938
_cell_angle_alpha 90.000000
_cell_angle_beta 131.856561
_cell_angle_gamma 90.000000
_cell_volume 3004.506677
_symmetry_space_group_name_H-M "C 2/M"
_symmetry_group_IT_number 12
_symmetry_cell_setting 'monoclinic'
loop_
_space_group_symop_operation_xyz
x,y,z
-x,y,-z
-x,-y,-z
x,-y,z
1/2+x,1/2+y,z
1/2-x,1/2+y,-z
1/2-x,1/2-y,-z
1/2+x,1/2-y,z
loop_
_atom_site_type_symbol
_atom_site_label
_atom_site_fract_x
_atom_site_fract_y
_atom_site_fract_z
Si Si1 0.862853 0.174752 0.440152
Si Si2 0.045911 0.682100 0.062417
Si Si3 0.811412 0.682559 0.150643
Si Si4 0.969817 0.820025 0.124445
Si Si5 0.026574 0.679636 0.280967
Si Si6 0.139774 0.177633 0.402857
Si Si7 0.422006 0.822928 0.372593
Si Si8 0.181025 0.820148 0.255397
O O1 0.764279 0.229810 0.442847
O O2 0.855908 0.282459 0.396026
O O3 0.000000 0.183868 0.500000
O O4 0.836549 0.000000 0.419520
O O5 0.042691 0.500000 0.064689
O O6 0.181850 0.741215 0.111284
O O7 0.966950 0.752496 0.075647
O O8 0.000000 0.726882 0.000000
O O9 0.800090 0.500000 0.145760
O O10 0.881337 0.740153 0.130229
O O11 0.896585 0.721085 0.219144
O O12 0.105846 0.798602 0.187352
O O13 0.944907 0.000000 0.116045
O O14 0.027409 0.500000 0.291922
O O15 0.073051 0.773804 0.336741
O O16 0.117022 0.715485 0.270469
O O17 0.041885 0.224403 0.406985
O O18 0.165192 0.000000 0.412431
O O19 0.323607 0.791333 0.303318
O O20 0.454383 0.000000 0.381400
O O21 0.166191 0.000000 0.262636
#
# Coordination Sequence:
#
# PCOD9199800 Si02
#       8
#     8   8   8   8   8   8   8   8
#     4  11  25  46  69  93 125 165 211 262 312 366
#     4  11  25  43  62  88 123 164 212 260 308 367
#     4  10  22  40  63  92 124 162 206 254 311 371
#     4  10  21  39  63  92 125 161 205 255 310 369
#     4  10  20  36  61  91 127 163 203 254 309 369
#     4  12  25  40  62  94 129 168 210 253 308 371
#     4  11  23  40  64  95 129 165 208 257 309 368
#     4   9  19  36  60  91 126 161 200 251 311 369
#
# _framework density 21.301334000000001
#
# number of rings (size 3 to 8) (size 9 to 14) (size 15 to 20)
#    0.000    1.500    1.250    3.375    1.750    5.500 
#    0.000    0.000    0.000    0.000    0.000    0.000 
#    0.000    0.000    0.000    0.000    0.000    0.000 
#
# Total GULP energy -178966.575559 kJ/mol
# GULP energy per Si atom -5592.705486 kJ/mol
# Density = 2.125285 g / cm^3
# Si number density = 21.301334 Si / 1000 Ang^3
#
#
#
# Elastic Constant Matrix: (Units=GPa)
#
#
# Indices 1 2 3 4 5 6 
#
# 1 48.8282 -5.4752 -8.1180 0.0000 6.0700 0.0000
# 2 -5.4752 41.7727 3.7884 0.0000 3.4289 0.0000
# 3 -8.1180 3.7884 35.1840 0.0000 -0.1129 0.0000
# 4 0.0000 0.0000 0.0000 25.9824 0.0000 0.6591
# 5 6.0700 3.4289 -0.1129 0.0000 31.4122 0.0000
# 6 0.0000 0.0000 0.0000 0.6591 0.0000 36.1817
#
#
#
# Elastic Compliance Matrix: (Units=1/GPa)
#
#
# Indices 1 2 3 4 5 6 
#
# 1 0.022165 0.002846 0.004793 0.000000 -0.004577 0.000000
# 2 0.002846 0.024763 -0.002020 0.000000 -0.003260 0.000000
# 3 0.004793 -0.002020 0.029744 0.000000 -0.000599 0.000000
# 4 0.000000 0.000000 0.000000 0.038505 0.000000 -0.000701
# 5 -0.004577 -0.003260 -0.000599 0.000000 0.033073 0.000000
# 6 0.000000 0.000000 0.000000 -0.000701 0.000000 0.027651
#
#
# Mechanical properties :
#
#
# Convention : Reuss Voigt Hill
#
# Bulk Modulus (GPa) = 11.37534 11.79725 11.58629
# Shear Modulus (GPa) = 25.77773 27.75456 26.76615
#
# Velocity S-wave (km/s) = 3.48249 3.61355 3.54863
# Velocity P-wave (km/s) = 4.63919 4.79173 4.71608
#
# Compressibility (1/GPa) = 0.08790948
#
# Stress axis : x y z
#
# Youngs Moduli (GPa) = 45.11635 40.38292 33.62076
#
# Poissons Ratio (x) = -0.11494 -0.16114
# Poissons Ratio (y) = -0.12841 0.06792
# Poissons Ratio (z) = -0.21624 0.08158
#
# Static dielectric constant tensor:
#      x y z
#    x 1.761960 0.000000 0.001080 
#    y 0.000000 1.704310 0.000000 
#    z 0.001080 0.000000 1.785570 
# 
# From -- ./inp_files/375652.got.cif
#   From: 2010.05.17/outbox.cif.g08.bks.cpg/sg12_188_cif.got.tgz:375652.got - 2010.06.03 13:09:07.
