data_PCOD9199194
_publ_section_title
;
Structure prediction by ZEFSAII (Michael W. Deem and Ramdas Pophale) SiO2 
 PCOD9199194
Probable space group: C 2/M
;
_chemical_formula_sum "Si O2"
_cell_formula_units_Z 56
_cell_length_a 21.027126
_cell_length_b 8.417638
_cell_length_c 28.485268
_cell_angle_alpha 90.000000
_cell_angle_beta 34.934508
_cell_angle_gamma 90.000000
_cell_volume 2887.167283
_symmetry_space_group_name_H-M "C 2/M"
_symmetry_group_IT_number 12
_symmetry_cell_setting 'monoclinic'
loop_
_space_group_symop_operation_xyz
x,y,z
-x,y,-z
-x,-y,-z
x,-y,z
1/2+x,1/2+y,z
1/2-x,1/2+y,-z
1/2-x,1/2-y,-z
1/2+x,1/2-y,z
loop_
_atom_site_type_symbol
_atom_site_label
_atom_site_fract_x
_atom_site_fract_y
_atom_site_fract_z
Si Si1 0.532678 0.191494 0.245425
Si Si2 0.178483 0.693584 0.779206
Si Si3 0.559912 0.190048 0.512126
Si Si4 0.906954 0.810222 0.688221
Si Si5 0.467075 0.192290 0.967169
Si Si6 0.741330 0.190045 0.058343
Si Si7 0.199384 0.307356 0.657990
O O1 0.561254 0.241767 0.280701
O O2 0.629312 0.248372 0.151751
O O3 0.411179 0.245294 0.302279
O O4 0.531891 0.000000 0.243739
O O5 0.178275 0.500000 0.779546
O O6 0.285878 0.746219 0.743682
O O7 0.189916 0.742963 0.718239
O O8 0.064278 0.744403 0.872729
O O9 0.500000 0.242837 0.500000
O O10 0.495644 0.262725 0.595031
O O11 0.687613 0.241470 0.432068
O O12 0.552186 0.000000 0.519524
O O13 0.902680 0.000000 0.694415
O O14 0.462281 0.000000 0.969079
O O15 0.500000 0.240197 0.000000
O O16 0.348697 0.255930 0.022507
O O17 0.737642 0.000000 0.059576
O O18 0.750000 0.250000 0.000000
O O19 0.204459 0.500000 0.654022
#
# Coordination Sequence:
#
# PCOD9199194 Si02
#       7
#     8   8   8   8   8   8   8
#     4  10  23  41  60  86 122 158 193 244 302 346
#     4   9  18  34  58  86 113 150 198 245 290 340
#     4  11  23  39  60  89 123 152 186 240 301 350
#     4  11  22  38  64  90 117 156 199 242 289 352
#     4  10  20  36  59  87 121 157 198 248 300 355
#     4  11  23  40  62  87 121 162 203 249 300 356
#     4  10  20  38  62  83 111 153 201 243 284 347
#
# _framework density 19.396174999999999
#
# number of rings (size 3 to 8) (size 9 to 14) (size 15 to 20)
#    0.000    1.714    1.429    3.000    0.000    6.571 
#    0.000    3.571    0.000    0.000    0.000    0.000 
#    0.000    0.000    0.000    0.000    0.000    0.000 
#
# Total GULP energy -156503.336206 kJ/mol
# GULP energy per Si atom -5589.404864 kJ/mol
# Density = 1.935203 g / cm^3
# Si number density = 19.396175 Si / 1000 Ang^3
#
#
#
# Elastic Constant Matrix: (Units=GPa)
#
#
# Indices 1 2 3 4 5 6 
#
# 1 134.1330 12.5486 41.2273 -0.0002 -17.8977 0.0015
# 2 12.5486 5.9992 5.6706 -0.0006 -6.1296 0.0030
# 3 41.2273 5.6706 116.8836 0.0003 -20.6616 0.0002
# 4 -0.0002 -0.0006 0.0003 22.8321 0.0000 -2.6278
# 5 -17.8977 -6.1296 -20.6616 0.0000 39.2257 0.0000
# 6 0.0015 0.0030 0.0002 -2.6278 0.0000 30.5018
#
#
#
# Elastic Compliance Matrix: (Units=1/GPa)
#
#
# Indices 1 2 3 4 5 6 
#
# 1 0.009989 -0.018072 -0.002580 0.000000 0.000375 0.000001
# 2 -0.018072 0.233293 0.000047 0.000003 0.028234 -0.000022
# 3 -0.002580 0.000047 0.010207 0.000000 0.004206 0.000000
# 4 0.000000 0.000003 0.000000 0.044237 0.000000 0.003811
# 5 0.000375 0.028234 0.004206 0.000000 0.032292 -0.000003
# 6 0.000001 -0.000022 0.000000 0.003811 -0.000003 0.033113
#
#
# Mechanical properties :
#
#
# Convention : Reuss Voigt Hill
#
# Bulk Modulus (GPa) = 4.71080 41.76765 23.23922
# Shear Modulus (GPa) = 10.52407 31.68321 21.10364
#
# Velocity S-wave (km/s) = 2.33187 4.04601 3.30211
# Velocity P-wave (km/s) = 3.11194 6.58845 5.15227
#
# Compressibility (1/GPa) = 0.21227813
#
# Stress axis : x y z
#
# Youngs Moduli (GPa) = 100.10905 4.28645 97.97251
#
# Poissons Ratio (x) = 0.07747 0.25281
# Poissons Ratio (y) = 1.80922 -0.00464
# Poissons Ratio (z) = 0.25832 -0.00020
#
# Static dielectric constant tensor:
#      x y z
#    x 1.653290 0.000000 0.024660 
#    y 0.000000 1.674230 0.000000 
#    z 0.024660 0.000000 1.839170 
# 
# From -- ./inp_files/230971.got.cif
#   From: 2010.05.17/outbox.cif.g08.bks.cpg/sg12_116_cif.got.tgz:230971.got - 2010.06.03 13:09:07.
