data_PCOD9199517
_publ_section_title
;
Structure prediction by ZEFSAII (Michael W. Deem and Ramdas Pophale) SiO2 
 PCOD9199517
Probable space group: C 2/M
;
_chemical_formula_sum "Si O2"
_cell_formula_units_Z 56
_cell_length_a 18.408319
_cell_length_b 20.959569
_cell_length_c 14.415803
_cell_angle_alpha 90.000000
_cell_angle_beta 147.283565
_cell_angle_gamma 90.000000
_cell_volume 3006.189110
_symmetry_space_group_name_H-M "C 2/M"
_symmetry_group_IT_number 12
_symmetry_cell_setting 'monoclinic'
loop_
_space_group_symop_operation_xyz
x,y,z
-x,y,-z
-x,-y,-z
x,-y,z
1/2+x,1/2+y,z
1/2-x,1/2+y,-z
1/2-x,1/2-y,-z
1/2+x,1/2-y,z
loop_
_atom_site_type_symbol
_atom_site_label
_atom_site_fract_x
_atom_site_fract_y
_atom_site_fract_z
Si Si1 0.379402 0.740464 0.301223
Si Si2 0.114700 0.393600 0.699455
Si Si3 0.154726 0.073426 0.178564
Si Si4 0.960232 0.231522 0.701270
Si Si5 0.411313 0.810948 0.996705
Si Si6 0.728548 0.149029 0.525746
Si Si7 0.985340 0.573715 0.201987
O O1 0.500000 0.724196 0.500000
O O2 0.370589 0.817117 0.285457
O O3 0.422876 0.717065 0.245791
O O4 0.239649 0.711485 0.184129
O O5 0.256218 0.421764 0.818137
O O6 0.071007 0.416212 0.754120
O O7 0.000000 0.411026 0.500000
O O8 0.226607 0.118479 0.329943
O O9 0.156568 0.000000 0.213239
O O10 0.000000 0.092543 0.000000
O O11 0.859121 0.174162 0.612752
O O12 0.868176 0.289648 0.562456
O O13 0.021811 0.259108 0.862138
O O14 0.500000 0.815369 0.000000
O O15 0.413726 0.877698 0.054863
O O16 0.639141 0.098520 0.373716
O O17 0.975499 0.500000 0.165697
#
# Coordination Sequence:
#
# PCOD9199517 Si02
#       7
#     8   8   8   8   8   8   8
#     4  11  23  39  65  95 127 155 193 247 319 371
#     4  11  21  37  62  93 120 159 198 242 302 370
#     4  11  24  36  52  89 129 163 198 235 295 370
#     4  10  22  39  60  93 124 149 204 252 299 371
#     4  11  26  40  64  94 120 162 204 255 306 349
#     4  10  20  36  60  88 122 160 197 248 302 351
#     4  11  23  41  64  87 119 164 214 254 295 356
#
# _framework density 18.628236000000001
#
# number of rings (size 3 to 8) (size 9 to 14) (size 15 to 20)
#    0.000    1.286    4.286    2.143   10.000    0.857 
#    0.000    0.000    0.000    1.286    0.000    0.000 
#    0.000    0.000    0.000    0.000    0.000    0.000 
#
# Total GULP energy -156521.170802 kJ/mol
# GULP energy per Si atom -5590.041814 kJ/mol
# Density = 1.858584 g / cm^3
# Si number density = 18.628236 Si / 1000 Ang^3
#
#
#
# Elastic Constant Matrix: (Units=GPa)
#
#
# Indices 1 2 3 4 5 6 
#
# 1 101.3587 21.8938 34.6415 0.0000 10.4805 0.0000
# 2 21.8938 57.3725 35.8773 0.0000 4.8101 0.0000
# 3 34.6415 35.8773 98.8574 0.0000 13.8582 0.0000
# 4 0.0000 0.0000 0.0000 -0.8787 0.0000 -1.1626
# 5 10.4805 4.8101 13.8582 0.0000 32.4955 0.0000
# 6 0.0000 0.0000 0.0000 -1.1626 0.0000 8.0468
#
#
#
# Elastic Compliance Matrix: (Units=1/GPa)
#
#
# Indices 1 2 3 4 5 6 
#
# 1 0.011600 -0.002449 -0.002874 0.000000 -0.002153 0.000000
# 2 -0.002449 0.023065 -0.007599 0.000000 0.000616 0.000000
# 3 -0.002874 -0.007599 0.014457 0.000000 -0.004114 0.000000
# 4 0.000000 0.000000 0.000000 -0.955448 0.000000 -0.138039
# 5 -0.002153 0.000616 -0.004114 0.000000 0.033131 0.000000
# 6 0.000000 0.000000 0.000000 -0.138039 0.000000 0.104330
#
#
# Mechanical properties :
#
#
# Convention : Reuss Voigt Hill
#
# Bulk Modulus (GPa) = 42.95925 49.15708 46.05817
# Shear Modulus (GPa) = -6.80030 18.94445 6.07208
#
# Velocity S-wave (km/s) = -1.91271 3.19246 1.80740
# Velocity P-wave (km/s) = 4.27007 6.32731 5.39761
#
# Compressibility (1/GPa) = 0.02327787
#
# Stress axis : x y z
#
# Youngs Moduli (GPa) = 86.20810 43.35642 69.16928
#
# Poissons Ratio (x) = 0.10616 0.19882
# Poissons Ratio (y) = 0.21109 0.52562
# Poissons Ratio (z) = 0.24779 0.32946
#
# Static dielectric constant tensor:
#      x y z
#    x 1.658010 0.000000 -0.000150 
#    y 0.000000 1.639310 0.000000 
#    z -0.000150 0.000000 1.649340 
# 
# From -- ./inp_files/227659.got.cif
#   From: 2010.05.17/outbox.cif.g08.bks.cpg/sg12_114_cif.got.tgz:227659.got - 2010.06.03 13:09:07.
