data_PCOD9199471
_publ_section_title
;
Structure prediction by ZEFSAII (Michael W. Deem and Ramdas Pophale) SiO2 
 PCOD9199471
Probable space group: C 2/M
;
_chemical_formula_sum "Si O2"
_cell_formula_units_Z 40
_cell_length_a 11.216473
_cell_length_b 21.378331
_cell_length_c 9.918213
_cell_angle_alpha 90.000000
_cell_angle_beta 135.223571
_cell_angle_gamma 90.000000
_cell_volume 1675.125217
_symmetry_space_group_name_H-M "C 2/M"
_symmetry_group_IT_number 12
_symmetry_cell_setting 'monoclinic'
loop_
_space_group_symop_operation_xyz
x,y,z
-x,y,-z
-x,-y,-z
x,-y,z
1/2+x,1/2+y,z
1/2-x,1/2+y,-z
1/2-x,1/2-y,-z
1/2+x,1/2-y,z
loop_
_atom_site_type_symbol
_atom_site_label
_atom_site_fract_x
_atom_site_fract_y
_atom_site_fract_z
Si Si1 0.903574 0.737179 0.723984
Si Si2 0.616833 0.428300 0.796026
Si Si3 0.386987 0.866968 0.213314
Si Si4 0.621773 0.375640 0.211827
Si Si5 0.142686 0.395057 0.220777
O O1 0.750000 0.750000 0.500000
O O2 0.931388 0.803379 0.813638
O O3 0.849527 0.680841 0.779578
O O4 0.058257 0.705175 0.766702
O O5 0.638373 0.500000 0.852407
O O6 0.429375 0.406845 0.688446
O O7 0.683645 0.420940 0.697622
O O8 0.742855 0.385884 0.988968
O O9 0.307347 0.877768 0.295564
O O10 0.554279 0.904087 0.295611
O O11 0.500000 0.405401 0.000000
O O12 0.000000 0.417810 0.000000
#
# Coordination Sequence:
#
# PCOD9199471 Si02
#       5
#     8   8   8   8   8
#     4  10  21  35  55  83 120 153 190 234 295 353
#     4  10  20  36  60  88 116 149 197 247 288 338
#     4   8  20  34  53  85 111 152 188 236 293 342
#     4  10  21  34  56  82 117 149 189 243 293 344
#     4   8  17  34  55  82 113 148 194 237 288 336
#
# _framework density 23.878813000000001
#
# number of rings (size 3 to 8) (size 9 to 14) (size 15 to 20)
#    1.200    1.600    0.000    0.600    2.800    9.600 
#    0.000    0.000    0.000    3.600    0.000    7.000 
#    0.000    0.000    0.000    0.000    0.000    0.000 
#
# Total GULP energy -111378.897161 kJ/mol
# GULP energy per Si atom -5568.944858 kJ/mol
# Density = 2.382446 g / cm^3
# Si number density = 23.878813 Si / 1000 Ang^3
#
#
#
# Elastic Constant Matrix: (Units=GPa)
#
#
# Indices 1 2 3 4 5 6 
#
# 1 287.0572 46.9899 38.7608 0.0000 10.6917 0.0000
# 2 46.9899 78.2262 17.8425 0.0000 5.8793 0.0000
# 3 38.7608 17.8425 75.3588 0.0000 2.5808 0.0000
# 4 0.0000 0.0000 0.0000 -64.9850 0.0000 -9.4546
# 5 10.6917 5.8793 2.5808 0.0000 32.4112 0.0000
# 6 0.0000 0.0000 0.0000 -9.4546 0.0000 20.2653
#
#
#
# Elastic Compliance Matrix: (Units=1/GPa)
#
#
# Indices 1 2 3 4 5 6 
#
# 1 0.004058 -0.002013 -0.001582 0.000000 -0.000848 0.000000
# 2 -0.002013 0.014671 -0.002376 0.000000 -0.001808 0.000000
# 3 -0.001582 -0.002376 0.014653 0.000000 -0.000214 0.000000
# 4 0.000000 0.000000 0.000000 -0.014410 0.000000 -0.006723
# 5 -0.000848 -0.001808 -0.000214 0.000000 0.031478 0.000000
# 6 0.000000 0.000000 0.000000 -0.006723 0.000000 0.046209
#
#
# Mechanical properties :
#
#
# Convention : Reuss Voigt Hill
#
# Bulk Modulus (GPa) = 46.64153 71.98096 59.31125
# Shear Modulus (GPa) = 43.19717 20.00822 31.60269
#
# Velocity S-wave (km/s) = 4.25787 2.89780 3.64189
# Velocity P-wave (km/s) = 6.61420 6.43475 6.52509
#
# Compressibility (1/GPa) = 0.02144012
#
# Stress axis : x y z
#
# Youngs Moduli (GPa) = 246.40595 68.16317 68.24402
#
# Poissons Ratio (x) = 0.13724 0.10794
# Poissons Ratio (y) = 0.49610 0.16215
# Poissons Ratio (z) = 0.38974 0.16196
#
# Static dielectric constant tensor:
#      x y z
#    x 2.067090 0.000000 -0.073440 
#    y 0.000000 1.863790 0.000000 
#    z -0.073440 0.000000 2.043200 
# 
# From -- ./inp_files/134573.got.cif
#   From: 2010.05.17/outbox.cif.g08.bks.cpg/sg12_68_cif.got.tgz:134573.got - 2010.06.03 13:09:07.
