data_PCOD9199861
_publ_section_title
;
Structure prediction by ZEFSAII (Michael W. Deem and Ramdas Pophale) SiO2 
 PCOD9199861
Probable space group: C 2/M
;
_chemical_formula_sum "Si O2"
_cell_formula_units_Z 50
_cell_length_a 18.079231
_cell_length_b 16.229083
_cell_length_c 9.481476
_cell_angle_alpha 90.000000
_cell_angle_beta 120.142035
_cell_angle_gamma 90.000000
_cell_volume 2405.786906
_symmetry_space_group_name_H-M "C 2/M"
_symmetry_group_IT_number 12
_symmetry_cell_setting 'monoclinic'
loop_
_space_group_symop_operation_xyz
x,y,z
-x,y,-z
-x,-y,-z
x,-y,z
1/2+x,1/2+y,z
1/2-x,1/2+y,-z
1/2-x,1/2-y,-z
1/2+x,1/2-y,z
loop_
_atom_site_type_symbol
_atom_site_label
_atom_site_fract_x
_atom_site_fract_y
_atom_site_fract_z
Si Si1 0.086252 0.186976 0.150229
Si Si2 0.599007 0.658980 0.606238
Si Si3 0.392213 0.187012 0.585926
Si Si4 0.784504 0.905032 0.524022
Si Si5 0.850083 0.248143 0.082459
Si Si6 0.049649 0.411758 0.767585
Si Si7 0.000000 0.500000 0.000000
O O1 0.068372 0.257478 0.249891
O O2 0.148606 0.124457 0.291837
O O3 0.129903 0.231213 0.060523
O O4 0.000000 0.150396 0.000000
O O5 0.500000 0.632345 0.500000
O O6 0.610880 0.748813 0.544695
O O7 0.665805 0.606200 0.577853
O O8 0.617233 0.673805 0.787233
O O9 0.300031 0.151805 0.542976
O O10 0.458596 0.114960 0.616298
O O11 0.759894 0.000000 0.517167
O O12 0.888297 0.334334 0.174118
O O13 0.750000 0.250000 0.000000
O O14 0.081402 0.500000 0.740166
O O15 0.028761 0.430485 0.911484
#
# Coordination Sequence:
#
# PCOD9199861 Si02
#       7
#     8   8   8   8   8   8   2
#     4  11  21  41  69  92 124 173 227 265 310 389
#     4  11  22  42  66  91 129 171 217 259 327 395
#     4  11  20  42  67  96 128 170 218 266 317 399
#     4  11  25  43  65  98 129 172 225 276 318 379
#     4  12  22  39  61  95 131 170 212 261 322 400
#     4  10  20  36  61  97 129 162 206 264 330 376
#     4   8  20  32  60  94 132 156 208 266 324 384
#
# _framework density 20.783221000000001
#
# number of rings (size 3 to 8) (size 9 to 14) (size 15 to 20)
#    0.480    0.640    3.200    6.240    0.000    0.640 
#    0.000    5.600    0.000    0.000    0.000    0.000 
#    0.000    0.000    0.000    0.000    0.000    0.000 
#
# Total GULP energy -139298.019769 kJ/mol
# GULP energy per Si atom -5571.920791 kJ/mol
# Density = 2.073592 g / cm^3
# Si number density = 20.783221 Si / 1000 Ang^3
#
#
#
# Elastic Constant Matrix: (Units=GPa)
#
#
# Indices 1 2 3 4 5 6 
#
# 1 72.7370 9.0364 1.5610 0.0000 10.0823 0.0000
# 2 9.0364 56.8399 9.5584 0.0000 -0.6384 0.0000
# 3 1.5610 9.5584 64.6946 0.0000 -6.5673 0.0000
# 4 0.0000 0.0000 0.0000 18.4580 0.0000 -4.1814
# 5 10.0823 -0.6384 -6.5673 0.0000 42.4121 0.0000
# 6 0.0000 0.0000 0.0000 -4.1814 0.0000 29.6245
#
#
#
# Elastic Compliance Matrix: (Units=1/GPa)
#
#
# Indices 1 2 3 4 5 6 
#
# 1 0.014532 -0.002287 -0.000373 0.000000 -0.003547 0.000000
# 2 -0.002287 0.018402 -0.002622 0.000000 0.000415 0.000000
# 3 -0.000373 -0.002622 0.016112 0.000000 0.002544 0.000000
# 4 0.000000 0.000000 0.000000 0.055967 0.000000 0.007900
# 5 -0.003547 0.000415 0.002544 0.000000 0.024821 0.000000
# 6 0.000000 0.000000 0.000000 0.007900 0.000000 0.034871
#
#
# Mechanical properties :
#
#
# Convention : Reuss Voigt Hill
#
# Bulk Modulus (GPa) = 25.98570 26.06479 26.02524
# Shear Modulus (GPa) = 26.58213 29.70663 28.14438
#
# Velocity S-wave (km/s) = 3.58022 3.78478 3.68392
# Velocity P-wave (km/s) = 5.44251 5.62743 5.53574
#
# Compressibility (1/GPa) = 0.03848271
#
# Stress axis : x y z
#
# Youngs Moduli (GPa) = 68.81383 54.34056 62.06626
#
# Poissons Ratio (x) = 0.12430 0.02313
# Poissons Ratio (y) = 0.15741 0.16271
# Poissons Ratio (z) = 0.02565 0.14246
#
# Static dielectric constant tensor:
#      x y z
#    x 1.788050 0.000000 0.001270 
#    y 0.000000 1.746280 0.000000 
#    z 0.001270 0.000000 1.749620 
# 
# From -- ./inp_files/76079.got.cif
#   From: 2010.05.17/outbox.cif.g08.bks.cpg/sg12_39_cif.got.tgz:76079.got - 2010.06.03 13:09:07.
