data_PCOD9199684
_publ_section_title
;
Structure prediction by ZEFSAII (Michael W. Deem and Ramdas Pophale) SiO2 
 PCOD9199684
Probable space group: C 2/M
;
_chemical_formula_sum "Si O2"
_cell_formula_units_Z 64
_cell_length_a 14.048675
_cell_length_b 13.487739
_cell_length_c 34.934211
_cell_angle_alpha 90.000000
_cell_angle_beta 148.053151
_cell_angle_gamma 90.000000
_cell_volume 3502.593689
_symmetry_space_group_name_H-M "C 2/M"
_symmetry_group_IT_number 12
_symmetry_cell_setting 'monoclinic'
loop_
_space_group_symop_operation_xyz
x,y,z
-x,y,-z
-x,-y,-z
x,-y,z
1/2+x,1/2+y,z
1/2-x,1/2+y,-z
1/2-x,1/2-y,-z
1/2+x,1/2-y,z
loop_
_atom_site_type_symbol
_atom_site_label
_atom_site_fract_x
_atom_site_fract_y
_atom_site_fract_z
Si Si1 0.799574 0.116723 0.415755
Si Si2 0.174920 0.306708 0.032783
Si Si3 0.145657 0.884253 0.361727
Si Si4 0.742023 0.768317 0.667175
Si Si5 0.858568 0.382014 0.064821
Si Si6 0.636175 0.758878 0.422985
Si Si7 0.440388 0.383673 0.185207
Si Si8 0.758758 0.883582 0.202836
O O1 0.745842 0.175643 0.358581
O O2 0.672250 0.147724 0.407668
O O3 0.000000 0.143513 0.500000
O O4 0.796251 0.000000 0.407316
O O5 0.220708 0.191899 0.038562
O O6 0.341172 0.354552 0.112577
O O7 0.153487 0.361970 0.984864
O O8 0.000000 0.314883 0.000000
O O9 0.268547 0.856796 0.367654
O O10 0.202644 0.831274 0.419357
O O11 0.942943 0.843093 0.283844
O O12 0.136158 0.000000 0.362793
O O13 0.569247 0.753189 0.634168
O O14 0.906255 0.805217 0.749914
O O15 0.836513 0.500000 0.064680
O O16 0.061050 0.347452 0.145646
O O17 0.750000 0.750000 0.500000
O O18 0.501538 0.500000 0.205933
O O19 0.294014 0.376339 0.169520
O O20 0.756597 0.000000 0.211755
#
# Coordination Sequence:
#
# PCOD9199684 Si02
#       8
#     8   8   8   8   8   8   8   8
#     4  10  21  39  59  81 115 154 189 232 282 337
#     4  11  22  36  59  87 115 153 195 237 285 341
#     4   9  20  36  56  83 112 144 181 231 285 333
#     4  10  21  38  59  82 114 146 185 235 281 335
#     4  10  21  36  56  85 117 150 189 235 286 340
#     4  11  22  36  58  83 112 147 189 231 277 337
#     4  10  20  36  61  87 114 148 190 241 288 336
#     4   8  15  32  56  79 107 142 181 227 279 329
#
# _framework density 18.272172999999999
#
# number of rings (size 3 to 8) (size 9 to 14) (size 15 to 20)
#    0.000    2.125    2.500    1.500    1.750    2.750 
#    0.000    1.250    0.000    0.000    0.000    0.000 
#    0.000    0.000    0.000    0.000    0.000    0.000 
#
# Total GULP energy -178177.886353 kJ/mol
# GULP energy per Si atom -5568.058949 kJ/mol
# Density = 1.823058 g / cm^3
# Si number density = 18.272173 Si / 1000 Ang^3
#
#
#
# Elastic Constant Matrix: (Units=GPa)
#
#
# Indices 1 2 3 4 5 6 
#
# 1 50.6433 0.4444 -4.0742 0.0000 -4.2243 0.0000
# 2 0.4444 61.9155 65.7439 0.0000 2.5017 0.0000
# 3 -4.0742 65.7439 -152.8306 0.0000 -31.4892 0.0000
# 4 0.0000 0.0000 0.0000 23.9786 0.0000 3.5644
# 5 -4.2243 2.5017 -31.4892 0.0000 22.0601 0.0000
# 6 0.0000 0.0000 0.0000 3.5644 0.0000 10.8380
#
#
#
# Elastic Compliance Matrix: (Units=1/GPa)
#
#
# Indices 1 2 3 4 5 6 
#
# 1 0.019892 0.000606 -0.000804 0.000000 0.002593 0.000000
# 2 0.000606 0.011657 0.004054 0.000000 0.004581 0.000000
# 3 -0.000804 0.004054 -0.003594 0.000000 -0.005744 0.000000
# 4 0.000000 0.000000 0.000000 0.043848 0.000000 -0.014420
# 5 0.002593 0.004581 -0.005744 0.000000 0.037108 0.000000
# 6 0.000000 0.000000 0.000000 -0.014420 0.000000 0.097010
#
#
# Mechanical properties :
#
#
# Convention : Reuss Voigt Hill
#
# Bulk Modulus (GPa) = 28.03669 9.32850 18.68260
# Shear Modulus (GPa) = 23.79854 4.54962 14.17408
#
# Velocity S-wave (km/s) = 3.61286 1.57966 2.78820
# Velocity P-wave (km/s) = 5.72546 2.90577 4.54007
#
# Compressibility (1/GPa) = 0.03566754
#
# Stress axis : x y z
#
# Youngs Moduli (GPa) = 50.27085 85.78818 -278.22696
#
# Poissons Ratio (x) = -0.05199 -0.22366
# Poissons Ratio (y) = -0.03046 1.12801
# Poissons Ratio (z) = 0.04041 -0.34781
#
# Static dielectric constant tensor:
#      x y z
#    x 1.615340 0.000000 0.013490 
#    y 0.000000 1.627860 0.000000 
#    z 0.013490 0.000000 1.677290 
# 
# From -- ./inp_files/374113.got.cif
#   From: 2010.05.17/outbox.cif.g08.bks.cpg/sg12_188_cif.got.tgz:374113.got - 2010.06.03 13:09:07.
