data_PCOD9199660
_publ_section_title
;
Structure prediction by ZEFSAII (Michael W. Deem and Ramdas Pophale) SiO2 
 PCOD9199660
Probable space group: C 2/M
;
_chemical_formula_sum "Si O2"
_cell_formula_units_Z 56
_cell_length_a 21.515175
_cell_length_b 16.913356
_cell_length_c 17.764129
_cell_angle_alpha 90.000000
_cell_angle_beta 25.022313
_cell_angle_gamma 90.000000
_cell_volume 2734.194253
_symmetry_space_group_name_H-M "C 2/M"
_symmetry_group_IT_number 12
_symmetry_cell_setting 'monoclinic'
loop_
_space_group_symop_operation_xyz
x,y,z
-x,y,-z
-x,-y,-z
x,-y,z
1/2+x,1/2+y,z
1/2-x,1/2+y,-z
1/2-x,1/2-y,-z
1/2+x,1/2-y,z
loop_
_atom_site_type_symbol
_atom_site_label
_atom_site_fract_x
_atom_site_fract_y
_atom_site_fract_z
Si Si1 0.626171 0.785629 0.689527
Si Si2 0.862044 0.676549 0.868170
Si Si3 0.151552 0.828483 0.804064
Si Si4 0.460410 0.908329 0.454810
Si Si5 0.331645 0.299221 0.690903
Si Si6 0.686331 0.407935 0.434594
Si Si7 0.854069 0.089541 0.806905
O O1 0.750000 0.750000 0.500000
O O2 0.485685 0.804092 0.793901
O O3 0.611745 0.725682 0.775485
O O4 0.690565 0.866836 0.651400
O O5 0.943485 0.653260 0.700912
O O6 0.750000 0.750000 0.000000
O O7 0.762640 0.601741 0.999780
O O8 0.288551 0.884785 0.634501
O O9 0.218334 0.769439 0.794682
O O10 0.000000 0.865631 0.000000
O O11 0.500000 0.904700 0.500000
O O12 0.483013 0.000000 0.405981
O O13 0.500000 0.270510 0.500000
O O14 0.315743 0.364509 0.643053
O O15 0.315088 0.345821 0.786572
O O16 0.711304 0.500000 0.398598
O O17 0.521949 0.395259 0.647877
O O18 0.850611 0.000000 0.780255
#
# Coordination Sequence:
#
# PCOD9199660 Si02
#       7
#     8   8   8   8   8   8   8
#     4  11  22  41  60  95 125 164 214 270 335 395
#     4  12  26  42  71  96 129 170 221 275 335 393
#     4  11  23  40  68  96 131 168 222 272 325 391
#     4  11  27  49  70  95 133 179 226 277 330 391
#     4   9  18  33  62  94 134 174 213 255 313 386
#     4   9  19  35  58  89 132 174 206 251 320 393
#     4  10  20  36  60  97 133 168 213 264 322 389
#
# _framework density 20.481352999999999
#
# number of rings (size 3 to 8) (size 9 to 14) (size 15 to 20)
#    0.000    1.571    1.429    3.000    8.000    3.143 
#    0.000    0.000    0.000    4.714    0.000    0.000 
#    0.000    0.000    0.000    0.000    0.000    0.000 
#
# Total GULP energy -156392.085378 kJ/mol
# GULP energy per Si atom -5585.431621 kJ/mol
# Density = 2.043474 g / cm^3
# Si number density = 20.481353 Si / 1000 Ang^3
#
#
#
# Elastic Constant Matrix: (Units=GPa)
#
#
# Indices 1 2 3 4 5 6 
#
# 1 88.6646 31.4681 47.2891 -0.0002 -19.6895 0.0000
# 2 31.4681 92.7087 35.7147 -0.0006 -7.6917 0.0000
# 3 47.2891 35.7147 130.9520 -0.0018 -1.0054 0.0006
# 4 -0.0002 -0.0006 -0.0018 23.9609 0.0007 0.3774
# 5 -19.6895 -7.6917 -1.0054 0.0007 28.2301 0.0000
# 6 0.0000 0.0000 0.0006 0.3774 0.0000 16.4445
#
#
#
# Elastic Compliance Matrix: (Units=1/GPa)
#
#
# Indices 1 2 3 4 5 6 
#
# 1 0.017823 -0.002968 -0.005539 -0.000001 0.011425 0.000000
# 2 -0.002968 0.012837 -0.002419 0.000000 0.001341 0.000000
# 3 -0.005539 -0.002419 0.010264 0.000001 -0.004157 0.000000
# 4 -0.000001 0.000000 0.000001 0.041750 -0.000002 -0.000958
# 5 0.011425 0.001341 -0.004157 -0.000002 0.043609 0.000000
# 6 0.000000 0.000000 0.000000 -0.000958 0.000000 0.060833
#
#
# Mechanical properties :
#
#
# Convention : Reuss Voigt Hill
#
# Bulk Modulus (GPa) = 52.43111 60.14102 56.28606
# Shear Modulus (GPa) = 23.22058 26.91731 25.06895
#
# Velocity S-wave (km/s) = 3.37076 3.62917 3.50235
# Velocity P-wave (km/s) = 6.38783 6.85483 6.62545
#
# Compressibility (1/GPa) = 0.01907265
#
# Stress axis : x y z
#
# Youngs Moduli (GPa) = 56.10643 77.89941 97.42328
#
# Poissons Ratio (x) = 0.23120 0.53964
# Poissons Ratio (y) = 0.16652 0.23567
# Poissons Ratio (z) = 0.31078 0.18844
#
# Static dielectric constant tensor:
#      x y z
#    x 1.743910 0.000000 0.021150 
#    y 0.000000 1.729150 0.000000 
#    z 0.021150 0.000000 1.748380 
# 
# From -- ./inp_files/325983.got.cif
#   From: 2010.05.17/outbox.cif.g08.bks.cpg/sg12_163_cif.got.tgz:325983.got - 2010.06.03 13:09:07.
