data_PCOD9199134
_publ_section_title
;
Structure prediction by ZEFSAII (Michael W. Deem and Ramdas Pophale) SiO2 
 PCOD9199134
Probable space group: C 2/M
;
_chemical_formula_sum "Si O2"
_cell_formula_units_Z 64
_cell_length_a 15.720640
_cell_length_b 8.633232
_cell_length_c 32.027636
_cell_angle_alpha 90.000000
_cell_angle_beta 138.982069
_cell_angle_gamma 90.000000
_cell_volume 2852.776430
_symmetry_space_group_name_H-M "C 2/M"
_symmetry_group_IT_number 12
_symmetry_cell_setting 'monoclinic'
loop_
_space_group_symop_operation_xyz
x,y,z
-x,y,-z
-x,-y,-z
x,-y,z
1/2+x,1/2+y,z
1/2-x,1/2+y,-z
1/2-x,1/2-y,-z
1/2+x,1/2-y,z
loop_
_atom_site_type_symbol
_atom_site_label
_atom_site_fract_x
_atom_site_fract_y
_atom_site_fract_z
Si Si1 0.215413 0.687473 0.441734
Si Si2 0.562138 0.324202 0.269953
Si Si3 0.660623 0.319876 0.212349
Si Si4 0.716723 0.181768 0.032592
Si Si5 0.424739 0.187508 0.348406
Si Si6 0.177307 0.674487 0.847116
Si Si7 0.962893 0.178045 0.915424
Si Si8 0.320182 0.681207 0.395561
O O1 0.219654 0.500000 0.443085
O O2 0.250000 0.750000 0.500000
O O3 0.314813 0.738931 0.441803
O O4 0.063546 0.733925 0.380965
O O5 0.583922 0.500000 0.292983
O O6 0.590188 0.321997 0.230650
O O7 0.415157 0.269702 0.217884
O O8 0.668903 0.209529 0.327990
O O9 0.680876 0.500000 0.206697
O O10 0.802993 0.254164 0.275760
O O11 0.570397 0.253382 0.142665
O O12 0.805762 0.255745 0.100887
O O13 0.734319 0.000000 0.040630
O O14 0.750000 0.250000 0.000000
O O15 0.565913 0.226882 0.979936
O O16 0.400386 0.240164 0.387583
O O17 0.418410 0.000000 0.346449
O O18 0.125731 0.500000 0.829885
O O19 0.322956 0.673164 0.884445
O O20 0.012412 0.000000 0.930638
O O21 0.353484 0.500000 0.407732
#
# Coordination Sequence:
#
# PCOD9199134 Si02
#       8
#     8   8   8   8   8   8   8   8
#     4  10  23  40  62  89 123 164 206 251 304 367
#     4  10  20  36  59  86 118 157 197 241 292 353
#     4   8  16  33  58  82 107 145 192 235 285 345
#     4  12  25  41  60  79 110 152 196 247 298 356
#     4   9  19  38  62  87 119 162 206 249 303 368
#     4  11  23  37  58  87 118 152 193 242 295 355
#     4  10  21  37  59  85 114 151 191 239 295 355
#     4  10  21  38  61  90 123 160 203 257 310 358
#
# _framework density 22.434284999999999
#
# number of rings (size 3 to 8) (size 9 to 14) (size 15 to 20)
#    0.000    2.000    0.000    4.125    1.750    5.500 
#    0.000    5.000    0.000    0.000    0.000    0.000 
#    0.000    0.000    0.000    0.000    0.000    0.000 
#
# Total GULP energy -178668.490555 kJ/mol
# GULP energy per Si atom -5583.390330 kJ/mol
# Density = 2.238322 g / cm^3
# Si number density = 22.434285 Si / 1000 Ang^3
#
#
#
# Elastic Constant Matrix: (Units=GPa)
#
#
# Indices 1 2 3 4 5 6 
#
# 1 72.7588 6.9379 -7.8953 0.0000 -12.4009 0.0000
# 2 6.9379 24.0654 -13.5635 0.0000 -2.3541 0.0000
# 3 -7.8953 -13.5635 31.0866 0.0000 -9.8024 0.0000
# 4 0.0000 0.0000 0.0000 26.8994 0.0000 0.0256
# 5 -12.4009 -2.3541 -9.8024 0.0000 39.8668 0.0000
# 6 0.0000 0.0000 0.0000 0.0256 0.0000 20.0908
#
#
#
# Elastic Compliance Matrix: (Units=1/GPa)
#
#
# Indices 1 2 3 4 5 6 
#
# 1 0.015459 -0.000737 0.005537 0.000000 0.006127 0.000000
# 2 -0.000737 0.059025 0.028828 0.000000 0.010344 0.000000
# 3 0.005537 0.028828 0.051202 0.000000 0.016014 0.000000
# 4 0.000000 0.000000 0.000000 0.037176 0.000000 -0.000047
# 5 0.006127 0.010344 0.016014 0.000000 0.031538 0.000000
# 6 0.000000 0.000000 0.000000 -0.000047 0.000000 0.049774
#
#
# Mechanical properties :
#
#
# Convention : Reuss Voigt Hill
#
# Bulk Modulus (GPa) = 5.18291 10.98548 8.08419
# Shear Modulus (GPa) = 20.72688 26.86685 23.79686
#
# Velocity S-wave (km/s) = 3.04286 3.46436 3.26043
# Velocity P-wave (km/s) = 3.82892 4.57272 4.21725
#
# Compressibility (1/GPa) = 0.19294184
#
# Stress axis : x y z
#
# Youngs Moduli (GPa) = 64.68593 16.94183 19.53053
#
# Poissons Ratio (x) = 0.01249 -0.10813
# Poissons Ratio (y) = 0.04768 -0.56303
# Poissons Ratio (z) = -0.35814 -0.48840
#
# Static dielectric constant tensor:
#      x y z
#    x 1.891130 0.000000 -0.002750 
#    y 0.000000 1.798010 0.000000 
#    z -0.002750 0.000000 1.848360 
# 
# From -- ./inp_files/375646.got.cif
#   From: 2010.05.17/outbox.cif.g08.bks.cpg/sg12_188_cif.got.tgz:375646.got - 2010.06.03 13:09:07.
