data_PCOD9199917
_publ_section_title
;
Structure prediction by ZEFSAII (Michael W. Deem and Ramdas Pophale) SiO2 
 PCOD9199917
Probable space group: C 2/M
;
_chemical_formula_sum "Si O2"
_cell_formula_units_Z 44
_cell_length_a 5.363857
_cell_length_b 18.307491
_cell_length_c 22.762130
_cell_angle_alpha 90.000000
_cell_angle_beta 76.769253
_cell_angle_gamma 90.000000
_cell_volume 2175.882026
_symmetry_space_group_name_H-M "C 2/M"
_symmetry_group_IT_number 12
_symmetry_cell_setting 'monoclinic'
loop_
_space_group_symop_operation_xyz
x,y,z
-x,y,-z
-x,-y,-z
x,-y,z
1/2+x,1/2+y,z
1/2-x,1/2+y,-z
1/2-x,1/2-y,-z
1/2+x,1/2-y,z
loop_
_atom_site_type_symbol
_atom_site_label
_atom_site_fract_x
_atom_site_fract_y
_atom_site_fract_z
Si Si1 0.281805 0.000000 0.460798
Si Si2 0.433393 0.202824 0.071156
Si Si3 0.692961 0.088275 0.824438
Si Si4 0.765988 0.411486 0.752486
Si Si5 0.333296 0.917438 0.616548
Si Si6 0.825282 0.779812 0.431253
O O1 0.500000 0.000000 0.500000
O O2 0.369312 0.069001 0.416564
O O3 0.000000 0.000000 0.500000
O O4 0.675810 0.248115 0.083036
O O5 0.383710 0.131923 0.113240
O O6 0.500000 0.184007 0.000000
O O7 0.493912 0.110517 0.783798
O O8 0.984189 0.107499 0.791021
O O9 0.678799 0.000000 0.832512
O O10 0.778682 0.500000 0.749498
O O11 0.801739 0.386981 0.683369
O O12 0.213175 0.865508 0.574430
O O13 0.220692 0.000000 0.621902
O O14 0.750000 0.750000 0.500000
O O15 0.609703 0.744204 0.402209
#
# Coordination Sequence:
#
# PCOD9199917 Si02
#       6
#     4   8   8   8   8   8
#     4  10  24  38  62  96 114 138 203 252 289 352
#     4  10  21  38  59  88 127 169 209 249 295 350
#     4  10  20  36  62  90 121 157 202 253 302 352
#     4   9  19  37  60  89 118 153 200 252 302 354
#     4   9  22  44  64  89 114 159 200 247 294 376
#     4  10  23  42  59  82 117 147 180 236 304 355
#
# _framework density 20.221682999999999
#
# number of rings (size 3 to 8) (size 9 to 14) (size 15 to 20)
#    0.545    1.818    0.000    1.091    2.545    4.727 
#    0.000    7.273    0.000    6.545    0.000    0.000 
#    0.000    0.000    0.000    0.000    0.000    0.000 
#
# Total GULP energy -122714.142429 kJ/mol
# GULP energy per Si atom -5577.915565 kJ/mol
# Density = 2.017566 g / cm^3
# Si number density = 20.221683 Si / 1000 Ang^3
#
#
#
# Elastic Constant Matrix: (Units=GPa)
#
#
# Indices 1 2 3 4 5 6 
#
# 1 159.7402 36.3972 38.9521 0.0000 -6.9007 0.0000
# 2 36.3972 73.1117 42.8968 0.0000 1.5553 0.0000
# 3 38.9521 42.8968 107.1461 0.0000 -10.5990 0.0000
# 4 0.0000 0.0000 0.0000 32.5076 0.0000 3.5907
# 5 -6.9007 1.5553 -10.5990 0.0000 22.2141 0.0000
# 6 0.0000 0.0000 0.0000 3.5907 0.0000 16.2945
#
#
#
# Elastic Compliance Matrix: (Units=1/GPa)
#
#
# Indices 1 2 3 4 5 6 
#
# 1 0.007325 -0.002916 -0.001312 0.000000 0.001854 0.000000
# 2 -0.002916 0.019561 -0.007343 0.000000 -0.005779 0.000000
# 3 -0.001312 -0.007343 0.013392 0.000000 0.006496 0.000000
# 4 0.000000 0.000000 0.000000 0.031529 0.000000 -0.006948
# 5 0.001854 -0.005779 0.006496 0.000000 0.049097 0.000000
# 6 0.000000 0.000000 0.000000 -0.006948 0.000000 0.062901
#
#
# Mechanical properties :
#
#
# Convention : Reuss Voigt Hill
#
# Bulk Modulus (GPa) = 58.35691 64.05447 61.20569
# Shear Modulus (GPa) = 23.51190 28.98670 26.24930
#
# Velocity S-wave (km/s) = 3.41355 3.79020 3.60679
# Velocity P-wave (km/s) = 6.66766 7.13435 6.90495
#
# Compressibility (1/GPa) = 0.01713593
#
# Stress axis : x y z
#
# Youngs Moduli (GPa) = 136.52643 51.12333 74.66942
#
# Poissons Ratio (x) = 0.14908 0.09796
# Poissons Ratio (y) = 0.39812 0.54828
# Poissons Ratio (z) = 0.17912 0.37539
#
# Static dielectric constant tensor:
#      x y z
#    x 1.756230 0.000000 0.012700 
#    y 0.000000 1.779390 0.000000 
#    z 0.012700 0.000000 1.712890 
# 
# From -- ./inp_files/297607.got.cif
#   From: 2010.05.17/outbox.cif.g08.bks.cpg/sg12_149_cif.got.tgz:297607.got - 2010.06.03 13:09:07.
