data_PCOD9199234
_publ_section_title
;
Structure prediction by ZEFSAII (Michael W. Deem and Ramdas Pophale) SiO2 
 PCOD9199234
Probable space group: C 2/M
;
_chemical_formula_sum "Si O2"
_cell_formula_units_Z 64
_cell_length_a 30.522296
_cell_length_b 8.874564
_cell_length_c 22.774248
_cell_angle_alpha 90.000000
_cell_angle_beta 148.240860
_cell_angle_gamma 90.000000
_cell_volume 3247.001892
_symmetry_space_group_name_H-M "C 2/M"
_symmetry_group_IT_number 12
_symmetry_cell_setting 'monoclinic'
loop_
_space_group_symop_operation_xyz
x,y,z
-x,y,-z
-x,-y,-z
x,-y,z
1/2+x,1/2+y,z
1/2-x,1/2+y,-z
1/2-x,1/2-y,-z
1/2+x,1/2-y,z
loop_
_atom_site_type_symbol
_atom_site_label
_atom_site_fract_x
_atom_site_fract_y
_atom_site_fract_z
Si Si1 0.022057 0.820974 0.649547
Si Si2 0.124821 0.819719 0.977244
Si Si3 0.505933 0.180397 0.256656
Si Si4 0.182813 0.680777 0.780948
Si Si5 0.279630 0.820924 0.698722
Si Si6 0.373787 0.179536 0.415862
Si Si7 0.912851 0.177270 0.933705
Si Si8 0.327768 0.818535 0.622899
O O1 0.991735 0.755346 0.677017
O O2 0.115073 0.763704 0.743166
O O3 0.961315 0.755843 0.530197
O O4 0.018406 0.000000 0.645773
O O5 0.222294 0.781166 0.094848
O O6 0.083205 0.785708 0.993043
O O7 0.118520 0.000000 0.960087
O O8 0.076267 0.733263 0.871371
O O9 0.585900 0.227866 0.309030
O O10 0.506878 0.000000 0.263901
O O11 0.173383 0.500000 0.776585
O O12 0.161905 0.717536 0.689229
O O13 0.193443 0.737265 0.613618
O O14 0.343526 0.774428 0.822291
O O15 0.319103 0.775591 0.681284
O O16 0.265509 0.000000 0.682575
O O17 0.382859 0.000000 0.429774
O O18 0.888452 0.000000 0.901939
O O19 0.000000 0.197032 0.000000
O O20 0.250000 0.750000 0.500000
O O21 0.323616 0.000000 0.615138
#
# Coordination Sequence:
#
# PCOD9199234 Si02
#       8
#     8   8   8   8   8   8   8   8
#     4  12  26  42  63  93 124 158 207 262 317 373
#     4  10  21  40  63  91 125 162 206 257 305 362
#     4  11  24  43  64  89 123 167 213 255 310 372
#     4  10  22  42  66  91 124 164 206 252 310 372
#     4  11  22  36  58  90 126 159 200 252 308 363
#     4  11  22  41  66  93 127 164 205 253 310 375
#     4  10  20  36  59  88 121 161 206 248 301 365
#     4  10  23  40  59  87 122 162 208 254 303 364
#
# _framework density 19.710491000000001
#
# number of rings (size 3 to 8) (size 9 to 14) (size 15 to 20)
#    0.000    1.375    1.250    4.125    0.000    8.250 
#    0.000    0.000    0.000    0.000    0.000    0.000 
#    0.000    0.000    0.000    0.000    0.000    0.000 
#
# Total GULP energy -178974.383003 kJ/mol
# GULP energy per Si atom -5592.949469 kJ/mol
# Density = 1.966563 g / cm^3
# Si number density = 19.710491 Si / 1000 Ang^3
#
#
#
# Elastic Constant Matrix: (Units=GPa)
#
#
# Indices 1 2 3 4 5 6 
#
# 1 68.1248 21.1554 10.1910 0.0000 9.5051 0.0000
# 2 21.1554 32.3438 28.2708 0.0000 3.8076 0.0000
# 3 10.1910 28.2708 92.2220 0.0000 -0.2429 0.0000
# 4 0.0000 0.0000 0.0000 35.0822 0.0000 -0.1617
# 5 9.5051 3.8076 -0.2429 0.0000 30.4815 0.0000
# 6 0.0000 0.0000 0.0000 -0.1617 0.0000 27.0473
#
#
#
# Elastic Compliance Matrix: (Units=1/GPa)
#
#
# Indices 1 2 3 4 5 6 
#
# 1 0.019298 -0.013999 0.002148 0.000000 -0.004252 0.000000
# 2 -0.013999 0.053291 -0.014796 0.000000 -0.002409 0.000000
# 3 0.002148 -0.014796 0.015145 0.000000 0.001299 0.000000
# 4 0.000000 0.000000 0.000000 0.028505 0.000000 0.000170
# 5 -0.004252 -0.002409 0.001299 0.000000 0.034444 0.000000
# 6 0.000000 0.000000 0.000000 0.000170 0.000000 0.036973
#
#
# Mechanical properties :
#
#
# Convention : Reuss Voigt Hill
#
# Bulk Modulus (GPa) = 29.03638 34.65832 31.84735
# Shear Modulus (GPa) = 19.80742 27.39376 23.60059
#
# Velocity S-wave (km/s) = 3.17348 3.73205 3.46405
# Velocity P-wave (km/s) = 5.30956 6.01605 5.67381
#
# Compressibility (1/GPa) = 0.03443955
#
# Stress axis : x y z
#
# Youngs Moduli (GPa) = 51.81825 18.76504 66.02795
#
# Poissons Ratio (x) = 0.26270 -0.14181
# Poissons Ratio (y) = 0.72542 0.97693
# Poissons Ratio (z) = -0.11129 0.27764
#
# Static dielectric constant tensor:
#      x y z
#    x 1.694440 0.000000 0.005600 
#    y 0.000000 1.660620 0.000000 
#    z 0.005600 0.000000 1.672250 
# 
# From -- ./inp_files/353490.got.cif
#   From: 2010.05.17/outbox.cif.g08.bks.cpg/sg12_177_cif.got.tgz:353490.got - 2010.06.03 13:09:07.
