data_PCOD9199440
_publ_section_title
;
Structure prediction by ZEFSAII (Michael W. Deem and Ramdas Pophale) SiO2 
 PCOD9199440
Probable space group: C 2/M
;
_chemical_formula_sum "Si O2"
_cell_formula_units_Z 44
_cell_length_a 26.282046
_cell_length_b 13.446224
_cell_length_c 6.023232
_cell_angle_alpha 90.000000
_cell_angle_beta 83.467055
_cell_angle_gamma 90.000000
_cell_volume 2114.754028
_symmetry_space_group_name_H-M "C 2/M"
_symmetry_group_IT_number 12
_symmetry_cell_setting 'monoclinic'
loop_
_space_group_symop_operation_xyz
x,y,z
-x,y,-z
-x,-y,-z
x,-y,z
1/2+x,1/2+y,z
1/2-x,1/2+y,-z
1/2-x,1/2-y,-z
1/2+x,1/2-y,z
loop_
_atom_site_type_symbol
_atom_site_label
_atom_site_fract_x
_atom_site_fract_y
_atom_site_fract_z
Si Si1 0.588687 0.194561 0.601949
Si Si2 0.025454 0.500000 0.737604
Si Si3 0.303314 0.790678 0.213551
Si Si4 0.368393 0.288715 0.805897
Si Si5 0.557462 0.613491 0.875884
Si Si6 0.210837 0.112339 0.468031
O O1 0.645743 0.183064 0.673133
O O2 0.595693 0.208555 0.335141
O O3 0.564420 0.298847 0.694702
O O4 0.557333 0.102041 0.706147
O O5 0.000000 0.500000 0.500000
O O6 0.000000 0.500000 0.000000
O O7 0.258794 0.868715 0.280897
O O8 0.283802 0.686925 0.328529
O O9 0.323749 0.769331 0.958931
O O10 0.340234 0.356387 0.638203
O O11 0.401480 0.355320 0.956178
O O12 0.567096 0.500000 0.793985
O O13 0.500000 0.616879 0.000000
O O14 0.208388 0.000000 0.543677
#
# Coordination Sequence:
#
# PCOD9199440 Si02
#       6
#     8   4   8   8   8   8
#     4  10  24  42  65  93 131 171 222 278 338 410
#     4  12  30  48  76 104 140 190 240 290 345 409
#     4   9  21  39  59  86 127 157 211 269 331 400
#     4  10  21  38  60  90 126 162 213 273 337 406
#     4  10  22  39  63  91 126 167 213 274 341 408
#     4  10  20  36  60  87 118 166 210 265 331 405
#
# _framework density 20.806201000000001
#
# number of rings (size 3 to 8) (size 9 to 14) (size 15 to 20)
#    0.000    2.000    0.000    1.636    8.909    8.000 
#    1.636    1.818    0.000    0.000    0.000    0.000 
#    0.000    0.000    0.000    0.000    0.000    0.000 
#
# Total GULP energy -122773.860347 kJ/mol
# GULP energy per Si atom -5580.630016 kJ/mol
# Density = 2.075885 g / cm^3
# Si number density = 20.806201 Si / 1000 Ang^3
#
#
#
# Elastic Constant Matrix: (Units=GPa)
#
#
# Indices 1 2 3 4 5 6 
#
# 1 66.9819 30.7755 14.8739 0.0000 -19.9322 0.0000
# 2 30.7755 119.0795 52.5114 0.0000 -26.1518 0.0000
# 3 14.8739 52.5114 91.9202 0.0000 -30.0106 0.0000
# 4 0.0000 0.0000 0.0000 -0.2712 0.0000 8.7201
# 5 -19.9322 -26.1518 -30.0106 0.0000 34.0007 0.0000
# 6 0.0000 0.0000 0.0000 8.7201 0.0000 12.4312
#
#
#
# Elastic Compliance Matrix: (Units=1/GPa)
#
#
# Indices 1 2 3 4 5 6 
#
# 1 0.019252 -0.003743 0.002483 0.000000 0.010599 0.000000
# 2 -0.003743 0.012392 -0.005729 0.000000 0.002281 0.000000
# 3 0.002483 -0.005729 0.017963 0.000000 0.012904 0.000000
# 4 0.000000 0.000000 0.000000 -0.156540 0.000000 0.109809
# 5 0.010599 0.002281 0.012904 0.000000 0.048769 0.000000
# 6 0.000000 0.000000 0.000000 0.109809 0.000000 0.003415
#
#
# Mechanical properties :
#
#
# Convention : Reuss Voigt Hill
#
# Bulk Modulus (GPa) = 28.06628 52.70037 40.38332
# Shear Modulus (GPa) = -173.04134 21.22017 -75.91058
#
# Velocity S-wave (km/s) = -9.12955 3.19705 -6.04680
# Velocity P-wave (km/s) = 9.87993 6.24598 5.41298
#
# Compressibility (1/GPa) = 0.03562995
#
# Stress axis : x y z
#
# Youngs Moduli (GPa) = 51.94352 80.69460 55.66946
#
# Poissons Ratio (x) = 0.30204 -0.13825
# Poissons Ratio (y) = 0.19442 0.31894
# Poissons Ratio (z) = -0.12900 0.46231
#
# Static dielectric constant tensor:
#      x y z
#    x 1.765740 0.000000 -0.005750 
#    y 0.000000 1.778070 0.000000 
#    z -0.005750 0.000000 1.808320 
# 
# From -- ./inp_files/27898.got.cif
#   From: 2010.05.17/outbox.cif.g08.bks.cpg/sg12_14_cif.got.tgz:27898.got - 2010.06.03 13:09:07.
