data_PCOD9199246
_publ_section_title
;
Structure prediction by ZEFSAII (Michael W. Deem and Ramdas Pophale) SiO2 
 PCOD9199246
Probable space group: C 2/M
;
_chemical_formula_sum "Si O2"
_cell_formula_units_Z 52
_cell_length_a 12.612328
_cell_length_b 25.171906
_cell_length_c 7.536558
_cell_angle_alpha 90.000000
_cell_angle_beta 82.286612
_cell_angle_gamma 90.000000
_cell_volume 2371.029530
_symmetry_space_group_name_H-M "C 2/M"
_symmetry_group_IT_number 12
_symmetry_cell_setting 'monoclinic'
loop_
_space_group_symop_operation_xyz
x,y,z
-x,y,-z
-x,-y,-z
x,-y,z
1/2+x,1/2+y,z
1/2-x,1/2+y,-z
1/2-x,1/2-y,-z
1/2+x,1/2-y,z
loop_
_atom_site_type_symbol
_atom_site_label
_atom_site_fract_x
_atom_site_fract_y
_atom_site_fract_z
Si Si1 0.783983 0.906554 0.408211
Si Si2 0.654321 0.299931 0.219517
Si Si3 0.126662 0.500000 0.008390
Si Si4 0.126937 0.500000 0.432965
Si Si5 0.780676 0.389143 0.972479
Si Si6 0.562657 0.804191 0.214631
Si Si7 0.000000 0.131690 0.500000
Si Si8 0.838965 0.694191 0.417251
O O1 0.697715 0.950829 0.481207
O O2 0.781483 0.903203 0.195447
O O3 0.733106 0.855335 0.510370
O O4 0.906404 0.905455 0.442642
O O5 0.604351 0.250921 0.120583
O O6 0.557729 0.328340 0.348226
O O7 0.749171 0.275164 0.323575
O O8 0.710658 0.347393 0.098740
O O9 0.134233 0.500000 0.219342
O O10 0.182886 0.444147 0.941603
O O11 0.000000 0.500000 0.000000
O O12 0.000000 0.500000 0.500000
O O13 0.883079 0.355859 0.880279
O O14 0.602061 0.795663 0.409276
O O15 0.436648 0.812549 0.258641
#
# Coordination Sequence:
#
# PCOD9199246 Si02
#       8
#     8   8   4   4   8   8   4   8
#     4   9  21  40  60  92 124 161 206 259 313 376
#     4  11  22  38  60  89 122 167 209 253 313 377
#     4  10  24  40  62  87 129 168 199 261 324 372
#     4  10  22  37  68  96 121 157 212 265 317 369
#     4  10  23  39  59  91 125 161 212 260 318 374
#     4  10  20  36  59  88 126 163 201 262 315 372
#     4  10  22  41  64  86 124 167 210 254 314 378
#     4   9  20  35  59  86 126 157 203 254 313 377
#
# _framework density 21.931401000000001
#
# number of rings (size 3 to 8) (size 9 to 14) (size 15 to 20)
#    0.000    2.154    0.000    1.846    8.615    4.615 
#    0.000    2.308    0.000    2.769    0.000    0.000 
#    0.000    0.000    0.000    0.000    0.000    0.000 
#
# Total GULP energy -144884.887715 kJ/mol
# GULP energy per Si atom -5572.495681 kJ/mol
# Density = 2.188148 g / cm^3
# Si number density = 21.931401 Si / 1000 Ang^3
#
#
#
# Elastic Constant Matrix: (Units=GPa)
#
#
# Indices 1 2 3 4 5 6 
#
# 1 183.6811 42.5779 30.1768 0.0000 5.3420 0.0000
# 2 42.5779 66.1908 15.9521 0.0000 2.6861 0.0000
# 3 30.1768 15.9521 56.4293 0.0000 2.4774 0.0000
# 4 0.0000 0.0000 0.0000 25.0613 0.0000 -3.9026
# 5 5.3420 2.6861 2.4774 0.0000 35.8326 0.0000
# 6 0.0000 0.0000 0.0000 -3.9026 0.0000 32.8165
#
#
#
# Elastic Compliance Matrix: (Units=1/GPa)
#
#
# Indices 1 2 3 4 5 6 
#
# 1 0.006734 -0.003699 -0.002531 0.000000 -0.000552 0.000000
# 2 -0.003699 0.018274 -0.003161 0.000000 -0.000600 0.000000
# 3 -0.002531 -0.003161 0.020002 0.000000 -0.000769 0.000000
# 4 0.000000 0.000000 0.000000 0.040655 0.000000 0.004835
# 5 -0.000552 -0.000600 -0.000769 0.000000 0.028088 0.000000
# 6 0.000000 0.000000 0.000000 0.004835 0.000000 0.031047
#
#
# Mechanical properties :
#
#
# Convention : Reuss Voigt Hill
#
# Bulk Modulus (GPa) = 38.12927 53.74610 45.93768
# Shear Modulus (GPa) = 29.01502 33.24837 31.13169
#
# Velocity S-wave (km/s) = 3.64124 3.89783 3.77172
# Velocity P-wave (km/s) = 5.92466 6.69456 6.32134
#
# Compressibility (1/GPa) = 0.02622657
#
# Stress axis : x y z
#
# Youngs Moduli (GPa) = 148.51052 54.72397 49.99443
#
# Poissons Ratio (x) = 0.20243 0.12654
# Poissons Ratio (y) = 0.54935 0.15805
# Poissons Ratio (z) = 0.37588 0.17300
#
# Static dielectric constant tensor:
#      x y z
#    x 1.820570 0.000000 0.091290 
#    y 0.000000 0.443560 0.000000 
#    z 0.091290 0.000000 1.970090 
# 
# From -- ./inp_files/52636.got.cif
#   From: 2010.05.17/outbox.cif.g08.bks.cpg/sg12_27_cif.got.tgz:52636.got - 2010.06.03 13:09:07.
