data_PCOD9199872
_publ_section_title
;
Structure prediction by ZEFSAII (Michael W. Deem and Ramdas Pophale) SiO2 
 PCOD9199872
Probable space group: C 2/M
;
_chemical_formula_sum "Si O2"
_cell_formula_units_Z 46
_cell_length_a 12.091878
_cell_length_b 16.963897
_cell_length_c 27.777527
_cell_angle_alpha 90.000000
_cell_angle_beta 156.897969
_cell_angle_gamma 90.000000
_cell_volume 2235.673858
_symmetry_space_group_name_H-M "C 2/M"
_symmetry_group_IT_number 12
_symmetry_cell_setting 'monoclinic'
loop_
_space_group_symop_operation_xyz
x,y,z
-x,y,-z
-x,-y,-z
x,-y,z
1/2+x,1/2+y,z
1/2-x,1/2+y,-z
1/2-x,1/2-y,-z
1/2+x,1/2-y,z
loop_
_atom_site_type_symbol
_atom_site_label
_atom_site_fract_x
_atom_site_fract_y
_atom_site_fract_z
Si Si1 0.434640 0.202889 0.023920
Si Si2 0.031421 0.293761 0.717896
Si Si3 0.000000 0.000000 0.000000
Si Si4 0.857840 0.635935 0.089892
Si Si5 0.000000 0.323913 0.500000
Si Si6 0.225881 0.091720 0.669619
Si Si7 0.370361 0.161262 0.554290
O O1 0.335612 0.141583 0.023900
O O2 0.698810 0.248988 0.153508
O O3 0.500000 0.163037 0.000000
O O4 0.223697 0.274944 0.927626
O O5 0.775619 0.231252 0.613541
O O6 0.916571 0.360434 0.708223
O O7 0.077459 0.330254 0.682991
O O8 0.840481 0.069776 0.967413
O O9 0.165950 0.617639 0.234380
O O10 0.976691 0.364621 0.543729
O O11 0.896815 0.110810 0.534666
O O12 0.280629 0.000000 0.684541
O O13 0.250000 0.250000 0.500000
#
# Coordination Sequence:
#
# PCOD9199872 Si02
#       7
#     8   8   2   8   4   8   8
#     4  11  23  39  64  98 126 171 227 270 313 390
#     4  11  20  36  59  92 127 157 212 271 314 373
#     4  12  20  44  62  96 138 168 208 268 350 372
#     4  11  23  39  64  94 131 171 216 264 326 394
#     4  10  20  36  62  84 124 162 204 266 314 372
#     4  12  22  38  64  93 127 164 208 266 337 387
#     4  10  20  37  58  90 121 163 212 260 319 384
#
# _framework density 20.575451999999999
#
# number of rings (size 3 to 8) (size 9 to 14) (size 15 to 20)
#    0.000    1.043    6.957    2.087    0.000    1.391 
#    0.000    0.870    0.000    0.000    0.000    0.000 
#    0.000    0.000    0.000    0.000    0.000    0.000 
#
# Total GULP energy -128108.015779 kJ/mol
# GULP energy per Si atom -5569.913730 kJ/mol
# Density = 2.052862 g / cm^3
# Si number density = 20.575452 Si / 1000 Ang^3
#
#
#
# Elastic Constant Matrix: (Units=GPa)
#
#
# Indices 1 2 3 4 5 6 
#
# 1 127.7429 20.6003 18.3295 -0.0005 -22.7437 0.0012
# 2 20.6003 56.7718 19.8749 0.0006 -2.2575 0.0002
# 3 18.3295 19.8749 69.6836 -0.0044 -4.1711 -0.0050
# 4 -0.0005 0.0006 -0.0044 13.3374 0.0019 2.8415
# 5 -22.7437 -2.2575 -4.1711 0.0019 29.8075 0.0002
# 6 0.0012 0.0002 -0.0050 2.8415 0.0002 21.8499
#
#
#
# Elastic Compliance Matrix: (Units=1/GPa)
#
#
# Indices 1 2 3 4 5 6 
#
# 1 0.009718 -0.002777 -0.001344 -0.000001 0.007017 -0.000001
# 2 -0.002777 0.020376 -0.005159 -0.000002 -0.001297 -0.000001
# 3 -0.001344 -0.005159 0.016227 0.000005 0.000854 0.000003
# 4 -0.000001 -0.000002 0.000005 0.077114 -0.000005 -0.010028
# 5 0.007017 -0.001297 0.000854 -0.000005 0.038924 0.000000
# 6 -0.000001 -0.000001 0.000003 -0.010028 0.000000 0.047071
#
#
# Mechanical properties :
#
#
# Convention : Reuss Voigt Hill
#
# Bulk Modulus (GPa) = 36.02126 41.31198 38.66662
# Shear Modulus (GPa) = 21.07537 26.02518 23.55027
#
# Velocity S-wave (km/s) = 3.20394 3.56035 3.38684
# Velocity P-wave (km/s) = 5.58855 6.08468 5.84188
#
# Compressibility (1/GPa) = 0.02776138
#
# Stress axis : x y z
#
# Youngs Moduli (GPa) = 102.89991 49.07627 61.62662
#
# Poissons Ratio (x) = 0.13627 0.08284
# Poissons Ratio (y) = 0.28573 0.31793
# Poissons Ratio (z) = 0.13833 0.25318
#
# Static dielectric constant tensor:
#      x y z
#    x 1.839280 0.000000 -0.002070 
#    y 0.000000 1.678710 0.000000 
#    z -0.002070 0.000000 1.805020 
# 
# From -- ./inp_files/358660.got.cif
#   From: 2010.05.17/outbox.cif.g08.bks.cpg/sg12_180_cif.got.tgz:358660.got - 2010.06.03 13:09:07.
