data_PCOD9199596
_publ_section_title
;
Structure prediction by ZEFSAII (Michael W. Deem and Ramdas Pophale) SiO2 
 PCOD9199596
Probable space group: C 2/M
;
_chemical_formula_sum "Si O2"
_cell_formula_units_Z 32
_cell_length_a 11.345524
_cell_length_b 13.367373
_cell_length_c 24.227952
_cell_angle_alpha 90.000000
_cell_angle_beta 22.987396
_cell_angle_gamma 90.000000
_cell_volume 1434.961346
_symmetry_space_group_name_H-M "C 2/M"
_symmetry_group_IT_number 12
_symmetry_cell_setting 'monoclinic'
loop_
_space_group_symop_operation_xyz
x,y,z
-x,y,-z
-x,-y,-z
x,-y,z
1/2+x,1/2+y,z
1/2-x,1/2+y,-z
1/2-x,1/2-y,-z
1/2+x,1/2-y,z
loop_
_atom_site_type_symbol
_atom_site_label
_atom_site_fract_x
_atom_site_fract_y
_atom_site_fract_z
Si Si1 0.797578 0.615889 0.423483
Si Si2 0.806696 0.881933 0.903322
Si Si3 0.396285 0.193562 0.602081
Si Si4 0.417634 0.379586 0.097941
O O1 0.725436 0.500000 0.444680
O O2 0.518206 0.692343 0.547464
O O3 0.939449 0.630198 0.422171
O O4 0.077371 0.649495 0.263629
O O5 0.050745 0.816996 0.765819
O O6 0.852547 0.856553 0.949456
O O7 0.887998 0.000000 0.865311
O O8 0.500000 0.873052 0.000000
O O9 0.500000 0.148846 0.500000
O O10 0.411835 0.500000 0.098054
O O11 0.500000 0.346074 0.000000
#
# Coordination Sequence:
#
# PCOD9199596 Si02
#       4
#     8   8   8   8
#     4   9  19  36  59  89 124 163 210 262 314 370
#     4   9  18  34  59  93 128 160 202 260 320 374
#     4  10  20  36  60  90 124 160 205 259 313 371
#     4   8  14  29  56  87 118 156 205 258 310 367
#
# _framework density 22.300250999999999
#
# number of rings (size 3 to 8) (size 9 to 14) (size 15 to 20)
#    0.000    3.000    0.000    2.250    0.000    2.500 
#    0.000    6.250    0.000   14.250    0.000    3.500 
#    0.000   72.000    0.000    0.000    0.000    0.000 
#
# Total GULP energy -89164.686146 kJ/mol
# GULP energy per Si atom -5572.792884 kJ/mol
# Density = 2.224949 g / cm^3
# Si number density = 22.300251 Si / 1000 Ang^3
#
#
#
# Elastic Constant Matrix: (Units=GPa)
#
#
# Indices 1 2 3 4 5 6 
#
# 1 202.2964 45.4370 116.8305 0.0306 16.4903 0.0247
# 2 45.4370 118.6796 52.9879 0.0431 -3.4713 -0.0042
# 3 116.8305 52.9879 145.4456 0.0860 13.1094 -0.1604
# 4 0.0306 0.0431 0.0860 31.8602 0.0124 27.5093
# 5 16.4903 -3.4713 13.1094 0.0124 52.3269 -0.0398
# 6 0.0247 -0.0042 -0.1604 27.5093 -0.0398 -36.5736
#
#
#
# Elastic Compliance Matrix: (Units=1/GPa)
#
#
# Indices 1 2 3 4 5 6 
#
# 1 0.009293 -0.000364 -0.007229 -0.000014 -0.001142 0.000029
# 2 -0.000364 0.010214 -0.003581 -0.000009 0.001689 0.000006
# 3 -0.007229 -0.003581 0.014122 0.000018 -0.001497 -0.000051
# 4 -0.000014 -0.000009 0.000018 0.019029 0.000005 0.014313
# 5 -0.001142 0.001689 -0.001497 0.000005 0.019958 -0.000012
# 6 0.000029 0.000006 -0.000051 0.014313 -0.000012 -0.016576
#
#
# Mechanical properties :
#
#
# Convention : Reuss Voigt Hill
#
# Bulk Modulus (GPa) = 88.64850 99.65916 94.15383
# Shear Modulus (GPa) = 60.86640 26.26712 43.56676
#
# Velocity S-wave (km/s) = 5.23004 3.43576 4.42480
# Velocity P-wave (km/s) = 8.73554 7.77984 8.27150
#
# Compressibility (1/GPa) = 0.01128051
#
# Stress axis : x y z
#
# Youngs Moduli (GPa) = 107.60715 97.90902 70.81120
#
# Poissons Ratio (x) = 0.03559 0.51192
# Poissons Ratio (y) = 0.03912 0.25359
# Poissons Ratio (z) = 0.77793 0.35063
#
# Static dielectric constant tensor:
#      x y z
#    x 1.900440 0.000010 -0.049740 
#    y 0.000010 1.810580 -0.000040 
#    z -0.049740 -0.000040 1.843390 
# 
# From -- ./inp_files/206807.got.cif
#   From: 2010.05.17/outbox.cif.g08.bks.cpg/sg12_104_cif.got.tgz:206807.got - 2010.06.03 13:09:07.
