data_PCOD9199793
_publ_section_title
;
Structure prediction by ZEFSAII (Michael W. Deem and Ramdas Pophale) SiO2 
 PCOD9199793
Probable space group: C 2/M
;
_chemical_formula_sum "Si O2"
_cell_formula_units_Z 64
_cell_length_a 14.718741
_cell_length_b 8.335189
_cell_length_c 22.433873
_cell_angle_alpha 90.000000
_cell_angle_beta 77.985333
_cell_angle_gamma 90.000000
_cell_volume 2691.975608
_symmetry_space_group_name_H-M "C 2/M"
_symmetry_group_IT_number 12
_symmetry_cell_setting 'monoclinic'
loop_
_space_group_symop_operation_xyz
x,y,z
-x,y,-z
-x,-y,-z
x,-y,z
1/2+x,1/2+y,z
1/2-x,1/2+y,-z
1/2-x,1/2-y,-z
1/2+x,1/2-y,z
loop_
_atom_site_type_symbol
_atom_site_label
_atom_site_fract_x
_atom_site_fract_y
_atom_site_fract_z
Si Si1 0.360878 0.682248 0.672916
Si Si2 0.861273 0.186616 0.419369
Si Si3 0.863610 0.687442 0.547841
Si Si4 0.465443 0.183049 0.292458
Si Si5 0.193488 0.306875 0.139625
Si Si6 0.196468 0.185853 0.760325
Si Si7 0.861396 0.804900 0.044464
Si Si8 0.036260 0.192602 0.089817
O O1 0.327604 0.500000 0.680222
O O2 0.397794 0.721781 0.601962
O O3 0.443022 0.712349 0.708637
O O4 0.274233 0.797492 0.698347
O O5 0.893601 0.240594 0.480524
O O6 0.749197 0.201751 0.435084
O O7 0.904555 0.291424 0.360800
O O8 0.884452 0.000000 0.404951
O O9 0.887849 0.500000 0.547881
O O10 0.397011 0.230292 0.248331
O O11 0.495913 0.000000 0.282688
O O12 0.193867 0.500000 0.142047
O O13 0.246836 0.247906 0.190851
O O14 0.259299 0.250502 0.075996
O O15 0.089553 0.253992 0.140120
O O16 0.174014 0.000000 0.774389
O O17 0.931194 0.760496 0.088921
O O18 0.860763 0.000000 0.041853
O O19 0.906428 0.749705 0.976660
O O20 0.038811 0.000000 0.090666
#
# Coordination Sequence:
#
# PCOD9199793 Si02
#       8
#     8   8   8   8   8   8   8   8
#     4  12  25  42  65  89 117 156 201 249 305 363
#     4  10  20  36  61  91 125 158 194 240 295 358
#     4  10  20  36  61  91 125 157 193 242 296 357
#     4  12  25  42  65  90 119 156 200 249 303 361
#     4  10  21  36  57  83 116 153 192 240 295 346
#     4  11  24  43  61  84 119 159 204 254 301 353
#     4   8  16  33  55  83 118 157 192 233 287 344
#     4   9  17  32  57  85 117 154 197 237 279 342
#
# _framework density 23.774360999999999
#
# number of rings (size 3 to 8) (size 9 to 14) (size 15 to 20)
#    0.000    1.750    1.250    4.500    0.000    3.500 
#    0.000    5.625    0.000    0.000    0.000    0.000 
#    0.000    0.000    0.000    0.000    0.000    0.000 
#
# Total GULP energy -179039.861829 kJ/mol
# GULP energy per Si atom -5594.995682 kJ/mol
# Density = 2.372025 g / cm^3
# Si number density = 23.774361 Si / 1000 Ang^3
#
#
#
# Elastic Constant Matrix: (Units=GPa)
#
#
# Indices 1 2 3 4 5 6 
#
# 1 101.5754 -0.5788 24.6015 0.0000 23.2658 0.0000
# 2 -0.5788 41.0189 -1.8388 0.0000 10.5657 0.0000
# 3 24.6015 -1.8388 72.0812 0.0000 24.5407 0.0000
# 4 0.0000 0.0000 0.0000 20.1012 0.0000 11.4783
# 5 23.2658 10.5657 24.5407 0.0000 46.2808 0.0000
# 6 0.0000 0.0000 0.0000 11.4783 0.0000 23.9302
#
#
#
# Elastic Compliance Matrix: (Units=1/GPa)
#
#
# Indices 1 2 3 4 5 6 
#
# 1 0.011517 0.001328 -0.002224 0.000000 -0.004914 0.000000
# 2 0.001328 0.026700 0.003088 0.000000 -0.008401 0.000000
# 3 -0.002224 0.003088 0.017780 0.000000 -0.009015 0.000000
# 4 0.000000 0.000000 0.000000 0.068514 0.000000 -0.032863
# 5 -0.004914 -0.008401 -0.009015 0.000000 0.030775 0.000000
# 6 0.000000 0.000000 0.000000 -0.032863 0.000000 0.057551
#
#
# Mechanical properties :
#
#
# Convention : Reuss Voigt Hill
#
# Bulk Modulus (GPa) = 16.56134 28.78258 22.67196
# Shear Modulus (GPa) = 21.87416 30.89522 26.38469
#
# Velocity S-wave (km/s) = 3.03656 3.60879 3.33497
# Velocity P-wave (km/s) = 4.39038 5.43115 4.93826
#
# Compressibility (1/GPa) = 0.06038159
#
# Stress axis : x y z
#
# Youngs Moduli (GPa) = 86.83172 37.45313 56.24201
#
# Poissons Ratio (x) = -0.04975 0.12508
# Poissons Ratio (y) = -0.11535 -0.17366
# Poissons Ratio (z) = 0.19310 -0.11565
#
# Static dielectric constant tensor:
#      x y z
#    x 1.893090 0.000000 -0.008770 
#    y 0.000000 1.816710 0.000000 
#    z -0.008770 0.000000 1.960740 
# 
# From -- ./inp_files/338769.got.cif
#   From: 2010.05.17/outbox.cif.g08.bks.cpg/sg12_170_cif.got.tgz:338769.got - 2010.06.03 13:09:07.
