data_PCOD9199516
_publ_section_title
;
Structure prediction by ZEFSAII (Michael W. Deem and Ramdas Pophale) SiO2 
 PCOD9199516
Probable space group: C 2/M
;
_chemical_formula_sum "Si O2"
_cell_formula_units_Z 64
_cell_length_a 30.080151
_cell_length_b 15.874704
_cell_length_c 7.786335
_cell_angle_alpha 90.000000
_cell_angle_beta 55.005516
_cell_angle_gamma 90.000000
_cell_volume 3045.878151
_symmetry_space_group_name_H-M "C 2/M"
_symmetry_group_IT_number 12
_symmetry_cell_setting 'monoclinic'
loop_
_space_group_symop_operation_xyz
x,y,z
-x,y,-z
-x,-y,-z
x,-y,z
1/2+x,1/2+y,z
1/2-x,1/2+y,-z
1/2-x,1/2-y,-z
1/2+x,1/2-y,z
loop_
_atom_site_type_symbol
_atom_site_label
_atom_site_fract_x
_atom_site_fract_y
_atom_site_fract_z
Si Si1 0.455315 0.752621 0.234407
Si Si2 0.827672 0.851954 0.841962
Si Si3 0.248421 0.402864 0.723713
Si Si4 0.848036 0.315723 0.577778
Si Si5 0.519011 0.095472 0.260729
Si Si6 0.054061 0.906013 0.495505
Si Si7 0.260946 0.397507 0.317282
Si Si8 0.134108 0.600940 0.114430
O O1 0.393024 0.781522 0.345326
O O2 0.482589 0.836735 0.248879
O O3 0.450390 0.673595 0.371241
O O4 0.500000 0.724168 0.000000
O O5 0.789887 0.901195 0.789688
O O6 0.829753 0.762278 0.739611
O O7 0.888051 0.889928 0.724538
O O8 0.799791 0.856154 0.088915
O O9 0.236412 0.500000 0.710031
O O10 0.271435 0.369881 0.491630
O O11 0.190986 0.365515 0.913418
O O12 0.799027 0.364204 0.596940
O O13 0.872483 0.375914 0.671246
O O14 0.500000 0.091581 0.500000
O O15 0.581070 0.127810 0.127607
O O16 0.516311 0.000000 0.196738
O O17 0.000000 0.904436 0.500000
O O18 0.056744 0.000000 0.569167
O O19 0.264704 0.500000 0.290422
O O20 0.134740 0.500000 0.104357
#
# Coordination Sequence:
#
# PCOD9199516 Si02
#       8
#     8   8   8   8   8   8   8   8
#     4  11  25  41  60  93 134 171 213 269 328 378
#     4  11  23  43  66  94 128 164 207 265 328 384
#     4  10  22  39  62  91 125 166 209 256 313 379
#     4  11  23  39  60  92 124 168 213 259 320 381
#     4  10  20  36  60  88 121 170 221 259 312 380
#     4  10  23  46  73  94 118 162 217 271 330 390
#     4  11  23  40  64  94 129 169 212 257 313 382
#     4  10  20  37  61  87 121 168 214 261 311 375
#
# _framework density 21.012001999999999
#
# number of rings (size 3 to 8) (size 9 to 14) (size 15 to 20)
#    0.000    1.500    2.500    2.250    3.500    1.500 
#    4.500    0.000    0.000    0.000    0.000    0.000 
#    0.000    0.000    0.000    0.000    0.000    0.000 
#
# Total GULP energy -178468.485344 kJ/mol
# GULP energy per Si atom -5577.140167 kJ/mol
# Density = 2.096418 g / cm^3
# Si number density = 21.012002 Si / 1000 Ang^3
#
#
#
# Elastic Constant Matrix: (Units=GPa)
#
#
# Indices 1 2 3 4 5 6 
#
# 1 43.6942 9.1137 38.0713 0.0000 -21.3613 0.0000
# 2 9.1137 33.5491 3.8329 0.0000 -11.7203 0.0000
# 3 38.0713 3.8329 142.2010 0.0000 -17.4338 0.0000
# 4 0.0000 0.0000 0.0000 20.0913 0.0000 1.2724
# 5 -21.3613 -11.7203 -17.4338 0.0000 31.5201 0.0000
# 6 0.0000 0.0000 0.0000 1.2724 0.0000 4.6209
#
#
#
# Elastic Compliance Matrix: (Units=1/GPa)
#
#
# Indices 1 2 3 4 5 6 
#
# 1 0.041809 -0.002433 -0.008330 0.000000 0.022822 0.000000
# 2 -0.002433 0.034461 0.001171 0.000000 0.011813 0.000000
# 3 -0.008330 0.001171 0.009217 0.000000 -0.000112 0.000000
# 4 0.000000 0.000000 0.000000 0.050656 0.000000 -0.013948
# 5 0.022822 0.011813 -0.000112 0.000000 0.051523 0.000000
# 6 0.000000 0.000000 0.000000 -0.013948 0.000000 0.220251
#
#
# Mechanical properties :
#
#
# Convention : Reuss Voigt Hill
#
# Bulk Modulus (GPa) = 15.08227 35.71999 25.40113
# Shear Modulus (GPa) = 11.13084 22.47487 16.80285
#
# Velocity S-wave (km/s) = 2.30410 3.27405 2.83093
# Velocity P-wave (km/s) = 3.77783 5.59726 4.77500
#
# Compressibility (1/GPa) = 0.06630303
#
# Stress axis : x y z
#
# Youngs Moduli (GPa) = 23.91817 29.01839 108.49296
#
# Poissons Ratio (x) = 0.07060 0.90374
# Poissons Ratio (y) = 0.05819 -0.12701
# Poissons Ratio (z) = 0.19924 -0.03397
#
# Static dielectric constant tensor:
#      x y z
#    x 1.762630 0.000000 -0.029620 
#    y 0.000000 2.217900 0.000000 
#    z -0.029620 0.000000 1.831340 
# 
# From -- ./inp_files/111971.got.cif
#   From: 2010.05.17/outbox.cif.g08.bks.cpg/sg12_56_cif.got.tgz:111971.got - 2010.06.03 13:09:07.
