data_PCOD9199092
_publ_section_title
;
Structure prediction by ZEFSAII (Michael W. Deem and Ramdas Pophale) SiO2 
 PCOD9199092
Probable space group: C 2/M
;
_chemical_formula_sum "Si O2"
_cell_formula_units_Z 48
_cell_length_a 31.148422
_cell_length_b 18.858354
_cell_length_c 13.648213
_cell_angle_alpha 90.000000
_cell_angle_beta 162.689930
_cell_angle_gamma 90.000000
_cell_volume 2385.420163
_symmetry_space_group_name_H-M "C 2/M"
_symmetry_group_IT_number 12
_symmetry_cell_setting 'monoclinic'
loop_
_space_group_symop_operation_xyz
x,y,z
-x,y,-z
-x,-y,-z
x,-y,z
1/2+x,1/2+y,z
1/2-x,1/2+y,-z
1/2-x,1/2-y,-z
1/2+x,1/2-y,z
loop_
_atom_site_type_symbol
_atom_site_label
_atom_site_fract_x
_atom_site_fract_y
_atom_site_fract_z
Si Si1 0.905845 0.804911 0.195864
Si Si2 0.929493 0.584502 0.246403
Si Si3 0.819770 0.177356 0.337156
Si Si4 0.836233 0.346750 0.606796
Si Si5 0.342214 0.316900 0.611150
Si Si6 0.822998 0.414863 0.363517
O O1 0.000000 0.797850 0.500000
O O2 0.026364 0.806480 0.374052
O O3 0.791093 0.741930 0.926954
O O4 0.808816 0.875884 0.978700
O O5 0.934337 0.500000 0.257728
O O6 0.000000 0.612211 0.500000
O O7 0.028465 0.607202 0.369193
O O8 0.766357 0.610545 0.891882
O O9 0.840174 0.160273 0.495351
O O10 0.745917 0.366364 0.506579
O O11 0.787753 0.264920 0.484765
O O12 0.821270 0.388289 0.472556
O O13 0.000000 0.348357 0.000000
O O14 0.500000 0.312772 0.000000
O O15 0.811265 0.500000 0.334386
#
# Coordination Sequence:
#
# PCOD9199092 Si02
#       6
#     8   8   8   8   8   8
#     4  12  25  40  62  94 126 163 210 260 314 369
#     4  10  22  41  64  91 126 170 212 253 311 374
#     4  12  23  39  65  90 126 161 207 263 312 370
#     4  10  20  36  59  85 118 156 204 249 303 368
#     4  10  21  35  59  86 117 157 198 252 310 367
#     4  11  23  41  64  91 128 167 209 259 308 370
#
# _framework density 20.122240999999999
#
# number of rings (size 3 to 8) (size 9 to 14) (size 15 to 20)
#    0.000    1.167    1.667    5.000    4.667    1.333 
#    0.000    0.833    0.000    2.000    0.000    0.000 
#    0.000    0.000    0.000    0.000    0.000    0.000 
#
# Total GULP energy -133966.337201 kJ/mol
# GULP energy per Si atom -5581.930717 kJ/mol
# Density = 2.007644 g / cm^3
# Si number density = 20.122241 Si / 1000 Ang^3
#
#
#
# Elastic Constant Matrix: (Units=GPa)
#
#
# Indices 1 2 3 4 5 6 
#
# 1 76.0672 15.8797 -3.6932 0.0001 4.7898 0.0000
# 2 15.8797 43.6979 14.6944 0.0001 4.5168 0.0000
# 3 -3.6932 14.6944 55.8053 0.0003 6.0664 0.0000
# 4 0.0001 0.0001 0.0003 -64.9546 0.0000 -3.0573
# 5 4.7898 4.5168 6.0664 0.0000 50.1049 0.0000
# 6 0.0000 0.0000 0.0000 -3.0573 0.0000 23.7658
#
#
#
# Elastic Compliance Matrix: (Units=1/GPa)
#
#
# Indices 1 2 3 4 5 6 
#
# 1 0.014625 -0.006102 0.002702 0.000000 -0.001175 0.000000
# 2 -0.006102 0.027763 -0.007606 0.000000 -0.000999 0.000000
# 3 0.002702 -0.007606 0.020322 0.000000 -0.002033 0.000000
# 4 0.000000 0.000000 0.000000 -0.015303 0.000000 -0.001969
# 5 -0.001175 -0.000999 -0.002033 0.000000 0.020407 0.000000
# 6 0.000000 0.000000 0.000000 -0.001969 0.000000 0.041824
#
#
# Mechanical properties :
#
#
# Convention : Reuss Voigt Hill
#
# Bulk Modulus (GPa) = 24.57039 25.48137 25.02588
# Shear Modulus (GPa) = 34.43172 11.69587 23.06380
#
# Velocity S-wave (km/s) = 4.14107 2.41351 3.38921
# Velocity P-wave (km/s) = 5.92466 4.52299 5.27063
#
# Compressibility (1/GPa) = 0.04069939
#
# Stress axis : x y z
#
# Youngs Moduli (GPa) = 68.37455 36.01960 49.20781
#
# Poissons Ratio (x) = 0.21979 -0.13298
# Poissons Ratio (y) = 0.41723 0.37426
# Poissons Ratio (z) = -0.18478 0.27395
#
# Static dielectric constant tensor:
#      x y z
#    x 1.782980 0.000000 0.007080 
#    y 0.000000 1.730050 0.000000 
#    z 0.007080 0.000000 1.671550 
# 
# From -- ./inp_files/184791.got.cif
#   From: 2010.05.17/outbox.cif.g08.bks.cpg/sg12_93_cif.got.tgz:184791.got - 2010.06.03 13:09:07.
