data_PCOD9199081
_publ_section_title
;
Structure prediction by ZEFSAII (Michael W. Deem and Ramdas Pophale) SiO2 
 PCOD9199081
Probable space group: C 2/M
;
_chemical_formula_sum "Si O2"
_cell_formula_units_Z 48
_cell_length_a 31.688200
_cell_length_b 8.861780
_cell_length_c 16.740616
_cell_angle_alpha 90.000000
_cell_angle_beta 145.057040
_cell_angle_gamma 90.000000
_cell_volume 2692.546100
_symmetry_space_group_name_H-M "C 2/M"
_symmetry_group_IT_number 12
_symmetry_cell_setting 'monoclinic'
loop_
_space_group_symop_operation_xyz
x,y,z
-x,y,-z
-x,-y,-z
x,-y,z
1/2+x,1/2+y,z
1/2-x,1/2+y,-z
1/2-x,1/2-y,-z
1/2+x,1/2-y,z
loop_
_atom_site_type_symbol
_atom_site_label
_atom_site_fract_x
_atom_site_fract_y
_atom_site_fract_z
Si Si1 0.583929 0.180408 0.886155
Si Si2 0.729450 0.320212 0.553013
Si Si3 0.585351 0.819625 0.404000
Si Si4 0.851667 0.322073 0.329088
Si Si5 0.697128 0.679058 0.180185
Si Si6 0.831606 0.179313 0.132420
O O1 0.496975 0.212680 0.751823
O O2 0.619537 0.251657 0.862212
O O3 0.593879 0.000000 0.899536
O O4 0.627471 0.248931 0.028503
O O5 0.734046 0.500000 0.557497
O O6 0.750000 0.250000 0.500000
O O7 0.647745 0.267872 0.452360
O O8 0.782653 0.255708 0.704779
O O9 0.596151 0.784810 0.514926
O O10 0.599795 0.000000 0.418714
O O11 0.859805 0.500000 0.322609
O O12 0.768607 0.298807 0.233709
O O13 0.862764 0.225612 0.267277
O O14 0.688158 0.500000 0.176750
O O15 0.826766 0.000000 0.116152
O O16 0.750000 0.250000 0.000000
#
# Coordination Sequence:
#
# PCOD9199081 Si02
#       6
#     8   8   8   8   8   8
#     4  11  22  37  58  84 116 154 192 236 289 340
#     4  11  22  39  65  91 116 147 187 232 279 341
#     4   9  21  40  60  84 117 151 187 234 291 345
#     4   9  18  35  56  78 109 151 194 237 283 336
#     4  10  20  36  59  85 116 151 189 234 284 340
#     4  12  23  34  52  79 113 152 199 247 283 332
#
# _framework density 17.826993000000002
#
# number of rings (size 3 to 8) (size 9 to 14) (size 15 to 20)
#    0.000    1.667    1.667    5.000    0.000    4.667 
#    0.000    4.167    0.000    5.000    0.000    0.000 
#    0.000    0.000    0.000    0.000    0.000    0.000 
#
# Total GULP energy -134112.838357 kJ/mol
# GULP energy per Si atom -5588.034932 kJ/mol
# Density = 1.778642 g / cm^3
# Si number density = 17.826993 Si / 1000 Ang^3
#
#
#
# Elastic Constant Matrix: (Units=GPa)
#
#
# Indices 1 2 3 4 5 6 
#
# 1 107.2471 77.0111 75.6813 0.0000 -23.7537 0.0000
# 2 77.0111 124.6409 93.4210 0.0000 -8.4293 0.0000
# 3 75.6813 93.4210 161.0305 0.0000 -7.8252 0.0000
# 4 0.0000 0.0000 0.0000 30.7102 0.0000 -3.8626
# 5 -23.7537 -8.4293 -7.8252 0.0000 22.1235 0.0000
# 6 0.0000 0.0000 0.0000 -3.8626 0.0000 30.6506
#
#
#
# Elastic Compliance Matrix: (Units=1/GPa)
#
#
# Indices 1 2 3 4 5 6 
#
# 1 0.024599 -0.010409 -0.004509 0.000000 0.020850 0.000000
# 2 -0.010409 0.018742 -0.006285 0.000000 -0.006258 0.000000
# 3 -0.004509 -0.006285 0.011827 0.000000 -0.003053 0.000000
# 4 0.000000 0.000000 0.000000 0.033087 0.000000 0.004170
# 5 0.020850 -0.006258 -0.003053 0.000000 0.064124 0.000000
# 6 0.000000 0.000000 0.000000 0.004170 0.000000 0.033151
#
#
# Mechanical properties :
#
#
# Convention : Reuss Voigt Hill
#
# Bulk Modulus (GPa) = 78.36049 98.34948 88.35499
# Shear Modulus (GPa) = 21.53414 26.48383 24.00899
#
# Velocity S-wave (km/s) = 3.47933 3.85853 3.67383
# Velocity P-wave (km/s) = 7.75838 8.66831 8.22594
#
# Compressibility (1/GPa) = 0.01276153
#
# Stress axis : x y z
#
# Youngs Moduli (GPa) = 40.65282 53.35615 84.55148
#
# Poissons Ratio (x) = 0.55538 0.38124
# Poissons Ratio (y) = 0.42315 0.53142
# Poissons Ratio (z) = 0.18330 0.33535
#
# Static dielectric constant tensor:
#      x y z
#    x 1.576170 0.000000 -0.005140 
#    y 0.000000 1.594590 0.000000 
#    z -0.005140 0.000000 1.612920 
# 
# From -- ./inp_files/244912.got.cif
#   From: 2010.05.17/outbox.cif.g08.bks.cpg/sg12_123_cif.got.tgz:244912.got - 2010.06.03 13:09:07.
