data_PCOD9199073
_publ_section_title
;
Structure prediction by ZEFSAII (Michael W. Deem and Ramdas Pophale) SiO2 
 PCOD9199073
Probable space group: C 2/M
;
_chemical_formula_sum "Si O2"
_cell_formula_units_Z 58
_cell_length_a 15.147087
_cell_length_b 10.611596
_cell_length_c 19.437379
_cell_angle_alpha 90.000000
_cell_angle_beta 90.566103
_cell_angle_gamma 90.000000
_cell_volume 3124.110104
_symmetry_space_group_name_H-M "C 2/M"
_symmetry_group_IT_number 12
_symmetry_cell_setting 'monoclinic'
loop_
_space_group_symop_operation_xyz
x,y,z
-x,y,-z
-x,-y,-z
x,-y,z
1/2+x,1/2+y,z
1/2-x,1/2+y,-z
1/2-x,1/2-y,-z
1/2+x,1/2-y,z
loop_
_atom_site_type_symbol
_atom_site_label
_atom_site_fract_x
_atom_site_fract_y
_atom_site_fract_z
Si Si1 0.830055 0.359805 0.432177
Si Si2 0.022910 0.144476 0.080336
Si Si3 0.094444 0.356632 0.298682
Si Si4 0.873038 0.201402 0.564162
Si Si5 0.883801 0.352141 0.283670
Si Si6 0.500000 0.500000 0.500000
Si Si7 0.153544 0.144672 0.829994
Si Si8 0.849583 0.352872 0.855185
O O1 0.866641 0.500000 0.429165
O O2 0.868745 0.295622 0.499550
O O3 0.724234 0.360460 0.437560
O O4 0.853999 0.302726 0.358466
O O5 0.090844 0.251522 0.105247
O O6 0.932492 0.156842 0.123039
O O7 0.055952 0.000000 0.091501
O O8 0.000000 0.158519 0.000000
O O9 0.118531 0.500000 0.318044
O O10 0.115884 0.267633 0.362497
O O11 0.140980 0.326928 0.226721
O O12 0.989898 0.352021 0.283474
O O13 0.951208 0.107665 0.547118
O O14 0.855041 0.500000 0.274215
O O15 0.850729 0.254570 0.226517
O O16 0.245899 0.157305 0.871109
O O17 0.153449 0.000000 0.801318
O O18 0.877240 0.500000 0.866027
#
# Coordination Sequence:
#
# PCOD9199073 Si02
#       8
#     8   8   8   8   8   2   8   8
#     4  10  21  39  57  79 108 154 195 239 291 357
#     4  10  22  41  62  90 127 162 197 237 290 355
#     4  10  20  37  60  86 113 152 195 245 295 356
#     4  11  22  38  56  79 116 149 193 243 300 346
#     4  10  20  36  59  85 115 150 199 248 293 350
#     4  12  24  40  50  84 116 146 186 258 290 344
#     4  10  21  39  60  90 122 159 198 244 298 349
#     4  10  21  39  63  91 123 155 202 249 292 352
#
# _framework density 18.565287000000001
#
# number of rings (size 3 to 8) (size 9 to 14) (size 15 to 20)
#    0.000    1.793    2.069    2.069    0.000    1.379 
#    6.207    2.759    0.000    0.000    0.000    0.000 
#    0.000    0.000    0.000    0.000    0.000    0.000 
#
# Total GULP energy -161484.201561 kJ/mol
# GULP energy per Si atom -5568.420743 kJ/mol
# Density = 1.852303 g / cm^3
# Si number density = 18.565287 Si / 1000 Ang^3
#
#
#
# Elastic Constant Matrix: (Units=GPa)
#
#
# Indices 1 2 3 4 5 6 
#
# 1 41.7339 31.4262 7.2034 0.0000 16.4026 0.0000
# 2 31.4262 118.8610 63.8198 0.0000 27.2818 0.0000
# 3 7.2034 63.8198 69.6754 0.0000 15.5290 0.0000
# 4 0.0000 0.0000 0.0000 27.4019 0.0000 -8.1196
# 5 16.4026 27.2818 15.5290 0.0000 14.6689 0.0000
# 6 0.0000 0.0000 0.0000 -8.1196 0.0000 11.5416
#
#
#
# Elastic Compliance Matrix: (Units=1/GPa)
#
#
# Indices 1 2 3 4 5 6 
#
# 1 0.049557 -0.008321 0.014920 0.000000 -0.055732 0.000000
# 2 -0.008321 0.023525 -0.017028 0.000000 -0.016422 0.000000
# 3 0.014920 -0.017028 0.032807 0.000000 -0.019745 0.000000
# 4 0.000000 0.000000 0.000000 0.046105 0.000000 0.032435
# 5 -0.055732 -0.016422 -0.019745 0.000000 0.181937 0.000000
# 6 0.000000 0.000000 0.000000 0.032435 0.000000 0.109461
#
#
# Mechanical properties :
#
#
# Convention : Reuss Voigt Hill
#
# Bulk Modulus (GPa) = 11.76044 48.35214 30.05629
# Shear Modulus (GPa) = 10.15033 19.24387 14.69710
#
# Velocity S-wave (km/s) = 2.34078 3.22304 2.81667
# Velocity P-wave (km/s) = 3.69514 6.32073 5.17714
#
# Compressibility (1/GPa) = 0.08503083
#
# Stress axis : x y z
#
# Youngs Moduli (GPa) = 20.17895 42.50712 30.48097
#
# Poissons Ratio (x) = 0.35372 -0.45478
# Poissons Ratio (y) = 0.16792 0.51903
# Poissons Ratio (z) = -0.30107 0.72381
#
# Static dielectric constant tensor:
#      x y z
#    x 1.657800 0.000000 -0.015860 
#    y 0.000000 1.640990 0.000000 
#    z -0.015860 0.000000 1.611010 
# 
# From -- ./inp_files/268810.got.cif
#   From: 2010.05.17/outbox.cif.g08.bks.cpg/sg12_135_cif.got.tgz:268810.got - 2010.06.03 13:09:07.
