data_PCOD9199848
_publ_section_title
;
Structure prediction by ZEFSAII (Michael W. Deem and Ramdas Pophale) SiO2 
 PCOD9199848
Probable space group: C 2/M
;
_chemical_formula_sum "Si O2"
_cell_formula_units_Z 40
_cell_length_a 7.745169
_cell_length_b 21.892407
_cell_length_c 12.659684
_cell_angle_alpha 90.000000
_cell_angle_beta 116.422141
_cell_angle_gamma 90.000000
_cell_volume 1922.348857
_symmetry_space_group_name_H-M "C 2/M"
_symmetry_group_IT_number 12
_symmetry_cell_setting 'monoclinic'
loop_
_space_group_symop_operation_xyz
x,y,z
-x,y,-z
-x,-y,-z
x,-y,z
1/2+x,1/2+y,z
1/2-x,1/2+y,-z
1/2-x,1/2-y,-z
1/2+x,1/2-y,z
loop_
_atom_site_type_symbol
_atom_site_label
_atom_site_fract_x
_atom_site_fract_y
_atom_site_fract_z
Si Si1 0.500000 0.650469 0.000000
Si Si2 0.152166 0.720557 0.814509
Si Si3 0.500000 0.325043 0.500000
Si Si4 0.744157 0.844741 0.239155
Si Si5 0.282842 0.164773 0.397698
Si Si6 0.497108 0.571875 0.788206
O O1 0.320331 0.695833 0.934986
O O2 0.484151 0.605000 0.896785
O O3 0.146402 0.793855 0.804044
O O4 0.193201 0.702703 0.703411
O O5 0.963448 0.684666 0.801124
O O6 0.337968 0.353518 0.380237
O O7 0.356894 0.301827 0.554950
O O8 0.790946 0.908428 0.196511
O O9 0.500000 0.155023 0.500000
O O10 0.164737 0.103825 0.331518
O O11 0.471170 0.500000 0.785676
#
# Coordination Sequence:
#
# PCOD9199848 Si02
#       6
#     4   8   4   8   8   8
#     4  10  23  44  66  88 123 164 208 268 322 366
#     4  11  23  39  64  96 127 163 209 262 319 378
#     4  10  20  36  61  94 136 168 197 254 314 382
#     4  11  23  38  62  96 128 167 207 257 318 378
#     4  10  20  38  64  96 128 166 211 256 319 377
#     4  10  23  43  64  90 124 167 215 259 309 375
#
# _framework density 20.807879
#
# number of rings (size 3 to 8) (size 9 to 14) (size 15 to 20)
#    0.000    1.600    2.000    3.900    1.400    6.000 
#    0.000   14.000    0.000    0.000    0.000    0.000 
#    0.000    0.000    0.000    0.000    0.000    0.000 
#
# Total GULP energy -111392.884541 kJ/mol
# GULP energy per Si atom -5569.644227 kJ/mol
# Density = 2.076052 g / cm^3
# Si number density = 20.807879 Si / 1000 Ang^3
#
#
#
# Elastic Constant Matrix: (Units=GPa)
#
#
# Indices 1 2 3 4 5 6 
#
# 1 128.1259 17.9539 39.3478 0.0000 10.8350 0.0000
# 2 17.9539 123.5791 36.8526 0.0000 -1.8540 0.0000
# 3 39.3478 36.8526 110.3619 0.0000 19.0123 0.0000
# 4 0.0000 0.0000 0.0000 16.1706 0.0000 4.7396
# 5 10.8350 -1.8540 19.0123 0.0000 32.0375 0.0000
# 6 0.0000 0.0000 0.0000 4.7396 0.0000 15.4626
#
#
#
# Elastic Compliance Matrix: (Units=1/GPa)
#
#
# Indices 1 2 3 4 5 6 
#
# 1 0.008834 -0.000484 -0.002750 0.000000 -0.001384 0.000000
# 2 -0.000484 0.009206 -0.003366 0.000000 0.002694 0.000000
# 3 -0.002750 -0.003366 0.012296 0.000000 -0.006562 0.000000
# 4 0.000000 0.000000 0.000000 0.067945 0.000000 -0.020827
# 5 -0.001384 0.002694 -0.006562 0.000000 0.035731 0.000000
# 6 0.000000 0.000000 0.000000 -0.020827 0.000000 0.071056
#
#
# Mechanical properties :
#
#
# Convention : Reuss Voigt Hill
#
# Bulk Modulus (GPa) = 58.35240 61.15285 59.75263
# Shear Modulus (GPa) = 22.32341 30.59498 26.45919
#
# Velocity S-wave (km/s) = 3.27897 3.83868 3.56981
# Velocity P-wave (km/s) = 6.51458 7.00717 6.76536
#
# Compressibility (1/GPa) = 0.01713726
#
# Stress axis : x y z
#
# Youngs Moduli (GPa) = 113.19762 108.61966 81.32946
#
# Poissons Ratio (x) = 0.05260 0.22362
# Poissons Ratio (y) = 0.05482 0.27373
# Poissons Ratio (z) = 0.31124 0.36558
#
# Static dielectric constant tensor:
#      x y z
#    x 1.836160 0.000000 -0.013780 
#    y 0.000000 1.720440 0.000000 
#    z -0.013780 0.000000 1.780460 
# 
# From -- ./inp_files/122210.got.cif
#   From: 2010.05.17/outbox.cif.g08.bks.cpg/sg12_62_cif.got.tgz:122210.got - 2010.06.03 13:09:07.
