data_PCOD9199749
_publ_section_title
;
Structure prediction by ZEFSAII (Michael W. Deem and Ramdas Pophale) SiO2 
 PCOD9199749
Probable space group: C 2/M
;
_chemical_formula_sum "Si O2"
_cell_formula_units_Z 64
_cell_length_a 30.529691
_cell_length_b 16.887674
_cell_length_c 9.427523
_cell_angle_alpha 90.000000
_cell_angle_beta 36.525308
_cell_angle_gamma 90.000000
_cell_volume 2892.920965
_symmetry_space_group_name_H-M "C 2/M"
_symmetry_group_IT_number 12
_symmetry_cell_setting 'monoclinic'
loop_
_space_group_symop_operation_xyz
x,y,z
-x,y,-z
-x,-y,-z
x,-y,z
1/2+x,1/2+y,z
1/2-x,1/2+y,-z
1/2-x,1/2-y,-z
1/2+x,1/2-y,z
loop_
_atom_site_type_symbol
_atom_site_label
_atom_site_fract_x
_atom_site_fract_y
_atom_site_fract_z
Si Si1 0.035111 0.769525 0.056595
Si Si2 0.162159 0.233159 0.538025
Si Si3 0.161929 0.236317 0.226976
Si Si4 0.021831 0.908914 0.278256
Si Si5 0.664713 0.413810 0.051661
Si Si6 0.772051 0.412755 0.254842
Si Si7 0.801545 0.586271 0.500428
Si Si8 0.425450 0.159481 0.776308
O O1 0.996156 0.844470 0.232832
O O2 0.050641 0.707206 0.143056
O O3 0.110196 0.803479 0.791909
O O4 0.000000 0.737316 0.000000
O O5 0.131924 0.252000 0.460335
O O6 0.227448 0.168980 0.338650
O O7 0.171680 0.322884 0.570925
O O8 0.116667 0.283604 0.226196
O O9 0.250000 0.250000 0.000000
O O10 0.154210 0.146132 0.203817
O O11 0.000000 0.893842 0.500000
O O12 0.005502 0.000000 0.285145
O O13 0.109813 0.897913 0.065047
O O14 0.646029 0.500000 0.153804
O O15 0.745590 0.412139 0.777480
O O16 0.749256 0.500000 0.253655
O O17 0.764892 0.419339 0.442394
O O18 0.859023 0.399847 0.991873
O O19 0.843240 0.500000 0.405919
O O20 0.500000 0.131356 0.500000
#
# Coordination Sequence:
#
# PCOD9199749 Si02
#       8
#     8   8   8   8   8   8   8   8
#     4  12  26  42  69  99 137 182 240 288 353 427
#     4  12  24  41  67 103 141 174 233 295 353 413
#     4  12  23  40  66 102 138 174 230 291 356 417
#     4  10  22  41  63  89 131 180 225 276 345 421
#     4  10  20  36  61  89 128 179 220 270 348 424
#     4  11  24  42  70 105 139 183 235 295 359 414
#     4  10  20  38  65  95 131 174 222 281 350 417
#     4  12  25  46  70  95 141 189 233 290 354 424
#
# _framework density 22.122969000000001
#
# number of rings (size 3 to 8) (size 9 to 14) (size 15 to 20)
#    0.000    0.875    5.000    2.250    1.750    2.500 
#    0.000    0.625    0.000    3.000    0.000    0.000 
#    0.000    0.000    0.000    0.000    0.000    0.000 
#
# Total GULP energy -178155.284192 kJ/mol
# GULP energy per Si atom -5567.352631 kJ/mol
# Density = 2.207262 g / cm^3
# Si number density = 22.122969 Si / 1000 Ang^3
#
#
#
# Elastic Constant Matrix: (Units=GPa)
#
#
# Indices 1 2 3 4 5 6 
#
# 1 79.8742 46.8284 7.7634 0.0000 14.1861 0.0000
# 2 46.8284 100.1378 14.0772 0.0000 7.7538 0.0000
# 3 7.7634 14.0772 98.7518 0.0000 4.4679 0.0000
# 4 0.0000 0.0000 0.0000 5.0838 0.0000 22.5506
# 5 14.1861 7.7538 4.4679 0.0000 40.7490 0.0000
# 6 0.0000 0.0000 0.0000 22.5506 0.0000 1.4366
#
#
#
# Elastic Compliance Matrix: (Units=1/GPa)
#
#
# Indices 1 2 3 4 5 6 
#
# 1 0.018117 -0.008096 -0.000055 0.000000 -0.004761 0.000000
# 2 -0.008096 0.013940 -0.001365 0.000000 0.000316 0.000000
# 3 -0.000055 -0.001365 0.010364 0.000000 -0.000858 0.000000
# 4 0.000000 0.000000 0.000000 -0.002866 0.000000 0.044991
# 5 -0.004761 0.000316 -0.000858 0.000000 0.026232 0.000000
# 6 0.000000 0.000000 0.000000 0.044991 0.000000 -0.010143
#
#
# Mechanical properties :
#
#
# Convention : Reuss Voigt Hill
#
# Bulk Modulus (GPa) = 42.75435 46.23353 44.49394
# Shear Modulus (GPa) = 60.62714 23.46018 42.04366
#
# Velocity S-wave (km/s) = 5.24062 3.25998 4.36415
# Velocity P-wave (km/s) = 7.48242 5.92569 6.74908
#
# Compressibility (1/GPa) = 0.02338943
#
# Stress axis : x y z
#
# Youngs Moduli (GPa) = 55.19689 71.73789 96.48711
#
# Poissons Ratio (x) = 0.58078 0.00529
# Poissons Ratio (y) = 0.44687 0.13170
# Poissons Ratio (z) = 0.00303 0.09792
#
# Static dielectric constant tensor:
#      x y z
#    x 1.919070 0.000000 -0.121170 
#    y 0.000000 2.042900 0.000000 
#    z -0.121170 0.000000 1.884290 
# 
# From -- ./inp_files/112823.got.cif
#   From: 2010.05.17/outbox.cif.g08.bks.cpg/sg12_57_cif.got.tgz:112823.got - 2010.06.03 13:09:07.
