data_PCOD9199043
_publ_section_title
;
Structure prediction by ZEFSAII (Michael W. Deem and Ramdas Pophale) SiO2 
 PCOD9199043
Probable space group: C 2/M
;
_chemical_formula_sum "Si O2"
_cell_formula_units_Z 56
_cell_length_a 19.126761
_cell_length_b 15.018091
_cell_length_c 19.314547
_cell_angle_alpha 90.000000
_cell_angle_beta 157.157275
_cell_angle_gamma 90.000000
_cell_volume 2153.770727
_symmetry_space_group_name_H-M "C 2/M"
_symmetry_group_IT_number 12
_symmetry_cell_setting 'monoclinic'
loop_
_space_group_symop_operation_xyz
x,y,z
-x,y,-z
-x,-y,-z
x,-y,z
1/2+x,1/2+y,z
1/2-x,1/2+y,-z
1/2-x,1/2-y,-z
1/2+x,1/2-y,z
loop_
_atom_site_type_symbol
_atom_site_label
_atom_site_fract_x
_atom_site_fract_y
_atom_site_fract_z
Si Si1 0.942218 0.601697 0.334868
Si Si2 0.603553 0.390922 0.375658
Si Si3 0.400591 0.391958 0.049878
Si Si4 0.930760 0.398286 0.751852
Si Si5 0.759874 0.104240 0.131062
Si Si6 0.745636 0.661726 0.290650
Si Si7 0.790907 0.869375 0.312440
O O1 0.982881 0.500000 0.354329
O O2 0.825197 0.605916 0.299329
O O3 0.131156 0.643651 0.529199
O O4 0.803023 0.639440 0.151095
O O5 0.620980 0.500000 0.391823
O O6 0.497908 0.366571 0.209877
O O7 0.802118 0.356951 0.576210
O O8 0.461882 0.361369 0.305570
O O9 0.394119 0.500000 0.041788
O O10 0.539901 0.359163 0.119051
O O11 0.972504 0.500000 0.768695
O O12 0.809225 0.402910 0.710738
O O13 0.113516 0.353772 0.945919
O O14 0.704637 0.106398 0.160165
O O15 0.769190 0.000000 0.120532
O O16 0.777731 0.763351 0.302038
O O17 0.000000 0.897548 0.500000
#
# Coordination Sequence:
#
# PCOD9199043 Si02
#       7
#     8   8   8   8   8   8   8
#     4  10  20  36  59  85 112 147 192 244 294 340
#     4   9  19  36  58  86 118 149 188 239 285 338
#     4  10  21  37  61  89 115 151 195 235 287 344
#     4  10  21  37  60  88 116 151 192 236 289 341
#     4  10  21  37  60  89 118 150 192 238 286 341
#     4  11  22  38  56  84 119 151 190 241 290 342
#     4  12  22  37  59  84 119 153 193 238 291 339
#
# _framework density 26.000912
#
# number of rings (size 3 to 8) (size 9 to 14) (size 15 to 20)
#    0.000    1.714    2.857    3.000    0.000    6.286 
#    0.000    5.000    0.000    4.286    0.000    0.000 
#    0.000    0.000    0.000    0.000    0.000    0.000 
#
# Total GULP energy -156691.374204 kJ/mol
# GULP energy per Si atom -5596.120507 kJ/mol
# Density = 2.594173 g / cm^3
# Si number density = 26.000912 Si / 1000 Ang^3
#
#
#
# Elastic Constant Matrix: (Units=GPa)
#
#
# Indices 1 2 3 4 5 6 
#
# 1 71.0948 -4.3177 12.1402 0.0028 -15.3602 -0.0010
# 2 -4.3177 55.3330 12.7195 0.0077 0.1406 0.0052
# 3 12.1402 12.7195 211.4281 0.0166 -27.0745 0.0035
# 4 0.0028 0.0077 0.0166 20.4643 0.0025 3.0216
# 5 -15.3602 0.1406 -27.0745 0.0025 48.4689 0.0004
# 6 -0.0010 0.0052 0.0035 3.0216 0.0004 -7.6939
#
#
#
# Elastic Compliance Matrix: (Units=1/GPa)
#
#
# Indices 1 2 3 4 5 6 
#
# 1 0.015200 0.001257 -0.000358 -0.000003 0.004614 -0.000002
# 2 0.001257 0.018453 -0.001226 -0.000007 -0.000340 0.000009
# 3 -0.000358 -0.001226 0.005181 -0.000004 0.002784 0.000000
# 4 -0.000003 -0.000007 -0.000004 0.046187 -0.000006 0.018139
# 5 0.004614 -0.000340 0.002784 -0.000006 0.023650 0.000000
# 6 -0.000002 0.000009 0.000000 0.018139 0.000000 -0.122850
#
#
# Mechanical properties :
#
#
# Convention : Reuss Voigt Hill
#
# Bulk Modulus (GPa) = 26.19187 42.10442 34.14815
# Shear Modulus (GPa) = -6262.50619 33.40213 -3114.55203
#
# Velocity S-wave (km/s) = -49.13044 3.58809 -34.64770
# Velocity P-wave (km/s) = 56.64191 5.77880 39.84289
#
# Compressibility (1/GPa) = 0.03817978
#
# Stress axis : x y z
#
# Youngs Moduli (GPa) = 65.79005 54.19141 193.03036
#
# Poissons Ratio (x) = -0.06809 0.06902
# Poissons Ratio (y) = -0.08267 0.23662
# Poissons Ratio (z) = 0.02352 0.06643
#
# Static dielectric constant tensor:
#      x y z
#    x 2.083180 0.000000 -0.016720 
#    y 0.000000 1.975270 -0.000010 
#    z -0.016720 -0.000010 2.049960 
# 
# From -- ./inp_files/322733.got.cif
#   From: 2010.05.17/outbox.cif.g08.bks.cpg/sg12_162_cif.got.tgz:322733.got - 2010.06.03 13:09:07.
