data_PCOD9199664
_publ_section_title
;
Structure prediction by ZEFSAII (Michael W. Deem and Ramdas Pophale) SiO2 
 PCOD9199664
Probable space group: C 2/M
;
_chemical_formula_sum "Si O2"
_cell_formula_units_Z 50
_cell_length_a 29.232401
_cell_length_b 12.045209
_cell_length_c 8.829068
_cell_angle_alpha 90.000000
_cell_angle_beta 125.791398
_cell_angle_gamma 90.000000
_cell_volume 2521.713452
_symmetry_space_group_name_H-M "C 2/M"
_symmetry_group_IT_number 12
_symmetry_cell_setting 'monoclinic'
loop_
_space_group_symop_operation_xyz
x,y,z
-x,y,-z
-x,-y,-z
x,-y,z
1/2+x,1/2+y,z
1/2-x,1/2+y,-z
1/2-x,1/2-y,-z
1/2+x,1/2-y,z
loop_
_atom_site_type_symbol
_atom_site_label
_atom_site_fract_x
_atom_site_fract_y
_atom_site_fract_z
Si Si1 0.610586 0.868989 0.763805
Si Si2 0.701305 0.380163 0.773528
Si Si3 0.968116 0.198022 0.229382
Si Si4 0.100365 0.229778 0.458866
Si Si5 0.875415 0.131769 0.808183
Si Si6 0.000000 0.000000 0.500000
Si Si7 0.793458 0.781837 0.898245
O O1 0.557709 0.806446 0.739487
O O2 0.610857 0.836295 0.586036
O O3 0.609794 0.000000 0.783140
O O4 0.663954 0.811341 0.949862
O O5 0.719360 0.500000 0.753021
O O6 0.634843 0.363875 0.618967
O O7 0.735211 0.281846 0.757388
O O8 0.713939 0.365606 0.975734
O O9 0.033702 0.211968 0.317960
O O10 0.965761 0.096982 0.341168
O O11 0.930341 0.164279 0.013051
O O12 0.124298 0.210939 0.337617
O O13 0.822499 0.159790 0.813238
O O14 0.876873 0.000000 0.771813
#
# Coordination Sequence:
#
# PCOD9199664 Si02
#       7
#     8   8   8   8   8   2   8
#     4  10  21  41  64  84 116 155 203 248 284 342
#     4  10  20  36  61  82 112 149 195 250 288 343
#     4  11  23  36  60  90 118 154 195 242 295 342
#     4  11  23  36  54  89 116 154 195 227 295 355
#     4  11  23  37  58  86 126 157 184 240 297 357
#     4  12  20  36  60  92 120 148 198 258 276 346
#     4   9  21  38  58  89 110 148 203 240 296 341
#
# _framework density 19.827788999999999
#
# number of rings (size 3 to 8) (size 9 to 14) (size 15 to 20)
#    0.000    1.600    2.400    1.920    2.240    2.560 
#    0.000    4.800    0.000    4.800    0.000    0.000 
#    0.000    0.000    0.000    0.000    0.000    0.000 
#
# Total GULP energy -139234.424135 kJ/mol
# GULP energy per Si atom -5569.376965 kJ/mol
# Density = 1.978266 g / cm^3
# Si number density = 19.827789 Si / 1000 Ang^3
#
#
#
# Elastic Constant Matrix: (Units=GPa)
#
#
# Indices 1 2 3 4 5 6 
#
# 1 81.8937 6.6073 19.5058 0.0000 4.0482 0.0000
# 2 6.6073 100.5818 18.1563 0.0000 2.2205 0.0000
# 3 19.5058 18.1563 69.7644 0.0000 -7.7420 0.0000
# 4 0.0000 0.0000 0.0000 -14.3750 0.0000 25.9584
# 5 4.0482 2.2205 -7.7420 0.0000 26.0439 0.0000
# 6 0.0000 0.0000 0.0000 25.9584 0.0000 -15.5844
#
#
#
# Elastic Compliance Matrix: (Units=1/GPa)
#
#
# Indices 1 2 3 4 5 6 
#
# 1 0.013350 -0.000068 -0.004079 0.000000 -0.003282 0.000000
# 2 -0.000068 0.010511 -0.002911 0.000000 -0.001751 0.000000
# 3 -0.004079 -0.002911 0.016887 0.000000 0.005902 0.000000
# 4 0.000000 0.000000 0.000000 0.034646 0.000000 0.057709
# 5 -0.003282 -0.001751 0.005902 0.000000 0.040811 0.000000
# 6 0.000000 0.000000 0.000000 0.057709 0.000000 0.031958
#
#
# Mechanical properties :
#
#
# Convention : Reuss Voigt Hill
#
# Bulk Modulus (GPa) = 37.54890 37.86433 37.70661
# Shear Modulus (GPa) = 29.21311 13.08160 21.14735
#
# Velocity S-wave (km/s) = 3.84258 2.57137 3.26935
# Velocity P-wave (km/s) = 6.21819 5.28715 5.77147
#
# Compressibility (1/GPa) = 0.02663194
#
# Stress axis : x y z
#
# Youngs Moduli (GPa) = 74.90490 95.14113 59.21740
#
# Poissons Ratio (x) = 0.00649 0.24155
# Poissons Ratio (y) = 0.00511 0.17236
# Poissons Ratio (z) = 0.30555 0.27692
#
# Static dielectric constant tensor:
#      x y z
#    x 1.740370 0.000000 0.005060 
#    y 0.000000 1.663700 0.000000 
#    z 0.005060 0.000000 1.739890 
# 
# From -- ./inp_files/103316.got.cif
#   From: 2010.05.17/outbox.cif.g08.bks.cpg/sg12_52_cif.got.tgz:103316.got - 2010.06.03 13:09:07.
