data_PCOD9199067
_publ_section_title
;
Structure prediction by ZEFSAII (Michael W. Deem and Ramdas Pophale) SiO2 
 PCOD9199067
Probable space group: C 2/M
;
_chemical_formula_sum "Si O2"
_cell_formula_units_Z 64
_cell_length_a 31.064650
_cell_length_b 8.881071
_cell_length_c 19.033397
_cell_angle_alpha 90.000000
_cell_angle_beta 140.771555
_cell_angle_gamma 90.000000
_cell_volume 3320.852271
_symmetry_space_group_name_H-M "C 2/M"
_symmetry_group_IT_number 12
_symmetry_cell_setting 'monoclinic'
loop_
_space_group_symop_operation_xyz
x,y,z
-x,y,-z
-x,-y,-z
x,-y,z
1/2+x,1/2+y,z
1/2-x,1/2+y,-z
1/2-x,1/2-y,-z
1/2+x,1/2-y,z
loop_
_atom_site_type_symbol
_atom_site_label
_atom_site_fract_x
_atom_site_fract_y
_atom_site_fract_z
Si Si1 0.253710 0.181014 0.926805
Si Si2 0.788961 0.321701 0.443729
Si Si3 0.984453 0.678889 0.312360
Si Si4 0.352430 0.680444 0.663029
Si Si5 0.097187 0.319813 0.933693
Si Si6 0.612991 0.677497 0.534978
Si Si7 0.119722 0.679406 0.692589
Si Si8 0.995519 0.818413 0.913457
O O1 0.189577 0.241119 0.802907
O O2 0.252316 0.000000 0.930285
O O3 0.250000 0.250000 0.000000
O O4 0.324777 0.225549 0.980274
O O5 0.798753 0.500000 0.447437
O O6 0.709832 0.293001 0.361516
O O7 0.831203 0.264716 0.565027
O O8 0.817682 0.236696 0.412416
O O9 0.000735 0.500000 0.333477
O O10 0.943857 0.713154 0.190011
O O11 0.935785 0.710340 0.317275
O O12 0.052367 0.774583 0.406271
O O13 0.354290 0.500000 0.651434
O O14 0.424622 0.728154 0.786527
O O15 0.095609 0.500000 0.941629
O O16 0.058637 0.241564 0.948547
O O17 0.615070 0.500000 0.547636
O O18 0.598575 0.759475 0.590192
O O19 0.129110 0.500000 0.701703
O O20 0.996290 0.000000 0.913986
O O21 0.000000 0.768238 0.000000
#
# Coordination Sequence:
#
# PCOD9199067 Si02
#       8
#     8   8   8   8   8   8   8   8
#     4  11  22  40  63  90 122 157 201 251 297 353
#     4  10  20  36  59  85 114 153 194 240 298 358
#     4  10  21  40  62  85 117 156 197 245 300 361
#     4   9  19  37  60  85 113 147 194 248 297 352
#     4  10  22  40  62  90 120 155 201 246 296 356
#     4  12  25  38  55  87 124 157 198 246 294 357
#     4  11  23  41  62  86 117 158 199 247 305 358
#     4  10  22  39  58  85 119 153 194 245 298 353
#
# _framework density 19.272162000000002
#
# number of rings (size 3 to 8) (size 9 to 14) (size 15 to 20)
#    0.000    1.625    1.250    3.375    0.000    8.250 
#    0.000    1.250    0.000    0.000    0.000    0.000 
#    0.000    0.000    0.000    0.000    0.000    0.000 
#
# Total GULP energy -178890.668083 kJ/mol
# GULP energy per Si atom -5590.333378 kJ/mol
# Density = 1.922830 g / cm^3
# Si number density = 19.272162 Si / 1000 Ang^3
#
#
#
# Elastic Constant Matrix: (Units=GPa)
#
#
# Indices 1 2 3 4 5 6 
#
# 1 123.6993 40.6105 15.9088 0.0000 7.1105 0.0000
# 2 40.6105 40.9192 11.7864 0.0000 8.5876 0.0000
# 3 15.9088 11.7864 40.2964 0.0000 20.8073 0.0000
# 4 0.0000 0.0000 0.0000 29.1053 0.0000 -2.0357
# 5 7.1105 8.5876 20.8073 0.0000 27.8138 0.0000
# 6 0.0000 0.0000 0.0000 -2.0357 0.0000 31.1149
#
#
#
# Elastic Compliance Matrix: (Units=1/GPa)
#
#
# Indices 1 2 3 4 5 6 
#
# 1 0.012167 -0.011844 -0.002642 0.000000 0.002523 0.000000
# 2 -0.011844 0.038480 -0.003272 0.000000 -0.006405 0.000000
# 3 -0.002642 -0.003272 0.042276 0.000000 -0.029941 0.000000
# 4 0.000000 0.000000 0.000000 0.034516 0.000000 0.002258
# 5 0.002523 -0.006405 -0.029941 0.000000 0.059685 0.000000
# 6 0.000000 0.000000 0.000000 0.002258 0.000000 0.032287
#
#
# Mechanical properties :
#
#
# Convention : Reuss Voigt Hill
#
# Bulk Modulus (GPa) = 17.41918 37.94737 27.68328
# Shear Modulus (GPa) = 18.24410 26.71410 22.47910
#
# Velocity S-wave (km/s) = 3.08011 3.72714 3.41897
# Velocity P-wave (km/s) = 4.65914 6.18507 5.47552
#
# Compressibility (1/GPa) = 0.05740798
#
# Stress axis : x y z
#
# Youngs Moduli (GPa) = 82.18797 25.98783 23.65395
#
# Poissons Ratio (x) = 0.30780 0.06249
# Poissons Ratio (y) = 0.97343 0.07739
# Poissons Ratio (z) = 0.21713 0.08502
#
# Static dielectric constant tensor:
#      x y z
#    x 1.668070 0.000000 0.001460 
#    y 0.000000 1.642410 0.000000 
#    z 0.001460 0.000000 1.669100 
# 
# From -- ./inp_files/295821.got.cif
#   From: 2010.05.17/outbox.cif.g08.bks.cpg/sg12_148_cif.got.tgz:295821.got - 2010.06.03 13:09:07.
