data_PCOD9199880
_publ_section_title
;
Structure prediction by ZEFSAII (Michael W. Deem and Ramdas Pophale) SiO2 
 PCOD9199880
Probable space group: C 2/M
;
_chemical_formula_sum "Si O2"
_cell_formula_units_Z 44
_cell_length_a 18.883452
_cell_length_b 23.052470
_cell_length_c 15.810842
_cell_angle_alpha 90.000000
_cell_angle_beta 160.724771
_cell_angle_gamma 90.000000
_cell_volume 2271.996700
_symmetry_space_group_name_H-M "C 2/M"
_symmetry_group_IT_number 12
_symmetry_cell_setting 'monoclinic'
loop_
_space_group_symop_operation_xyz
x,y,z
-x,y,-z
-x,-y,-z
x,-y,z
1/2+x,1/2+y,z
1/2-x,1/2+y,-z
1/2-x,1/2-y,-z
1/2+x,1/2-y,z
loop_
_atom_site_type_symbol
_atom_site_label
_atom_site_fract_x
_atom_site_fract_y
_atom_site_fract_z
Si Si1 0.582736 0.879082 0.272671
Si Si2 0.500000 0.899618 0.500000
Si Si3 0.354103 0.500000 0.417581
Si Si4 0.901471 0.683135 0.235156
Si Si5 0.068873 0.211066 0.341121
Si Si6 0.691233 0.500000 0.449132
Si Si7 0.852057 0.000000 0.914706
Si Si8 0.500000 0.902650 0.000000
O O1 0.459088 0.848182 0.210541
O O2 0.807920 0.848073 0.505568
O O3 0.650189 0.944343 0.373667
O O4 0.460568 0.872636 0.045637
O O5 0.501806 0.857189 0.583082
O O6 0.701012 0.943060 0.739586
O O7 0.500000 0.500000 0.500000
O O8 0.440141 0.500000 0.610116
O O9 0.202167 0.444206 0.241947
O O10 0.999451 0.747946 0.340314
O O11 0.646501 0.694703 0.952602
O O12 0.250000 0.250000 0.500000
O O13 0.514797 0.500000 0.176974
O O14 0.000000 0.000000 0.000000
#
# Coordination Sequence:
#
# PCOD9199880 Si02
#       8
#     8   4   4   8   8   4   4   4
#     4  10  20  38  59  87 121 160 198 250 305 357
#     4  11  24  38  60  96 122 159 210 248 302 363
#     4   9  19  35  54  80 116 155 193 239 294 350
#     4  10  21  40  61  84 121 158 203 252 302 361
#     4   9  20  41  61  82 115 157 202 250 302 357
#     4  10  20  36  62  86 122 168 204 242 310 362
#     4  11  23  39  58  90 130 163 203 249 296 364
#     4   9  20  34  52  86 114 144 200 243 288 358
#
# _framework density 19.366226000000001
#
# number of rings (size 3 to 8) (size 9 to 14) (size 15 to 20)
#    0.000    2.182    0.000    2.727    0.000    6.545 
#    9.818    2.727    0.000    0.000    0.000    0.000 
#    0.000    0.000    0.000    0.000    0.000    0.000 
#
# Total GULP energy -122503.008350 kJ/mol
# GULP energy per Si atom -5568.318561 kJ/mol
# Density = 1.932215 g / cm^3
# Si number density = 19.366226 Si / 1000 Ang^3
#
#
#
# Elastic Constant Matrix: (Units=GPa)
#
#
# Indices 1 2 3 4 5 6 
#
# 1 120.6012 8.4107 41.2846 -0.0007 -25.6337 -0.0009
# 2 8.4107 93.4399 17.7708 -0.0005 -1.9665 -0.0008
# 3 41.2846 17.7708 81.0940 -0.0027 -10.5450 -0.0040
# 4 -0.0007 -0.0005 -0.0027 -17.8620 -0.0006 -53.9123
# 5 -25.6337 -1.9665 -10.5450 -0.0006 30.6466 -0.0006
# 6 -0.0009 -0.0008 -0.0040 -53.9123 -0.0006 -78.3714
#
#
#
# Elastic Compliance Matrix: (Units=1/GPa)
#
#
# Indices 1 2 3 4 5 6 
#
# 1 0.011689 0.000052 -0.004910 0.000000 0.008091 0.000000
# 2 0.000052 0.011168 -0.002486 0.000000 -0.000095 0.000000
# 3 -0.004910 -0.002486 0.015515 0.000000 0.001072 -0.000001
# 4 0.000000 0.000000 0.000000 0.052017 0.000000 -0.035783
# 5 0.008091 -0.000095 0.001072 0.000000 0.039760 -0.000001
# 6 0.000000 0.000000 -0.000001 -0.035783 -0.000001 0.011855
#
#
# Mechanical properties :
#
#
# Convention : Reuss Voigt Hill
#
# Bulk Modulus (GPa) = 42.22328 47.78525 45.00426
# Shear Modulus (GPa) = 30.37904 2.06058 16.21981
#
# Velocity S-wave (km/s) = 3.96493 1.03263 2.89715
# Velocity P-wave (km/s) = 6.54299 5.11369 5.87199
#
# Compressibility (1/GPa) = 0.02368362
#
# Stress axis : x y z
#
# Youngs Moduli (GPa) = 85.55335 89.53974 64.45276
#
# Poissons Ratio (x) = -0.00465 0.31646
# Poissons Ratio (y) = -0.00445 0.16024
# Poissons Ratio (z) = 0.42006 0.22262
#
# Static dielectric constant tensor:
#      x y z
#    x 1.728740 0.000000 -0.015930 
#    y 0.000000 1.731120 0.000000 
#    z -0.015930 0.000000 1.751930 
# 
# From -- ./inp_files/16861.got.cif
#   From: 2010.05.17/outbox.cif.g08.bks.cpg/sg12_9_cif.got.tgz:16861.got - 2010.06.03 13:09:07.
