data_PCOD9199932
_publ_section_title
;
Structure prediction by ZEFSAII (Michael W. Deem and Ramdas Pophale) SiO2 
 PCOD9199932
Probable space group: C 2/M
;
_chemical_formula_sum "Si O2"
_cell_formula_units_Z 48
_cell_length_a 29.045886
_cell_length_b 20.704609
_cell_length_c 12.053954
_cell_angle_alpha 90.000000
_cell_angle_beta 19.214264
_cell_angle_gamma 90.000000
_cell_volume 2385.675517
_symmetry_space_group_name_H-M "C 2/M"
_symmetry_group_IT_number 12
_symmetry_cell_setting 'monoclinic'
loop_
_space_group_symop_operation_xyz
x,y,z
-x,y,-z
-x,-y,-z
x,-y,z
1/2+x,1/2+y,z
1/2-x,1/2+y,-z
1/2-x,1/2-y,-z
1/2+x,1/2-y,z
loop_
_atom_site_type_symbol
_atom_site_label
_atom_site_fract_x
_atom_site_fract_y
_atom_site_fract_z
Si Si1 0.124062 0.927678 0.808326
Si Si2 0.849586 0.689793 0.788239
Si Si3 0.410184 0.189104 0.401435
Si Si4 0.922074 0.429456 0.008847
Si Si5 0.145432 0.429910 0.098750
Si Si6 0.832206 0.215620 0.209479
O O1 0.274870 0.926345 0.405664
O O2 0.123073 0.859092 0.873742
O O3 0.111664 0.000000 0.890668
O O4 0.000000 0.924953 0.000000
O O5 0.876004 0.666594 0.603136
O O6 0.782680 0.633575 0.016110
O O7 0.000000 0.707076 0.500000
O O8 0.750000 0.750000 0.000000
O O9 0.275668 0.216312 0.646334
O O10 0.473841 0.127069 0.194542
O O11 0.531767 0.242159 0.125212
O O12 0.986236 0.500000 0.881192
O O13 0.885515 0.423345 0.960987
O O14 0.214387 0.500000 0.958917
O O15 0.000000 0.431147 0.500000
O O16 0.750000 0.250000 0.500000
#
# Coordination Sequence:
#
# PCOD9199932 Si02
#       6
#     8   8   8   8   8   8
#     4  10  22  40  61  86 119 161 204 247 301 364
#     4  11  22  38  60  88 121 153 196 246 302 356
#     4  12  24  39  59  89 119 158 203 248 300 360
#     4  10  20  36  62  91 118 151 199 251 299 358
#     4   9  17  33  58  89 118 149 190 241 298 358
#     4  12  25  39  59  85 123 162 202 250 305 360
#
# _framework density 20.120087999999999
#
# number of rings (size 3 to 8) (size 9 to 14) (size 15 to 20)
#    0.000    1.333    5.000    2.500    0.000    0.667 
#    0.000    1.667    0.000    0.500    0.000    0.000 
#    0.000    0.000    0.000    0.000    0.000    0.000 
#
# Total GULP energy -133951.237947 kJ/mol
# GULP energy per Si atom -5581.301581 kJ/mol
# Density = 2.007429 g / cm^3
# Si number density = 20.120088 Si / 1000 Ang^3
#
#
#
# Elastic Constant Matrix: (Units=GPa)
#
#
# Indices 1 2 3 4 5 6 
#
# 1 76.1112 20.2927 5.9344 0.0003 -18.4900 -0.0003
# 2 20.2927 166.1312 24.3969 0.0020 -22.6704 -0.0001
# 3 5.9344 24.3969 22.1711 0.0051 -17.2718 -0.0006
# 4 0.0003 0.0020 0.0051 17.5155 0.0009 6.6888
# 5 -18.4900 -22.6704 -17.2718 0.0009 32.0470 -0.0006
# 6 -0.0003 -0.0001 -0.0006 6.6888 -0.0006 23.5801
#
#
#
# Elastic Compliance Matrix: (Units=1/GPa)
#
#
# Indices 1 2 3 4 5 6 
#
# 1 0.015797 -0.001257 0.006141 -0.000003 0.011535 0.000002
# 2 -0.001257 0.007317 -0.007322 0.000001 0.000504 -0.000001
# 3 0.006141 -0.007322 0.086603 -0.000031 0.045039 0.000012
# 4 -0.000003 0.000001 -0.000031 0.064028 -0.000020 -0.018162
# 5 0.011535 0.000504 0.045039 -0.000020 0.062490 0.000008
# 6 0.000002 -0.000001 0.000012 -0.018162 0.000008 0.047561
#
#
# Mechanical properties :
#
#
# Convention : Reuss Voigt Hill
#
# Bulk Modulus (GPa) = 9.53824 40.62905 25.08365
# Shear Modulus (GPa) = 15.45021 28.88114 22.16568
#
# Velocity S-wave (km/s) = 2.77411 3.79283 3.32274
# Velocity P-wave (km/s) = 3.87451 6.27836 5.21678
#
# Compressibility (1/GPa) = 0.10484114
#
# Stress axis : x y z
#
# Youngs Moduli (GPa) = 63.30199 136.66726 11.54689
#
# Poissons Ratio (x) = 0.17185 -0.07091
# Poissons Ratio (y) = 0.07960 0.08455
# Poissons Ratio (z) = -0.38875 1.00069
#
# Static dielectric constant tensor:
#      x y z
#    x 1.711550 0.000000 0.037950 
#    y 0.000000 1.799500 0.000000 
#    z 0.037950 0.000000 1.740820 
# 
# From -- ./inp_files/190261.got.cif
#   From: 2010.05.17/outbox.cif.g08.bks.cpg/sg12_96_cif.got.tgz:190261.got - 2010.06.03 13:09:07.
