data_PCOD9199565
_publ_section_title
;
Structure prediction by ZEFSAII (Michael W. Deem and Ramdas Pophale) SiO2 
 PCOD9199565
Probable space group: C 2/M
;
_chemical_formula_sum "Si O2"
_cell_formula_units_Z 56
_cell_length_a 14.704432
_cell_length_b 24.342272
_cell_length_c 11.196711
_cell_angle_alpha 90.000000
_cell_angle_beta 137.329524
_cell_angle_gamma 90.000000
_cell_volume 2716.371402
_symmetry_space_group_name_H-M "C 2/M"
_symmetry_group_IT_number 12
_symmetry_cell_setting 'monoclinic'
loop_
_space_group_symop_operation_xyz
x,y,z
-x,y,-z
-x,-y,-z
x,-y,z
1/2+x,1/2+y,z
1/2-x,1/2+y,-z
1/2-x,1/2-y,-z
1/2+x,1/2-y,z
loop_
_atom_site_type_symbol
_atom_site_label
_atom_site_fract_x
_atom_site_fract_y
_atom_site_fract_z
Si Si1 0.235351 0.937398 0.897471
Si Si2 0.395219 0.833906 0.504392
Si Si3 0.769240 0.113283 0.350777
Si Si4 0.913976 0.168586 0.808367
Si Si5 0.429246 0.288902 0.563522
Si Si6 0.951850 0.061741 0.733636
Si Si7 0.539912 0.934847 0.264381
O O1 0.200315 0.896078 0.757559
O O2 0.111250 0.935839 0.867281
O O3 0.239287 0.000000 0.851775
O O4 0.381023 0.926569 0.093705
O O5 0.500000 0.842211 0.500000
O O6 0.242238 0.819611 0.323864
O O7 0.435578 0.775444 0.599780
O O8 0.403677 0.890080 0.587499
O O9 0.789611 0.177075 0.406828
O O10 0.874281 0.081263 0.538076
O O11 0.625779 0.084666 0.232977
O O12 0.970806 0.185205 0.732116
O O13 0.915995 0.102738 0.803558
O O14 0.000000 0.190739 0.000000
O O15 0.500000 0.295686 0.500000
O O16 0.910214 0.000000 0.717892
O O17 0.562477 0.000000 0.310367
#
# Coordination Sequence:
#
# PCOD9199565 Si02
#       7
#     8   8   8   8   8   8   8
#     4  10  21  35  57  95 135 167 217 273 323 391
#     4  11  25  46  67  89 130 178 221 268 331 391
#     4  11  19  35  65  90 128 170 215 270 331 389
#     4  11  24  42  67  96 133 165 218 283 321 385
#     4  10  22  45  70  98 130 172 219 272 331 396
#     4  10  20  36  60  89 127 173 214 264 330 387
#     4  11  23  39  60  92 131 172 220 267 323 394
#
# _framework density 20.615736999999999
#
# number of rings (size 3 to 8) (size 9 to 14) (size 15 to 20)
#    0.000    1.429    2.857    4.286    2.000    2.857 
#    2.571    1.429    0.000    0.000    0.000    0.000 
#    0.000    0.000    0.000    0.000    0.000    0.000 
#
# Total GULP energy -155903.846342 kJ/mol
# GULP energy per Si atom -5567.994512 kJ/mol
# Density = 2.056881 g / cm^3
# Si number density = 20.615737 Si / 1000 Ang^3
#
#
#
# Elastic Constant Matrix: (Units=GPa)
#
#
# Indices 1 2 3 4 5 6 
#
# 1 57.7922 9.3768 16.7300 0.0000 3.9688 0.0000
# 2 9.3768 95.2130 1.1545 0.0000 -11.4966 0.0000
# 3 16.7300 1.1545 76.7274 0.0000 -1.0107 0.0000
# 4 0.0000 0.0000 0.0000 11.5367 0.0000 4.2145
# 5 3.9688 -11.4966 -1.0107 0.0000 31.5756 0.0000
# 6 0.0000 0.0000 0.0000 4.2145 0.0000 28.7277
#
#
#
# Elastic Compliance Matrix: (Units=1/GPa)
#
#
# Indices 1 2 3 4 5 6 
#
# 1 0.019105 -0.002235 -0.004176 0.000000 -0.003349 0.000000
# 2 -0.002235 0.011248 0.000376 0.000000 0.004388 0.000000
# 3 -0.004176 0.000376 0.013953 0.000000 0.001108 0.000000
# 4 0.000000 0.000000 0.000000 0.091589 0.000000 -0.013437
# 5 -0.003349 0.004388 0.001108 0.000000 0.033724 0.000000
# 6 0.000000 0.000000 0.000000 -0.013437 0.000000 0.036781
#
#
# Mechanical properties :
#
#
# Convention : Reuss Voigt Hill
#
# Bulk Modulus (GPa) = 31.02228 31.58390 31.30309
# Shear Modulus (GPa) = 21.81353 27.86609 24.83981
#
# Velocity S-wave (km/s) = 3.25638 3.68052 3.47493
# Velocity P-wave (km/s) = 5.40548 5.78059 5.59618
#
# Compressibility (1/GPa) = 0.03223489
#
# Stress axis : x y z
#
# Youngs Moduli (GPa) = 52.34235 88.90291 71.67069
#
# Poissons Ratio (x) = 0.19872 0.29931
# Poissons Ratio (y) = 0.11700 -0.02694
# Poissons Ratio (z) = 0.21859 -0.03342
#
# Static dielectric constant tensor:
#      x y z
#    x 1.886120 0.000000 0.018160 
#    y 0.000000 1.762150 0.000000 
#    z 0.018160 0.000000 1.744770 
# 
# From -- ./inp_files/149509.got.cif
#   From: 2010.05.17/outbox.cif.g08.bks.cpg/sg12_75_cif.got.tgz:149509.got - 2010.06.03 13:09:07.
