data_PCOD9199206
_publ_section_title
;
Structure prediction by ZEFSAII (Michael W. Deem and Ramdas Pophale) SiO2 
 PCOD9199206
Probable space group: C 2/M
;
_chemical_formula_sum "Si O2"
_cell_formula_units_Z 58
_cell_length_a 29.328990
_cell_length_b 7.533186
_cell_length_c 24.557000
_cell_angle_alpha 90.000000
_cell_angle_beta 149.193551
_cell_angle_gamma 90.000000
_cell_volume 2778.685648
_symmetry_space_group_name_H-M "C 2/M"
_symmetry_group_IT_number 12
_symmetry_cell_setting 'monoclinic'
loop_
_space_group_symop_operation_xyz
x,y,z
-x,y,-z
-x,-y,-z
x,-y,z
1/2+x,1/2+y,z
1/2-x,1/2+y,-z
1/2-x,1/2-y,-z
1/2+x,1/2-y,z
loop_
_atom_site_type_symbol
_atom_site_label
_atom_site_fract_x
_atom_site_fract_y
_atom_site_fract_z
Si Si1 0.210332 0.712219 0.517988
Si Si2 0.500000 0.000000 0.500000
Si Si3 0.042716 0.209525 0.857610
Si Si4 0.205029 0.286671 0.100284
Si Si5 0.873805 0.215433 0.756436
Si Si6 0.409115 0.293089 0.324229
Si Si7 0.403050 0.207821 0.907821
Si Si8 0.990584 0.291386 0.681625
O O1 0.205179 0.500000 0.519837
O O2 0.250000 0.750000 0.500000
O O3 0.285475 0.779084 0.635642
O O4 0.110404 0.781091 0.420454
O O5 0.542539 0.842064 0.584639
O O6 0.030654 0.275073 0.783517
O O7 0.963802 0.277708 0.817323
O O8 0.029331 0.000000 0.841029
O O9 0.139565 0.242403 0.983062
O O10 0.208656 0.500000 0.105506
O O11 0.307460 0.230295 0.208101
O O12 0.155076 0.217006 0.103134
O O13 0.864169 0.276898 0.808181
O O14 0.876219 0.000000 0.758678
O O15 0.407748 0.500000 0.342786
O O16 0.456437 0.292799 0.313754
O O17 0.415209 0.000000 0.934152
O O18 0.500000 0.291555 0.000000
O O19 0.986944 0.500000 0.665276
#
# Coordination Sequence:
#
# PCOD9199206 Si02
#       8
#     8   2   8   8   8   8   8   8
#     4  10  21  37  59  89 129 171 219 273 332 401
#     4  12  26  52  80 102 138 176 234 286 344 404
#     4  11  22  36  64  96 134 178 219 271 343 408
#     4  10  23  43  65  96 132 174 223 279 338 408
#     4  10  21  36  54  89 128 170 218 264 331 405
#     4  11  26  49  76 103 137 180 229 284 341 401
#     4  10  20  36  59  87 125 167 216 268 329 399
#     4  11  23  42  67  98 135 180 228 285 341 406
#
# _framework density 20.873176999999998
#
# number of rings (size 3 to 8) (size 9 to 14) (size 15 to 20)
#    0.000    1.517    3.448    1.034    0.966    4.138 
#    2.483    1.379    0.000    0.000    0.000    0.000 
#    0.000    0.000    0.000    0.000    0.000    0.000 
#
# Total GULP energy -161605.434615 kJ/mol
# GULP energy per Si atom -5572.601194 kJ/mol
# Density = 2.082567 g / cm^3
# Si number density = 20.873177 Si / 1000 Ang^3
#
#
#
# Elastic Constant Matrix: (Units=GPa)
#
#
# Indices 1 2 3 4 5 6 
#
# 1 99.6284 5.2761 82.2095 0.0000 15.9489 0.0000
# 2 5.2761 87.6454 11.6414 0.0000 6.9249 0.0000
# 3 82.2095 11.6414 163.9179 0.0000 -1.7931 0.0000
# 4 0.0000 0.0000 0.0000 -13.5125 0.0000 -26.4370
# 5 15.9489 6.9249 -1.7931 0.0000 35.0359 0.0000
# 6 0.0000 0.0000 0.0000 -26.4370 0.0000 15.2027
#
#
#
# Elastic Compliance Matrix: (Units=1/GPa)
#
#
# Indices 1 2 3 4 5 6 
#
# 1 0.019957 0.000924 -0.010182 0.000000 -0.009788 0.000000
# 2 0.000924 0.011753 -0.001329 0.000000 -0.002812 0.000000
# 3 -0.010182 -0.001329 0.011361 0.000000 0.005479 0.000000
# 4 0.000000 0.000000 0.000000 -0.016811 0.000000 -0.029233
# 5 -0.009788 -0.002812 0.005479 0.000000 0.033834 0.000000
# 6 0.000000 0.000000 0.000000 -0.029233 0.000000 0.014942
#
#
# Mechanical properties :
#
#
# Convention : Reuss Voigt Hill
#
# Bulk Modulus (GPa) = 45.66583 61.04953 53.35768
# Shear Modulus (GPa) = 48.30550 24.14952 36.22751
#
# Velocity S-wave (km/s) = 4.81587 3.40511 4.17057
# Velocity P-wave (km/s) = 7.26971 6.69111 6.98641
#
# Compressibility (1/GPa) = 0.02189821
#
# Stress axis : x y z
#
# Youngs Moduli (GPa) = 50.10828 85.08720 88.01800
#
# Poissons Ratio (x) = -0.07865 0.89617
# Poissons Ratio (y) = -0.04632 0.11698
# Poissons Ratio (z) = 0.51018 0.11308
#
# Static dielectric constant tensor:
#      x y z
#    x 1.715910 0.000000 0.041550 
#    y 0.000000 1.797780 0.000000 
#    z 0.041550 0.000000 1.715620 
# 
# From -- ./inp_files/351479.got.cif
#   From: 2010.05.17/outbox.cif.g08.bks.cpg/sg12_176_cif.got.tgz:351479.got - 2010.06.03 13:09:07.
