data_PCOD9199895
_publ_section_title
;
Structure prediction by ZEFSAII (Michael W. Deem and Ramdas Pophale) SiO2 
 PCOD9199895
Probable space group: C 2/M
;
_chemical_formula_sum "Si O2"
_cell_formula_units_Z 64
_cell_length_a 30.512337
_cell_length_b 12.016469
_cell_length_c 17.747433
_cell_angle_alpha 90.000000
_cell_angle_beta 30.180315
_cell_angle_gamma 90.000000
_cell_volume 3271.271768
_symmetry_space_group_name_H-M "C 2/M"
_symmetry_group_IT_number 12
_symmetry_cell_setting 'monoclinic'
loop_
_space_group_symop_operation_xyz
x,y,z
-x,y,-z
-x,-y,-z
x,-y,z
1/2+x,1/2+y,z
1/2-x,1/2+y,-z
1/2-x,1/2-y,-z
1/2+x,1/2-y,z
loop_
_atom_site_type_symbol
_atom_site_label
_atom_site_fract_x
_atom_site_fract_y
_atom_site_fract_z
Si Si1 0.568188 0.218988 0.217774
Si Si2 0.415336 0.628616 0.086169
Si Si3 0.594297 0.312250 0.340842
Si Si4 0.248253 0.237839 0.318442
Si Si5 0.509602 0.625268 0.792337
Si Si6 0.783207 0.624738 0.109296
Si Si7 0.096839 0.373312 0.465366
Si Si8 0.292010 0.367969 0.470345
O O1 0.596446 0.287509 0.249271
O O2 0.513577 0.291727 0.239515
O O3 0.498532 0.131849 0.355012
O O4 0.652459 0.175507 0.048537
O O5 0.409285 0.500000 0.118953
O O6 0.325431 0.687177 0.236623
O O7 0.500000 0.679930 0.000000
O O8 0.437057 0.631602 0.965246
O O9 0.500000 0.365065 0.500000
O O10 0.682724 0.373237 0.231960
O O11 0.595176 0.200049 0.391486
O O12 0.283263 0.188146 0.188333
O O13 0.165431 0.313151 0.419026
O O14 0.225319 0.145366 0.414116
O O15 0.510877 0.500000 0.759685
O O16 0.603373 0.643301 0.691896
O O17 0.812925 0.500000 0.078515
O O18 0.122761 0.500000 0.412181
O O19 0.268998 0.500000 0.482671
O O20 0.250000 0.250000 0.500000
#
# Coordination Sequence:
#
# PCOD9199895 Si02
#       8
#     8   8   8   8   8   8   8   8
#     4  11  20  40  59  86 122 158 200 250 305 376
#     4  10  20  36  62  89 117 157 204 256 309 366
#     4   9  22  39  59  87 118 154 205 256 295 362
#     4  11  21  39  61  88 125 156 203 254 304 377
#     4  10  21  39  62  89 121 160 206 256 309 367
#     4  11  23  38  59  86 119 160 195 241 307 370
#     4  10  21  37  61  89 119 161 206 257 309 362
#     4  11  24  43  67  94 127 167 211 266 319 375
#
# _framework density 19.564257000000001
#
# number of rings (size 3 to 8) (size 9 to 14) (size 15 to 20)
#    0.000    1.625    2.500    2.250    0.000    5.500 
#    0.000    0.000    0.000    1.500    0.000    0.000 
#    0.000    0.000    0.000    0.000    0.000    0.000 
#
# Total GULP energy -178401.792907 kJ/mol
# GULP energy per Si atom -5575.056028 kJ/mol
# Density = 1.951973 g / cm^3
# Si number density = 19.564257 Si / 1000 Ang^3
#
#
#
# Elastic Constant Matrix: (Units=GPa)
#
#
# Indices 1 2 3 4 5 6 
#
# 1 71.5646 22.9524 12.5989 0.0000 -4.3372 0.0000
# 2 22.9524 87.3527 20.9652 0.0000 -2.6786 0.0000
# 3 12.5989 20.9652 106.5655 0.0000 5.8712 0.0000
# 4 0.0000 0.0000 0.0000 14.2778 0.0000 6.9805
# 5 -4.3372 -2.6786 5.8712 0.0000 33.1983 0.0000
# 6 0.0000 0.0000 0.0000 6.9805 0.0000 -9.6029
#
#
#
# Elastic Compliance Matrix: (Units=1/GPa)
#
#
# Indices 1 2 3 4 5 6 
#
# 1 0.015497 -0.003723 -0.001207 0.000000 0.001938 0.000000
# 2 -0.003723 0.012974 -0.002164 0.000000 0.000943 0.000000
# 3 -0.001207 -0.002164 0.010069 0.000000 -0.002113 0.000000
# 4 0.000000 0.000000 0.000000 0.051674 0.000000 0.037563
# 5 0.001938 0.000943 -0.002113 0.000000 0.030825 0.000000
# 6 0.000000 0.000000 0.000000 0.037563 0.000000 -0.076830
#
#
# Mechanical properties :
#
#
# Convention : Reuss Voigt Hill
#
# Bulk Modulus (GPa) = 41.06304 42.05730 41.56017
# Shear Modulus (GPa) = 75.17138 21.50574 48.33856
#
# Velocity S-wave (km/s) = 6.20534 3.31907 4.97607
# Velocity P-wave (km/s) = 8.50741 6.01930 7.36912
#
# Compressibility (1/GPa) = 0.02435280
#
# Stress axis : x y z
#
# Youngs Moduli (GPa) = 64.52743 77.07450 99.31716
#
# Poissons Ratio (x) = 0.28695 0.11983
# Poissons Ratio (y) = 0.24024 0.21496
# Poissons Ratio (z) = 0.07785 0.16682
#
# Static dielectric constant tensor:
#      x y z
#    x 1.695460 0.000000 0.003640 
#    y 0.000000 1.680390 0.000000 
#    z 0.003640 0.000000 1.689260 
# 
# From -- ./inp_files/296449.got.cif
#   From: 2010.05.17/outbox.cif.g08.bks.cpg/sg12_149_cif.got.tgz:296449.got - 2010.06.03 13:09:07.
