data_PCOD9199914
_publ_section_title
;
Structure prediction by ZEFSAII (Michael W. Deem and Ramdas Pophale) SiO2 
 PCOD9199914
Probable space group: C 2/M
;
_chemical_formula_sum "Si O2"
_cell_formula_units_Z 42
_cell_length_a 21.079456
_cell_length_b 7.950774
_cell_length_c 12.912328
_cell_angle_alpha 90.000000
_cell_angle_beta 71.651851
_cell_angle_gamma 90.000000
_cell_volume 2054.061151
_symmetry_space_group_name_H-M "C 2/M"
_symmetry_group_IT_number 12
_symmetry_cell_setting 'monoclinic'
loop_
_space_group_symop_operation_xyz
x,y,z
-x,y,-z
-x,-y,-z
x,-y,z
1/2+x,1/2+y,z
1/2-x,1/2+y,-z
1/2-x,1/2-y,-z
1/2+x,1/2-y,z
loop_
_atom_site_type_symbol
_atom_site_label
_atom_site_fract_x
_atom_site_fract_y
_atom_site_fract_z
Si Si1 0.927279 0.805768 0.566409
Si Si2 0.783197 0.306134 0.589370
Si Si3 0.248203 0.309139 0.829769
Si Si4 0.000000 0.000000 0.000000
Si Si5 0.889167 0.691131 0.805985
Si Si6 0.095482 0.702563 0.964993
O O1 0.863406 0.716051 0.548963
O O2 0.915916 0.797270 0.696049
O O3 0.000000 0.736427 0.500000
O O4 0.924990 0.000000 0.533977
O O5 0.767431 0.500000 0.617161
O O6 0.750000 0.250000 0.500000
O O7 0.756294 0.203858 0.701727
O O8 0.261474 0.500000 0.856541
O O9 0.308472 0.201592 0.845762
O O10 0.173223 0.267445 0.899520
O O11 0.051535 0.153245 0.934941
O O12 0.909070 0.500000 0.774266
O O13 0.913388 0.736894 0.907418
O O14 0.082062 0.500000 0.952734
#
# Coordination Sequence:
#
# PCOD9199914 Si02
#       6
#     8   8   8   2   8   8
#     4  10  21  38  59  87 120 155 200 248 299 363
#     4  11  22  38  60  87 120 156 202 250 303 363
#     4  10  20  37  63  89 121 150 197 257 300 352
#     4  12  26  40  68  78 134 172 196 246 296 382
#     4  10  20  36  62  90 120 149 197 256 300 357
#     4  10  24  42  60  92 123 161 205 248 302 362
#
# _framework density 20.447298
#
# number of rings (size 3 to 8) (size 9 to 14) (size 15 to 20)
#    0.000    1.714    0.000    6.571    5.333    1.524 
#    3.429    0.000    0.000    0.000    0.000    0.000 
#    0.000    0.000    0.000    0.000    0.000    0.000 
#
# Total GULP energy -116944.682450 kJ/mol
# GULP energy per Si atom -5568.794402 kJ/mol
# Density = 2.040076 g / cm^3
# Si number density = 20.447298 Si / 1000 Ang^3
#
#
#
# Elastic Constant Matrix: (Units=GPa)
#
#
# Indices 1 2 3 4 5 6 
#
# 1 81.0401 19.3483 50.2441 0.0000 -13.1899 0.0000
# 2 19.3483 62.6303 12.0779 0.0000 -5.7571 0.0000
# 3 50.2441 12.0779 51.8461 0.0000 -12.4775 0.0000
# 4 0.0000 0.0000 0.0000 20.6109 0.0000 -8.8983
# 5 -13.1899 -5.7571 -12.4775 0.0000 34.2200 0.0000
# 6 0.0000 0.0000 0.0000 -8.8983 0.0000 23.6892
#
#
#
# Elastic Compliance Matrix: (Units=1/GPa)
#
#
# Indices 1 2 3 4 5 6 
#
# 1 0.031893 -0.004040 -0.029786 0.000000 0.000753 0.000000
# 2 -0.004040 0.017302 0.000230 0.000000 0.001438 0.000000
# 3 -0.029786 0.000230 0.049708 0.000000 0.006683 0.000000
# 4 0.000000 0.000000 0.000000 0.057909 0.000000 0.021752
# 5 0.000753 0.001438 0.006683 0.000000 0.032191 0.000000
# 6 0.000000 0.000000 0.000000 0.021752 0.000000 0.050384
#
#
# Mechanical properties :
#
#
# Convention : Reuss Voigt Hill
#
# Bulk Modulus (GPa) = 31.53251 39.87302 35.70276
# Shear Modulus (GPa) = 15.76542 23.29377 19.52960
#
# Velocity S-wave (km/s) = 2.77975 3.37888 3.09385
# Velocity P-wave (km/s) = 5.07519 5.89620 5.50103
#
# Compressibility (1/GPa) = 0.03171330
#
# Stress axis : x y z
#
# Youngs Moduli (GPa) = 31.35447 57.79533 20.11753
#
# Poissons Ratio (x) = 0.23347 0.59921
# Poissons Ratio (y) = 0.12666 -0.00463
# Poissons Ratio (z) = 0.93391 -0.01329
#
# Static dielectric constant tensor:
#      x y z
#    x 1.753610 0.000000 0.004900 
#    y 0.000000 1.708730 0.000000 
#    z 0.004900 0.000000 1.741760 
# 
# From -- ./inp_files/220671.got.cif
#   From: 2010.05.17/outbox.cif.g08.bks.cpg/sg12_111_cif.got.tgz:220671.got - 2010.06.03 13:09:07.
