data_PCOD9199016
_publ_section_title
;
Structure prediction by ZEFSAII (Michael W. Deem and Ramdas Pophale) SiO2 
 PCOD9199016
Probable space group: C 2/M
;
_chemical_formula_sum "Si O2"
_cell_formula_units_Z 56
_cell_length_a 18.232553
_cell_length_b 7.931364
_cell_length_c 29.346037
_cell_angle_alpha 90.000000
_cell_angle_beta 140.848960
_cell_angle_gamma 90.000000
_cell_volume 2679.332534
_symmetry_space_group_name_H-M "C 2/M"
_symmetry_group_IT_number 12
_symmetry_cell_setting 'monoclinic'
loop_
_space_group_symop_operation_xyz
x,y,z
-x,y,-z
-x,-y,-z
x,-y,z
1/2+x,1/2+y,z
1/2-x,1/2+y,-z
1/2-x,1/2-y,-z
1/2+x,1/2-y,z
loop_
_atom_site_type_symbol
_atom_site_label
_atom_site_fract_x
_atom_site_fract_y
_atom_site_fract_z
Si Si1 0.371275 0.701424 0.427146
Si Si2 0.506512 0.196370 0.132531
Si Si3 0.233638 0.206474 0.719015
Si Si4 0.939666 0.793897 0.284139
Si Si5 0.297199 0.701555 0.572218
Si Si6 0.403493 0.696113 0.988655
Si Si7 0.357886 0.303446 0.145368
O O1 0.500000 0.769465 0.500000
O O2 0.383259 0.500000 0.426955
O O3 0.315714 0.766260 0.353325
O O4 0.286303 0.732351 0.428395
O O5 0.634412 0.260017 0.207862
O O6 0.422058 0.212109 0.134988
O O7 0.517196 0.000000 0.124771
O O8 0.453128 0.288883 0.063403
O O9 0.148848 0.259525 0.719019
O O10 0.234777 0.000000 0.718570
O O11 0.898638 0.739458 0.214377
O O12 0.070723 0.737643 0.357320
O O13 0.938502 0.000000 0.283817
O O14 0.298866 0.500000 0.576269
O O15 0.250000 0.750000 0.500000
O O16 0.383023 0.500000 0.967588
O O17 0.280329 0.786537 0.925360
O O18 0.500000 0.763016 0.000000
O O19 0.390256 0.500000 0.157632
#
# Coordination Sequence:
#
# PCOD9199016 Si02
#       7
#     8   8   8   8   8   8   8
#     4  10  20  36  59  84 114 152 190 232 284 338
#     4  11  22  37  59  85 115 150 190 234 279 333
#     4   9  18  34  57  84 112 146 190 234 278 334
#     4   9  19  36  58  84 113 148 189 233 281 333
#     4  11  22  37  58  84 116 151 190 235 282 335
#     4  11  24  41  60  84 115 148 186 234 285 337
#     4  11  22  38  61  86 115 150 189 232 280 335
#
# _framework density 20.900728000000001
#
# number of rings (size 3 to 8) (size 9 to 14) (size 15 to 20)
#    0.000    1.714    0.000    4.714    0.000    4.857 
#    0.000    2.857    0.000    6.857    0.000    0.000 
#    0.000    0.000    0.000    0.000    0.000    0.000 
#
# Total GULP energy -156572.099915 kJ/mol
# GULP energy per Si atom -5591.860711 kJ/mol
# Density = 2.085316 g / cm^3
# Si number density = 20.900728 Si / 1000 Ang^3
#
#
#
# Elastic Constant Matrix: (Units=GPa)
#
#
# Indices 1 2 3 4 5 6 
#
# 1 158.2159 -20.4885 82.6188 0.0000 1.0202 0.0001
# 2 -20.4885 18.9152 -8.0748 0.0001 2.6009 0.0001
# 3 82.6188 -8.0748 180.0789 0.0000 0.0110 0.0000
# 4 0.0000 0.0001 0.0000 -6.5595 0.0000 -6.6317
# 5 1.0202 2.6009 0.0110 0.0000 45.3164 0.0000
# 6 0.0001 0.0001 0.0000 -6.6317 0.0000 0.0840
#
#
#
# Elastic Compliance Matrix: (Units=1/GPa)
#
#
# Indices 1 2 3 4 5 6 
#
# 1 0.009535 0.008726 -0.003983 0.000000 -0.000715 0.000000
# 2 0.008726 0.062322 -0.001209 0.000001 -0.003773 -0.000001
# 3 -0.003983 -0.001209 0.007326 0.000000 0.000157 0.000000
# 4 0.000000 0.000001 0.000000 -0.001887 0.000000 -0.148925
# 5 -0.000715 -0.003773 0.000157 0.000000 0.022300 0.000000
# 6 0.000000 -0.000001 0.000000 -0.148925 0.000000 0.147305
#
#
# Mechanical properties :
#
#
# Convention : Reuss Voigt Hill
#
# Bulk Modulus (GPa) = 11.59397 51.70234 31.64815
# Shear Modulus (GPa) = 18.61612 27.97848 23.29730
#
# Velocity S-wave (km/s) = 2.98768 3.66271 3.34228
# Velocity P-wave (km/s) = 4.17862 6.53284 5.48356
#
# Compressibility (1/GPa) = 0.08625172
#
# Stress axis : x y z
#
# Youngs Moduli (GPa) = 104.87529 16.04568 136.49202
#
# Poissons Ratio (x) = -0.14001 0.54369
# Poissons Ratio (y) = -0.91514 0.16497
# Poissons Ratio (z) = 0.41775 0.01939
#
# Static dielectric constant tensor:
#      x y z
#    x 1.685590 0.000000 0.010600 
#    y 0.000000 1.759080 0.000000 
#    z 0.010600 0.000000 1.715980 
# 
# From -- ./inp_files/275082.got.cif
#   From: 2010.05.17/outbox.cif.g08.bks.cpg/sg12_138_cif.got.tgz:275082.got - 2010.06.03 13:09:07.
