data_PCOD9199943
_publ_section_title
;
Structure prediction by ZEFSAII (Michael W. Deem and Ramdas Pophale) SiO2 
 PCOD9199943
Probable space group: C 2/M
;
_chemical_formula_sum "Si O2"
_cell_formula_units_Z 64
_cell_length_a 29.200661
_cell_length_b 15.100381
_cell_length_c 7.439530
_cell_angle_alpha 90.000000
_cell_angle_beta 118.602565
_cell_angle_gamma 90.000000
_cell_volume 2880.060302
_symmetry_space_group_name_H-M "C 2/M"
_symmetry_group_IT_number 12
_symmetry_cell_setting 'monoclinic'
loop_
_space_group_symop_operation_xyz
x,y,z
-x,y,-z
-x,-y,-z
x,-y,z
1/2+x,1/2+y,z
1/2-x,1/2+y,-z
1/2-x,1/2-y,-z
1/2+x,1/2-y,z
loop_
_atom_site_type_symbol
_atom_site_label
_atom_site_fract_x
_atom_site_fract_y
_atom_site_fract_z
Si Si1 0.582517 0.783491 0.855438
Si Si2 0.137562 0.095897 0.585317
Si Si3 0.985375 0.399645 0.763689
Si Si4 0.385572 0.217212 0.499233
Si Si5 0.175138 0.400070 0.134791
Si Si6 0.213000 0.601716 0.580949
Si Si7 0.757867 0.854605 0.009689
Si Si8 0.450582 0.598221 0.277488
O O1 0.533536 0.849906 0.760073
O O2 0.606072 0.776789 0.699615
O O3 0.561882 0.685019 0.864735
O O4 0.628777 0.828786 0.056188
O O5 0.119844 0.182128 0.441759
O O6 0.192971 0.115810 0.781929
O O7 0.097159 0.089821 0.674024
O O8 0.138789 0.000000 0.494580
O O9 0.976801 0.500000 0.679903
O O10 0.934310 0.339257 0.656876
O O11 0.000000 0.405187 0.000000
O O12 0.332875 0.165893 0.442814
O O13 0.153431 0.500000 0.113545
O O14 0.216489 0.384596 0.373834
O O15 0.206818 0.394768 0.009455
O O16 0.196947 0.500000 0.575770
O O17 0.260559 0.618149 0.805708
O O18 0.750000 0.750000 0.000000
O O19 0.500000 0.617940 0.500000
O O20 0.458756 0.500000 0.209058
#
# Coordination Sequence:
#
# PCOD9199943 Si02
#       8
#     8   8   8   8   8   8   8   8
#     4  11  20  36  61  93 126 161 208 257 313 376
#     4  10  20  36  62  91 121 159 206 260 311 366
#     4  11  24  39  58  87 124 162 203 255 313 376
#     4  11  21  38  60  91 121 161 210 255 309 375
#     4  11  24  40  63  95 131 171 210 257 318 383
#     4  11  23  40  63  90 127 172 212 256 315 379
#     4  12  22  42  64  93 127 166 215 266 317 371
#     4   9  18  35  60  91 121 155 207 260 308 371
#
# _framework density 22.221755999999999
#
# number of rings (size 3 to 8) (size 9 to 14) (size 15 to 20)
#    0.000    1.250    2.500    5.250    0.000    4.500 
#    0.000    0.000    0.000    3.750    0.000    0.000 
#    0.000    0.000    0.000    0.000    0.000    0.000 
#
# Total GULP energy -178729.159305 kJ/mol
# GULP energy per Si atom -5585.286228 kJ/mol
# Density = 2.217118 g / cm^3
# Si number density = 22.221756 Si / 1000 Ang^3
#
#
#
# Elastic Constant Matrix: (Units=GPa)
#
#
# Indices 1 2 3 4 5 6 
#
# 1 32.7442 3.4772 10.1373 0.0000 15.4945 0.0000
# 2 3.4772 186.5215 46.4313 0.0000 12.6509 0.0000
# 3 10.1373 46.4313 74.1318 0.0000 2.1578 0.0000
# 4 0.0000 0.0000 0.0000 26.1130 0.0000 14.7096
# 5 15.4945 12.6509 2.1578 0.0000 34.2973 0.0000
# 6 0.0000 0.0000 0.0000 14.7096 0.0000 3.8503
#
#
#
# Elastic Compliance Matrix: (Units=1/GPa)
#
#
# Indices 1 2 3 4 5 6 
#
# 1 0.041314 0.002120 -0.006423 0.000000 -0.019042 0.000000
# 2 0.002120 0.006615 -0.004342 0.000000 -0.003125 0.000000
# 3 -0.006423 -0.004342 0.016987 0.000000 0.003435 0.000000
# 4 0.000000 0.000000 0.000000 -0.033241 0.000000 0.126993
# 5 -0.019042 -0.003125 0.003435 0.000000 0.038696 0.000000
# 6 0.000000 0.000000 0.000000 0.126993 0.000000 -0.225442
#
#
# Mechanical properties :
#
#
# Convention : Reuss Voigt Hill
#
# Bulk Modulus (GPa) = 20.99689 45.94324 33.47007
# Shear Modulus (GPa) = -41.01517 28.40890 -6.30313
#
# Velocity S-wave (km/s) = -4.30085 3.57939 -1.68601
# Velocity P-wave (km/s) = 3.89791 6.14837 3.36220
#
# Compressibility (1/GPa) = 0.04762609
#
# Stress axis : x y z
#
# Youngs Moduli (GPa) = 24.20489 151.18173 58.86724
#
# Poissons Ratio (x) = -0.32056 0.37812
# Poissons Ratio (y) = -0.05132 0.25560
# Poissons Ratio (z) = 0.15548 0.65642
#
# Static dielectric constant tensor:
#      x y z
#    x 1.792410 0.000000 -0.007930 
#    y 0.000000 1.882080 0.000000 
#    z -0.007930 0.000000 1.845110 
# 
# From -- ./inp_files/112050.got.cif
#   From: 2010.05.17/outbox.cif.g08.bks.cpg/sg12_57_cif.got.tgz:112050.got - 2010.06.03 13:09:07.
