data_PCOD9199230
_publ_section_title
;
Structure prediction by ZEFSAII (Michael W. Deem and Ramdas Pophale) SiO2 
 PCOD9199230
Probable space group: C 2/M
;
_chemical_formula_sum "Si O2"
_cell_formula_units_Z 64
_cell_length_a 31.631960
_cell_length_b 8.554811
_cell_length_c 14.833974
_cell_angle_alpha 90.000000
_cell_angle_beta 54.892009
_cell_angle_gamma 90.000000
_cell_volume 3283.857054
_symmetry_space_group_name_H-M "C 2/M"
_symmetry_group_IT_number 12
_symmetry_cell_setting 'monoclinic'
loop_
_space_group_symop_operation_xyz
x,y,z
-x,y,-z
-x,-y,-z
x,-y,z
1/2+x,1/2+y,z
1/2-x,1/2+y,-z
1/2-x,1/2-y,-z
1/2+x,1/2-y,z
loop_
_atom_site_type_symbol
_atom_site_label
_atom_site_fract_x
_atom_site_fract_y
_atom_site_fract_z
Si Si1 0.644844 0.811611 0.223907
Si Si2 0.729425 0.686689 0.248602
Si Si3 0.892170 0.188295 0.226693
Si Si4 0.726963 0.687340 0.621050
Si Si5 0.974849 0.309212 0.624723
Si Si6 0.570223 0.687178 0.014191
Si Si7 0.023395 0.686657 0.752689
Si Si8 0.171422 0.310867 0.991036
O O1 0.676912 0.743916 0.267254
O O2 0.585024 0.761426 0.295472
O O3 0.670859 0.766050 0.096822
O O4 0.645789 0.000000 0.228469
O O5 0.729572 0.500000 0.253482
O O6 0.740751 0.754566 0.332925
O O7 0.776857 0.735795 0.124963
O O8 0.832717 0.240870 0.295870
O O9 0.921523 0.238536 0.099334
O O10 0.923085 0.247782 0.275106
O O11 0.892354 0.000000 0.227167
O O12 0.727182 0.500000 0.619822
O O13 0.750000 0.750000 0.500000
O O14 0.975263 0.500000 0.625126
O O15 0.000000 0.258084 0.500000
O O16 0.006425 0.257382 0.674142
O O17 0.564087 0.500000 0.022845
O O18 0.521573 0.762356 0.123275
O O19 0.621915 0.735468 0.003979
O O20 0.026118 0.500000 0.747249
O O21 0.166249 0.500000 0.992621
#
# Coordination Sequence:
#
# PCOD9199230 Si02
#       8
#     8   8   8   8   8   8   8   8
#     4  10  20  37  60  86 121 158 195 244 300 357
#     4  11  23  38  60  91 123 154 197 247 298 361
#     4  10  23  41  60  87 121 155 193 243 300 360
#     4  11  24  44  65  87 119 159 204 251 301 356
#     4   9  19  37  59  83 113 151 197 244 288 341
#     4  11  21  36  60  87 120 158 195 239 302 363
#     4  11  22  37  60  90 121 155 199 246 295 355
#     4  10  20  36  59  88 121 154 195 246 298 358
#
# _framework density 19.489277000000001
#
# number of rings (size 3 to 8) (size 9 to 14) (size 15 to 20)
#    0.000    1.625    2.500    2.250    0.000    5.500 
#    0.000    1.250    0.000    2.625    0.000    0.000 
#    0.000    0.000    0.000    0.000    0.000    0.000 
#
# Total GULP energy -178852.829225 kJ/mol
# GULP energy per Si atom -5589.150913 kJ/mol
# Density = 1.944492 g / cm^3
# Si number density = 19.489277 Si / 1000 Ang^3
#
#
#
# Elastic Constant Matrix: (Units=GPa)
#
#
# Indices 1 2 3 4 5 6 
#
# 1 154.8612 17.6757 40.5824 0.0000 37.4149 0.0000
# 2 17.6757 12.2152 13.1483 0.0000 9.7986 0.0000
# 3 40.5824 13.1483 95.8042 0.0000 41.1831 0.0000
# 4 0.0000 0.0000 0.0000 20.1974 0.0000 0.8936
# 5 37.4149 9.7986 41.1831 0.0000 22.1015 0.0000
# 6 0.0000 0.0000 0.0000 0.8936 0.0000 36.4282
#
#
#
# Elastic Compliance Matrix: (Units=1/GPa)
#
#
# Indices 1 2 3 4 5 6 
#
# 1 0.024968 0.025811 0.045074 0.000000 -0.137700 0.000000
# 2 0.025811 0.180496 0.087822 0.000000 -0.287361 0.000000
# 3 0.045074 0.087822 0.144871 0.000000 -0.385186 0.000000
# 4 0.000000 0.000000 0.000000 0.049565 0.000000 -0.001216
# 5 -0.137700 -0.287361 -0.385186 0.000000 1.123493 0.000000
# 6 0.000000 0.000000 0.000000 -0.001216 0.000000 0.027481
#
#
# Mechanical properties :
#
#
# Convention : Reuss Voigt Hill
#
# Bulk Modulus (GPa) = 1.49757 45.07702 23.28729
# Shear Modulus (GPa) = 3.43396 28.51036 15.97216
#
# Velocity S-wave (km/s) = 1.32883 3.82890 2.86586
# Velocity P-wave (km/s) = 1.76762 6.53657 4.78807
#
# Compressibility (1/GPa) = 0.66774967
#
# Stress axis : x y z
#
# Youngs Moduli (GPa) = 40.05116 5.54028 6.90269
#
# Poissons Ratio (x) = -0.14300 -0.31113
# Poissons Ratio (y) = -1.03377 -0.60621
# Poissons Ratio (z) = -1.80526 -0.48656
#
# Static dielectric constant tensor:
#      x y z
#    x 1.661450 0.000000 -0.000270 
#    y 0.000000 1.664320 0.000000 
#    z -0.000270 0.000000 1.671650 
# 
# From -- ./inp_files/249665.got.cif
#   From: 2010.05.17/outbox.cif.g08.bks.cpg/sg12_125_cif.got.tgz:249665.got - 2010.06.03 13:09:07.
