data_PCOD9199727
_publ_section_title
;
Structure prediction by ZEFSAII (Michael W. Deem and Ramdas Pophale) SiO2 
 PCOD9199727
Probable space group: C 2/M
;
_chemical_formula_sum "Si O2"
_cell_formula_units_Z 48
_cell_length_a 10.388081
_cell_length_b 20.331392
_cell_length_c 11.242912
_cell_angle_alpha 90.000000
_cell_angle_beta 57.733708
_cell_angle_gamma 90.000000
_cell_volume 2007.862315
_symmetry_space_group_name_H-M "C 2/M"
_symmetry_group_IT_number 12
_symmetry_cell_setting 'monoclinic'
loop_
_space_group_symop_operation_xyz
x,y,z
-x,y,-z
-x,-y,-z
x,-y,z
1/2+x,1/2+y,z
1/2-x,1/2+y,-z
1/2-x,1/2-y,-z
1/2+x,1/2-y,z
loop_
_atom_site_type_symbol
_atom_site_label
_atom_site_fract_x
_atom_site_fract_y
_atom_site_fract_z
Si Si1 0.829993 0.198672 0.094782
Si Si2 0.341453 0.740466 0.618601
Si Si3 0.939768 0.573376 0.201747
Si Si4 0.408816 0.575806 0.233575
Si Si5 0.808591 0.361256 0.476100
Si Si6 0.259568 0.887199 0.069219
O O1 0.712454 0.245141 0.222574
O O2 0.860499 0.130908 0.158451
O O3 0.765340 0.176610 0.000470
O O4 0.000000 0.228353 0.000000
O O5 0.500000 0.708812 0.500000
O O6 0.225881 0.695177 0.604731
O O7 0.349668 0.813876 0.563042
O O8 0.877847 0.500000 0.221228
O O9 0.926689 0.594822 0.345258
O O10 0.835954 0.615498 0.161598
O O11 0.111245 0.574997 0.069858
O O12 0.371924 0.500000 0.218907
O O13 0.325395 0.595282 0.399045
O O14 0.591174 0.582229 0.159682
#
# Coordination Sequence:
#
# PCOD9199727 Si02
#       6
#     8   8   8   8   8   8
#     4   9  20  39  61  87 116 146 192 238 284 337
#     4  10  21  41  62  80 112 152 194 244 286 325
#     4  11  22  37  57  85 121 155 186 228 284 349
#     4  10  20  36  61  89 116 149 188 234 286 341
#     4  10  23  39  58  86 113 150 196 237 284 337
#     4  10  21  37  58  85 120 153 184 227 285 343
#
# _framework density 23.906020999999999
#
# number of rings (size 3 to 8) (size 9 to 14) (size 15 to 20)
#    0.000    2.000    0.000    3.500    2.333    4.333 
#    3.000    2.500    0.000    5.500    0.000    0.000 
#    0.000    0.000    0.000    0.000    0.000    0.000 
#
# Total GULP energy -133882.616434 kJ/mol
# GULP energy per Si atom -5578.442351 kJ/mol
# Density = 2.385161 g / cm^3
# Si number density = 23.906021 Si / 1000 Ang^3
#
#
#
# Elastic Constant Matrix: (Units=GPa)
#
#
# Indices 1 2 3 4 5 6 
#
# 1 41.4196 15.0943 16.9410 0.0000 4.3123 0.0000
# 2 15.0943 81.7638 42.6133 0.0000 0.8172 0.0000
# 3 16.9410 42.6133 165.9126 0.0000 13.9852 0.0000
# 4 0.0000 0.0000 0.0000 16.5902 0.0000 9.4247
# 5 4.3123 0.8172 13.9852 0.0000 26.3265 0.0000
# 6 0.0000 0.0000 0.0000 9.4247 0.0000 30.9924
#
#
#
# Elastic Compliance Matrix: (Units=1/GPa)
#
#
# Indices 1 2 3 4 5 6 
#
# 1 0.026579 -0.004169 -0.001347 0.000000 -0.003508 0.000000
# 2 -0.004169 0.014836 -0.003563 0.000000 0.002115 0.000000
# 3 -0.001347 -0.003563 0.007383 0.000000 -0.003591 0.000000
# 4 0.000000 0.000000 0.000000 0.072864 0.000000 -0.022158
# 5 -0.003508 0.002115 -0.003591 0.000000 0.040401 0.000000
# 6 0.000000 0.000000 0.000000 -0.022158 0.000000 0.039004
#
#
# Mechanical properties :
#
#
# Convention : Reuss Voigt Hill
#
# Bulk Modulus (GPa) = 32.63932 48.71035 40.67484
# Shear Modulus (GPa) = 21.79230 29.07831 25.43531
#
# Velocity S-wave (km/s) = 3.02252 3.49142 3.26540
# Velocity P-wave (km/s) = 5.08563 6.05585 5.59182
#
# Compressibility (1/GPa) = 0.03063789
#
# Stress axis : x y z
#
# Youngs Moduli (GPa) = 37.62380 67.40408 135.45314
#
# Poissons Ratio (x) = 0.28104 0.18249
# Poissons Ratio (y) = 0.15687 0.48262
# Poissons Ratio (z) = 0.05069 0.24016
#
# Static dielectric constant tensor:
#      x y z
#    x 1.978790 0.000000 -0.053570 
#    y 0.000000 1.936450 0.000000 
#    z -0.053570 0.000000 1.987130 
# 
# From -- ./inp_files/135190.got.cif
#   From: 2010.05.17/outbox.cif.g08.bks.cpg/sg12_68_cif.got.tgz:135190.got - 2010.06.03 13:09:07.
