data_PCOD9199728
_publ_section_title
;
Structure prediction by ZEFSAII (Michael W. Deem and Ramdas Pophale) SiO2 
 PCOD9199728
Probable space group: C 2/M
;
_chemical_formula_sum "Si O2"
_cell_formula_units_Z 48
_cell_length_a 30.091778
_cell_length_b 8.793796
_cell_length_c 10.368236
_cell_angle_alpha 90.000000
_cell_angle_beta 99.353434
_cell_angle_gamma 90.000000
_cell_volume 2707.174508
_symmetry_space_group_name_H-M "C 2/M"
_symmetry_group_IT_number 12
_symmetry_cell_setting 'monoclinic'
loop_
_space_group_symop_operation_xyz
x,y,z
-x,y,-z
-x,-y,-z
x,-y,z
1/2+x,1/2+y,z
1/2-x,1/2+y,-z
1/2-x,1/2-y,-z
1/2+x,1/2-y,z
loop_
_atom_site_type_symbol
_atom_site_label
_atom_site_fract_x
_atom_site_fract_y
_atom_site_fract_z
Si Si1 0.138292 0.180292 0.666733
Si Si2 0.724098 0.818774 0.110558
Si Si3 0.962574 0.318019 0.089185
Si Si4 0.465261 0.683513 0.371163
Si Si5 0.635215 0.680328 0.971273
Si Si6 0.227917 0.680802 0.616787
O O1 0.086351 0.222431 0.616118
O O2 0.145337 0.204767 0.823574
O O3 0.175750 0.271224 0.606974
O O4 0.143842 0.000000 0.644848
O O5 0.746359 0.750636 0.248453
O O6 0.728450 0.000000 0.112255
O O7 0.750000 0.750000 0.000000
O O8 0.672382 0.768131 0.070802
O O9 0.956964 0.500000 0.090872
O O10 0.975323 0.258755 0.237902
O O11 0.915091 0.240700 0.031501
O O12 0.000000 0.280808 0.000000
O O13 0.500000 0.725602 0.500000
O O14 0.466575 0.500000 0.355041
O O15 0.637793 0.500000 0.996543
O O16 0.232008 0.500000 0.619017
O O17 0.250000 0.750000 0.500000
#
# Coordination Sequence:
#
# PCOD9199728 Si02
#       6
#     8   8   8   8   8   8
#     4   9  18  35  59  84 115 149 192 241 289 347
#     4  12  23  38  62  90 119 152 195 241 286 347
#     4  10  21  37  57  84 120 156 190 239 293 343
#     4   9  19  37  61  86 112 148 194 241 286 345
#     4  10  20  36  61  89 116 152 196 241 289 343
#     4  12  25  41  60  84 118 158 196 240 296 348
#
# _framework density 17.730663
#
# number of rings (size 3 to 8) (size 9 to 14) (size 15 to 20)
#    0.000    1.667    1.667    5.000    0.000    4.333 
#    3.000    0.000    0.000    0.000    0.000    0.000 
#    0.000    0.000    0.000    0.000    0.000    0.000 
#
# Total GULP energy -134081.706288 kJ/mol
# GULP energy per Si atom -5586.737762 kJ/mol
# Density = 1.769031 g / cm^3
# Si number density = 17.730663 Si / 1000 Ang^3
#
#
#
# Elastic Constant Matrix: (Units=GPa)
#
#
# Indices 1 2 3 4 5 6 
#
# 1 130.9024 73.2040 87.4806 0.0000 -4.1912 0.0000
# 2 73.2040 117.4002 67.7654 0.0000 -11.1727 0.0000
# 3 87.4806 67.7654 124.5106 0.0000 -1.7309 0.0000
# 4 0.0000 0.0000 0.0000 28.4456 0.0000 -1.9379
# 5 -4.1912 -11.1727 -1.7309 0.0000 34.9719 0.0000
# 6 0.0000 0.0000 0.0000 -1.9379 0.0000 33.0336
#
#
#
# Elastic Compliance Matrix: (Units=1/GPa)
#
#
# Indices 1 2 3 4 5 6 
#
# 1 0.016313 -0.005202 -0.008632 0.000000 -0.000134 0.000000
# 2 -0.005202 0.014558 -0.004215 0.000000 0.003819 0.000000
# 3 -0.008632 -0.004215 0.016369 0.000000 -0.001571 0.000000
# 4 0.000000 0.000000 0.000000 0.035296 0.000000 0.002071
# 5 -0.000134 0.003819 -0.001571 0.000000 0.029721 0.000000
# 6 0.000000 0.000000 0.000000 0.002071 0.000000 0.030394
#
#
# Mechanical properties :
#
#
# Convention : Reuss Voigt Hill
#
# Bulk Modulus (GPa) = 89.75894 92.19037 90.97465
# Shear Modulus (GPa) = 27.40305 28.91443 28.15874
#
# Velocity S-wave (km/s) = 3.93557 4.04265 3.98947
# Velocity P-wave (km/s) = 8.44897 8.59642 8.52301
#
# Compressibility (1/GPa) = 0.01114095
#
# Stress axis : x y z
#
# Youngs Moduli (GPa) = 61.30230 68.69021 61.09270
#
# Poissons Ratio (x) = 0.35732 0.52734
# Poissons Ratio (y) = 0.31889 0.25753
# Poissons Ratio (z) = 0.52915 0.28956
#
# Static dielectric constant tensor:
#      x y z
#    x 1.609210 0.000000 0.008240 
#    y 0.000000 1.590940 0.000000 
#    z 0.008240 0.000000 1.571160 
# 
# From -- ./inp_files/108713.got.cif
#   From: 2010.05.17/outbox.cif.g08.bks.cpg/sg12_55_cif.got.tgz:108713.got - 2010.06.03 13:09:07.
