data_PCOD9199584
_publ_section_title
;
Structure prediction by ZEFSAII (Michael W. Deem and Ramdas Pophale) SiO2 
 PCOD9199584
Probable space group: C 2/M
;
_chemical_formula_sum "Si O2"
_cell_formula_units_Z 64
_cell_length_a 23.334787
_cell_length_b 15.880222
_cell_length_c 12.413416
_cell_angle_alpha 90.000000
_cell_angle_beta 133.061622
_cell_angle_gamma 90.000000
_cell_volume 3360.803716
_symmetry_space_group_name_H-M "C 2/M"
_symmetry_group_IT_number 12
_symmetry_cell_setting 'monoclinic'
loop_
_space_group_symop_operation_xyz
x,y,z
-x,y,-z
-x,-y,-z
x,-y,z
1/2+x,1/2+y,z
1/2-x,1/2+y,-z
1/2-x,1/2-y,-z
1/2+x,1/2-y,z
loop_
_atom_site_type_symbol
_atom_site_label
_atom_site_fract_x
_atom_site_fract_y
_atom_site_fract_z
Si Si1 0.480274 0.597983 0.298414
Si Si2 0.252794 0.188279 0.731463
Si Si3 0.761201 0.645208 0.144759
Si Si4 0.812723 0.097626 0.165876
Si Si5 0.895898 0.758244 0.575735
Si Si6 0.917537 0.595168 0.455101
Si Si7 0.083254 0.735908 0.144618
Si Si8 0.101483 0.908462 0.039728
O O1 0.501975 0.500000 0.350424
O O2 0.404009 0.623184 0.271284
O O3 0.547809 0.667053 0.395005
O O4 0.449851 0.600115 0.135069
O O5 0.242956 0.263416 0.806055
O O6 0.221776 0.110048 0.760168
O O7 0.192988 0.211630 0.559674
O O8 0.341479 0.186720 0.804751
O O9 0.845592 0.607148 0.279591
O O10 0.691282 0.595750 0.114942
O O11 0.738747 0.643846 0.990989
O O12 0.811515 0.000000 0.133070
O O13 0.909705 0.671018 0.529964
O O14 0.912044 0.743360 0.721563
O O15 0.912471 0.500000 0.494469
O O16 0.000000 0.602892 0.500000
O O17 0.088170 0.829959 0.100195
O O18 0.000000 0.699641 0.000000
O O19 0.086655 0.000000 0.070386
#
# Coordination Sequence:
#
# PCOD9199584 Si02
#       8
#     8   8   8   8   8   8   8   8
#     4   9  19  34  59  95 126 154 188 233 294 366
#     4  10  23  37  56  83 119 160 195 234 294 355
#     4   9  18  35  59  84 111 148 194 247 293 337
#     4  10  20  36  60  90 122 151 189 236 293 364
#     4  11  23  38  59  85 124 156 193 242 305 350
#     4  10  22  38  58  84 111 147 201 252 296 342
#     4  11  22  39  58  84 111 157 206 247 282 346
#     4   9  17  33  58  88 115 144 191 244 292 342
#
# _framework density 19.043064000000001
#
# number of rings (size 3 to 8) (size 9 to 14) (size 15 to 20)
#    0.000    2.125    1.250    2.625    3.500    2.250 
#    0.000    1.875    0.000    2.250    0.000    0.000 
#    0.000    0.000    0.000    0.000    0.000    0.000 
#
# Total GULP energy -178611.063026 kJ/mol
# GULP energy per Si atom -5581.595720 kJ/mol
# Density = 1.899972 g / cm^3
# Si number density = 19.043064 Si / 1000 Ang^3
#
#
#
# Elastic Constant Matrix: (Units=GPa)
#
#
# Indices 1 2 3 4 5 6 
#
# 1 106.0535 29.1094 62.7954 0.0000 18.9829 0.0000
# 2 29.1094 57.8964 16.3170 0.0000 10.7599 0.0000
# 3 62.7954 16.3170 96.1923 0.0000 16.7201 0.0000
# 4 0.0000 0.0000 0.0000 9.3340 0.0000 -11.9417
# 5 18.9829 10.7599 16.7201 0.0000 36.1621 0.0000
# 6 0.0000 0.0000 0.0000 -11.9417 0.0000 7.9277
#
#
#
# Elastic Compliance Matrix: (Units=1/GPa)
#
#
# Indices 1 2 3 4 5 6 
#
# 1 0.017251 -0.005358 -0.009847 0.000000 -0.002909 0.000000
# 2 -0.005358 0.020447 0.000650 0.000000 -0.003572 0.000000
# 3 -0.009847 0.000650 0.017234 0.000000 -0.002993 0.000000
# 4 0.000000 0.000000 0.000000 -0.115552 0.000000 -0.174058
# 5 -0.002909 -0.003572 -0.002993 0.000000 0.031627 0.000000
# 6 0.000000 0.000000 0.000000 -0.174058 0.000000 -0.136049
#
#
# Mechanical properties :
#
#
# Convention : Reuss Voigt Hill
#
# Bulk Modulus (GPa) = 38.72661 52.95398 45.84030
# Shear Modulus (GPa) = -39.26967 20.81279 -9.22844
#
# Velocity S-wave (km/s) = -4.54602 3.30954 -2.20377
# Velocity P-wave (km/s) = 2.67854 6.51705 4.20103
#
# Compressibility (1/GPa) = 0.02582204
#
# Stress axis : x y z
#
# Youngs Moduli (GPa) = 57.96725 48.90781 58.02419
#
# Poissons Ratio (x) = 0.26204 0.57138
# Poissons Ratio (y) = 0.31058 -0.03772
# Poissons Ratio (z) = 0.57082 -0.03180
#
# Static dielectric constant tensor:
#      x y z
#    x 1.667910 0.000000 0.014020 
#    y 0.000000 1.688430 0.000000 
#    z 0.014020 0.000000 1.655220 
# 
# From -- ./inp_files/168821.got.cif
#   From: 2010.05.17/outbox.cif.g08.bks.cpg/sg12_85_cif.got.tgz:168821.got - 2010.06.03 13:09:07.
