data_PCOD9199510
_publ_section_title
;
Structure prediction by ZEFSAII (Michael W. Deem and Ramdas Pophale) SiO2 
 PCOD9199510
Probable space group: C 2/M
;
_chemical_formula_sum "Si O2"
_cell_formula_units_Z 32
_cell_length_a 20.369461
_cell_length_b 9.824218
_cell_length_c 7.310434
_cell_angle_alpha 90.000000
_cell_angle_beta 99.490391
_cell_angle_gamma 90.000000
_cell_volume 1442.897775
_symmetry_space_group_name_H-M "C 2/M"
_symmetry_group_IT_number 12
_symmetry_cell_setting 'monoclinic'
loop_
_space_group_symop_operation_xyz
x,y,z
-x,y,-z
-x,-y,-z
x,-y,z
1/2+x,1/2+y,z
1/2-x,1/2+y,-z
1/2-x,1/2-y,-z
1/2+x,1/2-y,z
loop_
_atom_site_type_symbol
_atom_site_label
_atom_site_fract_x
_atom_site_fract_y
_atom_site_fract_z
Si Si1 0.823531 0.500000 0.809181
Si Si2 0.392138 0.500000 0.355886
Si Si3 0.035443 0.000000 0.227613
Si Si4 0.500000 0.748131 0.000000
Si Si5 0.333514 0.000000 0.370901
Si Si6 0.223083 0.221651 0.694200
Si Si7 0.441422 0.000000 0.156620
O O1 0.833822 0.500000 0.591879
O O2 0.779946 0.635861 0.820230
O O3 0.887787 0.500000 0.964854
O O4 0.456767 0.500000 0.253120
O O5 0.421977 0.500000 0.572020
O O6 0.343080 0.629287 0.320871
O O7 0.048490 0.861705 0.119552
O O8 0.522172 0.856025 0.856424
O O9 0.297752 0.871683 0.263225
O O10 0.408432 0.000000 0.337377
O O11 0.250000 0.250000 0.500000
#
# Coordination Sequence:
#
# PCOD9199510 Si02
#       7
#     4   4   4   4   4   8   4
#     4   9  21  38  59  86 121 164 192 243 311 354
#     4  10  20  37  65  89 116 159 208 240 302 365
#     4  10  22  40  62  86 116 163 203 254 295 348
#     4  10  24  42  54  86 120 154 204 256 296 350
#     4  10  20  36  60  88 121 155 197 241 294 366
#     4   9  19  36  59  91 124 152 198 249 295 369
#     4  11  23  41  60  84 126 156 199 255 303 357
#
# _framework density 22.177592000000001
#
# number of rings (size 3 to 8) (size 9 to 14) (size 15 to 20)
#    0.000    2.250    0.000    2.250    7.000    1.000 
#    0.000    1.250    0.000    0.000    0.000    0.000 
#    0.000    0.000    0.000    0.000    0.000    0.000 
#
# Total GULP energy -89181.258120 kJ/mol
# GULP energy per Si atom -5573.828633 kJ/mol
# Density = 2.212712 g / cm^3
# Si number density = 22.177592 Si / 1000 Ang^3
#
#
#
# Elastic Constant Matrix: (Units=GPa)
#
#
# Indices 1 2 3 4 5 6 
#
# 1 41.8405 26.9849 -9.1820 0.0000 -7.5069 0.0000
# 2 26.9849 208.7571 7.3053 0.0000 2.0087 0.0000
# 3 -9.1820 7.3053 62.3221 0.0000 2.3172 0.0000
# 4 0.0000 0.0000 0.0000 15.1443 0.0000 5.2364
# 5 -7.5069 2.0087 2.3172 0.0000 31.9281 0.0000
# 6 0.0000 0.0000 0.0000 5.2364 0.0000 22.2542
#
#
#
# Elastic Compliance Matrix: (Units=1/GPa)
#
#
# Indices 1 2 3 4 5 6 
#
# 1 0.028588 -0.003914 0.004424 0.000000 0.006647 0.000000
# 2 -0.003914 0.005348 -0.001160 0.000000 -0.001173 0.000000
# 3 0.004424 -0.001160 0.016837 0.000000 -0.000109 0.000000
# 4 0.000000 0.000000 0.000000 0.071880 0.000000 -0.016913
# 5 0.006647 -0.001173 -0.000109 0.000000 0.032965 0.000000
# 6 0.000000 0.000000 0.000000 -0.016913 0.000000 0.048915
#
#
# Mechanical properties :
#
#
# Convention : Reuss Voigt Hill
#
# Bulk Modulus (GPa) = 20.21329 40.34846 30.28088
# Shear Modulus (GPa) = 22.48961 33.05275 27.77118
#
# Velocity S-wave (km/s) = 3.18790 3.86471 3.54251
# Velocity P-wave (km/s) = 4.76281 6.17637 5.51506
#
# Compressibility (1/GPa) = 0.04947239
#
# Stress axis : x y z
#
# Youngs Moduli (GPa) = 34.97969 186.98244 59.39154
#
# Poissons Ratio (x) = 0.73188 -0.26272
# Poissons Ratio (y) = 0.13692 0.06889
# Poissons Ratio (z) = -0.15474 0.21689
#
# Static dielectric constant tensor:
#      x y z
#    x 1.897650 0.000000 -0.041280 
#    y 0.000000 1.822880 0.000000 
#    z -0.041280 0.000000 1.798760 
# 
# From -- ./inp_files/81763.got.cif
#   From: 2010.05.17/outbox.cif.g08.bks.cpg/sg12_41_cif.got.tgz:81763.got - 2010.06.03 13:09:07.
