data_PCOD9199640
_publ_section_title
;
Structure prediction by ZEFSAII (Michael W. Deem and Ramdas Pophale) SiO2 
 PCOD9199640
Probable space group: C 2/M
;
_chemical_formula_sum "Si O2"
_cell_formula_units_Z 56
_cell_length_a 15.719886
_cell_length_b 27.440518
_cell_length_c 5.507353
_cell_angle_alpha 90.000000
_cell_angle_beta 98.947645
_cell_angle_gamma 90.000000
_cell_volume 2346.752054
_symmetry_space_group_name_H-M "C 2/M"
_symmetry_group_IT_number 12
_symmetry_cell_setting 'monoclinic'
loop_
_space_group_symop_operation_xyz
x,y,z
-x,y,-z
-x,-y,-z
x,-y,z
1/2+x,1/2+y,z
1/2-x,1/2+y,-z
1/2-x,1/2-y,-z
1/2+x,1/2-y,z
loop_
_atom_site_type_symbol
_atom_site_label
_atom_site_fract_x
_atom_site_fract_y
_atom_site_fract_z
Si Si1 0.675179 0.124446 0.604506
Si Si2 0.702860 0.948865 0.253110
Si Si3 0.900731 0.777698 0.932219
Si Si4 0.905523 0.055434 0.316830
Si Si5 0.105967 0.268455 0.568944
Si Si6 0.877453 0.109554 0.807561
Si Si7 0.562417 0.054299 0.817671
O O1 0.683154 0.105377 0.334655
O O2 0.650414 0.179693 0.637973
O O3 0.771464 0.109838 0.745564
O O4 0.589920 0.092989 0.634434
O O5 0.803224 0.951067 0.285559
O O6 0.675830 0.000000 0.379155
O O7 0.654853 0.952316 0.981901
O O8 0.868368 0.766395 0.191430
O O9 0.862858 0.749500 0.682763
O O10 0.899398 0.833798 0.849504
O O11 0.000000 0.762119 0.000000
O O12 0.918800 0.084052 0.582735
O O13 0.939913 0.000000 0.309131
O O14 0.912489 0.083962 0.066396
O O15 0.000000 0.271711 0.500000
O O16 0.530404 0.000000 0.743925
O O17 0.500000 0.073378 0.000000
#
# Coordination Sequence:
#
# PCOD9199640 Si02
#       7
#     8   8   8   8   8   8   8
#     4  11  23  34  56  85 117 150 207 248 300 334
#     4   9  19  34  51  76 117 158 195 236 284 345
#     4  10  23  45  64  87 114 154 198 240 306 373
#     4  10  20  36  60  93 125 155 192 233 285 350
#     4  10  24  40  62  85 118 155 197 252 302 350
#     4  11  22  38  65  90 119 158 196 241 294 350
#     4  10  21  34  51  77 115 162 204 241 286 346
#
# _framework density 23.862769
#
# number of rings (size 3 to 8) (size 9 to 14) (size 15 to 20)
#    0.000    1.857    1.429    1.714    4.000    2.857 
#    0.000    2.143    0.000    2.571    0.000    0.000 
#    0.000    0.000    0.000    0.000    0.000    0.000 
#
# Total GULP energy -155874.386523 kJ/mol
# GULP energy per Si atom -5566.942376 kJ/mol
# Density = 2.380846 g / cm^3
# Si number density = 23.862769 Si / 1000 Ang^3
#
#
#
# Elastic Constant Matrix: (Units=GPa)
#
#
# Indices 1 2 3 4 5 6 
#
# 1 38.9190 -3.3794 38.8427 0.0000 10.1537 0.0000
# 2 -3.3794 86.7979 36.1773 0.0000 -11.3217 0.0000
# 3 38.8427 36.1773 137.2758 0.0000 5.4796 0.0000
# 4 0.0000 0.0000 0.0000 22.0799 0.0000 -8.2366
# 5 10.1537 -11.3217 5.4796 0.0000 32.5060 0.0000
# 6 0.0000 0.0000 0.0000 -8.2366 0.0000 33.8091
#
#
#
# Elastic Compliance Matrix: (Units=1/GPa)
#
#
# Indices 1 2 3 4 5 6 
#
# 1 0.041337 0.005847 -0.012890 0.000000 -0.008703 0.000000
# 2 0.005847 0.014674 -0.005691 0.000000 0.004244 0.000000
# 3 -0.012890 -0.005691 0.012434 0.000000 -0.000052 0.000000
# 4 0.000000 0.000000 0.000000 0.049818 0.000000 0.012137
# 5 -0.008703 0.004244 -0.000052 0.000000 0.034969 0.000000
# 6 0.000000 0.000000 0.000000 0.012137 0.000000 0.032535
#
#
# Mechanical properties :
#
#
# Convention : Reuss Voigt Hill
#
# Bulk Modulus (GPa) = 23.26827 45.14153 34.20490
# Shear Modulus (GPa) = 22.16698 30.43581 26.30140
#
# Velocity S-wave (km/s) = 3.05115 3.57522 3.32353
# Velocity P-wave (km/s) = 4.71007 6.00010 5.39379
#
# Compressibility (1/GPa) = 0.04297699
#
# Stress axis : x y z
#
# Youngs Moduli (GPa) = 24.19112 68.14672 80.42622
#
# Poissons Ratio (x) = -0.39844 1.03670
# Poissons Ratio (y) = -0.14144 0.45770
# Poissons Ratio (z) = 0.31183 0.38782
#
# Static dielectric constant tensor:
#      x y z
#    x 1.964760 0.000000 0.014890 
#    y 0.000000 1.980930 0.000000 
#    z 0.014890 0.000000 2.012130 
# 
# From -- ./inp_files/21658.got.cif
#   From: 2010.05.17/outbox.cif.g08.bks.cpg/sg12_11_cif.got.tgz:21658.got - 2010.06.03 13:09:07.
