data_PCOD9199201
_publ_section_title
;
Structure prediction by ZEFSAII (Michael W. Deem and Ramdas Pophale) SiO2 
 PCOD9199201
Probable space group: C 2/M
;
_chemical_formula_sum "Si O2"
_cell_formula_units_Z 48
_cell_length_a 21.135359
_cell_length_b 25.526789
_cell_length_c 13.259900
_cell_angle_alpha 90.000000
_cell_angle_beta 21.650084
_cell_angle_gamma 90.000000
_cell_volume 2639.358991
_symmetry_space_group_name_H-M "C 2/M"
_symmetry_group_IT_number 12
_symmetry_cell_setting 'monoclinic'
loop_
_space_group_symop_operation_xyz
x,y,z
-x,y,-z
-x,-y,-z
x,-y,z
1/2+x,1/2+y,z
1/2-x,1/2+y,-z
1/2-x,1/2-y,-z
1/2+x,1/2-y,z
loop_
_atom_site_type_symbol
_atom_site_label
_atom_site_fract_x
_atom_site_fract_y
_atom_site_fract_z
Si Si1 0.453194 0.940837 0.336292
Si Si2 0.108625 0.060366 0.735323
Si Si3 0.665581 0.439011 0.186710
Si Si4 0.440356 0.637158 0.830081
Si Si5 0.453669 0.262027 0.686743
Si Si6 0.883124 0.341347 0.573993
O O1 0.311209 0.937104 0.459638
O O2 0.404122 0.895267 0.485102
O O3 0.433477 0.000000 0.407991
O O4 0.655978 0.933741 0.016425
O O5 0.061999 0.100098 0.715616
O O6 0.065702 0.000000 0.771756
O O7 0.000000 0.071428 0.000000
O O8 0.500000 0.427273 0.500000
O O9 0.653507 0.500000 0.172732
O O10 0.660953 0.400586 0.098112
O O11 0.507975 0.685613 0.664517
O O12 0.309447 0.662994 0.102847
O O13 0.500000 0.268557 0.500000
O O14 0.552318 0.210224 0.578745
O O15 0.250000 0.250000 0.000000
O O16 0.000000 0.343873 0.500000
#
# Coordination Sequence:
#
# PCOD9199201 Si02
#       6
#     8   8   8   8   8   8
#     4  10  20  36  59  87 123 155 190 248 300 354
#     4  10  21  36  59  91 124 159 197 241 306 368
#     4  10  21  36  57  88 120 153 197 246 300 363
#     4  12  21  36  60  87 119 160 197 254 300 360
#     4  11  21  37  58  87 120 157 202 255 308 356
#     4  11  20  34  56  89 118 148 199 249 301 360
#
# _framework density 18.186233999999999
#
# number of rings (size 3 to 8) (size 9 to 14) (size 15 to 20)
#    0.000    1.333    6.667    1.000    0.000    1.000 
#    0.000    1.667    0.000    4.000    0.000    0.000 
#    0.000    0.000    0.000    0.000    0.000    0.000 
#
# Total GULP energy -133777.217800 kJ/mol
# GULP energy per Si atom -5574.050742 kJ/mol
# Density = 1.814484 g / cm^3
# Si number density = 18.186234 Si / 1000 Ang^3
#
#
#
# Elastic Constant Matrix: (Units=GPa)
#
#
# Indices 1 2 3 4 5 6 
#
# 1 69.8138 64.3254 33.6876 0.0225 -14.4607 -0.0048
# 2 64.3254 133.8884 38.0688 -0.0353 -2.4491 0.0265
# 3 33.6876 38.0688 94.8090 0.0118 -4.0693 0.0005
# 4 0.0225 -0.0353 0.0118 16.4376 -0.0271 8.5809
# 5 -14.4607 -2.4491 -4.0693 -0.0271 24.4006 0.0092
# 6 -0.0048 0.0265 0.0005 8.5809 0.0092 31.6934
#
#
#
# Elastic Compliance Matrix: (Units=1/GPa)
#
#
# Indices 1 2 3 4 5 6 
#
# 1 0.033941 -0.014415 -0.005510 -0.000059 0.017749 0.000028
# 2 -0.014415 0.014556 -0.001034 0.000054 -0.007254 -0.000027
# 3 -0.005510 -0.001034 0.012868 -0.000007 -0.001223 0.000002
# 4 -0.000059 0.000054 -0.000007 0.070850 0.000055 -0.019183
# 5 0.017749 -0.007254 -0.001223 0.000055 0.050569 -0.000021
# 6 0.000028 -0.000027 0.000002 -0.019183 -0.000021 0.036746
#
#
# Mechanical properties :
#
#
# Convention : Reuss Voigt Hill
#
# Bulk Modulus (GPa) = 51.42321 63.40832 57.41576
# Shear Modulus (GPa) = 18.66151 25.33494 21.99822
#
# Velocity S-wave (km/s) = 3.20681 3.73645 3.48172
# Velocity P-wave (km/s) = 6.48450 7.31824 6.91395
#
# Compressibility (1/GPa) = 0.01944647
#
# Stress axis : x y z
#
# Youngs Moduli (GPa) = 29.46279 68.70050 77.71221
#
# Poissons Ratio (x) = 0.99034 0.42819
# Poissons Ratio (y) = 0.42472 0.08035
# Poissons Ratio (z) = 0.16234 0.07103
#
# Static dielectric constant tensor:
#      x y z
#    x 1.608440 -0.000010 -0.003880 
#    y -0.000010 1.650160 0.000020 
#    z -0.003880 0.000020 1.661620 
# 
# From -- ./inp_files/242025.got.cif
#   From: 2010.05.17/outbox.cif.g08.bks.cpg/sg12_122_cif.got.tgz:242025.got - 2010.06.03 13:09:07.
