data_PCOD9199199
_publ_section_title
;
Structure prediction by ZEFSAII (Michael W. Deem and Ramdas Pophale) SiO2 
 PCOD9199199
Probable space group: C 2/M
;
_chemical_formula_sum "Si O2"
_cell_formula_units_Z 56
_cell_length_a 20.851057
_cell_length_b 8.387657
_cell_length_c 20.610208
_cell_angle_alpha 90.000000
_cell_angle_beta 50.180713
_cell_angle_gamma 90.000000
_cell_volume 2768.539901
_symmetry_space_group_name_H-M "C 2/M"
_symmetry_group_IT_number 12
_symmetry_cell_setting 'monoclinic'
loop_
_space_group_symop_operation_xyz
x,y,z
-x,y,-z
-x,-y,-z
x,-y,z
1/2+x,1/2+y,z
1/2-x,1/2+y,-z
1/2-x,1/2-y,-z
1/2+x,1/2-y,z
loop_
_atom_site_type_symbol
_atom_site_label
_atom_site_fract_x
_atom_site_fract_y
_atom_site_fract_z
Si Si1 0.594721 0.312909 0.383694
Si Si2 0.587678 0.184629 0.518419
Si Si3 0.375233 0.813755 0.770875
Si Si4 0.973405 0.691913 0.230153
Si Si5 0.666630 0.318779 0.588041
Si Si6 0.471205 0.189481 0.948044
Si Si7 0.209148 0.816136 0.961542
O O1 0.579752 0.500000 0.404385
O O2 0.635425 0.240767 0.422474
O O3 0.509587 0.213199 0.430973
O O4 0.634903 0.285479 0.288231
O O5 0.605263 0.298737 0.566916
O O6 0.604427 0.000000 0.522915
O O7 0.449430 0.757548 0.771934
O O8 0.285662 0.809478 0.862488
O O9 0.394564 0.000000 0.742778
O O10 0.978150 0.500000 0.225592
O O11 0.884664 0.738265 0.319940
O O12 0.987842 0.750313 0.146580
O O13 0.682742 0.500000 0.595584
O O14 0.750000 0.250000 0.500000
O O15 0.488121 0.000000 0.937952
O O16 0.500000 0.254399 0.000000
O O17 0.372526 0.219121 0.005045
O O18 0.183637 0.000000 0.986632
O O19 0.250000 0.750000 0.000000
#
# Coordination Sequence:
#
# PCOD9199199 Si02
#       7
#     8   8   8   8   8   8   8
#     4  11  21  34  56  87 118 153 197 246 298 365
#     4  11  21  37  59  83 116 156 193 244 307 362
#     4  10  20  36  59  87 122 161 202 255 318 375
#     4  10  20  39  65  90 121 162 208 258 320 381
#     4  12  25  42  63  89 119 159 211 260 311 372
#     4  10  22  43  68  94 129 172 213 262 325 386
#     4  11  22  38  63  94 128 164 209 265 318 378
#
# _framework density 20.227267000000001
#
# number of rings (size 3 to 8) (size 9 to 14) (size 15 to 20)
#    0.000    1.286    2.857    5.143    0.000    2.000 
#    2.571    0.000    0.000    0.000    0.000    0.000 
#    0.000    0.000    0.000    0.000    0.000    0.000 
#
# Total GULP energy -156087.582292 kJ/mol
# GULP energy per Si atom -5574.556510 kJ/mol
# Density = 2.018123 g / cm^3
# Si number density = 20.227267 Si / 1000 Ang^3
#
#
#
# Elastic Constant Matrix: (Units=GPa)
#
#
# Indices 1 2 3 4 5 6 
#
# 1 53.6428 -11.9047 37.4950 0.0000 8.1941 0.0001
# 2 -11.9047 33.0323 21.0918 0.0003 6.8454 0.0003
# 3 37.4950 21.0918 129.6258 0.0001 14.4743 0.0000
# 4 0.0000 0.0003 0.0001 27.3966 0.0000 -3.8114
# 5 8.1941 6.8454 14.4743 0.0000 31.2449 0.0000
# 6 0.0001 0.0003 0.0000 -3.8114 0.0000 20.2055
#
#
#
# Elastic Compliance Matrix: (Units=1/GPa)
#
#
# Indices 1 2 3 4 5 6 
#
# 1 0.033030 0.021258 -0.012154 0.000000 -0.007689 -0.000001
# 2 0.021258 0.048260 -0.012864 -0.000001 -0.010189 -0.000001
# 3 -0.012154 -0.012864 0.013343 0.000000 -0.000175 0.000000
# 4 0.000000 -0.000001 0.000000 0.037485 0.000000 0.007071
# 5 -0.007689 -0.010189 -0.000175 0.000000 0.036335 0.000000
# 6 -0.000001 -0.000001 0.000000 0.007071 0.000000 0.050825
#
#
# Mechanical properties :
#
#
# Convention : Reuss Voigt Hill
#
# Bulk Modulus (GPa) = 11.47946 34.40724 22.94335
# Shear Modulus (GPa) = 19.54382 27.07732 23.31057
#
# Velocity S-wave (km/s) = 3.11177 3.66273 3.39843
# Velocity P-wave (km/s) = 4.31258 5.91056 5.17364
#
# Compressibility (1/GPa) = 0.08711212
#
# Stress axis : x y z
#
# Youngs Moduli (GPa) = 30.27585 20.72109 74.94613
#
# Poissons Ratio (x) = -0.44049 0.91092
# Poissons Ratio (y) = -0.64360 0.96409
# Poissons Ratio (z) = 0.36798 0.26655
#
# Static dielectric constant tensor:
#      x y z
#    x 1.777580 0.000000 -0.109300 
#    y 0.000000 2.385750 0.000000 
#    z -0.109300 0.000000 1.550950 
# 
# From -- ./inp_files/319672.got.cif
#   From: 2010.05.17/outbox.cif.g08.bks.cpg/sg12_160_cif.got.tgz:319672.got - 2010.06.03 13:09:07.
