data_PCOD9199279
_publ_section_title
;
Structure prediction by ZEFSAII (Michael W. Deem and Ramdas Pophale) SiO2 
 PCOD9199279
Probable space group: C 2/M
;
_chemical_formula_sum "Si O2"
_cell_formula_units_Z 64
_cell_length_a 15.802946
_cell_length_b 13.549205
_cell_length_c 22.179582
_cell_angle_alpha 90.000000
_cell_angle_beta 145.750915
_cell_angle_gamma 90.000000
_cell_volume 2672.716728
_symmetry_space_group_name_H-M "C 2/M"
_symmetry_group_IT_number 12
_symmetry_cell_setting 'monoclinic'
loop_
_space_group_symop_operation_xyz
x,y,z
-x,y,-z
-x,-y,-z
x,-y,z
1/2+x,1/2+y,z
1/2-x,1/2+y,-z
1/2-x,1/2-y,-z
1/2+x,1/2-y,z
loop_
_atom_site_type_symbol
_atom_site_label
_atom_site_fract_x
_atom_site_fract_y
_atom_site_fract_z
Si Si1 0.393257 0.620133 0.591252
Si Si2 0.684546 0.119713 0.361715
Si Si3 0.731205 0.634696 0.982443
Si Si4 0.353060 0.108764 0.181236
Si Si5 0.671777 0.617341 0.675037
Si Si6 0.515105 0.832819 0.077826
Si Si7 0.401843 0.387893 0.731871
Si Si8 0.136729 0.877682 0.160121
O O1 0.408044 0.500000 0.602639
O O2 0.248673 0.641970 0.465310
O O3 0.536448 0.657196 0.636726
O O4 0.385388 0.656248 0.655607
O O5 0.511429 0.153279 0.253030
O O6 0.794647 0.155291 0.373047
O O7 0.685355 0.000000 0.355395
O O8 0.751559 0.598063 0.062256
O O9 0.879982 0.612385 0.032135
O O10 0.750000 0.750000 0.000000
O O11 0.577185 0.612035 0.857049
O O12 0.258112 0.150325 0.180672
O O13 0.393865 0.000000 0.228157
O O14 0.641301 0.500000 0.651111
O O15 0.828102 0.633460 0.801689
O O16 0.514961 0.711434 0.080825
O O17 0.500000 0.859419 0.000000
O O18 0.353762 0.500000 0.695223
O O19 0.316274 0.358407 0.742873
O O20 0.103008 0.000000 0.134392
#
# Coordination Sequence:
#
# PCOD9199279 Si02
#       8
#     8   8   8   8   8   8   8   8
#     4   9  18  34  59  90 123 160 202 251 307 368
#     4   9  17  34  61  91 120 157 206 254 303 362
#     4  12  22  36  56  82 119 156 194 252 309 365
#     4  10  21  38  62  89 117 158 209 256 303 359
#     4  10  20  36  59  90 127 164 201 245 305 377
#     4  12  24  38  58  89 125 163 202 252 308 369
#     4  10  21  37  58  87 120 160 206 253 308 368
#     4  10  23  42  62  85 120 165 214 260 302 359
#
# _framework density 23.945672999999999
#
# number of rings (size 3 to 8) (size 9 to 14) (size 15 to 20)
#    0.000    1.750    2.500    2.250    0.000    2.500 
#    0.000    0.625    0.000   12.000    0.000    0.000 
#    0.000    0.000    0.000    0.000    0.000    0.000 
#
# Total GULP energy -178480.303154 kJ/mol
# GULP energy per Si atom -5577.509474 kJ/mol
# Density = 2.389117 g / cm^3
# Si number density = 23.945673 Si / 1000 Ang^3
#
#
#
# Elastic Constant Matrix: (Units=GPa)
#
#
# Indices 1 2 3 4 5 6 
#
# 1 173.4517 -0.7410 59.8200 0.0002 -42.8379 0.0001
# 2 -0.7410 79.5619 -21.6941 0.0001 -7.6464 0.0000
# 3 59.8200 -21.6941 107.8003 0.0003 -41.6348 0.0002
# 4 0.0002 0.0001 0.0003 31.7748 0.0001 7.0385
# 5 -42.8379 -7.6464 -41.6348 0.0001 44.4839 0.0001
# 6 0.0001 0.0000 0.0002 7.0385 0.0001 33.3569
#
#
#
# Elastic Compliance Matrix: (Units=1/GPa)
#
#
# Indices 1 2 3 4 5 6 
#
# 1 0.007902 -0.000020 -0.002273 0.000000 0.005479 0.000000
# 2 -0.000020 0.015116 0.006341 0.000000 0.008515 0.000000
# 3 -0.002273 0.006341 0.017837 0.000000 0.015596 0.000000
# 4 0.000000 0.000000 0.000000 0.033015 0.000000 -0.006966
# 5 0.005479 0.008515 0.015596 0.000000 0.043818 0.000000
# 6 0.000000 0.000000 0.000000 -0.006966 0.000000 0.031449
#
#
# Mechanical properties :
#
#
# Convention : Reuss Voigt Hill
#
# Bulk Modulus (GPa) = 20.42730 48.39818 34.41274
# Shear Modulus (GPa) = 31.77495 43.48503 37.62999
#
# Velocity S-wave (km/s) = 3.64670 4.26606 3.96848
# Velocity P-wave (km/s) = 5.12644 6.67243 5.94986
#
# Compressibility (1/GPa) = 0.04895410
#
# Stress axis : x y z
#
# Youngs Moduli (GPa) = 126.54542 66.15460 56.06186
#
# Poissons Ratio (x) = 0.00129 0.12742
# Poissons Ratio (y) = 0.00247 -0.35551
# Poissons Ratio (z) = 0.28761 -0.41952
#
# Static dielectric constant tensor:
#      x y z
#    x 1.979410 0.000000 0.003950 
#    y 0.000000 1.890700 0.000000 
#    z 0.003950 0.000000 1.862490 
# 
# From -- ./inp_files/271752.got.cif
#   From: 2010.05.17/outbox.cif.g08.bks.cpg/sg12_136_cif.got.tgz:271752.got - 2010.06.03 13:09:07.
