data_PCOD9199401
_publ_section_title
;
Structure prediction by ZEFSAII (Michael W. Deem and Ramdas Pophale) SiO2 
 PCOD9199401
Probable space group: C 2/M
;
_chemical_formula_sum "Si O2"
_cell_formula_units_Z 64
_cell_length_a 31.515042
_cell_length_b 19.361916
_cell_length_c 9.545857
_cell_angle_alpha 90.000000
_cell_angle_beta 142.858459
_cell_angle_gamma 90.000000
_cell_volume 3516.934308
_symmetry_space_group_name_H-M "C 2/M"
_symmetry_group_IT_number 12
_symmetry_cell_setting 'monoclinic'
loop_
_space_group_symop_operation_xyz
x,y,z
-x,y,-z
-x,-y,-z
x,-y,z
1/2+x,1/2+y,z
1/2-x,1/2+y,-z
1/2-x,1/2-y,-z
1/2+x,1/2-y,z
loop_
_atom_site_type_symbol
_atom_site_label
_atom_site_fract_x
_atom_site_fract_y
_atom_site_fract_z
Si Si1 0.524585 0.282620 0.712337
Si Si2 0.702459 0.197723 0.553909
Si Si3 0.066110 0.786721 0.261393
Si Si4 0.333467 0.798068 0.859003
Si Si5 0.632144 0.421850 0.314921
Si Si6 0.393593 0.578173 0.077850
Si Si7 0.746520 0.579724 0.117357
Si Si8 0.224340 0.420126 0.131650
O O1 0.500000 0.253455 0.500000
O O2 0.460425 0.285448 0.650524
O O3 0.551421 0.360861 0.762772
O O4 0.591337 0.239395 0.943778
O O5 0.637155 0.244678 0.427629
O O6 0.688426 0.179245 0.355025
O O7 0.774152 0.242456 0.748849
O O8 0.709682 0.132464 0.673481
O O9 0.081887 0.863160 0.243606
O O10 0.000000 0.757965 0.000000
O O11 0.329112 0.863288 0.950677
O O12 0.606450 0.500000 0.273696
O O13 0.706589 0.414281 0.588541
O O14 0.638838 0.413586 0.164610
O O15 0.422161 0.500000 0.160940
O O16 0.333058 0.585594 0.034611
O O17 0.767701 0.500000 0.196091
O O18 0.753969 0.594311 0.971971
O O19 0.200085 0.500000 0.075804
#
# Coordination Sequence:
#
# PCOD9199401 Si02
#       8
#     8   8   8   8   8   8   8   8
#     4  12  27  40  57  89 128 163 200 247 307 360
#     4  11  22  38  67  89 118 160 205 254 296 352
#     4  12  23  40  58  89 126 158 200 251 298 357
#     4  11  22  40  63  91 118 159 210 248 296 359
#     4  10  20  36  60  86 119 166 206 240 290 354
#     4  10  20  38  59  84 121 166 207 241 289 356
#     4  10  22  38  61  92 123 154 200 255 304 353
#     4  10  22  38  61  92 122 154 202 255 303 354
#
# _framework density 18.197666999999999
#
# number of rings (size 3 to 8) (size 9 to 14) (size 15 to 20)
#    0.000    1.250    5.000    0.750    3.500    3.000 
#    0.000    0.000    0.000    1.500    0.000    0.000 
#    0.000    0.000    0.000    0.000    0.000    0.000 
#
# Total GULP energy -178740.350108 kJ/mol
# GULP energy per Si atom -5585.635941 kJ/mol
# Density = 1.815625 g / cm^3
# Si number density = 18.197667 Si / 1000 Ang^3
#
#
#
# Elastic Constant Matrix: (Units=GPa)
#
#
# Indices 1 2 3 4 5 6 
#
# 1 116.7336 57.1536 12.2640 0.0000 -6.2953 0.0000
# 2 57.1536 67.6267 20.3960 0.0000 -12.8813 0.0000
# 3 12.2640 20.3960 43.3281 0.0000 -7.0106 0.0000
# 4 0.0000 0.0000 0.0000 15.8647 0.0000 -4.9512
# 5 -6.2953 -12.8813 -7.0106 0.0000 24.6660 0.0000
# 6 0.0000 0.0000 0.0000 -4.9512 0.0000 27.4157
#
#
#
# Elastic Compliance Matrix: (Units=1/GPa)
#
#
# Indices 1 2 3 4 5 6 
#
# 1 0.014932 -0.013690 0.001759 0.000000 -0.002839 0.000000
# 2 -0.013690 0.031028 -0.009093 0.000000 0.010125 0.000000
# 3 0.001759 -0.009093 0.027428 0.000000 0.003496 0.000000
# 4 0.000000 0.000000 0.000000 0.066798 0.000000 0.012063
# 5 -0.002839 0.010125 0.003496 0.000000 0.046098 0.000000
# 6 0.000000 0.000000 0.000000 0.012063 0.000000 0.038654
#
#
# Mechanical properties :
#
#
# Convention : Reuss Voigt Hill
#
# Bulk Modulus (GPa) = 31.90897 45.25728 38.58312
# Shear Modulus (GPa) = 18.02240 22.78093 20.40166
#
# Velocity S-wave (km/s) = 3.15043 3.54200 3.35194
# Velocity P-wave (km/s) = 5.55034 6.45380 6.01905
#
# Compressibility (1/GPa) = 0.03133915
#
# Stress axis : x y z
#
# Youngs Moduli (GPa) = 66.97250 32.22881 36.45937
#
# Poissons Ratio (x) = 0.44122 -0.06413
# Poissons Ratio (y) = 0.91687 0.33151
# Poissons Ratio (z) = -0.11779 0.29305
#
# Static dielectric constant tensor:
#      x y z
#    x 1.622680 0.000000 -0.016000 
#    y 0.000000 1.631840 0.000000 
#    z -0.016000 0.000000 1.629140 
# 
# From -- ./inp_files/99074.got.cif
#   From: 2010.05.17/outbox.cif.g08.bks.cpg/sg12_50_cif.got.tgz:99074.got - 2010.06.03 13:09:07.
