data_PCOD9199935
_publ_section_title
;
Structure prediction by ZEFSAII (Michael W. Deem and Ramdas Pophale) SiO2 
 PCOD9199935
Probable space group: C 2/M
;
_chemical_formula_sum "Si O2"
_cell_formula_units_Z 56
_cell_length_a 30.865465
_cell_length_b 8.870553
_cell_length_c 12.038977
_cell_angle_alpha 90.000000
_cell_angle_beta 63.688772
_cell_angle_gamma 90.000000
_cell_volume 2954.709248
_symmetry_space_group_name_H-M "C 2/M"
_symmetry_group_IT_number 12
_symmetry_cell_setting 'monoclinic'
loop_
_space_group_symop_operation_xyz
x,y,z
-x,y,-z
-x,-y,-z
x,-y,z
1/2+x,1/2+y,z
1/2-x,1/2+y,-z
1/2-x,1/2-y,-z
1/2+x,1/2-y,z
loop_
_atom_site_type_symbol
_atom_site_label
_atom_site_fract_x
_atom_site_fract_y
_atom_site_fract_z
Si Si1 0.364974 0.820549 0.558077
Si Si2 0.712667 0.679374 0.201572
Si Si3 0.983112 0.321098 0.799578
Si Si4 0.411380 0.679327 0.299162
Si Si5 0.812924 0.180347 0.019282
Si Si6 0.552459 0.676041 0.381727
Si Si7 0.910014 0.820743 0.041277
O O1 0.315591 0.763000 0.669058
O O2 0.374081 0.756909 0.424839
O O3 0.407976 0.752753 0.585220
O O4 0.367456 0.000000 0.555630
O O5 0.710692 0.500000 0.220162
O O6 0.767486 0.734587 0.124240
O O7 0.686960 0.715070 0.112289
O O8 0.987818 0.500000 0.787469
O O9 0.952728 0.257996 0.730003
O O10 0.035552 0.244740 0.736120
O O11 0.955079 0.270377 0.941871
O O12 0.411732 0.500000 0.318738
O O13 0.401277 0.707122 0.181011
O O14 0.862632 0.218000 0.023757
O O15 0.805176 0.000000 0.038443
O O16 0.500000 0.684149 0.500000
O O17 0.564873 0.500000 0.351242
O O18 0.919820 0.000000 0.016310
#
# Coordination Sequence:
#
# PCOD9199935 Si02
#       7
#     8   8   8   8   8   8   8
#     4  12  24  38  59  87 120 154 193 241 294 347
#     4  10  20  36  62  91 120 152 186 230 291 357
#     4  12  24  37  58  87 119 154 195 243 293 345
#     4  11  23  40  59  81 114 158 203 242 287 346
#     4   9  19  38  62  89 117 145 187 241 291 339
#     4  11  22  37  59  83 114 153 191 235 285 343
#     4  10  22  40  62  84 113 156 201 243 289 346
#
# _framework density 18.952794999999998
#
# number of rings (size 3 to 8) (size 9 to 14) (size 15 to 20)
#    0.000    1.286    1.429    5.143    0.000    5.714 
#    0.000    0.714    0.000    0.000    0.000    0.000 
#    0.000    0.000    0.000    0.000    0.000    0.000 
#
# Total GULP energy -156631.365716 kJ/mol
# GULP energy per Si atom -5593.977347 kJ/mol
# Density = 1.890966 g / cm^3
# Si number density = 18.952795 Si / 1000 Ang^3
#
#
#
# Elastic Constant Matrix: (Units=GPa)
#
#
# Indices 1 2 3 4 5 6 
#
# 1 27.2693 17.1154 18.8154 0.0000 1.8104 0.0000
# 2 17.1154 86.6299 56.7002 0.0000 -5.0838 0.0000
# 3 18.8154 56.7002 119.0488 0.0000 -9.3148 0.0000
# 4 0.0000 0.0000 0.0000 31.8560 0.0000 -5.8628
# 5 1.8104 -5.0838 -9.3148 0.0000 19.4989 0.0000
# 6 0.0000 0.0000 0.0000 -5.8628 0.0000 21.1397
#
#
#
# Elastic Compliance Matrix: (Units=1/GPa)
#
#
# Indices 1 2 3 4 5 6 
#
# 1 0.044297 -0.006144 -0.004697 0.000000 -0.007959 0.000000
# 2 -0.006144 0.017630 -0.007294 0.000000 0.001683 0.000000
# 3 -0.004697 -0.007294 0.012987 0.000000 0.004738 0.000000
# 4 0.000000 0.000000 0.000000 0.033080 0.000000 0.009174
# 5 -0.007959 0.001683 0.004738 0.000000 0.054726 0.000000
# 6 0.000000 0.000000 0.000000 0.009174 0.000000 0.049849
#
#
# Mechanical properties :
#
#
# Convention : Reuss Voigt Hill
#
# Bulk Modulus (GPa) = 25.87799 46.46777 36.17288
# Shear Modulus (GPa) = 19.10429 23.85340 21.47885
#
# Velocity S-wave (km/s) = 3.17834 3.55148 3.37008
# Velocity P-wave (km/s) = 5.21082 6.43337 5.85410
#
# Compressibility (1/GPa) = 0.03864288
#
# Stress axis : x y z
#
# Youngs Moduli (GPa) = 22.57474 56.72132 76.99963
#
# Poissons Ratio (x) = 0.34851 0.36170
# Poissons Ratio (y) = 0.13871 0.56164
# Poissons Ratio (z) = 0.10604 0.41373
#
# Static dielectric constant tensor:
#      x y z
#    x 1.632520 0.000000 0.009010 
#    y 0.000000 1.628760 0.000000 
#    z 0.009010 0.000000 1.661260 
# 
# From -- ./inp_files/187261.got.cif
#   From: 2010.05.17/outbox.cif.g08.bks.cpg/sg12_94_cif.got.tgz:187261.got - 2010.06.03 13:09:07.
