data_PCOD9199229
_publ_section_title
;
Structure prediction by ZEFSAII (Michael W. Deem and Ramdas Pophale) SiO2 
 PCOD9199229
Probable space group: C 2/M
;
_chemical_formula_sum "Si O2"
_cell_formula_units_Z 56
_cell_length_a 20.193412
_cell_length_b 32.896761
_cell_length_c 9.355687
_cell_angle_alpha 90.000000
_cell_angle_beta 153.894816
_cell_angle_gamma 90.000000
_cell_volume 2734.710515
_symmetry_space_group_name_H-M "C 2/M"
_symmetry_group_IT_number 12
_symmetry_cell_setting 'monoclinic'
loop_
_space_group_symop_operation_xyz
x,y,z
-x,y,-z
-x,-y,-z
x,-y,z
1/2+x,1/2+y,z
1/2-x,1/2+y,-z
1/2-x,1/2-y,-z
1/2+x,1/2-y,z
loop_
_atom_site_type_symbol
_atom_site_label
_atom_site_fract_x
_atom_site_fract_y
_atom_site_fract_z
Si Si1 0.346013 0.076507 0.788044
Si Si2 0.395352 0.720631 0.582574
Si Si3 0.832297 0.500000 0.599904
Si Si4 0.254392 0.303317 0.761111
Si Si5 0.326493 0.348909 0.649234
Si Si6 0.666285 0.000000 0.745178
Si Si7 0.677876 0.662677 0.813095
Si Si8 0.656488 0.077757 0.885804
O O1 0.264982 0.040872 0.539293
O O2 0.254939 0.118251 0.604140
O O3 0.500000 0.084007 0.000000
O O4 0.371287 0.064587 0.002631
O O5 0.356246 0.767580 0.498091
O O6 0.332174 0.696596 0.596399
O O7 0.318518 0.695556 0.305646
O O8 0.573953 0.713220 0.919580
O O9 0.835763 0.500000 0.432928
O O10 0.000000 0.500000 0.000000
O O11 0.246858 0.342967 0.646488
O O12 0.237074 0.317354 0.888852
O O13 0.500000 0.361426 0.000000
O O14 0.500000 0.000000 0.500000
O O15 0.732619 0.041468 0.940899
O O16 0.500000 0.657354 0.500000
O O17 0.747711 0.618753 0.921874
O O18 0.500000 0.086567 0.500000
#
# Coordination Sequence:
#
# PCOD9199229 Si02
#       8
#     8   8   4   8   8   4   8   8
#     4  11  22  38  61  89 120 153 196 240 289 344
#     4  10  20  40  54  87 110 157 191 246 291 348
#     4  10  20  36  59  88 121 152 190 236 292 342
#     4  10  22  34  62  79 120 147 199 238 297 342
#     4  10  22  39  59  84 118 159 194 239 294 347
#     4  10  20  36  59  88 121 152 190 236 292 342
#     4  10  22  39  59  84 118 159 194 239 294 347
#     4  11  22  38  61  89 120 153 196 240 289 344
#
# _framework density 20.477485999999999
#
# number of rings (size 3 to 8) (size 9 to 14) (size 15 to 20)
#    0.000    1.714    1.429    4.714    4.000    2.286 
#    0.000    0.714    0.000    0.000    0.000    0.000 
#    0.000    0.000    0.000    0.000    0.000    0.000 
#
# Total GULP energy -156181.206013 kJ/mol
# GULP energy per Si atom -5577.900215 kJ/mol
# Density = 2.043088 g / cm^3
# Si number density = 20.477486 Si / 1000 Ang^3
#
#
#
# Elastic Constant Matrix: (Units=GPa)
#
#
# Indices 1 2 3 4 5 6 
#
# 1 82.6795 18.0901 32.6575 0.0000 -41.8712 0.0000
# 2 18.0901 82.4133 23.6527 0.0000 -4.9238 0.0000
# 3 32.6575 23.6527 46.7513 0.0000 -31.6822 0.0000
# 4 0.0000 0.0000 0.0000 31.8869 0.0000 -4.8896
# 5 -41.8712 -4.9238 -31.6822 0.0000 35.3142 0.0000
# 6 0.0000 0.0000 0.0000 -4.8896 0.0000 22.1529
#
#
#
# Elastic Compliance Matrix: (Units=1/GPa)
#
#
# Indices 1 2 3 4 5 6 
#
# 1 0.037315 -0.010552 0.021067 0.000000 0.061673 0.000000
# 2 -0.010552 0.019234 -0.023012 0.000000 -0.030475 0.000000
# 3 0.021067 -0.023012 0.084355 0.000000 0.097449 0.000000
# 4 0.000000 0.000000 0.000000 0.032459 0.000000 0.007164
# 5 0.061673 -0.030475 0.097449 0.000000 0.184618 0.000000
# 6 0.000000 0.000000 0.000000 0.007164 0.000000 0.046722
#
#
# Mechanical properties :
#
#
# Convention : Reuss Voigt Hill
#
# Bulk Modulus (GPa) = 8.62748 40.07164 24.34956
# Shear Modulus (GPa) = 10.67608 27.03373 18.85491
#
# Velocity S-wave (km/s) = 2.28580 3.63735 3.03770
# Velocity P-wave (km/s) = 3.34497 6.10341 4.92140
#
# Compressibility (1/GPa) = 0.11590864
#
# Stress axis : x y z
#
# Youngs Moduli (GPa) = 26.79854 51.99127 11.85466
#
# Poissons Ratio (x) = 0.54863 -0.24974
# Poissons Ratio (y) = 0.28279 0.27280
# Poissons Ratio (z) = -0.56455 1.19643
#
# Static dielectric constant tensor:
#      x y z
#    x 1.761910 0.000000 -0.029170 
#    y 0.000000 1.755640 0.000000 
#    z -0.029170 0.000000 1.744840 
# 
# From -- ./inp_files/91695.got.cif
#   From: 2010.05.17/outbox.cif.g08.bks.cpg/sg12_46_cif.got.tgz:91695.got - 2010.06.03 13:09:07.
