data_PCOD9199922
_publ_section_title
;
Structure prediction by ZEFSAII (Michael W. Deem and Ramdas Pophale) SiO2 
 PCOD9199922
Probable space group: C 2/M
;
_chemical_formula_sum "Si O2"
_cell_formula_units_Z 46
_cell_length_a 20.051283
_cell_length_b 12.411825
_cell_length_c 15.775781
_cell_angle_alpha 90.000000
_cell_angle_beta 139.848207
_cell_angle_gamma 90.000000
_cell_volume 2531.650160
_symmetry_space_group_name_H-M "C 2/M"
_symmetry_group_IT_number 12
_symmetry_cell_setting 'monoclinic'
loop_
_space_group_symop_operation_xyz
x,y,z
-x,y,-z
-x,-y,-z
x,-y,z
1/2+x,1/2+y,z
1/2-x,1/2+y,-z
1/2-x,1/2-y,-z
1/2+x,1/2-y,z
loop_
_atom_site_type_symbol
_atom_site_label
_atom_site_fract_x
_atom_site_fract_y
_atom_site_fract_z
Si Si1 0.037282 0.500000 0.740962
Si Si2 0.748002 0.500000 0.264848
Si Si3 0.780884 0.000000 0.959875
Si Si4 0.078217 0.121150 0.784947
Si Si5 0.751704 0.779094 0.643002
Si Si6 0.878972 0.127866 0.359624
Si Si7 0.000000 0.500000 0.500000
Si Si8 0.088653 0.704099 0.332602
O O1 0.008289 0.500000 0.613183
O O2 0.986627 0.603105 0.735625
O O3 0.160821 0.500000 0.866713
O O4 0.707796 0.500000 0.129628
O O5 0.716462 0.390830 0.282199
O O6 0.872937 0.500000 0.382468
O O7 0.838801 0.100913 0.060584
O O8 0.129914 0.160075 0.747850
O O9 0.983184 0.193227 0.719410
O O10 0.038562 0.000000 0.725353
O O11 0.692077 0.702091 0.651010
O O12 0.847428 0.719923 0.691212
O O13 0.671082 0.805529 0.489130
O O14 0.000000 0.145751 0.500000
O O15 0.856502 0.000000 0.348211
#
# Coordination Sequence:
#
# PCOD9199922 Si02
#       8
#     4   4   4   8   8   8   2   8
#     4  11  23  40  61  96 121 165 205 266 319 363
#     4  11  23  41  62  92 124 159 217 253 318 368
#     4   9  24  42  67  91 121 168 214 268 295 370
#     4   9  21  42  62  92 120 165 213 256 301 365
#     4  11  24  37  63  96 127 168 196 263 321 378
#     4  10  20  36  62  92 121 160 207 260 310 365
#     4  10  20  36  62  90 124 148 200 272 300 358
#     4  11  23  39  63  91 135 159 204 256 322 380
#
# _framework density 18.169965999999999
#
# number of rings (size 3 to 8) (size 9 to 14) (size 15 to 20)
#    0.522    1.217    3.478    0.000    8.522    0.696 
#    0.000    1.739    0.000    1.043    0.000    0.000 
#    0.000    0.000    0.000    0.000    0.000    0.000 
#
# Total GULP energy -128066.862543 kJ/mol
# GULP energy per Si atom -5568.124458 kJ/mol
# Density = 1.812861 g / cm^3
# Si number density = 18.169966 Si / 1000 Ang^3
#
#
#
# Elastic Constant Matrix: (Units=GPa)
#
#
# Indices 1 2 3 4 5 6 
#
# 1 140.7148 59.7210 30.6337 0.0000 -8.7732 0.0000
# 2 59.7210 70.2797 14.1022 0.0000 1.9108 0.0000
# 3 30.6337 14.1022 69.3975 0.0000 -26.4404 0.0000
# 4 0.0000 0.0000 0.0000 31.7179 0.0000 -2.3609
# 5 -8.7732 1.9108 -26.4404 0.0000 22.2732 0.0000
# 6 0.0000 0.0000 0.0000 -2.3609 0.0000 -5.7919
#
#
#
# Elastic Compliance Matrix: (Units=1/GPa)
#
#
# Indices 1 2 3 4 5 6 
#
# 1 0.011903 -0.009770 -0.002124 0.000000 0.003005 0.000000
# 2 -0.009770 0.023876 -0.005086 0.000000 -0.011934 0.000000
# 3 -0.002124 -0.005086 0.029629 0.000000 0.034772 0.000000
# 4 0.000000 0.000000 0.000000 0.030600 0.000000 -0.012473
# 5 0.003005 -0.011934 0.034772 0.000000 0.088382 0.000000
# 6 0.000000 0.000000 0.000000 -0.012473 0.000000 -0.167570
#
#
# Mechanical properties :
#
#
# Convention : Reuss Voigt Hill
#
# Bulk Modulus (GPa) = 31.79839 54.36731 43.08285
# Shear Modulus (GPa) = 81.61563 21.36885 51.49224
#
# Velocity S-wave (km/s) = 6.70935 3.43308 5.32923
# Velocity P-wave (km/s) = 8.80676 6.76027 7.85049
#
# Compressibility (1/GPa) = 0.03144813
#
# Stress axis : x y z
#
# Youngs Moduli (GPa) = 84.01336 41.88272 33.75086
#
# Poissons Ratio (x) = 0.40920 0.07168
# Poissons Ratio (y) = 0.82082 0.17166
# Poissons Ratio (z) = 0.17842 0.21302
#
# Static dielectric constant tensor:
#      x y z
#    x 1.602680 0.000000 -0.021030 
#    y 0.000000 1.534400 0.000000 
#    z -0.021030 0.000000 1.611600 
# 
# From -- ./inp_files/283050.got.cif
#   From: 2010.05.17/outbox.cif.g08.bks.cpg/sg12_142_cif.got.tgz:283050.got - 2010.06.03 13:09:07.
