data_PCOD9199818
_publ_section_title
;
Structure prediction by ZEFSAII (Michael W. Deem and Ramdas Pophale) SiO2 
 PCOD9199818
Probable space group: C 2/M
;
_chemical_formula_sum "Si O2"
_cell_formula_units_Z 64
_cell_length_a 14.504989
_cell_length_b 8.533215
_cell_length_c 23.336645
_cell_angle_alpha 90.000000
_cell_angle_beta 85.015889
_cell_angle_gamma 90.000000
_cell_volume 2877.552511
_symmetry_space_group_name_H-M "C 2/M"
_symmetry_group_IT_number 12
_symmetry_cell_setting 'monoclinic'
loop_
_space_group_symop_operation_xyz
x,y,z
-x,y,-z
-x,-y,-z
x,-y,z
1/2+x,1/2+y,z
1/2-x,1/2+y,-z
1/2-x,1/2-y,-z
1/2+x,1/2-y,z
loop_
_atom_site_type_symbol
_atom_site_label
_atom_site_fract_x
_atom_site_fract_y
_atom_site_fract_z
Si Si1 0.708137 0.312238 0.359967
Si Si2 0.460220 0.311016 0.562425
Si Si3 0.592565 0.318096 0.784690
Si Si4 0.922694 0.312426 0.337460
Si Si5 0.815833 0.181284 0.045393
Si Si6 0.315560 0.179960 0.759781
Si Si7 0.167403 0.178340 0.125616
Si Si8 0.486473 0.181128 0.095548
O O1 0.703696 0.500000 0.352132
O O2 0.646470 0.270352 0.418163
O O3 0.815697 0.269423 0.357162
O O4 0.665446 0.233337 0.305665
O O5 0.500000 0.252514 0.500000
O O6 0.467517 0.500000 0.562073
O O7 0.517268 0.247125 0.613090
O O8 0.569191 0.500000 0.797796
O O9 0.553945 0.262712 0.725418
O O10 0.703910 0.306642 0.772149
O O11 0.559869 0.214341 0.839858
O O12 0.929238 0.500000 0.331684
O O13 0.750312 0.206023 0.104337
O O14 0.910649 0.271224 0.052712
O O15 0.834880 0.000000 0.034852
O O16 0.750000 0.250000 0.000000
O O17 0.357630 0.287028 0.807272
O O18 0.343361 0.000000 0.767292
O O19 0.078956 0.215368 0.091314
O O20 0.198348 0.000000 0.116514
O O21 0.511906 0.000000 0.088655
#
# Coordination Sequence:
#
# PCOD9199818 Si02
#       8
#     8   8   8   8   8   8   8   8
#     4   9  20  38  58  83 118 159 202 250 312 377
#     4  10  22  40  60  83 116 160 208 255 311 381
#     4  10  20  37  62  91 127 166 206 255 315 381
#     4  10  21  37  58  86 119 156 201 255 311 371
#     4  12  26  48  72  98 132 173 220 268 319 380
#     4  10  20  36  61  92 127 163 207 259 314 380
#     4  12  25  42  66  97 132 173 215 264 322 379
#     4  12  25  42  66  98 132 171 216 265 321 381
#
# _framework density 22.241123999999999
#
# number of rings (size 3 to 8) (size 9 to 14) (size 15 to 20)
#    0.000    1.375    1.250    4.500    1.750    3.250 
#    0.000    2.500    0.000    0.000    0.000    0.000 
#    0.000    0.000    0.000    0.000    0.000    0.000 
#
# Total GULP energy -179120.007065 kJ/mol
# GULP energy per Si atom -5597.500221 kJ/mol
# Density = 2.219050 g / cm^3
# Si number density = 22.241124 Si / 1000 Ang^3
#
#
#
# Elastic Constant Matrix: (Units=GPa)
#
#
# Indices 1 2 3 4 5 6 
#
# 1 60.3155 -1.2408 6.2139 0.0000 6.2275 0.0000
# 2 -1.2408 51.3000 -2.9738 0.0000 0.3217 0.0000
# 3 6.2139 -2.9738 76.5626 0.0000 0.9260 0.0000
# 4 0.0000 0.0000 0.0000 31.2498 0.0000 4.7726
# 5 6.2275 0.3217 0.9260 0.0000 34.8013 0.0000
# 6 0.0000 0.0000 0.0000 4.7726 0.0000 26.6295
#
#
#
# Elastic Compliance Matrix: (Units=1/GPa)
#
#
# Indices 1 2 3 4 5 6 
#
# 1 0.017035 0.000354 -0.001332 0.000000 -0.003016 0.000000
# 2 0.000354 0.019546 0.000734 0.000000 -0.000263 0.000000
# 3 -0.001332 0.000734 0.013199 0.000000 -0.000120 0.000000
# 4 0.000000 0.000000 0.000000 0.032901 0.000000 -0.005897
# 5 -0.003016 -0.000263 -0.000120 0.000000 0.029280 0.000000
# 6 0.000000 0.000000 0.000000 -0.005897 0.000000 0.038609
#
#
# Mechanical properties :
#
#
# Convention : Reuss Voigt Hill
#
# Bulk Modulus (GPa) = 20.28786 21.35299 20.82043
# Shear Modulus (GPa) = 29.85241 30.94804 30.40023
#
# Velocity S-wave (km/s) = 3.66760 3.73430 3.70110
# Velocity P-wave (km/s) = 5.20352 5.31176 5.25792
#
# Compressibility (1/GPa) = 0.04929056
#
# Stress axis : x y z
#
# Youngs Moduli (GPa) = 58.70110 51.16163 75.76166
#
# Poissons Ratio (x) = -0.01810 0.10095
# Poissons Ratio (y) = -0.02076 -0.05558
# Poissons Ratio (z) = 0.07821 -0.03754
#
# Static dielectric constant tensor:
#      x y z
#    x 1.857200 0.000000 -0.042930 
#    y 0.000000 1.756200 0.000000 
#    z -0.042930 0.000000 1.836250 
# 
# From -- ./inp_files/338884.got.cif
#   From: 2010.05.17/outbox.cif.g08.bks.cpg/sg12_170_cif.got.tgz:338884.got - 2010.06.03 13:09:07.
