data_PCOD9199177
_publ_section_title
;
Structure prediction by ZEFSAII (Michael W. Deem and Ramdas Pophale) SiO2 
 PCOD9199177
Probable space group: C 2/M
;
_chemical_formula_sum "Si O2"
_cell_formula_units_Z 30
_cell_length_a 7.752983
_cell_length_b 23.019940
_cell_length_c 11.690057
_cell_angle_alpha 90.000000
_cell_angle_beta 35.458547
_cell_angle_gamma 90.000000
_cell_volume 1210.327339
_symmetry_space_group_name_H-M "C 2/M"
_symmetry_group_IT_number 12
_symmetry_cell_setting 'monoclinic'
loop_
_space_group_symop_operation_xyz
x,y,z
-x,y,-z
-x,-y,-z
x,-y,z
1/2+x,1/2+y,z
1/2-x,1/2+y,-z
1/2-x,1/2-y,-z
1/2+x,1/2-y,z
loop_
_atom_site_type_symbol
_atom_site_label
_atom_site_fract_x
_atom_site_fract_y
_atom_site_fract_z
Si Si1 0.500000 0.640514 0.500000
Si Si2 0.624317 0.436155 0.637446
Si Si3 0.166078 0.228297 0.221894
Si Si4 0.500000 0.000000 0.000000
Si Si5 0.181104 0.840333 0.787484
O O1 0.323926 0.598635 0.508135
O O2 0.670423 0.683047 0.322506
O O3 0.757881 0.500000 0.554328
O O4 0.723553 0.399358 0.694106
O O5 0.267761 0.449890 0.842608
O O6 0.063696 0.293179 0.315434
O O7 0.995147 0.198671 0.210408
O O8 0.500000 0.237025 0.000000
O O9 0.000000 0.855060 0.000000
#
# Coordination Sequence:
#
# PCOD9199177 Si02
#       5
#     4   8   8   2   8
#     4  10  21  34  62  88 117 146 196 242 282 352
#     4   9  20  36  57  85 112 150 197 235 286 333
#     4  10  21  36  56  88 116 155 188 233 293 341
#     4   8  20  38  58  88 108 154 204 232 292 334
#     4  10  20  36  59  87 119 153 193 236 288 351
#
# _framework density 24.786681999999999
#
# number of rings (size 3 to 8) (size 9 to 14) (size 15 to 20)
#    0.800    1.600    0.000    3.600    7.467    4.800 
#    0.000    0.000    0.000    0.000    0.000   15.867 
#    0.000    0.000    0.000    0.000    0.000    0.000 
#
# Total GULP energy -83554.789635 kJ/mol
# GULP energy per Si atom -5570.319309 kJ/mol
# Density = 2.473027 g / cm^3
# Si number density = 24.786682 Si / 1000 Ang^3
#
#
#
# Elastic Constant Matrix: (Units=GPa)
#
#
# Indices 1 2 3 4 5 6 
#
# 1 128.4693 61.2704 54.8619 0.0000 46.4288 0.0000
# 2 61.2704 245.1085 59.5418 0.0000 51.1877 0.0000
# 3 54.8619 59.5418 113.5228 0.0000 35.6763 0.0000
# 4 0.0000 0.0000 0.0000 28.8012 0.0000 -7.7772
# 5 46.4288 51.1877 35.6763 0.0000 57.6784 0.0000
# 6 0.0000 0.0000 0.0000 -7.7772 0.0000 9.5382
#
#
#
# Elastic Compliance Matrix: (Units=1/GPa)
#
#
# Indices 1 2 3 4 5 6 
#
# 1 0.012069 -0.000764 -0.003217 0.000000 -0.007047 0.000000
# 2 -0.000764 0.005279 -0.001391 0.000000 -0.003210 0.000000
# 3 -0.003217 -0.001391 0.012278 0.000000 -0.003770 0.000000
# 4 0.000000 0.000000 0.000000 0.044524 0.000000 0.036304
# 5 -0.007047 -0.003210 -0.003770 0.000000 0.028191 0.000000
# 6 0.000000 0.000000 0.000000 0.036304 0.000000 0.134443
#
#
# Mechanical properties :
#
#
# Convention : Reuss Voigt Hill
#
# Bulk Modulus (GPa) = 52.96024 93.16099 73.06061
# Shear Modulus (GPa) = 19.69883 39.96532 29.83208
#
# Velocity S-wave (km/s) = 2.82216 4.01979 3.47299
# Velocity P-wave (km/s) = 5.65970 7.69491 6.75440
#
# Compressibility (1/GPa) = 0.01888209
#
# Stress axis : x y z
#
# Youngs Moduli (GPa) = 82.85710 189.43202 81.44638
#
# Poissons Ratio (x) = 0.14466 0.26204
# Poissons Ratio (y) = 0.06327 0.11329
# Poissons Ratio (z) = 0.26658 0.26350
#
# Static dielectric constant tensor:
#      x y z
#    x 2.063250 0.000000 -0.037200 
#    y 0.000000 1.966560 0.000000 
#    z -0.037200 0.000000 1.978580 
# 
# From -- ./inp_files/121585.got.cif
#   From: 2010.05.17/outbox.cif.g08.bks.cpg/sg12_61_cif.got.tgz:121585.got - 2010.06.03 13:09:07.
