data_PCOD9199871
_publ_section_title
;
Structure prediction by ZEFSAII (Michael W. Deem and Ramdas Pophale) SiO2 
 PCOD9199871
Probable space group: C 2/M
;
_chemical_formula_sum "Si O2"
_cell_formula_units_Z 64
_cell_length_a 15.679287
_cell_length_b 16.347915
_cell_length_c 12.501869
_cell_angle_alpha 90.000000
_cell_angle_beta 88.880399
_cell_angle_gamma 90.000000
_cell_volume 3203.912920
_symmetry_space_group_name_H-M "C 2/M"
_symmetry_group_IT_number 12
_symmetry_cell_setting 'monoclinic'
loop_
_space_group_symop_operation_xyz
x,y,z
-x,y,-z
-x,-y,-z
x,-y,z
1/2+x,1/2+y,z
1/2-x,1/2+y,-z
1/2-x,1/2-y,-z
1/2+x,1/2-y,z
loop_
_atom_site_type_symbol
_atom_site_label
_atom_site_fract_x
_atom_site_fract_y
_atom_site_fract_z
Si Si1 0.706992 0.098055 0.327927
Si Si2 0.891205 0.367312 0.235435
Si Si3 0.097879 0.341528 0.530478
Si Si4 0.184305 0.593976 0.975664
Si Si5 0.374169 0.405246 0.006442
Si Si6 0.075249 0.340514 0.154128
Si Si7 0.488105 0.656313 0.832966
Si Si8 0.883464 0.807252 0.326235
O O1 0.659075 0.130852 0.434788
O O2 0.650591 0.129943 0.230046
O O3 0.801203 0.136434 0.323667
O O4 0.709897 0.000000 0.326359
O O5 0.884074 0.390547 0.359845
O O6 0.827392 0.402769 0.151032
O O7 0.876460 0.269121 0.243012
O O8 0.987288 0.383559 0.192002
O O9 0.108315 0.245656 0.564797
O O10 0.000000 0.354151 0.500000
O O11 0.178034 0.500000 0.011676
O O12 0.277489 0.625199 0.005598
O O13 0.108074 0.641727 0.034554
O O14 0.374899 0.500000 0.041488
O O15 0.433641 0.355097 0.085410
O O16 0.416348 0.400754 0.887593
O O17 0.054966 0.245149 0.165970
O O18 0.531848 0.645758 0.716051
#
# Coordination Sequence:
#
# PCOD9199871 Si02
#       8
#     8   8   8   8   8   8   8   8
#     4  12  24  40  65  96 127 163 206 256 318 371
#     4   9  22  39  62  88 123 163 208 249 308 368
#     4  10  20  44  66  88 121 159 207 261 307 367
#     4  11  24  40  58  89 133 167 200 257 314 371
#     4  10  23  39  60  91 126 171 214 257 312 364
#     4  11  23  38  60  92 124 163 213 247 304 372
#     4  10  20  36  62  84 121 159 208 258 300 361
#     4   9  22  39  61  94 120 156 209 262 302 362
#
# _framework density 19.975574000000002
#
# number of rings (size 3 to 8) (size 9 to 14) (size 15 to 20)
#    0.750    1.000    1.250    2.625    8.750    4.750 
#    0.000    0.000    0.000    0.375    0.000    0.875 
#    0.000    0.000    0.000    0.000    0.000    0.000 
#
# Total GULP energy -178417.307750 kJ/mol
# GULP energy per Si atom -5575.540867 kJ/mol
# Density = 1.993011 g / cm^3
# Si number density = 19.975574 Si / 1000 Ang^3
#
#
#
# Elastic Constant Matrix: (Units=GPa)
#
#
# Indices 1 2 3 4 5 6 
#
# 1 81.8826 29.4361 25.2299 0.0000 -11.3608 0.0000
# 2 29.4361 64.4110 26.8079 0.0000 -3.8243 0.0000
# 3 25.2299 26.8079 82.7020 0.0000 -1.2067 0.0000
# 4 0.0000 0.0000 0.0000 15.6135 0.0000 26.6484
# 5 -11.3608 -3.8243 -1.2067 0.0000 22.8763 0.0000
# 6 0.0000 0.0000 0.0000 26.6484 0.0000 55.8823
#
#
#
# Elastic Compliance Matrix: (Units=1/GPa)
#
#
# Indices 1 2 3 4 5 6 
#
# 1 0.016146 -0.005734 -0.002966 0.000000 0.006903 0.000000
# 2 -0.005734 0.020151 -0.004779 0.000000 0.000269 0.000000
# 3 -0.002966 -0.004779 0.014523 0.000000 -0.001506 0.000000
# 4 0.000000 0.000000 0.000000 0.344136 0.000000 -0.164106
# 5 0.006903 0.000269 -0.001506 0.000000 0.047107 0.000000
# 6 0.000000 0.000000 0.000000 -0.164106 0.000000 0.096152
#
#
# Mechanical properties :
#
#
# Convention : Reuss Voigt Hill
#
# Bulk Modulus (GPa) = 41.90766 43.54927 42.72846
# Shear Modulus (GPa) = 8.72408 28.70920 18.71664
#
# Velocity S-wave (km/s) = 2.09209 3.79517 3.06433
# Velocity P-wave (km/s) = 5.18274 6.40727 5.82726
#
# Compressibility (1/GPa) = 0.02386199
#
# Stress axis : x y z
#
# Youngs Moduli (GPa) = 61.93582 49.62597 68.85405
#
# Poissons Ratio (x) = 0.28457 0.20423
# Poissons Ratio (y) = 0.35516 0.32903
# Poissons Ratio (z) = 0.18371 0.23714
#
# Static dielectric constant tensor:
#      x y z
#    x 1.689950 0.000000 -0.020000 
#    y 0.000000 1.714660 0.000000 
#    z -0.020000 0.000000 1.734910 
# 
# From -- ./inp_files/146123.got.cif
#   From: 2010.05.17/outbox.cif.g08.bks.cpg/sg12_74_cif.got.tgz:146123.got - 2010.06.03 13:09:07.
