data_PCOD9199009
_publ_section_title
;
Structure prediction by ZEFSAII (Michael W. Deem and Ramdas Pophale) SiO2 
 PCOD9199009
Probable space group: C 2/M
;
_chemical_formula_sum "Si O2"
_cell_formula_units_Z 56
_cell_length_a 16.698373
_cell_length_b 8.056075
_cell_length_c 23.746635
_cell_angle_alpha 90.000000
_cell_angle_beta 59.179315
_cell_angle_gamma 90.000000
_cell_volume 2743.336740
_symmetry_space_group_name_H-M "C 2/M"
_symmetry_group_IT_number 12
_symmetry_cell_setting 'monoclinic'
loop_
_space_group_symop_operation_xyz
x,y,z
-x,y,-z
-x,-y,-z
x,-y,z
1/2+x,1/2+y,z
1/2-x,1/2+y,-z
1/2-x,1/2-y,-z
1/2+x,1/2-y,z
loop_
_atom_site_type_symbol
_atom_site_label
_atom_site_fract_x
_atom_site_fract_y
_atom_site_fract_z
Si Si1 0.253621 0.799586 0.433725
Si Si2 0.457672 0.693466 0.848326
Si Si3 0.726413 0.299269 0.153545
Si Si4 0.420574 0.190857 0.569240
Si Si5 0.099533 0.192272 0.299736
Si Si6 0.070154 0.687792 0.703905
Si Si7 0.940248 0.699295 0.074424
O O1 0.250000 0.750000 0.500000
O O2 0.171026 0.702065 0.434373
O O3 0.345397 0.752162 0.365208
O O4 0.242803 0.000000 0.433323
O O5 0.442488 0.500000 0.864402
O O6 0.358016 0.759501 0.858152
O O7 0.534893 0.715437 0.771350
O O8 0.502452 0.766954 0.888817
O O9 0.728735 0.500000 0.145967
O O10 0.690636 0.266851 0.230194
O O11 0.832757 0.237378 0.109974
O O12 0.500000 0.263726 0.500000
O O13 0.398391 0.284612 0.634734
O O14 0.446299 0.000000 0.573412
O O15 0.018263 0.306223 0.305229
O O16 0.076587 0.000000 0.294826
O O17 0.091353 0.500000 0.714617
O O18 0.933323 0.500000 0.072183
O O19 0.000000 0.762654 0.000000
#
# Coordination Sequence:
#
# PCOD9199009 Si02
#       7
#     8   8   8   8   8   8   8
#     4  11  24  39  57  81 111 149 190 238 293 349
#     4  10  21  38  60  87 119 157 198 247 301 355
#     4   8  18  37  58  83 119 156 192 239 298 354
#     4  11  24  39  55  79 113 150 191 239 286 342
#     4  10  20  36  59  84 112 148 190 239 293 347
#     4  10  21  38  59  84 114 148 189 239 294 350
#     4  10  21  38  61  88 120 160 201 244 298 363
#
# _framework density 20.413098000000002
#
# number of rings (size 3 to 8) (size 9 to 14) (size 15 to 20)
#    0.000    2.000    0.000    3.857    2.000    7.714 
#    0.000    3.571    0.000    0.000    0.000    0.000 
#    0.000    0.000    0.000    0.000    0.000    0.000 
#
# Total GULP energy -156112.694128 kJ/mol
# GULP energy per Si atom -5575.453362 kJ/mol
# Density = 2.036664 g / cm^3
# Si number density = 20.413098 Si / 1000 Ang^3
#
#
#
# Elastic Constant Matrix: (Units=GPa)
#
#
# Indices 1 2 3 4 5 6 
#
# 1 103.6734 3.2116 97.8763 0.0000 -9.9546 0.0000
# 2 3.2116 25.6346 10.7807 0.0000 -6.7912 0.0001
# 3 97.8763 10.7807 166.8927 0.0000 -13.9387 0.0000
# 4 0.0000 0.0000 0.0000 23.5245 0.0000 6.4831
# 5 -9.9546 -6.7912 -13.9387 0.0000 42.0353 0.0000
# 6 0.0000 0.0001 0.0000 6.4831 0.0000 28.2546
#
#
#
# Elastic Compliance Matrix: (Units=1/GPa)
#
#
# Indices 1 2 3 4 5 6 
#
# 1 0.021870 0.003057 -0.012907 0.000000 0.001393 0.000000
# 2 0.003057 0.041940 -0.003986 0.000000 0.006178 0.000000
# 3 -0.012907 -0.003986 0.013895 0.000000 0.000907 0.000000
# 4 0.000000 0.000000 0.000000 0.045378 0.000000 -0.010412
# 5 0.001393 0.006178 0.000907 0.000000 0.025418 0.000000
# 6 0.000000 0.000000 0.000000 -0.010412 0.000000 0.037782
#
#
# Mechanical properties :
#
#
# Convention : Reuss Voigt Hill
#
# Bulk Modulus (GPa) = 19.98701 57.77087 38.87894
# Shear Modulus (GPa) = 21.67950 31.05168 26.36559
#
# Velocity S-wave (km/s) = 3.26243 3.90444 3.59778
# Velocity P-wave (km/s) = 4.89937 6.97772 6.02878
#
# Compressibility (1/GPa) = 0.05003250
#
# Stress axis : x y z
#
# Youngs Moduli (GPa) = 45.72436 23.84369 71.97005
#
# Poissons Ratio (x) = -0.07290 0.92893
# Poissons Ratio (y) = -0.13979 0.28688
# Poissons Ratio (z) = 0.59017 0.09504
#
# Static dielectric constant tensor:
#      x y z
#    x 1.585980 0.000000 0.415020 
#    y 0.000000 1.766990 0.000000 
#    z 0.415020 0.000000 0.105770 
# 
# From -- ./inp_files/338579.got.cif
#   From: 2010.05.17/outbox.cif.g08.bks.cpg/sg12_170_cif.got.tgz:338579.got - 2010.06.03 13:09:07.
