data_PCOD9199224
_publ_section_title
;
Structure prediction by ZEFSAII (Michael W. Deem and Ramdas Pophale) SiO2 
 PCOD9199224
Probable space group: C 2/M
;
_chemical_formula_sum "Si O2"
_cell_formula_units_Z 56
_cell_length_a 14.910984
_cell_length_b 15.330733
_cell_length_c 18.074493
_cell_angle_alpha 90.000000
_cell_angle_beta 48.652162
_cell_angle_gamma 90.000000
_cell_volume 3101.767051
_symmetry_space_group_name_H-M "C 2/M"
_symmetry_group_IT_number 12
_symmetry_cell_setting 'monoclinic'
loop_
_space_group_symop_operation_xyz
x,y,z
-x,y,-z
-x,-y,-z
x,-y,z
1/2+x,1/2+y,z
1/2-x,1/2+y,-z
1/2-x,1/2-y,-z
1/2+x,1/2-y,z
loop_
_atom_site_type_symbol
_atom_site_label
_atom_site_fract_x
_atom_site_fract_y
_atom_site_fract_z
Si Si1 0.181368 0.178382 0.585734
Si Si2 0.558837 0.401999 0.048377
Si Si3 0.521515 0.600967 0.401545
Si Si4 0.135844 0.398846 0.398907
Si Si5 0.296311 0.187331 0.909956
Si Si6 0.713977 0.742790 0.249321
Si Si7 0.454452 0.244585 0.201536
O O1 0.250000 0.250000 0.500000
O O2 0.275525 0.122394 0.581604
O O3 0.097939 0.227959 0.690656
O O4 0.098924 0.120787 0.577807
O O5 0.527823 0.500000 0.088598
O O6 0.508447 0.331075 0.132877
O O7 0.500000 0.385918 0.000000
O O8 0.701704 0.391053 0.962488
O O9 0.500000 0.618625 0.500000
O O10 0.555767 0.500000 0.374239
O O11 0.621533 0.666344 0.317291
O O12 0.148346 0.500000 0.369120
O O13 0.171047 0.330094 0.316133
O O14 0.000000 0.384532 0.500000
O O15 0.282341 0.235188 0.838946
O O16 0.437358 0.176455 0.847630
O O17 0.250000 0.250000 0.000000
O O18 0.843200 0.717252 0.211457
#
# Coordination Sequence:
#
# PCOD9199224 Si02
#       7
#     8   8   8   8   8   8   8
#     4  11  21  37  62  88 118 157 200 243 299 363
#     4  10  20  36  59  88 120 150 188 250 308 357
#     4  11  23  39  58  85 118 160 208 250 291 353
#     4  10  22  37  57  87 121 156 198 247 304 363
#     4  10  21  37  56  86 114 151 199 238 298 361
#     4  11  20  38  60  83 120 157 196 249 303 359
#     4  10  21  36  60  86 113 155 197 238 297 363
#
# _framework density 18.054224999999999
#
# number of rings (size 3 to 8) (size 9 to 14) (size 15 to 20)
#    0.000    1.571    2.857    3.429    0.000    3.429 
#    0.000    0.714    0.000    0.000    0.000    4.000 
#    0.000    0.000    0.000    0.000    0.000    0.000 
#
# Total GULP energy -156301.257598 kJ/mol
# GULP energy per Si atom -5582.187771 kJ/mol
# Density = 1.801313 g / cm^3
# Si number density = 18.054225 Si / 1000 Ang^3
#
#
#
# Elastic Constant Matrix: (Units=GPa)
#
#
# Indices 1 2 3 4 5 6 
#
# 1 126.0549 26.4835 49.4423 0.0000 -5.5068 0.0000
# 2 26.4835 63.0601 38.5109 0.0000 1.7124 0.0000
# 3 49.4423 38.5109 95.6184 0.0000 5.3007 0.0000
# 4 0.0000 0.0000 0.0000 12.4584 0.0000 -4.9595
# 5 -5.5068 1.7124 5.3007 0.0000 39.9487 0.0000
# 6 0.0000 0.0000 0.0000 -4.9595 0.0000 21.7730
#
#
#
# Elastic Compliance Matrix: (Units=1/GPa)
#
#
# Indices 1 2 3 4 5 6 
#
# 1 0.010216 -0.001393 -0.004838 0.000000 0.002110 0.000000
# 2 -0.001393 0.021223 -0.007824 0.000000 -0.000064 0.000000
# 3 -0.004838 -0.007824 0.016249 0.000000 -0.002488 0.000000
# 4 0.000000 0.000000 0.000000 0.088271 0.000000 0.020106
# 5 0.002110 -0.000064 -0.002488 0.000000 0.025656 0.000000
# 6 0.000000 0.000000 0.000000 0.020106 0.000000 0.050508
#
#
# Mechanical properties :
#
#
# Convention : Reuss Voigt Hill
#
# Bulk Modulus (GPa) = 51.07938 57.06743 54.07340
# Shear Modulus (GPa) = 20.26281 26.18914 23.22597
#
# Velocity S-wave (km/s) = 3.35375 3.81278 3.59061
# Velocity P-wave (km/s) = 6.58411 7.14567 6.87063
#
# Compressibility (1/GPa) = 0.01957737
#
# Stress axis : x y z
#
# Youngs Moduli (GPa) = 97.89006 47.11963 61.54235
#
# Poissons Ratio (x) = 0.06563 0.29776
# Poissons Ratio (y) = 0.13634 0.48150
# Poissons Ratio (z) = 0.47362 0.36865
#
# Static dielectric constant tensor:
#      x y z
#    x 1.636760 0.000000 -0.021350 
#    y 0.000000 1.590010 0.000000 
#    z -0.021350 0.000000 1.608940 
# 
# From -- ./inp_files/270212.got.cif
#   From: 2010.05.17/outbox.cif.g08.bks.cpg/sg12_136_cif.got.tgz:270212.got - 2010.06.03 13:09:07.
