data_PCOD9199264
_publ_section_title
;
Structure prediction by ZEFSAII (Michael W. Deem and Ramdas Pophale) SiO2 
 PCOD9199264
Probable space group: C 2/M
;
_chemical_formula_sum "Si O2"
_cell_formula_units_Z 56
_cell_length_a 17.032282
_cell_length_b 16.067007
_cell_length_c 19.878035
_cell_angle_alpha 90.000000
_cell_angle_beta 146.638396
_cell_angle_gamma 90.000000
_cell_volume 2991.449663
_symmetry_space_group_name_H-M "C 2/M"
_symmetry_group_IT_number 12
_symmetry_cell_setting 'monoclinic'
loop_
_space_group_symop_operation_xyz
x,y,z
-x,y,-z
-x,-y,-z
x,-y,z
1/2+x,1/2+y,z
1/2-x,1/2+y,-z
1/2-x,1/2-y,-z
1/2+x,1/2-y,z
loop_
_atom_site_type_symbol
_atom_site_label
_atom_site_fract_x
_atom_site_fract_y
_atom_site_fract_z
Si Si1 0.760151 0.095082 0.301261
Si Si2 0.185426 0.200590 0.891549
Si Si3 0.549664 0.096577 0.964129
Si Si4 0.369053 0.248451 0.294571
Si Si5 0.675311 0.679123 0.518380
Si Si6 0.861642 0.163452 0.658991
Si Si7 0.168116 0.594141 0.638879
O O1 0.588327 0.103084 0.182162
O O2 0.810782 0.165712 0.285589
O O3 0.827146 0.116298 0.421348
O O4 0.792158 0.000000 0.303261
O O5 0.164571 0.254109 0.808375
O O6 0.029996 0.161346 0.794365
O O7 0.250000 0.250000 0.000000
O O8 0.307298 0.135204 0.960563
O O9 0.578508 0.000000 0.997051
O O10 0.500000 0.134644 0.000000
O O11 0.539287 0.259236 0.425156
O O12 0.311794 0.168746 0.293440
O O13 0.810708 0.739811 0.623274
O O14 0.667736 0.637595 0.439547
O O15 0.766828 0.114762 0.645145
O O16 0.199271 0.500000 0.685138
O O17 0.000000 0.596523 0.500000
#
# Coordination Sequence:
#
# PCOD9199264 Si02
#       7
#     8   8   8   8   8   8   8
#     4  11  21  35  62  93 124 158 195 246 305 365
#     4  11  24  38  63  90 116 164 203 244 310 360
#     4  10  21  40  61  86 119 157 204 247 291 364
#     4  11  21  39  62  89 124 157 201 257 295 360
#     4  10  20  36  59  89 127 154 192 250 309 357
#     4  10  21  38  60  87 123 159 200 252 300 353
#     4  11  22  40  64  88 120 164 205 243 299 362
#
# _framework density 18.720020999999999
#
# number of rings (size 3 to 8) (size 9 to 14) (size 15 to 20)
#    0.000    1.429    4.286    1.286    0.000    2.286 
#    0.000    3.571    0.000    0.857    0.000    0.000 
#    0.000    0.000    0.000    0.000    0.000    0.000 
#
# Total GULP energy -156243.809574 kJ/mol
# GULP energy per Si atom -5580.136056 kJ/mol
# Density = 1.867741 g / cm^3
# Si number density = 18.720021 Si / 1000 Ang^3
#
#
#
# Elastic Constant Matrix: (Units=GPa)
#
#
# Indices 1 2 3 4 5 6 
#
# 1 124.2986 54.2899 56.9311 0.0003 5.9125 0.0000
# 2 54.2899 95.4453 42.9297 0.0002 -6.2310 0.0001
# 3 56.9311 42.9297 85.1195 0.0003 -1.9494 0.0000
# 4 0.0003 0.0002 0.0003 15.4146 0.0004 6.6317
# 5 5.9125 -6.2310 -1.9494 0.0004 39.8069 0.0001
# 6 0.0000 0.0001 0.0000 6.6317 0.0001 19.0230
#
#
#
# Elastic Compliance Matrix: (Units=1/GPa)
#
#
# Indices 1 2 3 4 5 6 
#
# 1 0.013283 -0.004821 -0.006523 0.000000 -0.003047 0.000000
# 2 -0.004821 0.015429 -0.004491 0.000000 0.002911 0.000000
# 3 -0.006523 -0.004491 0.018402 0.000000 0.001167 0.000000
# 4 0.000000 0.000000 0.000000 0.076320 -0.000001 -0.026606
# 5 -0.003047 0.002911 0.001167 -0.000001 0.026087 0.000000
# 6 0.000000 0.000000 0.000000 -0.026606 0.000000 0.061843
#
#
# Mechanical properties :
#
#
# Convention : Reuss Voigt Hill
#
# Bulk Modulus (GPa) = 64.73968 68.12941 66.43455
# Shear Modulus (GPa) = 20.14651 24.89641 22.52146
#
# Velocity S-wave (km/s) = 3.28411 3.65078 3.47229
# Velocity P-wave (km/s) = 7.00276 7.36504 7.18619
#
# Compressibility (1/GPa) = 0.01544648
#
# Stress axis : x y z
#
# Youngs Moduli (GPa) = 75.28356 64.81259 54.34056
#
# Poissons Ratio (x) = 0.31244 0.35445
# Poissons Ratio (y) = 0.36291 0.24403
# Poissons Ratio (z) = 0.49106 0.29106
#
# Static dielectric constant tensor:
#      x y z
#    x 1.698300 0.000000 -0.011820 
#    y 0.000000 1.619710 0.000000 
#    z -0.011820 0.000000 1.674630 
# 
# From -- ./inp_files/316802.got.cif
#   From: 2010.05.17/outbox.cif.g08.bks.cpg/sg12_159_cif.got.tgz:316802.got - 2010.06.03 13:09:07.
