data_PCOD9199151
_publ_section_title
;
Structure prediction by ZEFSAII (Michael W. Deem and Ramdas Pophale) SiO2 
 PCOD9199151
Probable space group: C 2/M
;
_chemical_formula_sum "Si O2"
_cell_formula_units_Z 48
_cell_length_a 25.103808
_cell_length_b 9.440885
_cell_length_c 23.653600
_cell_angle_alpha 90.000000
_cell_angle_beta 25.339813
_cell_angle_gamma 90.000000
_cell_volume 2399.269875
_symmetry_space_group_name_H-M "C 2/M"
_symmetry_group_IT_number 12
_symmetry_cell_setting 'monoclinic'
loop_
_space_group_symop_operation_xyz
x,y,z
-x,y,-z
-x,-y,-z
x,-y,z
1/2+x,1/2+y,z
1/2-x,1/2+y,-z
1/2-x,1/2-y,-z
1/2+x,1/2-y,z
loop_
_atom_site_type_symbol
_atom_site_label
_atom_site_fract_x
_atom_site_fract_y
_atom_site_fract_z
Si Si1 0.219018 0.336484 0.152589
Si Si2 0.668452 0.665803 0.490123
Si Si3 0.469658 0.162905 0.467561
Si Si4 0.441051 0.165829 0.996542
Si Si5 0.444303 0.835111 0.232711
Si Si6 0.423200 0.333859 0.803338
O O1 0.250245 0.500000 0.109729
O O2 0.095326 0.336263 0.310165
O O3 0.326110 0.259613 0.085558
O O4 0.179149 0.249935 0.134885
O O5 0.679409 0.500000 0.465824
O O6 0.632076 0.751704 0.469471
O O7 0.803819 0.709822 0.382372
O O8 0.553668 0.680792 0.643343
O O9 0.500000 0.222935 0.500000
O O10 0.428802 0.000000 0.513757
O O11 0.402948 0.000000 0.037981
O O12 0.500000 0.208694 0.000000
O O13 0.538290 0.173949 0.851381
O O14 0.544170 0.738625 0.168672
O O15 0.462897 0.000000 0.231753
O O16 0.393093 0.500000 0.836513
#
# Coordination Sequence:
#
# PCOD9199151 Si02
#       6
#     8   8   8   8   8   8
#     4  10  21  38  59  82 112 148 186 232 280 328
#     4   9  19  34  54  84 115 144 182 227 276 332
#     4   9  19  34  53  80 112 146 183 227 278 328
#     4  10  23  41  59  81 112 150 190 232 275 325
#     4  10  21  37  57  83 115 150 187 228 278 331
#     4  10  20  36  59  87 115 144 184 231 281 335
#
# _framework density 20.006084999999999
#
# number of rings (size 3 to 8) (size 9 to 14) (size 15 to 20)
#    0.000    2.333    0.000    1.500    2.333    4.000 
#    0.000    0.000    0.000    0.000    0.000    0.000 
#    0.000    0.000    0.000    0.000    0.000    0.000 
#
# Total GULP energy -134024.670298 kJ/mol
# GULP energy per Si atom -5584.361262 kJ/mol
# Density = 1.996055 g / cm^3
# Si number density = 20.006085 Si / 1000 Ang^3
#
#
#
# Elastic Constant Matrix: (Units=GPa)
#
#
# Indices 1 2 3 4 5 6 
#
# 1 166.9313 85.0814 34.0957 0.0008 -15.4100 -0.0002
# 2 85.0814 86.6648 40.9142 0.0033 -21.9805 -0.0012
# 3 34.0957 40.9142 52.8384 0.0022 -21.6657 -0.0009
# 4 0.0008 0.0033 0.0022 17.3724 -0.0008 -6.3846
# 5 -15.4100 -21.9805 -21.6657 -0.0008 34.0987 0.0002
# 6 -0.0002 -0.0012 -0.0009 -6.3846 0.0002 38.3108
#
#
#
# Elastic Compliance Matrix: (Units=1/GPa)
#
#
# Indices 1 2 3 4 5 6 
#
# 1 0.012252 -0.013269 0.001531 0.000002 -0.002044 0.000000
# 2 -0.013269 0.032921 -0.014451 -0.000004 0.006042 0.000000
# 3 0.001531 -0.014451 0.034608 -0.000001 0.013366 0.000000
# 4 0.000002 -0.000004 -0.000001 0.061318 -0.000001 0.010219
# 5 -0.002044 0.006042 0.013366 -0.000001 0.040790 0.000000
# 6 0.000000 0.000000 0.000000 0.010219 0.000000 0.027805
#
#
# Mechanical properties :
#
#
# Convention : Reuss Voigt Hill
#
# Bulk Modulus (GPa) = 36.49495 69.62413 53.05954
# Shear Modulus (GPa) = 18.43599 27.71259 23.07429
#
# Velocity S-wave (km/s) = 3.03895 3.72588 3.39981
# Velocity P-wave (km/s) = 5.53129 7.30661 6.48003
#
# Compressibility (1/GPa) = 0.02740105
#
# Stress axis : x y z
#
# Youngs Moduli (GPa) = 81.61695 30.37616 28.89477
#
# Poissons Ratio (x) = 0.40308 -0.04422
# Poissons Ratio (y) = 1.08301 0.41756
# Poissons Ratio (z) = -0.12492 0.43897
#
# Static dielectric constant tensor:
#      x y z
#    x 1.676570 0.000000 0.025120 
#    y 0.000000 1.681040 0.000000 
#    z 0.025120 0.000000 1.744070 
# 
# From -- ./inp_files/172142.got.cif
#   From: 2010.05.17/outbox.cif.g08.bks.cpg/sg12_87_cif.got.tgz:172142.got - 2010.06.03 13:09:07.
