data_PCOD9199065
_publ_section_title
;
Structure prediction by ZEFSAII (Michael W. Deem and Ramdas Pophale) SiO2 
 PCOD9199065
Probable space group: C 2/M
;
_chemical_formula_sum "Si O2"
_cell_formula_units_Z 56
_cell_length_a 19.062087
_cell_length_b 8.811879
_cell_length_c 19.145230
_cell_angle_alpha 90.000000
_cell_angle_beta 112.691945
_cell_angle_gamma 90.000000
_cell_volume 2966.944359
_symmetry_space_group_name_H-M "C 2/M"
_symmetry_group_IT_number 12
_symmetry_cell_setting 'monoclinic'
loop_
_space_group_symop_operation_xyz
x,y,z
-x,y,-z
-x,-y,-z
x,-y,z
1/2+x,1/2+y,z
1/2-x,1/2+y,-z
1/2-x,1/2-y,-z
1/2+x,1/2-y,z
loop_
_atom_site_type_symbol
_atom_site_label
_atom_site_fract_x
_atom_site_fract_y
_atom_site_fract_z
Si Si1 0.962712 0.828018 0.561244
Si Si2 0.376569 0.681795 0.738621
Si Si3 0.305007 0.680707 0.078977
Si Si4 0.095329 0.329656 0.689806
Si Si5 0.178580 0.679065 0.431437
Si Si6 0.040968 0.671041 0.827643
Si Si7 0.747883 0.681566 0.782339
O O1 0.894218 0.713840 0.548017
O O2 0.000000 0.820650 0.500000
O O3 0.031237 0.781147 0.637131
O O4 0.935971 0.000000 0.564677
O O5 0.375732 0.500000 0.734663
O O6 0.343605 0.747975 0.652429
O O7 0.461813 0.740860 0.787315
O O8 0.322987 0.743062 0.780073
O O9 0.308997 0.500000 0.073615
O O10 0.390461 0.747150 0.105374
O O11 0.269671 0.712409 0.142635
O O12 0.250000 0.750000 0.000000
O O13 0.091489 0.500000 0.657769
O O14 0.076325 0.342244 0.763964
O O15 0.177521 0.255337 0.713382
O O16 0.190040 0.500000 0.425924
O O17 0.250000 0.750000 0.500000
O O18 0.026614 0.500000 0.848659
O O19 0.749682 0.500000 0.773348
#
# Coordination Sequence:
#
# PCOD9199065 Si02
#       7
#     8   8   8   8   8   8   8
#     4  11  24  40  59  84 117 154 199 252 306 361
#     4  12  24  40  63  90 123 161 205 254 306 365
#     4  10  21  39  65  95 127 162 199 246 299 358
#     4  10  20  36  59  85 114 152 200 249 298 355
#     4  12  26  44  63  86 120 161 207 257 312 367
#     4  10  20  37  62  90 120 157 199 245 297 357
#     4  10  22  39  61  89 123 160 202 247 299 358
#
# _framework density 18.874638999999998
#
# number of rings (size 3 to 8) (size 9 to 14) (size 15 to 20)
#    0.000    1.286    1.429    4.714    2.000    4.000 
#    0.000    0.714    0.000    4.286    0.000    0.000 
#    0.000    0.000    0.000    0.000    0.000    0.000 
#
# Total GULP energy -156326.403477 kJ/mol
# GULP energy per Si atom -5583.085838 kJ/mol
# Density = 1.883168 g / cm^3
# Si number density = 18.874639 Si / 1000 Ang^3
#
#
#
# Elastic Constant Matrix: (Units=GPa)
#
#
# Indices 1 2 3 4 5 6 
#
# 1 115.4263 64.0056 45.5419 0.0000 27.7816 0.0000
# 2 64.0056 119.1976 33.9952 0.0000 7.2224 0.0000
# 3 45.5419 33.9952 77.4398 0.0000 28.9481 0.0000
# 4 0.0000 0.0000 0.0000 29.6079 0.0000 5.4175
# 5 27.7816 7.2224 28.9481 0.0000 27.5406 0.0000
# 6 0.0000 0.0000 0.0000 5.4175 0.0000 38.9228
#
#
#
# Elastic Compliance Matrix: (Units=1/GPa)
#
#
# Indices 1 2 3 4 5 6 
#
# 1 0.016760 -0.007776 -0.001458 0.000000 -0.013335 0.000000
# 2 -0.007776 0.013366 -0.004804 0.000000 0.009388 0.000000
# 3 -0.001458 -0.004804 0.024476 0.000000 -0.022996 0.000000
# 4 0.000000 0.000000 0.000000 0.034657 0.000000 -0.004824
# 5 -0.013335 0.009388 -0.022996 0.000000 0.071471 0.000000
# 6 0.000000 0.000000 0.000000 -0.004824 0.000000 0.026363
#
#
# Mechanical properties :
#
#
# Convention : Reuss Voigt Hill
#
# Bulk Modulus (GPa) = 37.69914 66.57212 52.13563
# Shear Modulus (GPa) = 22.32016 30.44899 26.38458
#
# Velocity S-wave (km/s) = 3.44255 4.02085 3.74289
# Velocity P-wave (km/s) = 5.98484 7.54345 6.80889
#
# Compressibility (1/GPa) = 0.02652581
#
# Stress axis : x y z
#
# Youngs Moduli (GPa) = 59.66468 74.81591 40.85624
#
# Poissons Ratio (x) = 0.58176 0.05958
# Poissons Ratio (y) = 0.46395 0.19628
# Poissons Ratio (z) = 0.08701 0.35943
#
# Static dielectric constant tensor:
#      x y z
#    x 1.617740 0.000000 0.014260 
#    y 0.000000 1.663510 0.000000 
#    z 0.014260 0.000000 1.649790 
# 
# From -- ./inp_files/314413.got.cif
#   From: 2010.05.17/outbox.cif.g08.bks.cpg/sg12_158_cif.got.tgz:314413.got - 2010.06.03 13:09:07.
