data_PCOD9199186
_publ_section_title
;
Structure prediction by ZEFSAII (Michael W. Deem and Ramdas Pophale) SiO2 
 PCOD9199186
Probable space group: C 2/M
;
_chemical_formula_sum "Si O2"
_cell_formula_units_Z 64
_cell_length_a 14.576312
_cell_length_b 8.535515
_cell_length_c 30.951380
_cell_angle_alpha 90.000000
_cell_angle_beta 56.790480
_cell_angle_gamma 90.000000
_cell_volume 3221.909399
_symmetry_space_group_name_H-M "C 2/M"
_symmetry_group_IT_number 12
_symmetry_cell_setting 'monoclinic'
loop_
_space_group_symop_operation_xyz
x,y,z
-x,y,-z
-x,-y,-z
x,-y,z
1/2+x,1/2+y,z
1/2-x,1/2+y,-z
1/2-x,1/2-y,-z
1/2+x,1/2-y,z
loop_
_atom_site_type_symbol
_atom_site_label
_atom_site_fract_x
_atom_site_fract_y
_atom_site_fract_z
Si Si1 0.312225 0.817690 0.378616
Si Si2 0.966220 0.182623 0.405105
Si Si3 0.876641 0.682925 0.513132
Si Si4 0.007924 0.811594 0.859372
Si Si5 0.560487 0.309739 0.941544
Si Si6 0.306829 0.811608 0.854976
Si Si7 0.749084 0.186622 0.777603
Si Si8 0.301312 0.183586 0.671406
O O1 0.408506 0.715148 0.374413
O O2 0.205032 0.775344 0.434670
O O3 0.284114 0.774700 0.336846
O O4 0.338857 0.000000 0.376386
O O5 0.885411 0.243447 0.463364
O O6 0.078052 0.279596 0.377899
O O7 0.989857 0.000000 0.405209
O O8 0.843465 0.500000 0.519892
O O9 0.000000 0.690998 0.500000
O O10 0.001418 0.766424 0.911828
O O11 0.122082 0.739367 0.813467
O O12 0.905692 0.753634 0.857971
O O13 0.016089 0.000000 0.854810
O O14 0.560299 0.500000 0.943251
O O15 0.687877 0.262255 0.904747
O O16 0.500000 0.251229 0.000000
O O17 0.307650 0.750805 0.805576
O O18 0.310711 0.000000 0.853522
O O19 0.796702 0.258311 0.721557
O O20 0.756845 0.000000 0.774470
O O21 0.279046 0.000000 0.674375
#
# Coordination Sequence:
#
# PCOD9199186 Si02
#       8
#     8   8   8   8   8   8   8   8
#     4  12  25  42  64  91 122 157 197 240 292 351
#     4  12  25  42  64  91 122 157 197 240 292 351
#     4  11  22  39  64  90 121 159 197 239 292 348
#     4  10  20  36  59  87 119 158 202 247 296 350
#     4   8  16  32  54  83 122 163 202 246 295 346
#     4  10  20  36  59  87 119 158 202 247 296 350
#     4  11  23  41  63  87 115 151 196 246 300 354
#     4  12  25  44  65  90 121 152 192 243 299 356
#
# _framework density 19.863997000000001
#
# number of rings (size 3 to 8) (size 9 to 14) (size 15 to 20)
#    0.000    1.250    1.250    6.750    0.000    2.000 
#    0.000    5.000    0.000   12.750    0.000    0.000 
#    0.000    0.000    0.000    0.000    0.000    0.000 
#
# Total GULP energy -178970.177386 kJ/mol
# GULP energy per Si atom -5592.818043 kJ/mol
# Density = 1.981879 g / cm^3
# Si number density = 19.863997 Si / 1000 Ang^3
#
#
#
# Elastic Constant Matrix: (Units=GPa)
#
#
# Indices 1 2 3 4 5 6 
#
# 1 95.1567 -7.0782 13.2907 0.0000 17.0670 0.0000
# 2 -7.0782 73.2932 9.1571 0.0000 0.5282 0.0000
# 3 13.2907 9.1571 88.5740 0.0000 17.3361 0.0000
# 4 0.0000 0.0000 0.0000 21.3657 0.0000 2.1902
# 5 17.0670 0.5282 17.3361 0.0000 14.0586 0.0000
# 6 0.0000 0.0000 0.0000 2.1902 0.0000 30.1545
#
#
#
# Elastic Compliance Matrix: (Units=1/GPa)
#
#
# Indices 1 2 3 4 5 6 
#
# 1 0.013715 0.001280 0.001421 0.000000 -0.018450 0.000000
# 2 0.001280 0.013971 -0.001621 0.000000 -0.000080 0.000000
# 3 0.001421 -0.001621 0.015251 0.000000 -0.020470 0.000000
# 4 0.000000 0.000000 0.000000 0.047155 0.000000 -0.003425
# 5 -0.018450 -0.000080 -0.020470 0.000000 0.118774 0.000000
# 6 0.000000 0.000000 0.000000 -0.003425 0.000000 0.033411
#
#
# Mechanical properties :
#
#
# Convention : Reuss Voigt Hill
#
# Bulk Modulus (GPa) = 22.17473 31.97367 27.07420
# Shear Modulus (GPa) = 19.59642 29.22604 24.41123
#
# Velocity S-wave (km/s) = 3.14431 3.83992 3.50940
# Velocity P-wave (km/s) = 4.93658 5.98258 5.48457
#
# Compressibility (1/GPa) = 0.04509638
#
# Stress axis : x y z
#
# Youngs Moduli (GPa) = 72.91385 71.57935 65.56995
#
# Poissons Ratio (x) = -0.09162 -0.09316
# Poissons Ratio (y) = -0.09333 0.10627
# Poissons Ratio (z) = -0.10360 0.11601
#
# Static dielectric constant tensor:
#      x y z
#    x 1.699870 0.000000 0.008090 
#    y 0.000000 1.660400 0.000000 
#    z 0.008090 0.000000 1.707070 
# 
# From -- ./inp_files/375051.got.cif
#   From: 2010.05.17/outbox.cif.g08.bks.cpg/sg12_188_cif.got.tgz:375051.got - 2010.06.03 13:09:07.
