data_PCOD9199349
_publ_section_title
;
Structure prediction by ZEFSAII (Michael W. Deem and Ramdas Pophale) SiO2 
 PCOD9199349
Probable space group: C 2/M
;
_chemical_formula_sum "Si O2"
_cell_formula_units_Z 64
_cell_length_a 31.583096
_cell_length_b 7.540014
_cell_length_c 20.191014
_cell_angle_alpha 90.000000
_cell_angle_beta 141.146049
_cell_angle_gamma 90.000000
_cell_volume 3016.380645
_symmetry_space_group_name_H-M "C 2/M"
_symmetry_group_IT_number 12
_symmetry_cell_setting 'monoclinic'
loop_
_space_group_symop_operation_xyz
x,y,z
-x,y,-z
-x,-y,-z
x,-y,z
1/2+x,1/2+y,z
1/2-x,1/2+y,-z
1/2-x,1/2-y,-z
1/2+x,1/2-y,z
loop_
_atom_site_type_symbol
_atom_site_label
_atom_site_fract_x
_atom_site_fract_y
_atom_site_fract_z
Si Si1 0.297215 0.711797 0.995827
Si Si2 0.283851 0.786424 0.724299
Si Si3 0.707335 0.210618 0.766988
Si Si4 0.059930 0.217538 0.777275
Si Si5 0.054947 0.791927 0.618998
Si Si6 0.941093 0.214655 0.731149
Si Si7 0.300431 0.288080 0.502243
Si Si8 0.064464 0.289858 0.119552
O O1 0.304271 0.500000 0.994923
O O2 0.370502 0.779605 0.104957
O O3 0.250000 0.750000 0.000000
O O4 0.257711 0.783800 0.884437
O O5 0.244879 0.746138 0.744153
O O6 0.235836 0.717424 0.607226
O O7 0.361189 0.719720 0.811173
O O8 0.287906 0.000000 0.722431
O O9 0.631058 0.279078 0.683264
O O10 0.701189 0.000000 0.768534
O O11 0.053164 0.278777 0.692562
O O12 0.001168 0.270570 0.755947
O O13 0.061203 0.000000 0.776574
O O14 0.000000 0.716854 0.500000
O O15 0.038393 0.000000 0.605619
O O16 0.872548 0.280861 0.613407
O O17 0.945070 0.267869 0.813006
O O18 0.940254 0.000000 0.730816
O O19 0.308173 0.500000 0.502896
O O20 0.250000 0.250000 0.500000
O O21 0.066442 0.500000 0.108144
O O22 0.000000 0.217574 0.000000
#
# Coordination Sequence:
#
# PCOD9199349 Si02
#       8
#     8   8   8   8   8   8   8   8
#     4  10  20  37  59  82 111 147 188 235 285 338
#     4  10  22  39  59  82 114 154 194 235 281 344
#     4  11  24  38  57  87 119 149 189 241 290 335
#     4   9  19  36  57  83 112 144 186 233 277 329
#     4  10  21  38  63  86 112 155 197 230 276 343
#     4  10  21  36  59  87 113 145 188 237 284 336
#     4  10  20  36  60  85 111 145 189 238 284 337
#     4  10  22  40  58  81 115 153 192 234 283 341
#
# _framework density 21.217480999999999
#
# number of rings (size 3 to 8) (size 9 to 14) (size 15 to 20)
#    0.000    2.000    2.500    0.375    3.500    2.000 
#    0.000    1.250    0.000    0.000    0.000    0.000 
#    0.000    0.000    0.000    0.000    0.000    0.000 
#
# Total GULP energy -178638.066135 kJ/mol
# GULP energy per Si atom -5582.439567 kJ/mol
# Density = 2.116919 g / cm^3
# Si number density = 21.217481 Si / 1000 Ang^3
#
#
#
# Elastic Constant Matrix: (Units=GPa)
#
#
# Indices 1 2 3 4 5 6 
#
# 1 174.4150 -25.3808 116.4188 0.0000 3.9648 0.0000
# 2 -25.3808 48.1580 -2.3132 0.0001 3.2045 0.0000
# 3 116.4188 -2.3132 238.2882 0.0000 4.0115 0.0000
# 4 0.0000 0.0001 0.0000 -3.7556 0.0000 -0.9597
# 5 3.9648 3.2045 4.0115 0.0000 46.6531 0.0000
# 6 0.0000 0.0000 0.0000 -0.9597 0.0000 22.1153
#
#
#
# Elastic Compliance Matrix: (Units=1/GPa)
#
#
# Indices 1 2 3 4 5 6 
#
# 1 0.009521 0.004847 -0.004592 0.000000 -0.000747 0.000000
# 2 0.004847 0.023340 -0.002111 0.000000 -0.001834 0.000000
# 3 -0.004592 -0.002111 0.006420 0.000000 -0.000017 0.000000
# 4 0.000000 0.000000 0.000000 -0.263352 0.000000 -0.011428
# 5 -0.000747 -0.001834 -0.000017 0.000000 0.021626 0.000000
# 6 0.000000 0.000000 0.000000 -0.011428 0.000000 0.044722
#
#
# Mechanical properties :
#
#
# Convention : Reuss Voigt Hill
#
# Bulk Modulus (GPa) = 28.11391 70.92341 49.51866
# Shear Modulus (GPa) = -35.17254 37.81167 1.31956
#
# Velocity S-wave (km/s) = -4.07592 4.22607 0.78948
# Velocity P-wave (km/s) = 2.97855 7.57049 4.92141
#
# Compressibility (1/GPa) = 0.03556958
#
# Stress axis : x y z
#
# Youngs Moduli (GPa) = 105.03404 42.84474 155.76822
#
# Poissons Ratio (x) = -0.20766 0.71526
# Poissons Ratio (y) = -0.50909 0.32876
# Poissons Ratio (z) = 0.48230 0.09043
#
# Static dielectric constant tensor:
#      x y z
#    x 1.727010 0.000000 0.008990 
#    y 0.000000 1.789530 0.000000 
#    z 0.008990 0.000000 1.750940 
# 
# From -- ./inp_files/295807.got.cif
#   From: 2010.05.17/outbox.cif.g08.bks.cpg/sg12_148_cif.got.tgz:295807.got - 2010.06.03 13:09:07.
