data_PCOD9199866
_publ_section_title
;
Structure prediction by ZEFSAII (Michael W. Deem and Ramdas Pophale) SiO2 
 PCOD9199866
Probable space group: C 2/M
;
_chemical_formula_sum "Si O2"
_cell_formula_units_Z 54
_cell_length_a 21.438811
_cell_length_b 17.636033
_cell_length_c 20.897141
_cell_angle_alpha 90.000000
_cell_angle_beta 160.176679
_cell_angle_gamma 90.000000
_cell_volume 2679.433438
_symmetry_space_group_name_H-M "C 2/M"
_symmetry_group_IT_number 12
_symmetry_cell_setting 'monoclinic'
loop_
_space_group_symop_operation_xyz
x,y,z
-x,y,-z
-x,-y,-z
x,-y,z
1/2+x,1/2+y,z
1/2-x,1/2+y,-z
1/2-x,1/2-y,-z
1/2+x,1/2-y,z
loop_
_atom_site_type_symbol
_atom_site_label
_atom_site_fract_x
_atom_site_fract_y
_atom_site_fract_z
Si Si1 0.598948 0.909703 0.326044
Si Si2 0.720546 0.361028 0.272430
Si Si3 0.000000 0.000000 0.000000
Si Si4 0.654797 0.819334 0.017472
Si Si5 0.106896 0.855079 0.945999
Si Si6 0.475075 0.088535 0.349220
Si Si7 0.530645 0.589177 0.730316
Si Si8 0.500000 0.771019 0.000000
O O1 0.475386 0.864761 0.156851
O O2 0.551925 0.887184 0.353596
O O3 0.813173 0.896606 0.518565
O O4 0.562066 0.000000 0.285781
O O5 0.588449 0.361407 0.207900
O O6 0.925035 0.367307 0.497595
O O7 0.649838 0.433560 0.165587
O O8 0.664667 0.285459 0.180573
O O9 0.665080 0.732621 0.003347
O O10 0.851919 0.859526 0.204109
O O11 0.567715 0.816994 0.003961
O O12 0.096358 0.889215 0.865319
O O13 0.257697 0.899975 0.132761
O O14 0.519161 0.000000 0.400059
O O15 0.563808 0.500000 0.751685
#
# Coordination Sequence:
#
# PCOD9199866 Si02
#       8
#     8   8   2   8   8   8   8   4
#     4  10  22  38  63  97 126 156 205 258 321 378
#     4  10  21  41  60  86 126 172 211 251 291 367
#     4  10  20  36  62  80 126 182 214 226 296 356
#     4  11  23  43  62  88 128 167 207 255 311 378
#     4  11  23  36  61  96 129 159 205 254 321 367
#     4  11  21  35  61  97 128 162 202 255 313 366
#     4  11  22  38  63  96 128 156 199 265 322 371
#     4   9  24  45  61  82 121 176 216 250 299 368
#
# _framework density 20.153514999999999
#
# number of rings (size 3 to 8) (size 9 to 14) (size 15 to 20)
#    0.000    1.481    3.704    1.333    2.074    2.963 
#    0.000   12.593    0.000    1.778    0.000    0.000 
#    0.000    0.000    0.000    0.000    0.000    0.000 
#
# Total GULP energy -150774.677495 kJ/mol
# GULP energy per Si atom -5584.247315 kJ/mol
# Density = 2.010764 g / cm^3
# Si number density = 20.153515 Si / 1000 Ang^3
#
#
#
# Elastic Constant Matrix: (Units=GPa)
#
#
# Indices 1 2 3 4 5 6 
#
# 1 91.3807 36.0776 13.0378 -0.0014 -8.3762 -0.0042
# 2 36.0776 43.9511 -2.6527 0.0012 2.5465 -0.0047
# 3 13.0378 -2.6527 52.4739 -0.0072 -16.0277 -0.0230
# 4 -0.0014 0.0012 -0.0072 19.1746 0.0001 0.9588
# 5 -8.3762 2.5465 -16.0277 0.0001 27.0565 -0.0012
# 6 -0.0042 -0.0047 -0.0230 0.9588 -0.0012 -8.2002
#
#
#
# Elastic Compliance Matrix: (Units=1/GPa)
#
#
# Indices 1 2 3 4 5 6 
#
# 1 0.017924 -0.015216 -0.003773 0.000000 0.004746 0.000009
# 2 -0.015216 0.035810 0.003812 -0.000001 -0.005822 -0.000022
# 3 -0.003773 0.003812 0.024077 0.000012 0.012736 -0.000068
# 4 0.000000 -0.000001 0.000012 0.051849 0.000007 0.006063
# 5 0.004746 -0.005822 0.012736 0.000007 0.046521 -0.000041
# 6 0.000009 -0.000022 -0.000068 0.006063 -0.000041 -0.121239
#
#
# Mechanical properties :
#
#
# Convention : Reuss Voigt Hill
#
# Bulk Modulus (GPa) = 21.07103 31.19236 26.13169
# Shear Modulus (GPa) = 49.44913 17.02904 33.23909
#
# Velocity S-wave (km/s) = 4.95878 2.90998 4.06556
# Velocity P-wave (km/s) = 6.57753 5.17703 5.91885
#
# Compressibility (1/GPa) = 0.04745853
#
# Stress axis : x y z
#
# Youngs Moduli (GPa) = 55.79192 27.92536 41.53284
#
# Poissons Ratio (x) = 0.42490 0.15670
# Poissons Ratio (y) = 0.84890 -0.15834
# Poissons Ratio (z) = 0.21050 -0.10646
#
# Static dielectric constant tensor:
#      x y z
#    x 1.735100 0.000000 0.031750 
#    y 0.000000 1.683070 -0.000010 
#    z 0.031750 -0.000010 1.717320 
# 
# From -- ./inp_files/322763.got.cif
#   From: 2010.05.17/outbox.cif.g08.bks.cpg/sg12_162_cif.got.tgz:322763.got - 2010.06.03 13:09:07.
