data_PCOD9199363
_publ_section_title
;
Structure prediction by ZEFSAII (Michael W. Deem and Ramdas Pophale) SiO2 
 PCOD9199363
Probable space group: C 2/M
;
_chemical_formula_sum "Si O2"
_cell_formula_units_Z 48
_cell_length_a 27.789146
_cell_length_b 11.637189
_cell_length_c 20.505741
_cell_angle_alpha 90.000000
_cell_angle_beta 20.216218
_cell_angle_gamma 90.000000
_cell_volume 2291.537866
_symmetry_space_group_name_H-M "C 2/M"
_symmetry_group_IT_number 12
_symmetry_cell_setting 'monoclinic'
loop_
_space_group_symop_operation_xyz
x,y,z
-x,y,-z
-x,-y,-z
x,-y,z
1/2+x,1/2+y,z
1/2-x,1/2+y,-z
1/2-x,1/2-y,-z
1/2+x,1/2-y,z
loop_
_atom_site_type_symbol
_atom_site_label
_atom_site_fract_x
_atom_site_fract_y
_atom_site_fract_z
Si Si1 0.347062 0.669412 0.195805
Si Si2 0.396617 0.134141 0.691102
Si Si3 0.627496 0.717688 0.982024
Si Si4 0.093691 0.871222 0.650631
Si Si5 0.442001 0.872393 0.377300
Si Si6 0.600161 0.127815 0.773230
O O1 0.310182 0.684433 0.167209
O O2 0.219062 0.617743 0.396850
O O3 0.371608 0.788954 0.202397
O O4 0.500000 0.615879 0.000000
O O5 0.500000 0.165451 0.500000
O O6 0.256016 0.208751 0.867284
O O7 0.471208 0.140593 0.665979
O O8 0.356366 0.000000 0.731569
O O9 0.501992 0.634154 0.163779
O O10 0.541422 0.834517 0.081714
O O11 0.049310 0.752294 0.670164
O O12 0.260533 0.864130 0.448425
O O13 0.071193 0.000000 0.648912
O O14 0.479376 0.000000 0.300435
O O15 0.588980 0.000000 0.811268
#
# Coordination Sequence:
#
# PCOD9199363 Si02
#       6
#     8   8   8   8   8   8
#     4   9  19  34  57  88 115 146 192 250 295 343
#     4  10  20  36  60  85 117 152 190 250 304 342
#     4  11  20  34  59  89 114 150 202 244 285 350
#     4  10  22  40  61  86 123 161 194 240 300 358
#     4  10  21  39  60  86 120 156 197 244 297 350
#     4   9  20  39  59  83 120 163 195 237 302 361
#
# _framework density 20.946632000000001
#
# number of rings (size 3 to 8) (size 9 to 14) (size 15 to 20)
#    0.000    2.167    1.667    1.000    0.000    5.333 
#    0.000   17.500    0.000    1.000    0.000    0.000 
#    0.000    0.000    0.000    0.000    0.000    0.000 
#
# Total GULP energy -133674.893219 kJ/mol
# GULP energy per Si atom -5569.787217 kJ/mol
# Density = 2.089896 g / cm^3
# Si number density = 20.946632 Si / 1000 Ang^3
#
#
#
# Elastic Constant Matrix: (Units=GPa)
#
#
# Indices 1 2 3 4 5 6 
#
# 1 49.3199 46.2067 16.8139 0.0000 -6.3565 0.0000
# 2 46.2067 172.5762 23.5126 0.0000 0.3273 0.0000
# 3 16.8139 23.5126 74.1582 0.0000 -0.5628 0.0000
# 4 0.0000 0.0000 0.0000 22.2890 0.0000 -18.6572
# 5 -6.3565 0.3273 -0.5628 0.0000 36.7661 0.0000
# 6 0.0000 0.0000 0.0000 -18.6572 0.0000 1.4173
#
#
#
# Elastic Compliance Matrix: (Units=1/GPa)
#
#
# Indices 1 2 3 4 5 6 
#
# 1 0.029163 -0.007235 -0.004280 0.000000 0.005041 0.000000
# 2 -0.007235 0.007851 -0.000859 0.000000 -0.001334 0.000000
# 3 -0.004280 -0.000859 0.014724 0.000000 -0.000507 0.000000
# 4 0.000000 0.000000 0.000000 -0.004478 0.000000 -0.058948
# 5 0.005041 -0.001334 -0.000507 0.000000 0.028075 0.000000
# 6 0.000000 0.000000 0.000000 -0.058948 0.000000 -0.070423
#
#
# Mechanical properties :
#
#
# Convention : Reuss Voigt Hill
#
# Bulk Modulus (GPa) = 37.05082 52.12452 44.58767
# Shear Modulus (GPa) = 129.35115 26.06256 77.70685
#
# Velocity S-wave (km/s) = 7.86681 3.53120 6.09738
# Velocity P-wave (km/s) = 10.01211 6.44704 8.42041
#
# Compressibility (1/GPa) = 0.02698995
#
# Stress axis : x y z
#
# Youngs Moduli (GPa) = 34.29059 127.36972 67.91810
#
# Poissons Ratio (x) = 0.92147 0.29069
# Poissons Ratio (y) = 0.24808 0.05835
# Poissons Ratio (z) = 0.14676 0.10942
#
# Static dielectric constant tensor:
#      x y z
#    x 1.789400 0.000000 0.029040 
#    y 0.000000 1.780280 0.000000 
#    z 0.029040 0.000000 1.776500 
# 
# From -- ./inp_files/327959.got.cif
#   From: 2010.05.17/outbox.cif.g08.bks.cpg/sg12_164_cif.got.tgz:327959.got - 2010.06.03 13:09:07.
