data_PCOD9199285
_publ_section_title
;
Structure prediction by ZEFSAII (Michael W. Deem and Ramdas Pophale) SiO2 
 PCOD9199285
Probable space group: C 2/M
;
_chemical_formula_sum "Si O2"
_cell_formula_units_Z 44
_cell_length_a 27.299810
_cell_length_b 10.125544
_cell_length_c 7.188489
_cell_angle_alpha 90.000000
_cell_angle_beta 77.100245
_cell_angle_gamma 90.000000
_cell_volume 1936.931486
_symmetry_space_group_name_H-M "C 2/M"
_symmetry_group_IT_number 12
_symmetry_cell_setting 'monoclinic'
loop_
_space_group_symop_operation_xyz
x,y,z
-x,y,-z
-x,-y,-z
x,-y,z
1/2+x,1/2+y,z
1/2-x,1/2+y,-z
1/2-x,1/2-y,-z
1/2+x,1/2-y,z
loop_
_atom_site_type_symbol
_atom_site_label
_atom_site_fract_x
_atom_site_fract_y
_atom_site_fract_z
Si Si1 0.980472 0.151241 0.803906
Si Si2 0.818267 0.500000 0.152766
Si Si3 0.623061 0.733710 0.994190
Si Si4 0.232481 0.500000 0.176217
Si Si5 0.676579 0.273321 0.304144
Si Si6 0.232078 0.000000 0.479437
Si Si7 0.090191 0.153012 0.618069
O O1 0.930659 0.238948 0.853280
O O2 0.031478 0.189765 0.654877
O O3 0.966747 0.000000 0.763351
O O4 0.000000 0.146001 0.000000
O O5 0.791062 0.500000 0.374332
O O6 0.852279 0.372550 0.085031
O O7 0.771665 0.500000 0.043844
O O8 0.661629 0.672903 0.111801
O O9 0.609769 0.661458 0.813720
O O10 0.204074 0.635811 0.250148
O O11 0.276723 0.500000 0.291464
O O12 0.708708 0.371693 0.402873
O O13 0.625280 0.257800 0.462247
O O14 0.095569 0.000000 0.555276
#
# Coordination Sequence:
#
# PCOD9199285 Si02
#       7
#     8   4   8   4   8   4   8
#     4   8  16  32  57  86 120 152 188 239 295 341
#     4  10  24  42  60  83 117 160 197 241 301 346
#     4  10  21  38  60  84 121 155 194 242 291 354
#     4  10  24  44  59  81 126 156 187 257 302 342
#     4  11  24  39  62  91 117 156 203 239 296 357
#     4  12  24  40  64  87 114 153 212 244 289 358
#     4  10  20  36  59  91 123 155 191 245 297 338
#
# _framework density 22.716342999999998
#
# number of rings (size 3 to 8) (size 9 to 14) (size 15 to 20)
#    0.000    2.000    0.909    3.273    2.545    5.091 
#    0.000    6.818    2.000    3.273    0.000    0.000 
#    0.000    0.000    0.000    0.000    0.000    0.000 
#
# Total GULP energy -122854.026144 kJ/mol
# GULP energy per Si atom -5584.273916 kJ/mol
# Density = 2.266464 g / cm^3
# Si number density = 22.716343 Si / 1000 Ang^3
#
#
#
# Elastic Constant Matrix: (Units=GPa)
#
#
# Indices 1 2 3 4 5 6 
#
# 1 87.0613 20.0927 16.4149 0.0000 9.3342 0.0000
# 2 20.0927 35.3952 -0.4808 0.0000 8.6010 0.0000
# 3 16.4149 -0.4808 78.1056 0.0000 29.5624 0.0000
# 4 0.0000 0.0000 0.0000 59.6015 0.0000 -2.4092
# 5 9.3342 8.6010 29.5624 0.0000 54.3371 0.0000
# 6 0.0000 0.0000 0.0000 -2.4092 0.0000 20.2755
#
#
#
# Elastic Compliance Matrix: (Units=1/GPa)
#
#
# Indices 1 2 3 4 5 6 
#
# 1 0.013888 -0.008083 -0.003211 0.000000 0.000641 0.000000
# 2 -0.008083 0.034463 0.004345 0.000000 -0.006430 0.000000
# 3 -0.003211 0.004345 0.017072 0.000000 -0.009424 0.000000
# 4 0.000000 0.000000 0.000000 0.016859 0.000000 0.002003
# 5 0.000641 -0.006430 -0.009424 0.000000 0.024439 0.000000
# 6 0.000000 0.000000 0.000000 0.002003 0.000000 0.049559
#
#
# Mechanical properties :
#
#
# Convention : Reuss Voigt Hill
#
# Bulk Modulus (GPa) = 19.40863 30.29063 24.84963
# Shear Modulus (GPa) = 26.68761 37.81184 32.24973
#
# Velocity S-wave (km/s) = 3.43128 4.08428 3.77194
# Velocity P-wave (km/s) = 4.92552 5.96700 5.47110
#
# Compressibility (1/GPa) = 0.05152348
#
# Stress axis : x y z
#
# Youngs Moduli (GPa) = 72.00238 29.01698 58.57637
#
# Poissons Ratio (x) = 0.23455 0.18809
# Poissons Ratio (y) = 0.58202 -0.25450
# Poissons Ratio (z) = 0.23121 -0.12607
#
# Static dielectric constant tensor:
#      x y z
#    x 1.893270 0.000000 0.004950 
#    y 0.000000 1.756830 0.000000 
#    z 0.004950 0.000000 1.934670 
# 
# From -- ./inp_files/93807.got.cif
#   From: 2010.05.17/outbox.cif.g08.bks.cpg/sg12_47_cif.got.tgz:93807.got - 2010.06.03 13:09:07.
