data_PCOD9199806
_publ_section_title
;
Structure prediction by ZEFSAII (Michael W. Deem and Ramdas Pophale) SiO2 
 PCOD9199806
Probable space group: C 2/M
;
_chemical_formula_sum "Si O2"
_cell_formula_units_Z 64
_cell_length_a 20.813518
_cell_length_b 13.400864
_cell_length_c 16.375166
_cell_angle_alpha 90.000000
_cell_angle_beta 145.283663
_cell_angle_gamma 90.000000
_cell_volume 2601.167678
_symmetry_space_group_name_H-M "C 2/M"
_symmetry_group_IT_number 12
_symmetry_cell_setting 'monoclinic'
loop_
_space_group_symop_operation_xyz
x,y,z
-x,y,-z
-x,-y,-z
x,-y,z
1/2+x,1/2+y,z
1/2-x,1/2+y,-z
1/2-x,1/2-y,-z
1/2+x,1/2-y,z
loop_
_atom_site_type_symbol
_atom_site_label
_atom_site_fract_x
_atom_site_fract_y
_atom_site_fract_z
Si Si1 0.366807 0.390638 0.874877
Si Si2 0.197874 0.882582 0.375760
Si Si3 0.649972 0.887328 0.920010
Si Si4 0.610395 0.117757 0.303695
Si Si5 0.470327 0.380560 0.667906
Si Si6 0.871146 0.667038 0.857462
Si Si7 0.327243 0.253033 0.190617
Si Si8 0.375806 0.353630 0.396524
O O1 0.333424 0.500000 0.877718
O O2 0.302676 0.381370 0.721636
O O3 0.363437 0.273712 0.897069
O O4 0.500000 0.401189 0.000000
O O5 0.308940 0.847754 0.538673
O O6 0.084365 0.849334 0.303565
O O7 0.195548 0.000000 0.393311
O O8 0.518306 0.879336 0.802552
O O9 0.672878 0.854758 0.850594
O O10 0.687451 0.000000 0.974408
O O11 0.716325 0.811530 0.046587
O O12 0.633795 0.178959 0.246000
O O13 0.632835 0.000000 0.306701
O O14 0.492222 0.500000 0.688516
O O15 0.580102 0.317962 0.762272
O O16 0.386835 0.354104 0.505362
O O17 0.753758 0.609187 0.754911
O O18 0.000000 0.625632 0.000000
O O19 0.368842 0.258806 0.327716
O O20 0.500000 0.396967 0.500000
#
# Coordination Sequence:
#
# PCOD9199806 Si02
#       8
#     8   8   8   8   8   8   8   8
#     4   9  20  38  58  86 121 158 203 259 316 371
#     4   9  18  34  57  88 119 149 196 250 303 370
#     4  10  22  41  61  88 126 167 213 264 317 376
#     4  10  21  37  60  92 125 157 201 256 320 383
#     4  10  20  36  61  92 122 156 202 256 314 375
#     4  11  22  37  61  89 124 165 209 256 320 384
#     4  10  22  39  62  87 123 164 216 258 312 380
#     4  10  22  39  58  89 129 165 206 264 323 386
#
# _framework density 24.604336
#
# number of rings (size 3 to 8) (size 9 to 14) (size 15 to 20)
#    0.000    2.125    1.250    1.125    1.750    5.500 
#    2.250    0.625    0.000    3.750    0.000    0.000 
#    0.000    0.000    0.000    0.000    0.000    0.000 
#
# Total GULP energy -178219.434666 kJ/mol
# GULP energy per Si atom -5569.357333 kJ/mol
# Density = 2.454834 g / cm^3
# Si number density = 24.604336 Si / 1000 Ang^3
#
#
#
# Elastic Constant Matrix: (Units=GPa)
#
#
# Indices 1 2 3 4 5 6 
#
# 1 54.8984 27.5459 18.9951 0.0000 12.0046 0.0000
# 2 27.5459 118.6906 2.7633 0.0000 9.7793 0.0000
# 3 18.9951 2.7633 110.5456 0.0000 35.5465 0.0000
# 4 0.0000 0.0000 0.0000 -5.1808 0.0000 -2.2499
# 5 12.0046 9.7793 35.5465 0.0000 45.4814 0.0000
# 6 0.0000 0.0000 0.0000 -2.2499 0.0000 17.5978
#
#
#
# Elastic Compliance Matrix: (Units=1/GPa)
#
#
# Indices 1 2 3 4 5 6 
#
# 1 0.022218 -0.004878 -0.002868 0.000000 -0.002574 0.000000
# 2 -0.004878 0.009669 0.001137 0.000000 -0.001680 0.000000
# 3 -0.002868 0.001137 0.012483 0.000000 -0.009243 0.000000
# 4 0.000000 0.000000 0.000000 -0.182867 0.000000 -0.023380
# 5 -0.002574 -0.001680 -0.009243 0.000000 0.030252 0.000000
# 6 0.000000 0.000000 0.000000 -0.023380 0.000000 0.053836
#
#
# Mechanical properties :
#
#
# Convention : Reuss Voigt Hill
#
# Bulk Modulus (GPa) = 32.10084 42.52701 37.31393
# Shear Modulus (GPa) = -162.30063 27.23504 -67.53279
#
# Velocity S-wave (km/s) = -8.13065 3.33065 -5.24472
# Velocity P-wave (km/s) = 8.66419 5.66682 4.63440
#
# Compressibility (1/GPa) = 0.03115183
#
# Stress axis : x y z
#
# Youngs Moduli (GPa) = 45.00843 103.42096 80.11078
#
# Poissons Ratio (x) = 0.50444 0.22977
# Poissons Ratio (y) = 0.21953 -0.09106
# Poissons Ratio (z) = 0.12909 -0.11755
#
# Static dielectric constant tensor:
#      x y z
#    x 2.039190 0.000000 -0.005980 
#    y 0.000000 2.013210 0.000000 
#    z -0.005980 0.000000 1.951980 
# 
# From -- ./inp_files/290121.got.cif
#   From: 2010.05.17/outbox.cif.g08.bks.cpg/sg12_146_cif.got.tgz:290121.got - 2010.06.03 13:09:07.
