data_PCOD9199933
_publ_section_title
;
Structure prediction by ZEFSAII (Michael W. Deem and Ramdas Pophale) SiO2 
 PCOD9199933
Probable space group: C 2/M
;
_chemical_formula_sum "Si O2"
_cell_formula_units_Z 48
_cell_length_a 15.171732
_cell_length_b 18.725381
_cell_length_c 14.006884
_cell_angle_alpha 90.000000
_cell_angle_beta 139.667151
_cell_angle_gamma 90.000000
_cell_volume 2575.514123
_symmetry_space_group_name_H-M "C 2/M"
_symmetry_group_IT_number 12
_symmetry_cell_setting 'monoclinic'
loop_
_space_group_symop_operation_xyz
x,y,z
-x,y,-z
-x,-y,-z
x,-y,z
1/2+x,1/2+y,z
1/2-x,1/2+y,-z
1/2-x,1/2-y,-z
1/2+x,1/2-y,z
loop_
_atom_site_type_symbol
_atom_site_label
_atom_site_fract_x
_atom_site_fract_y
_atom_site_fract_z
Si Si1 0.171567 0.722969 0.337859
Si Si2 0.030588 0.584521 0.137995
Si Si3 0.220400 0.920917 0.942205
Si Si4 0.149350 0.081435 0.107026
Si Si5 0.645758 0.804623 0.660644
Si Si6 0.385326 0.274494 0.167261
O O1 0.250000 0.750000 0.500000
O O2 0.130386 0.640582 0.274969
O O3 0.269239 0.750425 0.334659
O O4 0.023126 0.760590 0.222521
O O5 0.072321 0.500000 0.176923
O O6 0.000000 0.601824 0.000000
O O7 0.881751 0.590541 0.063674
O O8 0.136398 0.857391 0.825937
O O9 0.189144 0.000000 0.878706
O O10 0.183061 0.918352 0.022908
O O11 0.261304 0.126486 0.252477
O O12 0.147178 0.000000 0.139796
O O13 0.000000 0.113113 0.000000
O O14 0.500000 0.823639 0.500000
O O15 0.615208 0.770899 0.737710
O O16 0.250000 0.250000 0.000000
#
# Coordination Sequence:
#
# PCOD9199933 Si02
#       6
#     8   8   8   8   8   8
#     4  12  25  41  61  92 131 165 206 260 315 380
#     4  10  21  39  65  95 122 160 213 265 313 370
#     4  10  20  36  62  91 119 150 201 258 301 357
#     4  10  21  38  61  91 120 154 202 254 304 364
#     4  12  25  40  60  89 128 165 202 254 310 372
#     4  12  22  40  66  93 119 162 213 254 308 367
#
# _framework density 18.637056999999999
#
# number of rings (size 3 to 8) (size 9 to 14) (size 15 to 20)
#    0.000    1.000    5.000    2.000    0.000    0.333 
#    0.000    1.667    0.000    1.000    0.000    0.000 
#    0.000    0.000    0.000    0.000    0.000    0.000 
#
# Total GULP energy -133859.590570 kJ/mol
# GULP energy per Si atom -5577.482940 kJ/mol
# Density = 1.859464 g / cm^3
# Si number density = 18.637057 Si / 1000 Ang^3
#
#
#
# Elastic Constant Matrix: (Units=GPa)
#
#
# Indices 1 2 3 4 5 6 
#
# 1 105.9137 11.2133 31.1653 0.0000 21.7496 0.0000
# 2 11.2133 122.3494 55.2688 0.0000 18.9147 0.0000
# 3 31.1653 55.2688 111.8102 0.0000 18.4727 0.0000
# 4 0.0000 0.0000 0.0000 0.0497 0.0000 -64.9251
# 5 21.7496 18.9147 18.4727 0.0000 35.2060 0.0000
# 6 0.0000 0.0000 0.0000 -64.9251 0.0000 -376.5449
#
#
#
# Elastic Compliance Matrix: (Units=1/GPa)
#
#
# Indices 1 2 3 4 5 6 
#
# 1 0.011399 0.001145 -0.002713 0.000000 -0.006233 0.000000
# 2 0.001145 0.010978 -0.005096 0.000000 -0.003931 0.000000
# 3 -0.002713 -0.005096 0.012580 0.000000 -0.002187 0.000000
# 4 0.000000 0.000000 0.000000 0.088934 0.000000 -0.015334
# 5 -0.006233 -0.003931 -0.002187 0.000000 0.035515 0.000000
# 6 0.000000 0.000000 0.000000 -0.015334 0.000000 -0.000012
#
#
# Mechanical properties :
#
#
# Convention : Reuss Voigt Hill
#
# Bulk Modulus (GPa) = 46.23662 59.48535 52.86098
# Shear Modulus (GPa) = 27.78815 -52.09609 -12.15397
#
# Velocity S-wave (km/s) = 3.86556 -5.29279 -2.55647
# Velocity P-wave (km/s) = 6.69225 2.31613 4.43969
#
# Compressibility (1/GPa) = 0.02162788
#
# Stress axis : x y z
#
# Youngs Moduli (GPa) = 87.72815 91.08917 79.48900
#
# Poissons Ratio (x) = -0.10426 0.21567
# Poissons Ratio (y) = -0.10041 0.40509
# Poissons Ratio (z) = 0.23802 0.46421
#
# Static dielectric constant tensor:
#      x y z
#    x 1.626910 0.000000 -0.023160 
#    y 0.000000 1.703790 0.000000 
#    z -0.023160 0.000000 1.615370 
# 
# From -- ./inp_files/148002.got.cif
#   From: 2010.05.17/outbox.cif.g08.bks.cpg/sg12_75_cif.got.tgz:148002.got - 2010.06.03 13:09:07.
