data_PCOD9199111
_publ_section_title
;
Structure prediction by ZEFSAII (Michael W. Deem and Ramdas Pophale) SiO2 
 PCOD9199111
Probable space group: C 2/M
;
_chemical_formula_sum "Si O2"
_cell_formula_units_Z 48
_cell_length_a 17.695365
_cell_length_b 16.001087
_cell_length_c 8.103612
_cell_angle_alpha 90.000000
_cell_angle_beta 104.051780
_cell_angle_gamma 90.000000
_cell_volume 2225.838874
_symmetry_space_group_name_H-M "C 2/M"
_symmetry_group_IT_number 12
_symmetry_cell_setting 'monoclinic'
loop_
_space_group_symop_operation_xyz
x,y,z
-x,y,-z
-x,-y,-z
x,-y,z
1/2+x,1/2+y,z
1/2-x,1/2+y,-z
1/2-x,1/2-y,-z
1/2+x,1/2-y,z
loop_
_atom_site_type_symbol
_atom_site_label
_atom_site_fract_x
_atom_site_fract_y
_atom_site_fract_z
Si Si1 0.708011 0.907191 0.091997
Si Si2 0.462382 0.745300 0.250326
Si Si3 0.373751 0.093440 0.308148
Si Si4 0.231269 0.157513 0.420909
Si Si5 0.880205 0.247058 0.849427
Si Si6 0.369213 0.594580 0.332243
O O1 0.664879 0.834858 0.168484
O O2 0.800371 0.895000 0.159591
O O3 0.690926 0.000000 0.149405
O O4 0.675228 0.904368 0.889592
O O5 0.434120 0.830677 0.321315
O O6 0.553003 0.746723 0.253823
O O7 0.432645 0.665624 0.335692
O O8 0.419515 0.738713 0.049088
O O9 0.310926 0.112155 0.416397
O O10 0.407052 0.000000 0.342152
O O11 0.250000 0.250000 0.500000
O O12 0.180835 0.175617 0.230073
O O13 0.177683 0.109796 0.523096
O O14 0.399561 0.500000 0.340414
#
# Coordination Sequence:
#
# PCOD9199111 Si02
#       6
#     8   8   8   8   8   8
#     4   9  18  34  59  86 111 144 189 235 274 327
#     4  10  21  39  59  84 114 150 186 231 277 333
#     4  10  20  36  59  86 115 147 187 229 276 332
#     4  12  21  36  57  83 112 149 186 231 278 328
#     4  10  21  37  59  83 115 150 186 228 282 331
#     4  11  22  38  58  83 112 148 192 235 280 328
#
# _framework density 21.564902
#
# number of rings (size 3 to 8) (size 9 to 14) (size 15 to 20)
#    0.000    1.667    3.333    1.500    0.000    4.000 
#    0.000    8.333    0.000    1.000    0.000    0.000 
#    0.000    0.000    0.000    0.000    0.000    0.000 
#
# Total GULP energy -134180.998120 kJ/mol
# GULP energy per Si atom -5590.874922 kJ/mol
# Density = 2.151582 g / cm^3
# Si number density = 21.564902 Si / 1000 Ang^3
#
#
#
# Elastic Constant Matrix: (Units=GPa)
#
#
# Indices 1 2 3 4 5 6 
#
# 1 74.6483 59.5205 11.4370 0.0000 -24.9711 0.0000
# 2 59.5205 148.1861 20.8769 0.0000 -25.4920 0.0000
# 3 11.4370 20.8769 64.1617 0.0000 -5.9466 0.0000
# 4 0.0000 0.0000 0.0000 25.2156 0.0000 -9.2130
# 5 -24.9711 -25.4920 -5.9466 0.0000 41.8891 0.0000
# 6 0.0000 0.0000 0.0000 -9.2130 0.0000 -13.0279
#
#
#
# Elastic Compliance Matrix: (Units=1/GPa)
#
#
# Indices 1 2 3 4 5 6 
#
# 1 0.022281 -0.007343 -0.000776 0.000000 0.008704 0.000000
# 2 -0.007343 0.010234 -0.001874 0.000000 0.001585 0.000000
# 3 -0.000776 -0.001874 0.016401 0.000000 0.000725 0.000000
# 4 0.000000 0.000000 0.000000 0.031515 0.000000 -0.022287
# 5 0.008704 0.001585 0.000725 0.000000 0.030128 0.000000
# 6 0.000000 0.000000 0.000000 -0.022287 0.000000 -0.060998
#
#
# Mechanical properties :
#
#
# Convention : Reuss Voigt Hill
#
# Bulk Modulus (GPa) = 34.56542 52.29612 43.43077
# Shear Modulus (GPa) = 63.13749 23.82614 43.48182
#
# Velocity S-wave (km/s) = 5.41678 3.32755 4.49522
# Velocity P-wave (km/s) = 7.42868 6.25033 6.86483
#
# Compressibility (1/GPa) = 0.02893065
#
# Stress axis : x y z
#
# Youngs Moduli (GPa) = 44.88032 97.71020 60.97206
#
# Poissons Ratio (x) = 0.71749 0.04730
# Poissons Ratio (y) = 0.32956 0.11428
# Poissons Ratio (z) = 0.03482 0.18313
#
# Static dielectric constant tensor:
#      x y z
#    x 1.745920 0.000000 0.037310 
#    y 0.000000 1.756700 0.000000 
#    z 0.037310 0.000000 1.834100 
# 
# From -- ./inp_files/73601.got.cif
#   From: 2010.05.17/outbox.cif.g08.bks.cpg/sg12_37_cif.got.tgz:73601.got - 2010.06.03 13:09:07.
