data_PCOD9199737
_publ_section_title
;
Structure prediction by ZEFSAII (Michael W. Deem and Ramdas Pophale) SiO2 
 PCOD9199737
Probable space group: C 2/M
;
_chemical_formula_sum "Si O2"
_cell_formula_units_Z 48
_cell_length_a 10.669811
_cell_length_b 16.438654
_cell_length_c 13.667963
_cell_angle_alpha 90.000000
_cell_angle_beta 114.012578
_cell_angle_gamma 90.000000
_cell_volume 2189.850555
_symmetry_space_group_name_H-M "C 2/M"
_symmetry_group_IT_number 12
_symmetry_cell_setting 'monoclinic'
loop_
_space_group_symop_operation_xyz
x,y,z
-x,y,-z
-x,-y,-z
x,-y,z
1/2+x,1/2+y,z
1/2-x,1/2+y,-z
1/2-x,1/2-y,-z
1/2+x,1/2-y,z
loop_
_atom_site_type_symbol
_atom_site_label
_atom_site_fract_x
_atom_site_fract_y
_atom_site_fract_z
Si Si1 0.852646 0.586450 0.501951
Si Si2 0.206938 0.091280 0.852927
Si Si3 0.063326 0.912580 0.353603
Si Si4 0.769367 0.760922 0.772801
Si Si5 0.336774 0.589929 0.934823
Si Si6 0.450632 0.758608 0.638365
O O1 0.835401 0.500000 0.552945
O O2 0.726417 0.587050 0.385914
O O3 0.861155 0.669889 0.563760
O O4 0.000000 0.583084 0.500000
O O5 0.269228 0.170539 0.821080
O O6 0.045636 0.092449 0.769177
O O7 0.257056 0.000000 0.840356
O O8 0.221799 0.098876 0.973961
O O9 0.049595 0.830512 0.410602
O O10 0.032853 0.000000 0.391605
O O11 0.802296 0.832900 0.858423
O O12 0.611772 0.778673 0.691448
O O13 0.880694 0.757125 0.721588
O O14 0.294731 0.500000 0.882681
O O15 0.500000 0.588055 0.000000
#
# Coordination Sequence:
#
# PCOD9199737 Si02
#       6
#     8   8   8   8   8   8
#     4  10  21  37  59  87 120 157 198 247 299 355
#     4   9  19  36  57  82 115 156 200 248 300 354
#     4   9  18  35  57  81 112 152 197 242 291 348
#     4  11  23  38  59  88 121 159 200 247 299 355
#     4  10  20  36  61  89 118 157 204 248 293 354
#     4  11  23  38  60  88 120 160 200 245 299 356
#
# _framework density 21.919304
#
# number of rings (size 3 to 8) (size 9 to 14) (size 15 to 20)
#    0.000    2.000    0.000    4.000    0.000    3.333 
#    0.000    2.500    0.000   12.000    0.000    0.000 
#    0.000    0.000    0.000    0.000    0.000    0.000 
#
# Total GULP energy -133739.157186 kJ/mol
# GULP energy per Si atom -5572.464883 kJ/mol
# Density = 2.186941 g / cm^3
# Si number density = 21.919304 Si / 1000 Ang^3
#
#
#
# Elastic Constant Matrix: (Units=GPa)
#
#
# Indices 1 2 3 4 5 6 
#
# 1 66.2711 20.1136 22.9560 0.0000 -4.0412 0.0000
# 2 20.1136 240.6691 57.7566 0.0000 -8.1557 0.0000
# 3 22.9560 57.7566 46.6447 0.0000 -3.5150 0.0000
# 4 0.0000 0.0000 0.0000 39.2310 0.0000 4.1970
# 5 -4.0412 -8.1557 -3.5150 0.0000 27.9284 0.0000
# 6 0.0000 0.0000 0.0000 4.1970 0.0000 17.0802
#
#
#
# Elastic Compliance Matrix: (Units=1/GPa)
#
#
# Indices 1 2 3 4 5 6 
#
# 1 0.018403 0.000942 -0.010097 0.000000 0.001667 0.000000
# 2 0.000942 0.005978 -0.007798 0.000000 0.000901 0.000000
# 3 -0.010097 -0.007798 0.036125 0.000000 0.000808 0.000000
# 4 0.000000 0.000000 0.000000 0.026178 0.000000 -0.006433
# 5 0.001667 0.000901 0.000808 0.000000 0.036412 0.000000
# 6 0.000000 0.000000 0.000000 -0.006433 0.000000 0.060128
#
#
# Mechanical properties :
#
#
# Convention : Reuss Voigt Hill
#
# Bulk Modulus (GPa) = 37.59601 61.69303 49.64452
# Shear Modulus (GPa) = 22.12413 33.69852 27.91132
#
# Velocity S-wave (km/s) = 3.18046 3.92521 3.57230
# Velocity P-wave (km/s) = 5.53863 6.98210 6.30183
#
# Compressibility (1/GPa) = 0.02659857
#
# Stress axis : x y z
#
# Youngs Moduli (GPa) = 54.33878 167.27132 27.68189
#
# Poissons Ratio (x) = -0.15752 0.27951
# Poissons Ratio (y) = -0.05117 0.21587
# Poissons Ratio (z) = 0.54868 1.30439
#
# Static dielectric constant tensor:
#      x y z
#    x 1.794130 0.000000 -0.011660 
#    y 0.000000 1.935830 0.000000 
#    z -0.011660 0.000000 1.805330 
# 
# From -- ./inp_files/205142.got.cif
#   From: 2010.05.17/outbox.cif.g08.bks.cpg/sg12_103_cif.got.tgz:205142.got - 2010.06.03 13:09:07.
