data_PCOD9199356
_publ_section_title
;
Structure prediction by ZEFSAII (Michael W. Deem and Ramdas Pophale) SiO2 
 PCOD9199356
Probable space group: C 2/M
;
_chemical_formula_sum "Si O2"
_cell_formula_units_Z 56
_cell_length_a 20.952980
_cell_length_b 8.688010
_cell_length_c 16.424436
_cell_angle_alpha 90.000000
_cell_angle_beta 98.326375
_cell_angle_gamma 90.000000
_cell_volume 2958.383564
_symmetry_space_group_name_H-M "C 2/M"
_symmetry_group_IT_number 12
_symmetry_cell_setting 'monoclinic'
loop_
_space_group_symop_operation_xyz
x,y,z
-x,y,-z
-x,-y,-z
x,-y,z
1/2+x,1/2+y,z
1/2-x,1/2+y,-z
1/2-x,1/2-y,-z
1/2+x,1/2-y,z
loop_
_atom_site_type_symbol
_atom_site_label
_atom_site_fract_x
_atom_site_fract_y
_atom_site_fract_z
Si Si1 0.157962 0.685627 0.681798
Si Si2 0.320610 0.316757 0.492300
Si Si3 0.798532 0.185595 0.776597
Si Si4 0.950473 0.185955 0.061429
Si Si5 0.530951 0.185657 0.756672
Si Si6 0.312646 0.685792 0.966882
Si Si7 0.394195 0.184342 0.658310
O O1 0.155811 0.500000 0.672949
O O2 0.159273 0.758423 0.592851
O O3 0.224878 0.724077 0.739506
O O4 0.095886 0.735037 0.722142
O O5 0.316907 0.500000 0.493040
O O6 0.250000 0.250000 0.500000
O O7 0.369326 0.258652 0.570481
O O8 0.813085 0.231505 0.872021
O O9 0.846357 0.263223 0.721442
O O10 0.805735 0.000000 0.771466
O O11 0.969777 0.249259 0.152581
O O12 0.951511 0.000000 0.064702
O O13 0.878352 0.235495 0.023314
O O14 0.000000 0.234423 0.000000
O O15 0.466574 0.231108 0.696282
O O16 0.531724 0.000000 0.761448
O O17 0.310114 0.500000 0.968372
O O18 0.250000 0.750000 0.000000
O O19 0.391804 0.000000 0.649931
#
# Coordination Sequence:
#
# PCOD9199356 Si02
#       7
#     8   8   8   8   8   8   8
#     4  10  21  39  62  87 119 158 199 244 296 351
#     4  12  24  40  63  91 121 154 195 242 294 353
#     4  10  20  36  60  85 113 154 201 246 295 350
#     4  10  21  38  60  85 118 159 203 250 297 350
#     4  10  23  41  61  88 121 159 200 245 298 353
#     4  10  21  36  56  85 117 153 196 244 298 352
#     4  11  23  39  61  89 120 153 196 245 293 351
#
# _framework density 18.929255999999999
#
# number of rings (size 3 to 8) (size 9 to 14) (size 15 to 20)
#    0.000    1.571    1.429    3.429    0.000    6.000 
#    0.000    2.857    0.000    0.000    0.000    0.000 
#    0.000    0.000    0.000    0.000    0.000    0.000 
#
# Total GULP energy -156538.220783 kJ/mol
# GULP energy per Si atom -5590.650742 kJ/mol
# Density = 1.888617 g / cm^3
# Si number density = 18.929256 Si / 1000 Ang^3
#
#
#
# Elastic Constant Matrix: (Units=GPa)
#
#
# Indices 1 2 3 4 5 6 
#
# 1 115.8996 24.9889 28.1484 0.0000 7.9898 0.0000
# 2 24.9889 23.4011 22.1606 0.0000 5.4943 0.0000
# 3 28.1484 22.1606 108.3615 0.0000 13.5386 0.0000
# 4 0.0000 0.0000 0.0000 34.8234 0.0000 -3.5830
# 5 7.9898 5.4943 13.5386 0.0000 38.2033 0.0000
# 6 0.0000 0.0000 0.0000 -3.5830 0.0000 27.0183
#
#
#
# Elastic Compliance Matrix: (Units=1/GPa)
#
#
# Indices 1 2 3 4 5 6 
#
# 1 0.011248 -0.011388 -0.000527 0.000000 -0.000528 0.000000
# 2 -0.011388 0.065104 -0.009923 0.000000 -0.003465 0.000000
# 3 -0.000527 -0.009923 0.011721 0.000000 -0.002617 0.000000
# 4 0.000000 0.000000 0.000000 0.029114 0.000000 0.003861
# 5 -0.000528 -0.003465 -0.002617 0.000000 0.027712 0.000000
# 6 0.000000 0.000000 0.000000 0.003861 0.000000 0.037524
#
#
# Mechanical properties :
#
#
# Convention : Reuss Voigt Hill
#
# Bulk Modulus (GPa) = 22.52384 44.25089 33.38737
# Shear Modulus (GPa) = 20.75563 31.49997 26.12780
#
# Velocity S-wave (km/s) = 3.31491 4.08375 3.71925
# Velocity P-wave (km/s) = 5.15522 6.75750 6.00999
#
# Compressibility (1/GPa) = 0.04439740
#
# Stress axis : x y z
#
# Youngs Moduli (GPa) = 88.90555 15.35995 85.31332
#
# Poissons Ratio (x) = 0.17492 0.04495
# Poissons Ratio (y) = 1.01247 0.84658
# Poissons Ratio (z) = 0.04684 0.15242
#
# Static dielectric constant tensor:
#      x y z
#    x 1.643400 0.000000 0.010960 
#    y 0.000000 1.645950 0.000000 
#    z 0.010960 0.000000 1.616800 
# 
# From -- ./inp_files/230977.got.cif
#   From: 2010.05.17/outbox.cif.g08.bks.cpg/sg12_116_cif.got.tgz:230977.got - 2010.06.03 13:09:07.
