data_PCOD9199352
_publ_section_title
;
Structure prediction by ZEFSAII (Michael W. Deem and Ramdas Pophale) SiO2 
 PCOD9199352
Probable space group: C 2/M
;
_chemical_formula_sum "Si O2"
_cell_formula_units_Z 56
_cell_length_a 7.000529
_cell_length_b 14.451852
_cell_length_c 21.578039
_cell_angle_alpha 90.000000
_cell_angle_beta 106.196447
_cell_angle_gamma 90.000000
_cell_volume 2096.419712
_symmetry_space_group_name_H-M "C 2/M"
_symmetry_group_IT_number 12
_symmetry_cell_setting 'monoclinic'
loop_
_space_group_symop_operation_xyz
x,y,z
-x,y,-z
-x,-y,-z
x,-y,z
1/2+x,1/2+y,z
1/2-x,1/2+y,-z
1/2-x,1/2-y,-z
1/2+x,1/2-y,z
loop_
_atom_site_type_symbol
_atom_site_label
_atom_site_fract_x
_atom_site_fract_y
_atom_site_fract_z
Si Si1 0.772552 0.865790 0.270922
Si Si2 0.943363 0.218297 0.052794
Si Si3 0.871600 0.899236 0.835596
Si Si4 0.451590 0.897306 0.871172
Si Si5 0.353410 0.150820 0.295686
Si Si6 0.065409 0.678486 0.436715
Si Si7 0.523589 0.394247 0.586177
O O1 0.721950 0.895123 0.196737
O O2 0.560649 0.882754 0.285626
O O3 0.820581 0.757262 0.274438
O O4 0.927705 0.900451 0.336118
O O5 0.051807 0.316062 0.079373
O O6 0.976033 0.170406 0.120674
O O7 0.750000 0.250000 0.000000
O O8 0.000000 0.150565 0.000000
O O9 0.659795 0.882275 0.851598
O O10 0.824444 0.895112 0.758360
O O11 0.940159 0.000000 0.858388
O O12 0.457085 0.000000 0.898704
O O13 0.394211 0.147807 0.372305
O O14 0.081947 0.792040 0.433133
O O15 0.000000 0.654022 0.500000
O O16 0.268417 0.628701 0.432098
O O17 0.453255 0.500000 0.563197
#
# Coordination Sequence:
#
# PCOD9199352 Si02
#       7
#     8   8   8   8   8   8   8
#     4   9  17  33  59  85 111 149 198 242 293 346
#     4  12  24  39  60  84 115 149 186 237 293 349
#     4  10  21  39  63  87 112 151 198 238 288 357
#     4  10  20  36  60  85 112 148 192 235 289 350
#     4   9  18  33  60  86 116 153 195 244 290 346
#     4  10  21  38  61  94 130 167 209 256 313 374
#     4  10  21  38  61  90 125 166 212 261 312 368
#
# _framework density 26.712206999999999
#
# number of rings (size 3 to 8) (size 9 to 14) (size 15 to 20)
#    0.000    2.000    2.857    0.857    0.000    5.143 
#    0.000    0.714    0.000   11.143    0.000    0.000 
#    0.000    0.000    0.000    0.000    0.000    0.000 
#
# Total GULP energy -156221.237783 kJ/mol
# GULP energy per Si atom -5579.329921 kJ/mol
# Density = 2.665141 g / cm^3
# Si number density = 26.712207 Si / 1000 Ang^3
#
#
#
# Elastic Constant Matrix: (Units=GPa)
#
#
# Indices 1 2 3 4 5 6 
#
# 1 72.5886 -4.0141 35.9936 0.0000 -14.4005 0.0000
# 2 -4.0141 143.8596 47.7766 0.0000 -5.5779 0.0000
# 3 35.9936 47.7766 188.6795 0.0000 -15.8953 0.0000
# 4 0.0000 0.0000 0.0000 -31.4096 0.0000 -17.8427
# 5 -14.4005 -5.5779 -15.8953 0.0000 52.6160 0.0000
# 6 0.0000 0.0000 0.0000 -17.8427 0.0000 14.2116
#
#
#
# Elastic Compliance Matrix: (Units=1/GPa)
#
#
# Indices 1 2 3 4 5 6 
#
# 1 0.016175 0.001654 -0.003198 0.000000 0.003636 0.000000
# 2 0.001654 0.007761 -0.002230 0.000000 0.000602 0.000000
# 3 -0.003198 -0.002230 0.006548 0.000000 0.000866 0.000000
# 4 0.000000 0.000000 0.000000 -0.018583 0.000000 -0.023332
# 5 0.003636 0.000602 0.000866 0.000000 0.020326 0.000000
# 6 0.000000 0.000000 0.000000 -0.023332 0.000000 0.041072
#
#
# Mechanical properties :
#
#
# Convention : Reuss Voigt Hill
#
# Bulk Modulus (GPa) = 43.59914 62.73776 53.16845
# Shear Modulus (GPa) = 56.50186 28.77502 42.63844
#
# Velocity S-wave (km/s) = 4.60413 3.28567 3.99960
# Velocity P-wave (km/s) = 6.67991 6.15887 6.42468
#
# Compressibility (1/GPa) = 0.02293623
#
# Stress axis : x y z
#
# Youngs Moduli (GPa) = 61.82376 128.84289 152.72254
#
# Poissons Ratio (x) = -0.21317 0.48845
# Poissons Ratio (y) = -0.10229 0.34060
# Poissons Ratio (z) = 0.19773 0.28735
#
# Static dielectric constant tensor:
#      x y z
#    x 2.571820 0.000000 -0.057240 
#    y 0.000000 2.007240 0.000000 
#    z -0.057240 0.000000 2.018020 
# 
# From -- ./inp_files/333023.got.cif
#   From: 2010.05.17/outbox.cif.g08.bks.cpg/sg12_167_cif.got.tgz:333023.got - 2010.06.03 13:09:07.
