data_PCOD9199629
_publ_section_title
;
Structure prediction by ZEFSAII (Michael W. Deem and Ramdas Pophale) SiO2 
 PCOD9199629
Probable space group: C 2/M
;
_chemical_formula_sum "Si O2"
_cell_formula_units_Z 58
_cell_length_a 26.118925
_cell_length_b 20.508098
_cell_length_c 9.927303
_cell_angle_alpha 90.000000
_cell_angle_beta 35.074655
_cell_angle_gamma 90.000000
_cell_volume 3055.697054
_symmetry_space_group_name_H-M "C 2/M"
_symmetry_group_IT_number 12
_symmetry_cell_setting 'monoclinic'
loop_
_space_group_symop_operation_xyz
x,y,z
-x,y,-z
-x,-y,-z
x,-y,z
1/2+x,1/2+y,z
1/2-x,1/2+y,-z
1/2-x,1/2-y,-z
1/2+x,1/2-y,z
loop_
_atom_site_type_symbol
_atom_site_label
_atom_site_fract_x
_atom_site_fract_y
_atom_site_fract_z
Si Si1 0.706955 0.250975 0.244414
Si Si2 0.103057 0.426770 0.819603
Si Si3 0.000000 0.000000 0.500000
Si Si4 0.005631 0.791353 0.649332
Si Si5 0.631510 0.177830 0.989879
Si Si6 0.591150 0.575144 0.154111
Si Si7 0.203548 0.399617 0.327427
Si Si8 0.106479 0.569433 0.262777
O O1 0.609757 0.283610 0.457159
O O2 0.775368 0.285431 0.197635
O O3 0.699462 0.177254 0.310468
O O4 0.750000 0.250000 0.000000
O O5 0.117918 0.500000 0.842169
O O6 0.123341 0.370189 0.881765
O O7 0.160072 0.418451 0.561626
O O8 0.000000 0.421940 0.000000
O O9 0.077328 0.060944 0.342138
O O10 0.000000 0.785281 0.500000
O O11 0.959202 0.860668 0.786351
O O12 0.947413 0.731487 0.834242
O O13 0.629925 0.131830 0.124849
O O14 0.548541 0.500000 0.217518
O O15 0.693406 0.578480 0.897022
O O16 0.148968 0.427589 0.318908
O O17 0.134078 0.500000 0.141175
O O18 0.000000 0.570030 0.500000
#
# Coordination Sequence:
#
# PCOD9199629 Si02
#       8
#     8   8   2   8   8   8   8   8
#     4  12  23  37  63  99 133 168 217 275 350 398
#     4  11  25  45  67  94 133 181 228 273 329 403
#     4   8  20  32  56  92 124 146 210 272 312 366
#     4  12  20  38  61  91 134 172 212 273 335 404
#     4  12  24  40  63  94 133 174 213 278 337 398
#     4  10  20  36  60  92 126 165 216 271 319 384
#     4  12  22  42  67  94 125 176 225 271 330 400
#     4  11  22  36  58  92 128 164 211 269 334 400
#
# _framework density 18.980938999999999
#
# number of rings (size 3 to 8) (size 9 to 14) (size 15 to 20)
#    0.414    0.276    4.828    4.552    0.000    2.759 
#    0.000    0.690    0.000    0.000    0.000    1.931 
#    0.000    0.000    0.000    0.000    0.000    0.000 
#
# Total GULP energy -161526.442702 kJ/mol
# GULP energy per Si atom -5569.877335 kJ/mol
# Density = 1.893774 g / cm^3
# Si number density = 18.980939 Si / 1000 Ang^3
#
#
#
# Elastic Constant Matrix: (Units=GPa)
#
#
# Indices 1 2 3 4 5 6 
#
# 1 78.2819 51.7456 62.1732 0.0000 -13.1254 0.0000
# 2 51.7456 161.8394 58.3910 0.0000 -11.4201 0.0000
# 3 62.1732 58.3910 131.9117 0.0000 -24.7740 0.0000
# 4 0.0000 0.0000 0.0000 64.6085 0.0000 -33.2959
# 5 -13.1254 -11.4201 -24.7740 0.0000 34.4348 0.0000
# 6 0.0000 0.0000 0.0000 -33.2959 0.0000 76.2044
#
#
#
# Elastic Compliance Matrix: (Units=1/GPa)
#
#
# Indices 1 2 3 4 5 6 
#
# 1 0.022421 -0.003991 -0.008608 0.000000 0.001030 0.000000
# 2 -0.003991 0.008064 -0.001702 0.000000 -0.000071 0.000000
# 3 -0.008608 -0.001702 0.013492 0.000000 0.005861 0.000000
# 4 0.000000 0.000000 0.000000 0.019976 0.000000 0.008728
# 5 0.001030 -0.000071 0.005861 0.000000 0.033626 0.000000
# 6 0.000000 0.000000 0.000000 0.008728 0.000000 0.016936
#
#
# Mechanical properties :
#
#
# Convention : Reuss Voigt Hill
#
# Bulk Modulus (GPa) = 65.03421 79.62808 72.33114
# Shear Modulus (GPa) = 33.72856 48.36442 41.04649
#
# Velocity S-wave (km/s) = 4.21999 5.05330 4.65533
# Velocity P-wave (km/s) = 7.62113 8.72298 8.19061
#
# Compressibility (1/GPa) = 0.01537652
#
# Stress axis : x y z
#
# Youngs Moduli (GPa) = 44.60017 124.00874 74.11698
#
# Poissons Ratio (x) = 0.49486 0.63799
# Poissons Ratio (y) = 0.17798 0.12615
# Poissons Ratio (z) = 0.38391 0.21107
#
# Static dielectric constant tensor:
#      x y z
#    x 1.644150 0.000000 -0.011280 
#    y 0.000000 1.685910 0.000000 
#    z -0.011280 0.000000 1.725690 
# 
# From -- ./inp_files/99271.got.cif
#   From: 2010.05.17/outbox.cif.g08.bks.cpg/sg12_50_cif.got.tgz:99271.got - 2010.06.03 13:09:07.
