data_PCOD9199350
_publ_section_title
;
Structure prediction by ZEFSAII (Michael W. Deem and Ramdas Pophale) SiO2 
 PCOD9199350
Probable space group: C 2/M
;
_chemical_formula_sum "Si O2"
_cell_formula_units_Z 56
_cell_length_a 21.898337
_cell_length_b 9.075123
_cell_length_c 16.687000
_cell_angle_alpha 90.000000
_cell_angle_beta 118.188727
_cell_angle_gamma 90.000000
_cell_volume 2922.894890
_symmetry_space_group_name_H-M "C 2/M"
_symmetry_group_IT_number 12
_symmetry_cell_setting 'monoclinic'
loop_
_space_group_symop_operation_xyz
x,y,z
-x,y,-z
-x,-y,-z
x,-y,z
1/2+x,1/2+y,z
1/2-x,1/2+y,-z
1/2-x,1/2-y,-z
1/2+x,1/2-y,z
loop_
_atom_site_type_symbol
_atom_site_label
_atom_site_fract_x
_atom_site_fract_y
_atom_site_fract_z
Si Si1 0.167071 0.824164 0.104842
Si Si2 0.281827 0.671259 0.271885
Si Si3 0.467269 0.333908 0.890566
Si Si4 0.096814 0.673896 0.909366
Si Si5 0.540036 0.679413 0.443917
Si Si6 0.298976 0.678295 0.463804
Si Si7 0.916724 0.828338 0.259983
O O1 0.239214 0.767587 0.182979
O O2 0.110676 0.786217 0.139253
O O3 0.164934 0.000000 0.092937
O O4 0.142780 0.749099 0.007311
O O5 0.260838 0.500000 0.249556
O O6 0.272331 0.715715 0.357953
O O7 0.362816 0.678726 0.299871
O O8 0.468813 0.500000 0.857162
O O9 0.517367 0.225158 0.875159
O O10 0.500000 0.343316 0.000000
O O11 0.103928 0.500000 0.919079
O O12 0.112654 0.735260 0.831532
O O13 0.500000 0.729023 0.500000
O O14 0.540379 0.500000 0.447328
O O15 0.619872 0.725253 0.483149
O O16 0.491228 0.721043 0.338846
O O17 0.297560 0.500000 0.470576
O O18 0.250000 0.750000 0.500000
O O19 0.920752 0.000000 0.237570
#
# Coordination Sequence:
#
# PCOD9199350 Si02
#       7
#     8   8   8   8   8   8   8
#     4  10  21  37  58  81 112 154 195 236 286 346
#     4  10  21  37  58  84 114 151 194 242 294 345
#     4   8  16  33  54  75 102 141 188 233 278 334
#     4  11  22  35  54  83 117 150 189 238 292 347
#     4   9  16  34  64  88 107 146 201 243 281 340
#     4  10  21  38  61  91 123 153 193 244 297 353
#     4  10  20  36  60  85 111 148 198 246 286 340
#
# _framework density 19.159087
#
# number of rings (size 3 to 8) (size 9 to 14) (size 15 to 20)
#    0.000    2.286    1.429    2.571    0.000    6.000 
#    0.000    5.000    0.000    0.857    0.000    0.000 
#    0.000    0.000    0.000    0.000    0.000    0.000 
#
# Total GULP energy -156168.502632 kJ/mol
# GULP energy per Si atom -5577.446523 kJ/mol
# Density = 1.911548 g / cm^3
# Si number density = 19.159087 Si / 1000 Ang^3
#
#
#
# Elastic Constant Matrix: (Units=GPa)
#
#
# Indices 1 2 3 4 5 6 
#
# 1 92.0932 26.0050 47.9596 0.0000 -4.4675 0.0000
# 2 26.0050 58.3168 47.2017 0.0000 -7.3906 0.0000
# 3 47.9596 47.2017 107.9328 0.0000 -1.0628 0.0000
# 4 0.0000 0.0000 0.0000 15.4780 0.0000 -5.9494
# 5 -4.4675 -7.3906 -1.0628 0.0000 35.8934 0.0000
# 6 0.0000 0.0000 0.0000 -5.9494 0.0000 19.6249
#
#
#
# Elastic Compliance Matrix: (Units=1/GPa)
#
#
# Indices 1 2 3 4 5 6 
#
# 1 0.014319 -0.001679 -0.005616 0.000000 0.001270 0.000000
# 2 -0.001679 0.027717 -0.011324 0.000000 0.005163 0.000000
# 3 -0.005616 -0.011324 0.016688 0.000000 -0.002537 0.000000
# 4 0.000000 0.000000 0.000000 0.073129 0.000000 0.022170
# 5 0.001270 0.005163 -0.002537 0.000000 0.029006 0.000000
# 6 0.000000 0.000000 0.000000 0.022170 0.000000 0.057677
#
#
# Mechanical properties :
#
#
# Convention : Reuss Voigt Hill
#
# Bulk Modulus (GPa) = 46.54331 55.63061 51.08696
# Shear Modulus (GPa) = 19.01610 23.34434 21.18022
#
# Velocity S-wave (km/s) = 3.15387 3.49441 3.32850
# Velocity P-wave (km/s) = 6.13257 6.73650 6.44161
#
# Compressibility (1/GPa) = 0.02148536
#
# Stress axis : x y z
#
# Youngs Moduli (GPa) = 69.83822 36.07956 59.92363
#
# Poissons Ratio (x) = 0.06056 0.33653
# Poissons Ratio (y) = 0.11723 0.67860
# Poissons Ratio (z) = 0.39221 0.40858
#
# Static dielectric constant tensor:
#      x y z
#    x 1.719360 0.000000 0.005530 
#    y 0.000000 1.646340 0.000000 
#    z 0.005530 0.000000 1.659190 
# 
# From -- ./inp_files/281733.got.cif
#   From: 2010.05.17/outbox.cif.g08.bks.cpg/sg12_141_cif.got.tgz:281733.got - 2010.06.03 13:09:07.
