data_PCOD9199309
_publ_section_title
;
Structure prediction by ZEFSAII (Michael W. Deem and Ramdas Pophale) SiO2 
 PCOD9199309
Probable space group: C 2/M
;
_chemical_formula_sum "Si O2"
_cell_formula_units_Z 44
_cell_length_a 25.058928
_cell_length_b 16.165903
_cell_length_c 6.451866
_cell_angle_alpha 90.000000
_cell_angle_beta 55.518495
_cell_angle_gamma 90.000000
_cell_volume 2154.456983
_symmetry_space_group_name_H-M "C 2/M"
_symmetry_group_IT_number 12
_symmetry_cell_setting 'monoclinic'
loop_
_space_group_symop_operation_xyz
x,y,z
-x,y,-z
-x,-y,-z
x,-y,z
1/2+x,1/2+y,z
1/2-x,1/2+y,-z
1/2-x,1/2-y,-z
1/2+x,1/2-y,z
loop_
_atom_site_type_symbol
_atom_site_label
_atom_site_fract_x
_atom_site_fract_y
_atom_site_fract_z
Si Si1 0.785088 0.693760 0.246670
Si Si2 0.000000 0.167687 0.500000
Si Si3 0.767083 0.091312 0.993136
Si Si4 0.150259 0.408610 0.567830
Si Si5 0.433038 0.744995 0.270080
Si Si6 0.878045 0.839309 0.019311
O O1 0.750000 0.750000 0.500000
O O2 0.738478 0.663455 0.165691
O O3 0.810572 0.612825 0.308888
O O4 0.846789 0.748027 0.034927
O O5 0.952797 0.218105 0.453832
O O6 0.946068 0.129873 0.771814
O O7 0.775340 0.000000 0.881024
O O8 0.700355 0.093821 0.267705
O O9 0.822655 0.104386 0.042842
O O10 0.120978 0.500000 0.642530
O O11 0.102558 0.332033 0.649658
O O12 0.392302 0.675649 0.232104
O O13 0.500000 0.754472 0.000000
#
# Coordination Sequence:
#
# PCOD9199309 Si02
#       6
#     8   4   8   8   8   8
#     4  11  21  35  60  87 115 149 193 228 281 340
#     4  10  20  36  60  78 112 144 204 242 276 328
#     4  11  23  37  56  88 119 149 184 234 294 340
#     4  10  21  36  55  84 123 153 181 232 287 339
#     4   9  20  36  55  86 110 152 198 235 275 333
#     4  10  21  35  59  85 111 149 193 235 278 336
#
# _framework density 20.422779999999999
#
# number of rings (size 3 to 8) (size 9 to 14) (size 15 to 20)
#    0.000    1.818    1.818    2.182    5.091    0.364 
#    0.000    0.909    0.000    4.909    0.000    0.000 
#    0.000    0.000    0.000    0.000    0.000    0.000 
#
# Total GULP energy -122526.779690 kJ/mol
# GULP energy per Si atom -5569.399077 kJ/mol
# Density = 2.037630 g / cm^3
# Si number density = 20.422780 Si / 1000 Ang^3
#
#
#
# Elastic Constant Matrix: (Units=GPa)
#
#
# Indices 1 2 3 4 5 6 
#
# 1 106.8381 11.7893 8.6360 0.0000 24.9099 0.0000
# 2 11.7893 44.1199 3.1845 0.0000 17.7504 0.0000
# 3 8.6360 3.1845 51.4103 0.0000 -2.1009 0.0000
# 4 0.0000 0.0000 0.0000 15.5381 0.0000 -7.8714
# 5 24.9099 17.7504 -2.1009 0.0000 34.8454 0.0000
# 6 0.0000 0.0000 0.0000 -7.8714 0.0000 -4.2190
#
#
#
# Elastic Compliance Matrix: (Units=1/GPa)
#
#
# Indices 1 2 3 4 5 6 
#
# 1 0.011502 0.000577 -0.002322 0.000000 -0.008656 0.000000
# 2 0.000577 0.028827 -0.002506 0.000000 -0.015248 0.000000
# 3 -0.002322 -0.002506 0.020166 0.000000 0.004152 0.000000
# 4 0.000000 0.000000 0.000000 0.033087 0.000000 -0.061729
# 5 -0.008656 -0.015248 0.004152 0.000000 0.042904 0.000000
# 6 0.000000 0.000000 0.000000 -0.061729 0.000000 -0.121854
#
#
# Mechanical properties :
#
#
# Convention : Reuss Voigt Hill
#
# Bulk Modulus (GPa) = 19.23291 27.73200 23.48245
# Shear Modulus (GPa) = 123.56439 21.15014 72.35726
#
# Velocity S-wave (km/s) = 7.78682 3.22159 5.95874
# Velocity P-wave (km/s) = 9.50178 5.23895 7.67237
#
# Compressibility (1/GPa) = 0.05199421
#
# Stress axis : x y z
#
# Youngs Moduli (GPa) = 86.93944 34.68990 49.58786
#
# Poissons Ratio (x) = -0.02001 0.11513
# Poissons Ratio (y) = -0.05014 0.12425
# Poissons Ratio (z) = 0.20184 0.08692
#
# Static dielectric constant tensor:
#      x y z
#    x 1.758410 0.000000 0.023980 
#    y 0.000000 1.730730 0.000000 
#    z 0.023980 0.000000 1.830650 
# 
# From -- ./inp_files/24923.got.cif
#   From: 2010.05.17/outbox.cif.g08.bks.cpg/sg12_13_cif.got.tgz:24923.got - 2010.06.03 13:09:07.
