data_PCOD9199772
_publ_section_title
;
Structure prediction by ZEFSAII (Michael W. Deem and Ramdas Pophale) SiO2 
 PCOD9199772
Probable space group: C 2/M
;
_chemical_formula_sum "Si O2"
_cell_formula_units_Z 56
_cell_length_a 5.197286
_cell_length_b 29.341877
_cell_length_c 16.954403
_cell_angle_alpha 90.000000
_cell_angle_beta 111.936328
_cell_angle_gamma 90.000000
_cell_volume 2398.322337
_symmetry_space_group_name_H-M "C 2/M"
_symmetry_group_IT_number 12
_symmetry_cell_setting 'monoclinic'
loop_
_space_group_symop_operation_xyz
x,y,z
-x,y,-z
-x,-y,-z
x,-y,z
1/2+x,1/2+y,z
1/2-x,1/2+y,-z
1/2-x,1/2-y,-z
1/2+x,1/2-y,z
loop_
_atom_site_type_symbol
_atom_site_label
_atom_site_fract_x
_atom_site_fract_y
_atom_site_fract_z
Si Si1 0.474416 0.945525 0.644137
Si Si2 0.194901 0.137932 0.361453
Si Si3 0.500000 0.607778 0.500000
Si Si4 0.111880 0.857906 0.829523
Si Si5 0.983171 0.723462 0.345712
Si Si6 0.404812 0.086823 0.172926
Si Si7 0.170966 0.772575 0.139312
Si Si8 0.680004 0.000000 0.942967
O O1 0.735392 0.915078 0.646356
O O2 0.433492 0.928856 0.729579
O O3 0.233156 0.925859 0.561748
O O4 0.507225 0.000000 0.643619
O O5 0.106567 0.138758 0.440854
O O6 0.450690 0.171564 0.371298
O O7 0.973204 0.154229 0.270829
O O8 0.423534 0.874916 0.854808
O O9 0.020884 0.817234 0.876367
O O10 0.898096 0.897029 0.833313
O O11 0.786212 0.755659 0.375426
O O12 0.842151 0.726292 0.242112
O O13 0.383919 0.044050 0.115080
O O14 0.928027 0.734146 0.109468
O O15 0.500000 0.000000 0.000000
O O16 0.000000 0.000000 0.000000
#
# Coordination Sequence:
#
# PCOD9199772 Si02
#       8
#     8   8   4   8   8   8   8   4
#     4  11  24  42  62  88 122 169 215 272 317 380
#     4  10  23  37  59  83 124 163 223 278 327 377
#     4  12  23  40  58  86 124 164 228 274 327 364
#     4  10  20  36  61  90 128 174 212 262 319 372
#     4   9  19  34  58  81 110 157 215 273 335 382
#     4  11  22  42  65  96 128 166 211 252 316 383
#     4   9  16  28  50  85 123 161 210 265 309 361
#     4  12  26  46  72 103 135 165 201 256 312 382
#
# _framework density 23.349654000000001
#
# number of rings (size 3 to 8) (size 9 to 14) (size 15 to 20)
#    0.000    1.714    2.143    2.357    2.000    5.143 
#    1.286    0.714    0.000    0.000    0.000    0.000 
#    0.000   40.000    0.000    0.000    0.000    0.000 
#
# Total GULP energy -156473.749743 kJ/mol
# GULP energy per Si atom -5588.348205 kJ/mol
# Density = 2.329651 g / cm^3
# Si number density = 23.349654 Si / 1000 Ang^3
#
#
#
# Elastic Constant Matrix: (Units=GPa)
#
#
# Indices 1 2 3 4 5 6 
#
# 1 95.1035 -5.4504 13.1406 0.0000 -8.8947 0.0000
# 2 -5.4504 80.3080 2.7651 0.0000 -4.8486 0.0000
# 3 13.1406 2.7651 28.1375 0.0000 -10.8700 0.0000
# 4 0.0000 0.0000 0.0000 13.0594 0.0000 10.5687
# 5 -8.8947 -4.8486 -10.8700 0.0000 19.3150 0.0000
# 6 0.0000 0.0000 0.0000 10.5687 0.0000 35.7641
#
#
#
# Elastic Compliance Matrix: (Units=1/GPa)
#
#
# Indices 1 2 3 4 5 6 
#
# 1 0.011461 0.001115 -0.004236 0.000000 0.003174 0.000000
# 2 0.001115 0.012752 -0.000433 0.000000 0.003471 0.000000
# 3 -0.004236 -0.000433 0.046979 0.000000 0.024379 0.000000
# 4 0.000000 0.000000 0.000000 0.100642 0.000000 -0.029741
# 5 0.003174 0.003471 0.024379 0.000000 0.067826 0.000000
# 6 0.000000 0.000000 0.000000 -0.029741 0.000000 0.036750
#
#
# Mechanical properties :
#
#
# Convention : Reuss Voigt Hill
#
# Bulk Modulus (GPa) = 15.60441 24.93995 20.27218
# Shear Modulus (GPa) = 16.39995 26.50061 21.45028
#
# Velocity S-wave (km/s) = 2.65309 3.37255 3.03422
# Velocity P-wave (km/s) = 4.01031 5.08623 4.57998
#
# Compressibility (1/GPa) = 0.06408447
#
# Stress axis : x y z
#
# Youngs Moduli (GPa) = 87.25322 78.41768 21.28623
#
# Poissons Ratio (x) = -0.08746 0.09017
# Poissons Ratio (y) = -0.09731 0.00922
# Poissons Ratio (z) = 0.36959 0.03397
#
# Static dielectric constant tensor:
#      x y z
#    x 1.893490 0.000000 0.014380 
#    y 0.000000 1.929120 0.000000 
#    z 0.014380 0.000000 1.889570 
# 
# From -- ./inp_files/254052.got.cif
#   From: 2010.05.17/outbox.cif.g08.bks.cpg/sg12_128_cif.got.tgz:254052.got - 2010.06.03 13:09:07.
