data_PCOD9199048
_publ_section_title
;
Structure prediction by ZEFSAII (Michael W. Deem and Ramdas Pophale) SiO2 
 PCOD9199048
Probable space group: C 2/M
;
_chemical_formula_sum "Si O2"
_cell_formula_units_Z 64
_cell_length_a 28.871064
_cell_length_b 7.769063
_cell_length_c 14.099198
_cell_angle_alpha 90.000000
_cell_angle_beta 58.407628
_cell_angle_gamma 90.000000
_cell_volume 2693.777919
_symmetry_space_group_name_H-M "C 2/M"
_symmetry_group_IT_number 12
_symmetry_cell_setting 'monoclinic'
loop_
_space_group_symop_operation_xyz
x,y,z
-x,y,-z
-x,-y,-z
x,-y,z
1/2+x,1/2+y,z
1/2-x,1/2+y,-z
1/2-x,1/2-y,-z
1/2+x,1/2-y,z
loop_
_atom_site_type_symbol
_atom_site_label
_atom_site_fract_x
_atom_site_fract_y
_atom_site_fract_z
Si Si1 0.648065 0.707088 0.009421
Si Si2 0.235665 0.700822 0.148741
Si Si3 0.239240 0.290563 0.660073
Si Si4 0.047134 0.694423 0.748190
Si Si5 0.625353 0.201707 0.335305
Si Si6 0.852861 0.800835 0.476585
Si Si7 0.557605 0.299342 0.249170
Si Si8 0.121514 0.292050 0.821484
O O1 0.650868 0.500000 0.015260
O O2 0.709847 0.775796 0.958090
O O3 0.628828 0.743444 0.922729
O O4 0.602244 0.775837 0.128578
O O5 0.233238 0.500000 0.126186
O O6 0.249351 0.720986 0.246272
O O7 0.174302 0.771748 0.214363
O O8 0.241316 0.500000 0.661116
O O9 0.290526 0.234256 0.542101
O O10 0.177276 0.236626 0.708166
O O11 0.028112 0.500000 0.785254
O O12 0.102554 0.695925 0.628124
O O13 0.067804 0.772836 0.825516
O O14 0.000706 0.781371 0.736543
O O15 0.629574 0.292948 0.431400
O O16 0.569353 0.218532 0.338727
O O17 0.636063 0.000000 0.341160
O O18 0.854620 0.000000 0.444615
O O19 0.568259 0.500000 0.250564
O O20 0.119730 0.500000 0.818491
#
# Coordination Sequence:
#
# PCOD9199048 Si02
#       8
#     8   8   8   8   8   8   8   8
#     4   9  19  36  58  83 112 145 180 222 271 323
#     4   8  15  30  53  82 112 140 173 214 265 325
#     4   8  15  30  53  82 112 140 173 214 265 325
#     4  11  24  40  56  78 109 145 189 233 271 318
#     4  10  20  36  59  85 113 144 178 220 272 327
#     4  10  20  36  59  85 113 144 178 220 272 327
#     4  11  24  40  56  78 109 145 189 233 271 318
#     4   9  19  36  58  83 112 145 180 222 271 323
#
# _framework density 23.758455000000001
#
# number of rings (size 3 to 8) (size 9 to 14) (size 15 to 20)
#    0.000    2.500    0.000    1.500    0.000    5.000 
#    0.000    5.000    0.000    0.000    0.000    0.000 
#    0.000    0.000    0.000    0.000    0.000    0.000 
#
# Total GULP energy -178682.734789 kJ/mol
# GULP energy per Si atom -5583.835462 kJ/mol
# Density = 2.370438 g / cm^3
# Si number density = 23.758455 Si / 1000 Ang^3
#
#
#
# Elastic Constant Matrix: (Units=GPa)
#
#
# Indices 1 2 3 4 5 6 
#
# 1 142.3814 5.0336 3.2397 0.0000 3.4591 0.0000
# 2 5.0336 63.1456 -6.7121 0.0000 -0.3955 -0.0001
# 3 3.2397 -6.7121 38.6850 0.0000 4.8139 0.0000
# 4 0.0000 0.0000 0.0000 19.1663 0.0000 4.5007
# 5 3.4591 -0.3955 4.8139 0.0000 19.3218 0.0000
# 6 0.0000 -0.0001 0.0000 4.5007 0.0000 13.9697
#
#
#
# Elastic Compliance Matrix: (Units=1/GPa)
#
#
# Indices 1 2 3 4 5 6 
#
# 1 0.007086 -0.000632 -0.000561 0.000000 -0.001142 0.000000
# 2 -0.000632 0.016193 0.002897 0.000000 -0.000277 0.000000
# 3 -0.000561 0.002897 0.027224 0.000000 -0.006623 0.000000
# 4 0.000000 0.000000 0.000000 0.056445 0.000000 -0.018185
# 5 -0.001142 -0.000277 -0.006623 0.000000 0.053604 0.000000
# 6 0.000000 0.000000 0.000000 -0.018185 0.000000 0.077442
#
#
# Mechanical properties :
#
#
# Convention : Reuss Voigt Hill
#
# Bulk Modulus (GPa) = 18.54889 27.48160 23.01524
# Shear Modulus (GPa) = 19.79760 26.66828 23.23294
#
# Velocity S-wave (km/s) = 2.88980 3.35397 3.13050
# Velocity P-wave (km/s) = 4.35417 5.15665 4.77231
#
# Compressibility (1/GPa) = 0.05391159
#
# Stress axis : x y z
#
# Youngs Moduli (GPa) = 141.11895 61.75516 36.73282
#
# Poissons Ratio (x) = 0.03901 0.02061
# Poissons Ratio (y) = 0.08914 -0.10642
# Poissons Ratio (z) = 0.07916 -0.17891
#
# Static dielectric constant tensor:
#      x y z
#    x 1.939550 0.000000 -0.000850 
#    y 0.000000 1.847550 0.000000 
#    z -0.000850 0.000000 1.946870 
# 
# From -- ./inp_files/249658.got.cif
#   From: 2010.05.17/outbox.cif.g08.bks.cpg/sg12_125_cif.got.tgz:249658.got - 2010.06.03 13:09:07.
