data_PCOD9199711
_publ_section_title
;
Structure prediction by ZEFSAII (Michael W. Deem and Ramdas Pophale) SiO2 
 PCOD9199711
Probable space group: C 2/M
;
_chemical_formula_sum "Si O2"
_cell_formula_units_Z 56
_cell_length_a 19.295701
_cell_length_b 8.704643
_cell_length_c 21.170012
_cell_angle_alpha 90.000000
_cell_angle_beta 122.314718
_cell_angle_gamma 90.000000
_cell_volume 3005.061351
_symmetry_space_group_name_H-M "C 2/M"
_symmetry_group_IT_number 12
_symmetry_cell_setting 'monoclinic'
loop_
_space_group_symop_operation_xyz
x,y,z
-x,y,-z
-x,-y,-z
x,-y,z
1/2+x,1/2+y,z
1/2-x,1/2+y,-z
1/2-x,1/2-y,-z
1/2+x,1/2-y,z
loop_
_atom_site_type_symbol
_atom_site_label
_atom_site_fract_x
_atom_site_fract_y
_atom_site_fract_z
Si Si1 0.501182 0.683552 0.926697
Si Si2 0.653302 0.672513 0.811762
Si Si3 0.465005 0.326520 0.677062
Si Si4 0.026966 0.315358 0.582540
Si Si5 0.788496 0.315862 0.283701
Si Si6 0.618230 0.816610 0.240347
Si Si7 0.838059 0.322144 0.054997
O O1 0.489261 0.500000 0.918366
O O2 0.435753 0.757396 0.846001
O O3 0.590455 0.728827 0.944431
O O4 0.500000 0.731405 0.000000
O O5 0.676741 0.500000 0.844988
O O6 0.560766 0.663949 0.741963
O O7 0.710145 0.730883 0.783154
O O8 0.650748 0.796796 0.865290
O O9 0.431594 0.500000 0.658442
O O10 0.469595 0.251650 0.610018
O O11 0.422357 0.235180 0.713180
O O12 0.020399 0.500000 0.582174
O O13 0.123132 0.278469 0.641841
O O14 0.000000 0.262885 0.500000
O O15 0.784538 0.500000 0.273844
O O16 0.708700 0.256267 0.280690
O O17 0.622039 0.000000 0.239131
O O18 0.842509 0.500000 0.039540
O O19 0.750000 0.250000 0.000000
#
# Coordination Sequence:
#
# PCOD9199711 Si02
#       7
#     8   8   8   8   8   8   8
#     4  11  25  44  63  85 118 157 202 253 309 362
#     4  10  20  37  59  83 113 149 196 247 295 350
#     4  10  20  36  61  88 118 154 196 241 294 353
#     4   9  19  38  64  93 124 157 196 243 296 355
#     4  10  21  37  60  88 121 156 197 243 297 354
#     4  12  24  39  61  87 121 159 203 249 298 359
#     4  12  25  40  60  84 116 153 199 249 301 356
#
# _framework density 18.635227
#
# number of rings (size 3 to 8) (size 9 to 14) (size 15 to 20)
#    0.000    1.429    1.429    4.286    2.000    3.143 
#    0.000    0.714    0.000    0.000    0.000    0.000 
#    0.000    0.000    0.000    0.000    0.000    0.000 
#
# Total GULP energy -156287.472412 kJ/mol
# GULP energy per Si atom -5581.695443 kJ/mol
# Density = 1.859281 g / cm^3
# Si number density = 18.635227 Si / 1000 Ang^3
#
#
#
# Elastic Constant Matrix: (Units=GPa)
#
#
# Indices 1 2 3 4 5 6 
#
# 1 109.1023 30.9438 40.3049 0.0000 -14.3121 0.0000
# 2 30.9438 71.7584 22.2845 0.0000 -3.8481 0.0000
# 3 40.3049 22.2845 92.9279 0.0000 -22.0055 0.0000
# 4 0.0000 0.0000 0.0000 23.7102 0.0000 -5.7249
# 5 -14.3121 -3.8481 -22.0055 0.0000 23.3447 0.0000
# 6 0.0000 0.0000 0.0000 -5.7249 0.0000 23.9066
#
#
#
# Elastic Compliance Matrix: (Units=1/GPa)
#
#
# Indices 1 2 3 4 5 6 
#
# 1 0.012005 -0.003921 -0.003446 0.000000 0.003466 0.000000
# 2 -0.003921 0.016363 -0.002773 0.000000 -0.002320 0.000000
# 3 -0.003446 -0.002773 0.015850 0.000000 0.012371 0.000000
# 4 0.000000 0.000000 0.000000 0.044764 0.000000 0.010720
# 5 0.003466 -0.002320 0.012371 0.000000 0.056240 0.000000
# 6 0.000000 0.000000 0.000000 0.010720 0.000000 0.044396
#
#
# Mechanical properties :
#
#
# Convention : Reuss Voigt Hill
#
# Bulk Modulus (GPa) = 41.77301 51.20610 46.48956
# Shear Modulus (GPa) = 22.94857 26.20934 24.57895
#
# Velocity S-wave (km/s) = 3.51303 3.75432 3.63568
# Velocity P-wave (km/s) = 6.23859 6.80669 6.52882
#
# Compressibility (1/GPa) = 0.02393890
#
# Stress axis : x y z
#
# Youngs Moduli (GPa) = 83.29536 61.11305 63.09109
#
# Poissons Ratio (x) = 0.23962 0.21742
# Poissons Ratio (y) = 0.32660 0.17494
# Poissons Ratio (z) = 0.28705 0.16945
#
# Static dielectric constant tensor:
#      x y z
#    x 1.599710 0.000000 -0.017820 
#    y 0.000000 1.633460 0.000000 
#    z -0.017820 0.000000 1.656330 
# 
# From -- ./inp_files/275674.got.cif
#   From: 2010.05.17/outbox.cif.g08.bks.cpg/sg12_138_cif.got.tgz:275674.got - 2010.06.03 13:09:07.
