data_PCOD9199144
_publ_section_title
;
Structure prediction by ZEFSAII (Michael W. Deem and Ramdas Pophale) SiO2 
 PCOD9199144
Probable space group: C 2/M
;
_chemical_formula_sum "Si O2"
_cell_formula_units_Z 32
_cell_length_a 9.620792
_cell_length_b 17.242623
_cell_length_c 12.443448
_cell_angle_alpha 90.000000
_cell_angle_beta 56.551197
_cell_angle_gamma 90.000000
_cell_volume 1722.336842
_symmetry_space_group_name_H-M "C 2/M"
_symmetry_group_IT_number 12
_symmetry_cell_setting 'monoclinic'
loop_
_space_group_symop_operation_xyz
x,y,z
-x,y,-z
-x,-y,-z
x,-y,z
1/2+x,1/2+y,z
1/2-x,1/2+y,-z
1/2-x,1/2-y,-z
1/2+x,1/2-y,z
loop_
_atom_site_type_symbol
_atom_site_label
_atom_site_fract_x
_atom_site_fract_y
_atom_site_fract_z
Si Si1 0.486573 0.591715 0.163882
Si Si2 0.575174 0.167755 0.862799
Si Si3 0.767983 0.825810 0.108610
Si Si4 0.092929 0.093017 0.354431
O O1 0.519252 0.500000 0.137363
O O2 0.310627 0.613895 0.185328
O O3 0.499043 0.612727 0.283257
O O4 0.623810 0.640229 0.037507
O O5 0.420036 0.182921 0.850331
O O6 0.659080 0.244923 0.878073
O O7 0.720409 0.123324 0.740038
O O8 0.500000 0.124543 0.000000
O O9 0.000000 0.123074 0.500000
O O10 0.097852 0.000000 0.358964
#
# Coordination Sequence:
#
# PCOD9199144 Si02
#       4
#     8   8   8   8
#     4  10  20  36  59  86 120 155 190 238 297 343
#     4  12  21  36  62  87 119 152 195 244 288 341
#     4  11  21  35  59  91 121 148 192 248 293 337
#     4  10  23  42  60  84 121 158 192 237 294 351
#
# _framework density 18.579409999999999
#
# number of rings (size 3 to 8) (size 9 to 14) (size 15 to 20)
#    0.000    1.250    5.000    3.750    0.000    2.500 
#    0.000    6.250    0.000    4.500    0.000    0.000 
#    0.000    0.000    0.000    0.000    0.000    0.000 
#
# Total GULP energy -89264.876628 kJ/mol
# GULP energy per Si atom -5579.054789 kJ/mol
# Density = 1.853712 g / cm^3
# Si number density = 18.579410 Si / 1000 Ang^3
#
#
#
# Elastic Constant Matrix: (Units=GPa)
#
#
# Indices 1 2 3 4 5 6 
#
# 1 192.4719 30.3279 76.9594 0.0000 13.9888 0.0000
# 2 30.3279 34.9271 38.2135 0.0000 11.8881 0.0000
# 3 76.9594 38.2135 144.4504 0.0000 9.9162 0.0000
# 4 0.0000 0.0000 0.0000 12.1598 0.0000 -4.8458
# 5 13.9888 11.8881 9.9162 0.0000 24.1909 0.0000
# 6 0.0000 0.0000 0.0000 -4.8458 0.0000 24.7519
#
#
#
# Elastic Compliance Matrix: (Units=1/GPa)
#
#
# Indices 1 2 3 4 5 6 
#
# 1 0.006839 -0.002112 -0.002968 0.000000 -0.001700 0.000000
# 2 -0.002112 0.047896 -0.010303 0.000000 -0.018093 0.000000
# 3 -0.002968 -0.010303 0.011076 0.000000 0.002239 0.000000
# 4 0.000000 0.000000 0.000000 0.089197 0.000000 0.017463
# 5 -0.001700 -0.018093 0.002239 0.000000 0.050294 0.000000
# 6 0.000000 0.000000 0.000000 0.017463 0.000000 0.043820
#
#
# Mechanical properties :
#
#
# Convention : Reuss Voigt Hill
#
# Bulk Modulus (GPa) = 28.53583 73.65011 51.09297
# Shear Modulus (GPa) = 17.14853 27.31042 22.22947
#
# Velocity S-wave (km/s) = 3.04136 3.83812 3.46274
# Velocity P-wave (km/s) = 5.26549 7.70509 6.59901
#
# Compressibility (1/GPa) = 0.03504367
#
# Stress axis : x y z
#
# Youngs Moduli (GPa) = 146.22678 20.87857 90.28553
#
# Poissons Ratio (x) = 0.04410 0.26797
# Poissons Ratio (y) = 0.30888 0.93023
# Poissons Ratio (z) = 0.43400 0.21512
#
# Static dielectric constant tensor:
#      x y z
#    x 1.676510 0.000000 0.019250 
#    y 0.000000 1.681900 0.000000 
#    z 0.019250 0.000000 1.646410 
# 
# From -- ./inp_files/46734.got.cif
#   From: 2010.05.17/outbox.cif.g08.bks.cpg/sg12_24_cif.got.tgz:46734.got - 2010.06.03 13:09:07.
