data_PCOD9199894
_publ_section_title
;
Structure prediction by ZEFSAII (Michael W. Deem and Ramdas Pophale) SiO2 
 PCOD9199894
Probable space group: C 2/M
;
_chemical_formula_sum "Si O2"
_cell_formula_units_Z 64
_cell_length_a 23.610646
_cell_length_b 8.482628
_cell_length_c 17.266455
_cell_angle_alpha 90.000000
_cell_angle_beta 96.706266
_cell_angle_gamma 90.000000
_cell_volume 3434.470317
_symmetry_space_group_name_H-M "C 2/M"
_symmetry_group_IT_number 12
_symmetry_cell_setting 'monoclinic'
loop_
_space_group_symop_operation_xyz
x,y,z
-x,y,-z
-x,-y,-z
x,-y,z
1/2+x,1/2+y,z
1/2-x,1/2+y,-z
1/2-x,1/2-y,-z
1/2+x,1/2-y,z
loop_
_atom_site_type_symbol
_atom_site_label
_atom_site_fract_x
_atom_site_fract_y
_atom_site_fract_z
Si Si1 0.229211 0.688793 0.118871
Si Si2 0.328691 0.311037 0.734325
Si Si3 0.484293 0.187276 0.370032
Si Si4 0.162860 0.309319 0.951965
Si Si5 0.960354 0.186585 0.773483
Si Si6 0.699297 0.810080 0.438493
Si Si7 0.911940 0.687808 0.492896
Si Si8 0.468197 0.189687 0.071917
O O1 0.228674 0.500000 0.123395
O O2 0.205948 0.756929 0.195526
O O3 0.292261 0.744997 0.103749
O O4 0.187670 0.736505 0.040602
O O5 0.328903 0.500000 0.731258
O O6 0.395009 0.255978 0.751601
O O7 0.302124 0.248058 0.650101
O O8 0.502389 0.275597 0.296233
O O9 0.430544 0.248060 0.411424
O O10 0.536475 0.203507 0.438513
O O11 0.477563 0.000000 0.352110
O O12 0.164040 0.500000 0.948065
O O13 0.097506 0.254929 0.932016
O O14 0.992482 0.265230 0.849999
O O15 0.957766 0.000000 0.785697
O O16 0.750000 0.750000 0.500000
O O17 0.642963 0.747588 0.473411
O O18 0.698499 0.000000 0.436930
O O19 0.903727 0.500000 0.480711
O O20 0.465117 0.000000 0.066536
O O21 0.500000 0.248755 0.000000
#
# Coordination Sequence:
#
# PCOD9199894 Si02
#       8
#     8   8   8   8   8   8   8   8
#     4  10  20  36  62  89 113 149 194 240 286 335
#     4  11  23  39  58  83 115 150 192 237 287 345
#     4   9  16  33  59  83 105 140 187 231 275 334
#     4   9  19  37  59  86 119 152 190 235 284 340
#     4  11  23  36  54  85 119 149 186 238 292 335
#     4  11  22  39  60  84 113 148 189 236 289 343
#     4   8  16  32  58  84 106 137 183 229 273 329
#     4  10  21  38  60  85 115 154 195 231 275 338
#
# _framework density 18.634605000000001
#
# number of rings (size 3 to 8) (size 9 to 14) (size 15 to 20)
#    0.000    2.125    1.250    3.000    0.000    3.750 
#    2.250    2.500    0.000    0.000    0.000    0.000 
#    0.000    0.000    0.000    0.000    0.000    0.000 
#
# Total GULP energy -178507.506694 kJ/mol
# GULP energy per Si atom -5578.359584 kJ/mol
# Density = 1.859219 g / cm^3
# Si number density = 18.634605 Si / 1000 Ang^3
#
#
#
# Elastic Constant Matrix: (Units=GPa)
#
#
# Indices 1 2 3 4 5 6 
#
# 1 93.3423 28.3955 86.8498 0.0000 -5.9864 0.0000
# 2 28.3955 26.1409 22.5188 0.0000 -1.2802 0.0000
# 3 86.8498 22.5188 148.6647 0.0000 -21.8821 0.0000
# 4 0.0000 0.0000 0.0000 3.2870 0.0000 5.7691
# 5 -5.9864 -1.2802 -21.8821 0.0000 30.6382 0.0000
# 6 0.0000 0.0000 0.0000 5.7691 0.0000 22.1921
#
#
#
# Elastic Compliance Matrix: (Units=1/GPa)
#
#
# Indices 1 2 3 4 5 6 
#
# 1 0.031946 -0.020849 -0.016443 0.000000 -0.006373 0.000000
# 2 -0.020849 0.057896 0.003539 0.000000 0.000873 0.000000
# 3 -0.016443 0.003539 0.017148 0.000000 0.009182 0.000000
# 4 0.000000 0.000000 0.000000 0.559501 0.000000 -0.145448
# 5 -0.006373 0.000873 0.009182 0.000000 0.037988 0.000000
# 6 0.000000 0.000000 0.000000 -0.145448 0.000000 0.082872
#
#
# Mechanical properties :
#
#
# Convention : Reuss Voigt Hill
#
# Bulk Modulus (GPa) = 25.32693 60.40844 42.86768
# Shear Modulus (GPa) = 5.76025 19.91572 12.83798
#
# Velocity S-wave (km/s) = 1.76008 3.27272 2.62760
# Velocity P-wave (km/s) = 4.21323 6.83876 5.67979
#
# Compressibility (1/GPa) = 0.03948366
#
# Stress axis : x y z
#
# Youngs Moduli (GPa) = 31.30271 17.27245 58.31588
#
# Poissons Ratio (x) = 0.36011 0.95888
# Poissons Ratio (y) = 0.65263 -0.20637
# Poissons Ratio (z) = 0.51471 -0.06112
#
# Static dielectric constant tensor:
#      x y z
#    x 1.660110 0.000000 -0.013130 
#    y 0.000000 1.640380 0.000000 
#    z -0.013130 0.000000 1.650130 
# 
# From -- ./inp_files/238573.got.cif
#   From: 2010.05.17/outbox.cif.g08.bks.cpg/sg12_120_cif.got.tgz:238573.got - 2010.06.03 13:09:07.
