data_PCOD9199437
_publ_section_title
;
Structure prediction by ZEFSAII (Michael W. Deem and Ramdas Pophale) SiO2 
 PCOD9199437
Probable space group: C 2/M
;
_chemical_formula_sum "Si O2"
_cell_formula_units_Z 56
_cell_length_a 11.098332
_cell_length_b 17.643366
_cell_length_c 15.427684
_cell_angle_alpha 90.000000
_cell_angle_beta 118.500834
_cell_angle_gamma 90.000000
_cell_volume 2654.819281
_symmetry_space_group_name_H-M "C 2/M"
_symmetry_group_IT_number 12
_symmetry_cell_setting 'monoclinic'
loop_
_space_group_symop_operation_xyz
x,y,z
-x,y,-z
-x,-y,-z
x,-y,z
1/2+x,1/2+y,z
1/2-x,1/2+y,-z
1/2-x,1/2-y,-z
1/2+x,1/2-y,z
loop_
_atom_site_type_symbol
_atom_site_label
_atom_site_fract_x
_atom_site_fract_y
_atom_site_fract_z
Si Si1 0.575261 0.084259 0.170932
Si Si2 0.633211 0.916824 0.749895
Si Si3 0.347709 0.412268 0.552909
Si Si4 0.148009 0.694392 0.594966
Si Si5 0.337364 0.368045 0.353762
Si Si6 0.545145 0.241060 0.895130
Si Si7 0.707520 0.698384 0.116886
O O1 0.504741 0.082753 0.241698
O O2 0.732436 0.104489 0.244154
O O3 0.494226 0.153390 0.098329
O O4 0.560265 0.000000 0.127934
O O5 0.630470 0.855573 0.674554
O O6 0.751169 0.888518 0.856314
O O7 0.659435 0.000000 0.724179
O O8 0.331115 0.500000 0.576009
O O9 0.252045 0.352043 0.569523
O O10 0.316172 0.408977 0.439196
O O11 0.505572 0.385557 0.617473
O O12 0.187803 0.779767 0.633538
O O13 0.000000 0.700045 0.500000
O O14 0.396623 0.279729 0.842415
O O15 0.645606 0.240388 0.846688
O O16 0.627982 0.280699 0.001424
#
# Coordination Sequence:
#
# PCOD9199437 Si02
#       7
#     8   8   8   8   8   8   8
#     4  10  20  36  60  87 118 156 199 247 306 366
#     4  10  22  38  58  86 120 156 200 250 305 363
#     4  11  23  39  59  85 121 164 211 259 310 358
#     4  12  24  38  60  88 120 161 210 256 300 363
#     4  11  22  38  60  83 121 163 207 250 306 367
#     4   9  18  35  61  87 114 147 197 244 299 364
#     4   9  18  37  60  85 115 151 190 246 300 365
#
# _framework density 21.093713999999999
#
# number of rings (size 3 to 8) (size 9 to 14) (size 15 to 20)
#    0.000    1.714    1.429    4.286    2.000    2.286 
#    2.571    2.857    0.000    1.714    0.000    0.000 
#    0.000    0.000    0.000    0.000    0.000    0.000 
#
# Total GULP energy -156193.733189 kJ/mol
# GULP energy per Si atom -5578.347614 kJ/mol
# Density = 2.104570 g / cm^3
# Si number density = 21.093714 Si / 1000 Ang^3
#
#
#
# Elastic Constant Matrix: (Units=GPa)
#
#
# Indices 1 2 3 4 5 6 
#
# 1 108.0261 -2.3610 -3.9879 0.0000 10.1889 0.0000
# 2 -2.3610 105.4584 5.7708 0.0000 11.3415 0.0000
# 3 -3.9879 5.7708 58.6344 0.0000 11.4543 0.0000
# 4 0.0000 0.0000 0.0000 18.3310 0.0000 -0.0368
# 5 10.1889 11.3415 11.4543 0.0000 25.0492 0.0000
# 6 0.0000 0.0000 0.0000 -0.0368 0.0000 18.1132
#
#
#
# Elastic Compliance Matrix: (Units=1/GPa)
#
#
# Indices 1 2 3 4 5 6 
#
# 1 0.009803 0.000672 0.001580 0.000000 -0.005014 0.000000
# 2 0.000672 0.010015 -0.000001 0.000000 -0.004807 0.000000
# 3 0.001580 -0.000001 0.018984 0.000000 -0.009323 0.000000
# 4 0.000000 0.000000 0.000000 0.054553 0.000000 0.000111
# 5 -0.005014 -0.004807 -0.009323 0.000000 0.048401 0.000000
# 6 0.000000 0.000000 0.000000 0.000111 0.000000 0.055209
#
#
# Mechanical properties :
#
#
# Convention : Reuss Voigt Hill
#
# Bulk Modulus (GPa) = 23.09234 30.10698 26.59966
# Shear Modulus (GPa) = 24.16683 30.47845 27.32264
#
# Velocity S-wave (km/s) = 3.38847 3.80532 3.60293
# Velocity P-wave (km/s) = 5.12643 5.79752 5.47227
#
# Compressibility (1/GPa) = 0.04330439
#
# Stress axis : x y z
#
# Youngs Moduli (GPa) = 102.00958 99.85515 52.67687
#
# Poissons Ratio (x) = -0.06713 -0.08324
# Poissons Ratio (y) = -0.06858 0.00004
# Poissons Ratio (z) = -0.16119 0.00008
#
# Static dielectric constant tensor:
#      x y z
#    x 1.792930 0.000000 0.003400 
#    y 0.000000 1.764390 0.000000 
#    z 0.003400 0.000000 1.797510 
# 
# From -- ./inp_files/263436.got.cif
#   From: 2010.05.17/outbox.cif.g08.bks.cpg/sg12_132_cif.got.tgz:263436.got - 2010.06.03 13:09:07.
