data_PCOD9199472
_publ_section_title
;
Structure prediction by ZEFSAII (Michael W. Deem and Ramdas Pophale) SiO2 
 PCOD9199472
Probable space group: C 2/M
;
_chemical_formula_sum "Si O2"
_cell_formula_units_Z 56
_cell_length_a 23.318525
_cell_length_b 15.839168
_cell_length_c 8.148250
_cell_angle_alpha 90.000000
_cell_angle_beta 110.753607
_cell_angle_gamma 90.000000
_cell_volume 2814.244567
_symmetry_space_group_name_H-M "C 2/M"
_symmetry_group_IT_number 12
_symmetry_cell_setting 'monoclinic'
loop_
_space_group_symop_operation_xyz
x,y,z
-x,y,-z
-x,-y,-z
x,-y,z
1/2+x,1/2+y,z
1/2-x,1/2+y,-z
1/2-x,1/2-y,-z
1/2+x,1/2-y,z
loop_
_atom_site_type_symbol
_atom_site_label
_atom_site_fract_x
_atom_site_fract_y
_atom_site_fract_z
Si Si1 0.565905 0.904836 0.100380
Si Si2 0.431393 0.265298 0.373681
Si Si3 0.827905 0.900334 0.328936
Si Si4 0.757149 0.595697 0.459994
Si Si5 0.765402 0.859391 0.915984
Si Si6 0.348206 0.203155 0.025307
Si Si7 0.388818 0.096898 0.494277
O O1 0.572775 0.910136 0.300804
O O2 0.565580 0.000000 0.029943
O O3 0.500000 0.864355 0.000000
O O4 0.622658 0.856287 0.079837
O O5 0.500000 0.287162 0.500000
O O6 0.385633 0.337458 0.394952
O O7 0.405143 0.254801 0.161782
O O8 0.420400 0.169093 0.421376
O O9 0.782420 0.870841 0.429280
O O10 0.796424 0.892688 0.116052
O O11 0.842624 0.000000 0.369706
O O12 0.771776 0.500000 0.526662
O O13 0.823234 0.633632 0.488246
O O14 0.725882 0.594261 0.248433
O O15 0.797346 0.769371 0.914403
O O16 0.693109 0.849497 0.885679
O O17 0.382681 0.000000 0.420620
#
# Coordination Sequence:
#
# PCOD9199472 Si02
#       7
#     8   8   8   8   8   8   8
#     4  10  21  36  54  78 114 158 195 234 285 346
#     4  11  23  39  59  84 118 163 202 240 293 346
#     4  10  23  40  61  91 120 155 205 250 298 357
#     4  10  20  36  60  88 116 151 189 239 309 357
#     4  10  20  37  59  87 119 149 187 253 307 349
#     4  10  21  36  54  86 114 148 201 237 297 361
#     4  10  21  36  56  87 119 150 193 240 297 364
#
# _framework density 19.898766999999999
#
# number of rings (size 3 to 8) (size 9 to 14) (size 15 to 20)
#    0.000    1.857    1.429    2.143    2.000    4.000 
#    0.000    0.000    0.000    0.000    0.000    5.000 
#    0.000    0.000    0.000    0.000    0.000    0.000 
#
# Total GULP energy -155908.893034 kJ/mol
# GULP energy per Si atom -5568.174751 kJ/mol
# Density = 1.985348 g / cm^3
# Si number density = 19.898767 Si / 1000 Ang^3
#
#
#
# Elastic Constant Matrix: (Units=GPa)
#
#
# Indices 1 2 3 4 5 6 
#
# 1 51.3432 13.0607 23.0835 0.0000 16.3524 0.0000
# 2 13.0607 61.7878 -1.0573 0.0000 -0.9088 0.0000
# 3 23.0835 -1.0573 72.5407 0.0000 8.1558 0.0000
# 4 0.0000 0.0000 0.0000 -0.2527 0.0000 -11.8148
# 5 16.3524 -0.9088 8.1558 0.0000 28.6189 0.0000
# 6 0.0000 0.0000 0.0000 -11.8148 0.0000 24.9536
#
#
#
# Elastic Compliance Matrix: (Units=1/GPa)
#
#
# Indices 1 2 3 4 5 6 
#
# 1 0.029337 -0.006551 -0.007772 0.000000 -0.014756 0.000000
# 2 -0.006551 0.017657 0.001920 0.000000 0.003757 0.000000
# 3 -0.007772 0.001920 0.016303 0.000000 -0.000144 0.000000
# 4 0.000000 0.000000 0.000000 -0.171036 0.000000 -0.080981
# 5 -0.014756 0.003757 -0.000144 0.000000 0.043534 0.000000
# 6 0.000000 0.000000 0.000000 -0.080981 0.000000 0.001732
#
#
# Mechanical properties :
#
#
# Convention : Reuss Voigt Hill
#
# Bulk Modulus (GPa) = 25.98074 28.42728 27.20401
# Shear Modulus (GPa) = -201.32160 20.70295 -90.30932
#
# Velocity S-wave (km/s) = -10.06939 3.22904 -6.74410
# Velocity P-wave (km/s) = 11.05012 5.31218 6.85150
#
# Compressibility (1/GPa) = 0.03849004
#
# Stress axis : x y z
#
# Youngs Moduli (GPa) = 34.08636 56.63362 61.33947
#
# Poissons Ratio (x) = 0.37103 0.47673
# Poissons Ratio (y) = 0.22331 -0.11775
# Poissons Ratio (z) = 0.26492 -0.10872
#
# Static dielectric constant tensor:
#      x y z
#    x 1.712190 0.000000 -0.004140 
#    y 0.000000 1.736840 0.000000 
#    z -0.004140 0.000000 1.780970 
# 
# From -- ./inp_files/96983.got.cif
#   From: 2010.05.17/outbox.cif.g08.bks.cpg/sg12_49_cif.got.tgz:96983.got - 2010.06.03 13:09:07.
