data_PCOD9199967
_publ_section_title
;
Structure prediction by ZEFSAII (Michael W. Deem and Ramdas Pophale) SiO2 
 PCOD9199967
Probable space group: C 2/M
;
_chemical_formula_sum "Si O2"
_cell_formula_units_Z 44
_cell_length_a 5.499885
_cell_length_b 26.786673
_cell_length_c 17.958824
_cell_angle_alpha 90.000000
_cell_angle_beta 124.141865
_cell_angle_gamma 90.000000
_cell_volume 2189.763650
_symmetry_space_group_name_H-M "C 2/M"
_symmetry_group_IT_number 12
_symmetry_cell_setting 'monoclinic'
loop_
_space_group_symop_operation_xyz
x,y,z
-x,y,-z
-x,-y,-z
x,-y,z
1/2+x,1/2+y,z
1/2-x,1/2+y,-z
1/2-x,1/2-y,-z
1/2+x,1/2-y,z
loop_
_atom_site_type_symbol
_atom_site_label
_atom_site_fract_x
_atom_site_fract_y
_atom_site_fract_z
Si Si1 0.152716 0.140687 0.945330
Si Si2 0.107051 0.053766 0.658931
Si Si3 0.983191 0.056805 0.803426
Si Si4 0.478285 0.871233 0.654073
Si Si5 0.500000 0.086358 0.500000
Si Si6 0.288204 0.718528 0.783701
O O1 0.121110 0.089850 0.892035
O O2 0.962972 0.183264 0.871497
O O3 0.500000 0.153998 0.000000
O O4 0.000000 0.134557 0.000000
O O5 0.164076 0.054570 0.757206
O O6 0.190548 0.109077 0.645525
O O7 0.768518 0.053295 0.575546
O O8 0.230419 0.000000 0.651314
O O9 0.698619 0.086842 0.726237
O O10 0.925762 0.000000 0.816728
O O11 0.428614 0.879920 0.559022
O O12 0.611986 0.818537 0.698435
O O13 0.539677 0.749389 0.783541
#
# Coordination Sequence:
#
# PCOD9199967 Si02
#       6
#     8   8   8   8   4   8
#     4  11  25  42  67  98 131 164 209 268 322 382
#     4  10  20  36  62  92 128 172 213 253 308 374
#     4   9  21  38  60  91 130 173 212 249 308 383
#     4  10  22  38  64  88 128 166 214 263 318 374
#     4  10  21  36  58  94 134 162 206 264 313 368
#     4  11  26  45  71  94 123 166 215 268 328 385
#
# _framework density 20.093492000000001
#
# number of rings (size 3 to 8) (size 9 to 14) (size 15 to 20)
#    0.000    1.818    0.000    2.455   12.727    5.818 
#    0.000    0.909    0.000    0.000    0.000    0.000 
#    0.000    0.000    0.000    0.000    0.000    0.000 
#
# Total GULP energy -122521.830523 kJ/mol
# GULP energy per Si atom -5569.174115 kJ/mol
# Density = 2.004776 g / cm^3
# Si number density = 20.093492 Si / 1000 Ang^3
#
#
#
# Elastic Constant Matrix: (Units=GPa)
#
#
# Indices 1 2 3 4 5 6 
#
# 1 99.9945 59.4167 46.9505 0.0000 -8.4150 0.0000
# 2 59.4167 144.3071 57.2867 0.0000 -12.0644 0.0000
# 3 46.9505 57.2867 94.1679 0.0000 -19.3156 0.0000
# 4 0.0000 0.0000 0.0000 -42.7988 0.0000 50.7994
# 5 -8.4150 -12.0644 -19.3156 0.0000 28.2322 0.0000
# 6 0.0000 0.0000 0.0000 50.7994 0.0000 -26.9984
#
#
#
# Elastic Compliance Matrix: (Units=1/GPa)
#
#
# Indices 1 2 3 4 5 6 
#
# 1 0.014745 -0.004159 -0.004984 0.000000 -0.000792 0.000000
# 2 -0.004159 0.010309 -0.004128 0.000000 0.000342 0.000000
# 3 -0.004984 -0.004128 0.017389 0.000000 0.008648 0.000000
# 4 0.000000 0.000000 0.000000 0.018945 0.000000 0.035647
# 5 -0.000792 0.000342 0.008648 0.000000 0.041247 0.000000
# 6 0.000000 0.000000 0.000000 0.035647 0.000000 0.030033
#
#
# Mechanical properties :
#
#
# Convention : Reuss Voigt Hill
#
# Bulk Modulus (GPa) = 62.88570 73.97524 68.43047
# Shear Modulus (GPa) = 30.39295 3.34136 16.86716
#
# Velocity S-wave (km/s) = 3.89341 1.29094 2.90044
# Velocity P-wave (km/s) = 7.18164 6.25440 6.73400
#
# Compressibility (1/GPa) = 0.01590187
#
# Stress axis : x y z
#
# Youngs Moduli (GPa) = 67.81827 96.99985 57.50598
#
# Poissons Ratio (x) = 0.40340 0.28663
# Poissons Ratio (y) = 0.28204 0.23739
# Poissons Ratio (z) = 0.33802 0.40042
#
# Static dielectric constant tensor:
#      x y z
#    x 1.932170 0.000000 0.027970 
#    y 0.000000 1.720320 0.000000 
#    z 0.027970 0.000000 1.678340 
# 
# From -- ./inp_files/191890.got.cif
#   From: 2010.05.17/outbox.cif.g08.bks.cpg/sg12_96_cif.got.tgz:191890.got - 2010.06.03 13:09:07.
