data_PCOD9199492
_publ_section_title
;
Structure prediction by ZEFSAII (Michael W. Deem and Ramdas Pophale) SiO2 
 PCOD9199492
Probable space group: C 2/M
;
_chemical_formula_sum "Si O2"
_cell_formula_units_Z 48
_cell_length_a 16.133911
_cell_length_b 11.829418
_cell_length_c 12.017022
_cell_angle_alpha 90.000000
_cell_angle_beta 101.726672
_cell_angle_gamma 90.000000
_cell_volume 2245.636696
_symmetry_space_group_name_H-M "C 2/M"
_symmetry_group_IT_number 12
_symmetry_cell_setting 'monoclinic'
loop_
_space_group_symop_operation_xyz
x,y,z
-x,y,-z
-x,-y,-z
x,-y,z
1/2+x,1/2+y,z
1/2-x,1/2+y,-z
1/2-x,1/2-y,-z
1/2+x,1/2-y,z
loop_
_atom_site_type_symbol
_atom_site_label
_atom_site_fract_x
_atom_site_fract_y
_atom_site_fract_z
Si Si1 0.570993 0.180741 0.612158
Si Si2 0.000326 0.627819 0.832379
Si Si3 0.828736 0.226770 0.794089
Si Si4 0.750301 0.872924 0.565236
Si Si5 0.158559 0.125875 0.750082
Si Si6 0.412818 0.326188 0.030415
O O1 0.500000 0.172651 0.500000
O O2 0.539900 0.129881 0.719957
O O3 0.656401 0.124907 0.591167
O O4 0.596038 0.309380 0.649675
O O5 0.985893 0.500000 0.863548
O O6 0.912878 0.697691 0.802649
O O7 0.064377 0.696212 0.929777
O O8 0.815644 0.146286 0.684690
O O9 0.744989 0.303000 0.777939
O O10 0.842773 0.165890 0.915931
O O11 0.750000 0.750000 0.500000
O O12 0.764536 0.000000 0.518807
O O13 0.116363 0.124447 0.860699
O O14 0.176758 0.000000 0.719024
O O15 0.500000 0.370933 0.000000
#
# Coordination Sequence:
#
# PCOD9199492 Si02
#       6
#     8   8   8   8   8   8
#     4  10  22  40  59  84 115 151 198 248 296 352
#     4  10  20  36  60  88 118 154 201 254 300 347
#     4  10  21  38  59  86 118 151 195 245 300 356
#     4  11  25  43  64  91 122 157 200 248 300 359
#     4  10  21  36  56  84 117 154 195 242 299 358
#     4   9  20  37  55  83 118 154 199 245 292 352
#
# _framework density 21.374784999999999
#
# number of rings (size 3 to 8) (size 9 to 14) (size 15 to 20)
#    0.000    2.000    0.000    2.500    0.000   11.000 
#    0.000   11.667    0.000    0.000    0.000    0.000 
#    0.000    0.000    0.000    0.000    0.000    0.000 
#
# Total GULP energy -133956.197967 kJ/mol
# GULP energy per Si atom -5581.508249 kJ/mol
# Density = 2.132614 g / cm^3
# Si number density = 21.374785 Si / 1000 Ang^3
#
#
#
# Elastic Constant Matrix: (Units=GPa)
#
#
# Indices 1 2 3 4 5 6 
#
# 1 63.5360 8.1512 14.2898 0.0000 -10.4886 0.0000
# 2 8.1512 124.8294 32.8810 0.0000 1.8021 0.0000
# 3 14.2898 32.8810 121.1633 0.0000 7.1309 0.0000
# 4 0.0000 0.0000 0.0000 -6.3300 0.0000 4.0242
# 5 -10.4886 1.8021 7.1309 0.0000 43.6328 0.0000
# 6 0.0000 0.0000 0.0000 4.0242 0.0000 1.1545
#
#
#
# Elastic Compliance Matrix: (Units=1/GPa)
#
#
# Indices 1 2 3 4 5 6 
#
# 1 0.017028 -0.000623 -0.002102 0.000000 0.004463 0.000000
# 2 -0.000623 0.008650 -0.002266 0.000000 -0.000137 0.000000
# 3 -0.002102 -0.002266 0.009229 0.000000 -0.001920 0.000000
# 4 0.000000 0.000000 0.000000 -0.049122 0.000000 0.171227
# 5 0.004463 -0.000137 -0.001920 0.000000 0.024311 0.000000
# 6 0.000000 0.000000 0.000000 0.171227 0.000000 0.269332
#
#
# Mechanical properties :
#
#
# Convention : Reuss Voigt Hill
#
# Bulk Modulus (GPa) = 40.11769 46.68585 43.40177
# Shear Modulus (GPa) = 16.79435 24.63858 20.71647
#
# Velocity S-wave (km/s) = 2.80609 3.39882 3.11658
# Velocity P-wave (km/s) = 5.41371 6.10668 5.77061
#
# Compressibility (1/GPa) = 0.02492666
#
# Stress axis : x y z
#
# Youngs Moduli (GPa) = 58.72528 115.60071 108.35189
#
# Poissons Ratio (x) = 0.07198 0.22775
# Poissons Ratio (y) = 0.03657 0.24553
# Poissons Ratio (z) = 0.12344 0.26196
#
# Static dielectric constant tensor:
#      x y z
#    x 1.750890 0.000000 -0.033620 
#    y 0.000000 1.804440 0.000000 
#    z -0.033620 0.000000 1.781630 
# 
# From -- ./inp_files/154281.got.cif
#   From: 2010.05.17/outbox.cif.g08.bks.cpg/sg12_78_cif.got.tgz:154281.got - 2010.06.03 13:09:07.
