data_PCOD9199455
_publ_section_title
;
Structure prediction by ZEFSAII (Michael W. Deem and Ramdas Pophale) SiO2 
 PCOD9199455
Probable space group: C 2/M
;
_chemical_formula_sum "Si O2"
_cell_formula_units_Z 56
_cell_length_a 17.137790
_cell_length_b 21.414544
_cell_length_c 9.524544
_cell_angle_alpha 90.000000
_cell_angle_beta 56.771947
_cell_angle_gamma 90.000000
_cell_volume 2923.962305
_symmetry_space_group_name_H-M "C 2/M"
_symmetry_group_IT_number 12
_symmetry_cell_setting 'monoclinic'
loop_
_space_group_symop_operation_xyz
x,y,z
-x,y,-z
-x,-y,-z
x,-y,z
1/2+x,1/2+y,z
1/2-x,1/2+y,-z
1/2-x,1/2-y,-z
1/2+x,1/2-y,z
loop_
_atom_site_type_symbol
_atom_site_label
_atom_site_fract_x
_atom_site_fract_y
_atom_site_fract_z
Si Si1 0.265248 0.574171 0.098370
Si Si2 0.453161 0.712405 0.191457
Si Si3 0.882014 0.068663 0.521469
Si Si4 0.587284 0.857056 0.760940
Si Si5 0.070531 0.876058 0.250948
Si Si6 0.268220 0.631265 0.400785
Si Si7 0.899291 0.574366 0.960743
O O1 0.276137 0.500000 0.102454
O O2 0.252165 0.604596 0.262527
O O3 0.179082 0.585771 0.078376
O O4 0.356761 0.602542 0.936118
O O5 0.448999 0.786644 0.188132
O O6 0.518691 0.686596 0.252214
O O7 0.349176 0.684126 0.312081
O O8 0.500000 0.688970 0.000000
O O9 0.878944 0.120384 0.647575
O O10 0.812016 0.081002 0.464788
O O11 0.985364 0.075327 0.354861
O O12 0.866209 0.000000 0.598792
O O13 0.670506 0.852194 0.568132
O O14 0.499928 0.901359 0.808397
O O15 0.620404 0.886636 0.877225
O O16 0.902139 0.500000 0.988304
#
# Coordination Sequence:
#
# PCOD9199455 Si02
#       7
#     8   8   8   8   8   8   8
#     4  11  22  37  58  91 128 159 192 245 310 363
#     4  11  21  42  64  88 122 159 203 249 304 363
#     4  10  20  36  60  91 124 166 207 245 295 357
#     4  11  22  43  66  86 118 159 209 256 303 353
#     4  10  20  36  60  87 124 160 201 249 291 358
#     4  11  24  38  61  94 124 160 202 250 302 365
#     4  10  23  41  66  91 117 160 210 256 302 360
#
# _framework density 19.152094000000002
#
# number of rings (size 3 to 8) (size 9 to 14) (size 15 to 20)
#    0.000    1.429    2.857    4.286    0.000    4.000 
#    0.000   13.571    0.000    0.000    0.000    0.000 
#    0.000    0.000    0.000    0.000    0.000    0.000 
#
# Total GULP energy -156251.939394 kJ/mol
# GULP energy per Si atom -5580.426407 kJ/mol
# Density = 1.910850 g / cm^3
# Si number density = 19.152094 Si / 1000 Ang^3
#
#
#
# Elastic Constant Matrix: (Units=GPa)
#
#
# Indices 1 2 3 4 5 6 
#
# 1 93.5697 56.9746 52.8558 0.0000 15.6922 0.0000
# 2 56.9746 114.3133 40.0178 0.0000 18.5580 0.0000
# 3 52.8558 40.0178 136.8379 0.0000 -5.3375 0.0000
# 4 0.0000 0.0000 0.0000 14.7577 0.0000 0.3822
# 5 15.6922 18.5580 -5.3375 0.0000 35.7016 0.0000
# 6 0.0000 0.0000 0.0000 0.3822 0.0000 6.7880
#
#
#
# Elastic Compliance Matrix: (Units=1/GPa)
#
#
# Indices 1 2 3 4 5 6 
#
# 1 0.018718 -0.006455 -0.005565 0.000000 -0.005704 0.000000
# 2 -0.006455 0.013190 -0.001530 0.000000 -0.004248 0.000000
# 3 -0.005565 -0.001530 0.010090 0.000000 0.004750 0.000000
# 4 0.000000 0.000000 0.000000 0.067860 0.000000 -0.003821
# 5 -0.005704 -0.004248 0.004750 0.000000 0.033435 0.000000
# 6 0.000000 0.000000 0.000000 -0.003821 0.000000 0.147533
#
#
# Mechanical properties :
#
#
# Convention : Reuss Voigt Hill
#
# Bulk Modulus (GPa) = 67.11912 71.60193 69.36052
# Shear Modulus (GPa) = 15.48506 24.44097 19.96301
#
# Velocity S-wave (km/s) = 2.84655 3.57620 3.23203
# Velocity P-wave (km/s) = 6.77681 7.38373 7.08677
#
# Compressibility (1/GPa) = 0.01489889
#
# Stress axis : x y z
#
# Youngs Moduli (GPa) = 53.42564 75.81348 99.10787
#
# Poissons Ratio (x) = 0.48938 0.55151
# Poissons Ratio (y) = 0.34486 0.15161
# Poissons Ratio (z) = 0.29730 0.11598
#
# Static dielectric constant tensor:
#      x y z
#    x 1.685490 0.000000 -0.010670 
#    y 0.000000 1.643690 0.000000 
#    z -0.010670 0.000000 1.687340 
# 
# From -- ./inp_files/77338.got.cif
#   From: 2010.05.17/outbox.cif.g08.bks.cpg/sg12_39_cif.got.tgz:77338.got - 2010.06.03 13:09:07.
