data_PCOD9199416
_publ_section_title
;
Structure prediction by ZEFSAII (Michael W. Deem and Ramdas Pophale) SiO2 
 PCOD9199416
Probable space group: C 2/M
;
_chemical_formula_sum "Si O2"
_cell_formula_units_Z 64
_cell_length_a 23.850602
_cell_length_b 14.386939
_cell_length_c 10.473147
_cell_angle_alpha 90.000000
_cell_angle_beta 48.785967
_cell_angle_gamma 90.000000
_cell_volume 2703.393080
_symmetry_space_group_name_H-M "C 2/M"
_symmetry_group_IT_number 12
_symmetry_cell_setting 'monoclinic'
loop_
_space_group_symop_operation_xyz
x,y,z
-x,y,-z
-x,-y,-z
x,-y,z
1/2+x,1/2+y,z
1/2-x,1/2+y,-z
1/2-x,1/2-y,-z
1/2+x,1/2-y,z
loop_
_atom_site_type_symbol
_atom_site_label
_atom_site_fract_x
_atom_site_fract_y
_atom_site_fract_z
Si Si1 0.956126 0.394279 0.946664
Si Si2 0.447517 0.394897 0.186762
Si Si3 0.537477 0.147654 0.571245
Si Si4 0.292674 0.886039 0.128757
Si Si5 0.198248 0.886899 0.027321
Si Si6 0.473110 0.645589 0.674895
Si Si7 0.207258 0.612779 0.354203
Si Si8 0.784687 0.886039 0.494861
O O1 0.937407 0.500000 0.015439
O O2 0.008974 0.397404 0.744564
O O3 0.876966 0.352030 0.024702
O O4 0.000000 0.351996 0.000000
O O5 0.430604 0.500000 0.165607
O O6 0.492797 0.399804 0.250210
O O7 0.367336 0.351408 0.336233
O O8 0.500000 0.352131 0.000000
O O9 0.500000 0.106467 0.500000
O O10 0.507073 0.251755 0.625510
O O11 0.626240 0.145728 0.432512
O O12 0.255709 0.857167 0.051490
O O13 0.242982 0.857333 0.324345
O O14 0.293827 0.000000 0.122662
O O15 0.115678 0.852954 0.182260
O O16 0.194371 0.000000 0.034239
O O17 0.229990 0.858787 0.841980
O O18 0.500000 0.603562 0.500000
O O19 0.204488 0.500000 0.357109
O O20 0.229162 0.641165 0.464437
O O21 0.786703 0.000000 0.495533
#
# Coordination Sequence:
#
# PCOD9199416 Si02
#       8
#     8   8   8   8   8   8   8   8
#     4  10  20  36  60  88 117 152 197 250 304 356
#     4  10  20  36  60  87 114 149 197 251 303 354
#     4  11  24  40  56  83 121 161 201 240 292 356
#     4   9  17  30  51  82 113 142 184 236 292 348
#     4  10  20  36  61  89 115 150 199 251 298 345
#     4  11  24  40  56  83 123 164 202 240 293 358
#     4  10  20  37  62  88 114 148 196 251 301 350
#     4   9  17  31  53  82 112 140 178 236 298 351
#
# _framework density 23.673953999999998
#
# number of rings (size 3 to 8) (size 9 to 14) (size 15 to 20)
#    0.000    2.000    0.000    3.750    0.000    8.500 
#    0.000    7.500    0.000    0.000    0.000    0.000 
#    0.000    0.000    0.000    0.000    0.000    0.000 
#
# Total GULP energy -179077.773927 kJ/mol
# GULP energy per Si atom -5596.180435 kJ/mol
# Density = 2.362007 g / cm^3
# Si number density = 23.673954 Si / 1000 Ang^3
#
#
#
# Elastic Constant Matrix: (Units=GPa)
#
#
# Indices 1 2 3 4 5 6 
#
# 1 133.5655 1.3367 40.9454 0.0000 -2.2822 0.0000
# 2 1.3367 68.5729 5.4937 0.0000 4.3884 0.0000
# 3 40.9454 5.4937 134.7203 0.0000 0.8463 0.0000
# 4 0.0000 0.0000 0.0000 9.3128 0.0000 -6.0206
# 5 -2.2822 4.3884 0.8463 0.0000 53.1179 0.0000
# 6 0.0000 0.0000 0.0000 -6.0206 0.0000 7.1016
#
#
#
# Elastic Compliance Matrix: (Units=1/GPa)
#
#
# Indices 1 2 3 4 5 6 
#
# 1 0.008265 0.000015 -0.002515 0.000000 0.000394 0.000000
# 2 0.000015 0.014708 -0.000597 0.000000 -0.001205 0.000000
# 3 -0.002515 -0.000597 0.008213 0.000000 -0.000190 0.000000
# 4 0.000000 0.000000 0.000000 0.237599 0.000000 0.201431
# 5 0.000394 -0.001205 -0.000190 0.000000 0.018946 0.000000
# 6 0.000000 0.000000 0.000000 0.201431 0.000000 0.311581
#
#
# Mechanical properties :
#
#
# Convention : Reuss Voigt Hill
#
# Bulk Modulus (GPa) = 40.01318 48.04556 44.02937
# Shear Modulus (GPa) = 8.14552 33.17867 20.66210
#
# Velocity S-wave (km/s) = 1.85693 3.74770 2.95749
# Velocity P-wave (km/s) = 4.64069 6.25026 5.50463
#
# Compressibility (1/GPa) = 0.02499176
#
# Stress axis : x y z
#
# Youngs Moduli (GPa) = 120.99944 67.99180 121.76312
#
# Poissons Ratio (x) = -0.00103 0.30622
# Poissons Ratio (y) = -0.00184 0.07267
# Poissons Ratio (z) = 0.30430 0.04058
#
# Static dielectric constant tensor:
#      x y z
#    x 1.793380 0.000000 -0.040100 
#    y 0.000000 1.994000 0.000000 
#    z -0.040100 0.000000 1.800890 
# 
# From -- ./inp_files/89579.got.cif
#   From: 2010.05.17/outbox.cif.g08.bks.cpg/sg12_45_cif.got.tgz:89579.got - 2010.06.03 13:09:07.
