data_PCOD9199417
_publ_section_title
;
Structure prediction by ZEFSAII (Michael W. Deem and Ramdas Pophale) SiO2 
 PCOD9199417
Probable space group: C 2/M
;
_chemical_formula_sum "Si O2"
_cell_formula_units_Z 64
_cell_length_a 28.865008
_cell_length_b 7.574239
_cell_length_c 13.635364
_cell_angle_alpha 90.000000
_cell_angle_beta 112.811945
_cell_angle_gamma 90.000000
_cell_volume 2747.930900
_symmetry_space_group_name_H-M "C 2/M"
_symmetry_group_IT_number 12
_symmetry_cell_setting 'monoclinic'
loop_
_space_group_symop_operation_xyz
x,y,z
-x,y,-z
-x,-y,-z
x,-y,z
1/2+x,1/2+y,z
1/2-x,1/2+y,-z
1/2-x,1/2-y,-z
1/2+x,1/2-y,z
loop_
_atom_site_type_symbol
_atom_site_label
_atom_site_fract_x
_atom_site_fract_y
_atom_site_fract_z
Si Si1 0.450352 0.203290 0.907738
Si Si2 0.891178 0.793047 0.468416
Si Si3 0.170918 0.795956 0.904961
Si Si4 0.691537 0.209410 0.463128
Si Si5 0.466733 0.285322 0.696559
Si Si6 0.237946 0.210457 0.137718
Si Si7 0.656528 0.787914 0.226599
Si Si8 0.577696 0.716405 0.719191
O O1 0.459202 0.209737 0.798362
O O2 0.393660 0.280366 0.869894
O O3 0.447684 0.000000 0.940699
O O4 0.500000 0.283437 0.000000
O O5 0.834316 0.775639 0.458930
O O6 0.925630 0.721239 0.584645
O O7 0.905000 0.720118 0.373663
O O8 0.903443 0.000000 0.472894
O O9 0.207355 0.787641 0.839909
O O10 0.117582 0.718826 0.832233
O O11 0.163072 0.000000 0.925020
O O12 0.202019 0.717509 0.020636
O O13 0.750000 0.250000 0.500000
O O14 0.662718 0.280567 0.342691
O O15 0.685898 0.000000 0.459083
O O16 0.464052 0.500000 0.702777
O O17 0.521276 0.237406 0.699679
O O18 0.207851 0.248902 0.211444
O O19 0.243629 0.000000 0.133106
O O20 0.651088 0.000000 0.227167
O O21 0.580445 0.500000 0.721606
#
# Coordination Sequence:
#
# PCOD9199417 Si02
#       8
#     8   8   8   8   8   8   8   8
#     4  10  22  40  60  84 116 154 193 233 286 349
#     4  10  20  37  60  86 115 150 190 232 282 341
#     4   9  19  37  56  79 113 152 186 227 285 342
#     4  11  24  41  61  85 117 153 193 240 290 344
#     4  10  20  36  60  87 115 147 189 238 281 332
#     4  10  21  35  56  83 113 146 188 237 279 328
#     4  10  22  40  60  82 114 156 190 228 290 350
#     4   9  19  35  58  84 112 147 187 229 281 339
#
# _framework density 23.290248999999999
#
# number of rings (size 3 to 8) (size 9 to 14) (size 15 to 20)
#    0.000    2.125    1.250    1.125    3.500    3.750 
#    0.000    1.250    0.000    1.500    0.000    0.000 
#    0.000    0.000    0.000    0.000    0.000    0.000 
#
# Total GULP energy -178785.143042 kJ/mol
# GULP energy per Si atom -5587.035720 kJ/mol
# Density = 2.323724 g / cm^3
# Si number density = 23.290249 Si / 1000 Ang^3
#
#
#
# Elastic Constant Matrix: (Units=GPa)
#
#
# Indices 1 2 3 4 5 6 
#
# 1 76.8687 -18.8723 -10.3073 0.0000 5.7932 0.0000
# 2 -18.8723 59.9160 -2.3209 0.0000 5.5434 0.0000
# 3 -10.3073 -2.3209 26.0154 0.0000 10.9659 0.0000
# 4 0.0000 0.0000 0.0000 6.4771 0.0000 -8.2407
# 5 5.7932 5.5434 10.9659 0.0000 42.8111 0.0000
# 6 0.0000 0.0000 0.0000 -8.2407 0.0000 14.3644
#
#
#
# Elastic Compliance Matrix: (Units=1/GPa)
#
#
# Indices 1 2 3 4 5 6 
#
# 1 0.016080 0.005907 0.009123 0.000000 -0.005278 0.000000
# 2 0.005907 0.019236 0.006102 0.000000 -0.004853 0.000000
# 3 0.009123 0.006102 0.048710 0.000000 -0.014501 0.000000
# 4 0.000000 0.000000 0.000000 0.571603 0.000000 0.327924
# 5 -0.005278 -0.004853 -0.014501 0.000000 0.028415 0.000000
# 6 0.000000 0.000000 0.000000 0.327924 0.000000 0.257743
#
#
# Mechanical properties :
#
#
# Convention : Reuss Voigt Hill
#
# Bulk Modulus (GPa) = 7.91839 11.08880 9.50359
# Shear Modulus (GPa) = 5.30999 25.68390 15.49694
#
# Velocity S-wave (km/s) = 1.51158 3.32441 2.58230
# Velocity P-wave (km/s) = 2.54042 4.41668 3.60283
#
# Compressibility (1/GPa) = 0.12628831
#
# Stress axis : x y z
#
# Youngs Moduli (GPa) = 62.18785 51.98629 20.52962
#
# Poissons Ratio (x) = -0.30706 -0.18728
# Poissons Ratio (y) = -0.36732 -0.12527
# Poissons Ratio (z) = -0.56731 -0.31722
#
# Static dielectric constant tensor:
#      x y z
#    x 1.876820 0.000000 -0.017760 
#    y 0.000000 1.892090 0.000000 
#    z -0.017760 0.000000 1.984400 
# 
# From -- ./inp_files/244189.got.cif
#   From: 2010.05.17/outbox.cif.g08.bks.cpg/sg12_123_cif.got.tgz:244189.got - 2010.06.03 13:09:07.
