data_PCOD9199145
_publ_section_title
;
Structure prediction by ZEFSAII (Michael W. Deem and Ramdas Pophale) SiO2 
 PCOD9199145
Probable space group: C 2/M
;
_chemical_formula_sum "Si O2"
_cell_formula_units_Z 40
_cell_length_a 21.519143
_cell_length_b 8.941853
_cell_length_c 22.281232
_cell_angle_alpha 90.000000
_cell_angle_beta 27.187956
_cell_angle_gamma 90.000000
_cell_volume 1958.949630
_symmetry_space_group_name_H-M "C 2/M"
_symmetry_group_IT_number 12
_symmetry_cell_setting 'monoclinic'
loop_
_space_group_symop_operation_xyz
x,y,z
-x,y,-z
-x,-y,-z
x,-y,z
1/2+x,1/2+y,z
1/2-x,1/2+y,-z
1/2-x,1/2-y,-z
1/2+x,1/2-y,z
loop_
_atom_site_type_symbol
_atom_site_label
_atom_site_fract_x
_atom_site_fract_y
_atom_site_fract_z
Si Si1 0.787320 0.325648 0.873732
Si Si2 0.762408 0.676656 0.424638
Si Si3 0.358664 0.319176 0.591618
Si Si4 0.963551 0.172086 0.818258
Si Si5 0.341921 0.680450 0.142118
O O1 0.831282 0.500000 0.835475
O O2 0.899107 0.225031 0.810535
O O3 0.741129 0.280676 0.847077
O O4 0.653936 0.317553 0.030867
O O5 0.751198 0.500000 0.440853
O O6 0.750000 0.750000 0.500000
O O7 0.656282 0.727302 0.464955
O O8 0.911292 0.722764 0.273446
O O9 0.500000 0.270403 0.500000
O O10 0.352498 0.500000 0.599059
O O11 0.234551 0.253498 0.736467
O O12 0.008518 0.000000 0.776011
O O13 0.339827 0.500000 0.149903
O O14 0.500000 0.725214 0.000000
#
# Coordination Sequence:
#
# PCOD9199145 Si02
#       5
#     8   8   8   8   8
#     4   9  19  35  57  88 122 157 198 247 300 359
#     4  11  24  41  62  87 120 159 203 251 300 361
#     4  10  24  44  63  89 126 163 204 254 307 366
#     4  10  20  36  59  86 120 158 199 249 301 354
#     4  10  21  38  62  91 124 160 203 253 305 365
#
# _framework density 20.419105999999999
#
# number of rings (size 3 to 8) (size 9 to 14) (size 15 to 20)
#    0.000    2.000    0.000    2.400    2.800    5.600 
#    0.000    0.000    0.000    0.000    0.000    0.000 
#    0.000    0.000    0.000    0.000    0.000    0.000 
#
# Total GULP energy -111769.370666 kJ/mol
# GULP energy per Si atom -5588.468533 kJ/mol
# Density = 2.037263 g / cm^3
# Si number density = 20.419106 Si / 1000 Ang^3
#
#
#
# Elastic Constant Matrix: (Units=GPa)
#
#
# Indices 1 2 3 4 5 6 
#
# 1 169.3770 41.3850 36.7151 0.0000 3.5675 0.0000
# 2 41.3850 22.1220 11.0559 0.0002 5.5333 -0.0002
# 3 36.7151 11.0559 60.7866 0.0001 -3.5313 -0.0001
# 4 0.0000 0.0002 0.0001 32.6057 -0.0001 2.3432
# 5 3.5675 5.5333 -3.5313 -0.0001 28.5653 0.0001
# 6 0.0000 -0.0002 -0.0001 2.3432 0.0001 23.3119
#
#
#
# Elastic Compliance Matrix: (Units=1/GPa)
#
#
# Indices 1 2 3 4 5 6 
#
# 1 0.011577 -0.020646 -0.003112 0.000000 0.002169 0.000000
# 2 -0.020646 0.090104 -0.004817 -0.000001 -0.015471 0.000001
# 3 -0.003112 -0.004817 0.019423 0.000000 0.003723 0.000000
# 4 0.000000 -0.000001 0.000000 0.030893 0.000000 -0.003105
# 5 0.002169 -0.015471 0.003723 0.000000 0.038194 0.000000
# 6 0.000000 0.000001 0.000000 -0.003105 0.000000 0.043209
#
#
# Mechanical properties :
#
#
# Convention : Reuss Voigt Hill
#
# Bulk Modulus (GPa) = 15.63587 47.84416 31.74001
# Shear Modulus (GPa) = 16.03254 27.77190 21.90222
#
# Velocity S-wave (km/s) = 2.80513 3.69195 3.27866
# Velocity P-wave (km/s) = 4.26214 6.45414 5.46908
#
# Compressibility (1/GPa) = 0.06395550
#
# Stress axis : x y z
#
# Youngs Moduli (GPa) = 86.37601 11.09831 51.48586
#
# Poissons Ratio (x) = 0.22913 0.16021
# Poissons Ratio (y) = 1.78329 0.24800
# Poissons Ratio (z) = 0.26877 0.05346
#
# Static dielectric constant tensor:
#      x y z
#    x 1.756010 0.000000 0.000740 
#    y 0.000000 1.683790 0.000000 
#    z 0.000740 0.000000 1.732370 
# 
# From -- ./inp_files/345815.got.cif
#   From: 2010.05.17/outbox.cif.g08.bks.cpg/sg12_173_cif.got.tgz:345815.got - 2010.06.03 13:09:07.
