data_PCOD9199761
_publ_section_title
;
Structure prediction by ZEFSAII (Michael W. Deem and Ramdas Pophale) SiO2 
 PCOD9199761
Probable space group: C 2/M
;
_chemical_formula_sum "Si O2"
_cell_formula_units_Z 56
_cell_length_a 16.038611
_cell_length_b 20.604015
_cell_length_c 15.248398
_cell_angle_alpha 90.000000
_cell_angle_beta 29.093501
_cell_angle_gamma 90.000000
_cell_volume 2450.135926
_symmetry_space_group_name_H-M "C 2/M"
_symmetry_group_IT_number 12
_symmetry_cell_setting 'monoclinic'
loop_
_space_group_symop_operation_xyz
x,y,z
-x,y,-z
-x,-y,-z
x,-y,z
1/2+x,1/2+y,z
1/2-x,1/2+y,-z
1/2-x,1/2-y,-z
1/2+x,1/2-y,z
loop_
_atom_site_type_symbol
_atom_site_label
_atom_site_fract_x
_atom_site_fract_y
_atom_site_fract_z
Si Si1 0.294814 0.926777 0.608668
Si Si2 0.860030 0.788260 0.547652
Si Si3 0.892449 0.717027 0.807931
Si Si4 0.907622 0.927509 0.491582
Si Si5 0.801838 0.816454 0.192000
Si Si6 0.417349 0.074436 0.800749
Si Si7 0.532051 0.424502 0.192968
O O1 0.305283 0.878076 0.678032
O O2 0.458333 0.929708 0.396321
O O3 0.135832 0.896616 0.698418
O O4 0.260250 0.000000 0.671969
O O5 0.796425 0.862315 0.595125
O O6 0.720271 0.739379 0.714348
O O7 0.000000 0.790099 0.500000
O O8 0.950993 0.760179 0.375955
O O9 0.784336 0.704085 0.818914
O O10 0.955789 0.649472 0.794662
O O11 0.750000 0.750000 0.000000
O O12 0.038562 0.911865 0.291156
O O13 0.000000 0.931452 0.500000
O O14 0.831572 0.000000 0.545396
O O15 0.000000 0.833104 0.000000
O O16 0.434734 0.000000 0.826364
O O17 0.212185 0.082456 0.980127
O O18 0.491134 0.500000 0.226400
#
# Coordination Sequence:
#
# PCOD9199761 Si02
#       7
#     8   8   8   8   8   8   8
#     4  10  21  38  60  91 127 162 205 259 307 363
#     4   9  19  36  56  82 117 151 194 251 305 362
#     4  11  22  39  60  86 122 160 201 251 309 364
#     4   9  17  33  61  87 113 158 211 258 312 373
#     4  11  23  40  59  86 124 161 202 253 307 370
#     4  10  20  36  61  90 121 163 209 250 307 371
#     4   9  18  34  57  89 124 157 202 260 313 364
#
# _framework density 22.855875000000001
#
# number of rings (size 3 to 8) (size 9 to 14) (size 15 to 20)
#    0.000    2.143    1.429    1.714    0.000    0.857 
#    2.571    2.857    0.000    0.429    0.000    0.000 
#    0.000    0.000    0.000    0.000    0.000    0.000 
#
# Total GULP energy -155896.649719 kJ/mol
# GULP energy per Si atom -5567.737490 kJ/mol
# Density = 2.280385 g / cm^3
# Si number density = 22.855875 Si / 1000 Ang^3
#
#
#
# Elastic Constant Matrix: (Units=GPa)
#
#
# Indices 1 2 3 4 5 6 
#
# 1 64.9425 9.5392 52.5963 0.0062 0.8849 -0.0019
# 2 9.5392 185.0830 37.8682 0.0196 21.9866 -0.0013
# 3 52.5963 37.8682 120.5853 0.0069 13.7481 -0.0095
# 4 0.0062 0.0196 0.0069 55.8678 -0.0031 2.8485
# 5 0.8849 21.9866 13.7481 -0.0031 30.6401 0.0041
# 6 -0.0019 -0.0013 -0.0095 2.8485 0.0041 8.5735
#
#
#
# Elastic Compliance Matrix: (Units=1/GPa)
#
#
# Indices 1 2 3 4 5 6 
#
# 1 0.024384 0.000581 -0.011267 -0.000001 0.003934 -0.000009
# 2 0.000581 0.006169 -0.001775 -0.000002 -0.003647 0.000002
# 3 -0.011267 -0.001775 0.014315 -0.000001 -0.004824 0.000016
# 4 -0.000001 -0.000002 -0.000001 0.018208 0.000005 -0.006049
# 5 0.003934 -0.003647 -0.004824 0.000005 0.037305 -0.000025
# 6 -0.000009 0.000002 0.000016 -0.006049 -0.000025 0.118649
#
#
# Mechanical properties :
#
#
# Convention : Reuss Voigt Hill
#
# Bulk Modulus (GPa) = 50.13362 63.40203 56.76783
# Shear Modulus (GPa) = 19.95210 37.05675 28.50443
#
# Velocity S-wave (km/s) = 2.95778 4.03093 3.53531
# Velocity P-wave (km/s) = 5.80060 7.03312 6.44638
#
# Compressibility (1/GPa) = 0.01994669
#
# Stress axis : x y z
#
# Youngs Moduli (GPa) = 41.01032 162.08780 69.85892
#
# Poissons Ratio (x) = -0.09419 0.78708
# Poissons Ratio (y) = -0.02383 0.12400
# Poissons Ratio (z) = 0.46205 0.28771
#
# Static dielectric constant tensor:
#      x y z
#    x 1.928390 -0.000020 -0.018730 
#    y -0.000020 1.958340 0.000020 
#    z -0.018730 0.000020 1.850400 
# 
# From -- ./inp_files/286015.got.cif
#   From: 2010.05.17/outbox.cif.g08.bks.cpg/sg12_144_cif.got.tgz:286015.got - 2010.06.03 13:09:07.
