data_PCOD9199452
_publ_section_title
;
Structure prediction by ZEFSAII (Michael W. Deem and Ramdas Pophale) SiO2 
 PCOD9199452
Probable space group: C 2/M
;
_chemical_formula_sum "Si O2"
_cell_formula_units_Z 56
_cell_length_a 20.336159
_cell_length_b 21.864179
_cell_length_c 8.737153
_cell_angle_alpha 90.000000
_cell_angle_beta 134.879139
_cell_angle_gamma 90.000000
_cell_volume 2752.778241
_symmetry_space_group_name_H-M "C 2/M"
_symmetry_group_IT_number 12
_symmetry_cell_setting 'monoclinic'
loop_
_space_group_symop_operation_xyz
x,y,z
-x,y,-z
-x,-y,-z
x,-y,z
1/2+x,1/2+y,z
1/2-x,1/2+y,-z
1/2-x,1/2-y,-z
1/2+x,1/2-y,z
loop_
_atom_site_type_symbol
_atom_site_label
_atom_site_fract_x
_atom_site_fract_y
_atom_site_fract_z
Si Si1 0.592429 0.759168 0.247344
Si Si2 0.689578 0.322505 0.183447
Si Si3 0.865563 0.331285 0.260335
Si Si4 0.743133 0.067114 0.501719
Si Si5 0.561024 0.890290 0.320224
Si Si6 0.470245 0.711104 0.295812
Si Si7 0.849955 0.427926 0.973057
O O1 0.672795 0.732854 0.274281
O O2 0.591600 0.831005 0.272881
O O3 0.565170 0.728185 0.362896
O O4 0.500000 0.745897 0.000000
O O5 0.777690 0.311386 0.219267
O O6 0.703333 0.381692 0.313282
O O7 0.600216 0.325176 0.927055
O O8 0.929004 0.366945 0.489194
O O9 0.916166 0.274262 0.258366
O O10 0.831241 0.380261 0.078473
O O11 0.642675 0.063506 0.418833
O O12 0.787662 0.000000 0.579098
O O13 0.716656 0.082341 0.282271
O O14 0.458663 0.913638 0.114267
O O15 0.500000 0.678796 0.500000
O O16 0.843414 0.500000 0.004171
#
# Coordination Sequence:
#
# PCOD9199452 Si02
#       7
#     8   8   8   8   8   8   8
#     4  10  20  36  60  87 122 159 202 246 298 368
#     4  10  25  39  60  90 120 167 202 251 314 362
#     4  11  22  37  55  89 132 163 198 252 300 354
#     4  10  23  40  58  84 120 160 210 258 299 354
#     4  11  20  36  60  88 127 168 200 243 292 372
#     4  11  20  40  61  87 125 155 200 254 311 365
#     4  11  22  37  60  89 125 172 209 240 291 363
#
# _framework density 20.343084999999999
#
# number of rings (size 3 to 8) (size 9 to 14) (size 15 to 20)
#    0.000    1.429    2.857    2.571    2.000    8.000 
#    0.000    0.000    0.000    4.286    0.000    0.000 
#    0.000    0.000    0.000    0.000    0.000    0.000 
#
# Total GULP energy -156241.867558 kJ/mol
# GULP energy per Si atom -5580.066699 kJ/mol
# Density = 2.029678 g / cm^3
# Si number density = 20.343085 Si / 1000 Ang^3
#
#
#
# Elastic Constant Matrix: (Units=GPa)
#
#
# Indices 1 2 3 4 5 6 
#
# 1 106.9993 48.2737 15.4227 0.0000 -18.1281 0.0000
# 2 48.2737 79.0554 52.6449 0.0000 -9.7382 0.0000
# 3 15.4227 52.6449 136.8002 0.0000 -16.0606 0.0000
# 4 0.0000 0.0000 0.0000 28.5917 0.0000 0.4417
# 5 -18.1281 -9.7382 -16.0606 0.0000 25.7396 0.0000
# 6 0.0000 0.0000 0.0000 0.4417 0.0000 18.9044
#
#
#
# Elastic Compliance Matrix: (Units=1/GPa)
#
#
# Indices 1 2 3 4 5 6 
#
# 1 0.014977 -0.010258 0.003282 0.000000 0.008715 0.000000
# 2 -0.010258 0.024188 -0.008552 0.000000 -0.003409 0.000000
# 3 0.003282 -0.008552 0.010923 0.000000 0.005891 0.000000
# 4 0.000000 0.000000 0.000000 0.034988 0.000000 -0.000817
# 5 0.008715 -0.003409 0.005891 0.000000 0.047375 0.000000
# 6 0.000000 0.000000 0.000000 -0.000817 0.000000 0.052917
#
#
# Mechanical properties :
#
#
# Convention : Reuss Voigt Hill
#
# Bulk Modulus (GPa) = 52.54116 61.72640 57.13378
# Shear Modulus (GPa) = 22.44499 28.41472 25.42986
#
# Velocity S-wave (km/s) = 3.32523 3.74140 3.53944
# Velocity P-wave (km/s) = 6.37389 7.00519 6.69698
#
# Compressibility (1/GPa) = 0.01903270
#
# Stress axis : x y z
#
# Youngs Moduli (GPa) = 66.76829 41.34267 91.55256
#
# Poissons Ratio (x) = 0.42408 -0.30049
# Poissons Ratio (y) = 0.68488 0.78297
# Poissons Ratio (z) = -0.21914 0.35357
#
# Static dielectric constant tensor:
#      x y z
#    x 1.797180 0.000000 -0.018800 
#    y 0.000000 1.737850 0.000000 
#    z -0.018800 0.000000 1.781050 
# 
# From -- ./inp_files/89667.got.cif
#   From: 2010.05.17/outbox.cif.g08.bks.cpg/sg12_45_cif.got.tgz:89667.got - 2010.06.03 13:09:07.
