data_PCOD9199938
_publ_section_title
;
Structure prediction by ZEFSAII (Michael W. Deem and Ramdas Pophale) SiO2 
 PCOD9199938
Probable space group: C 2/M
;
_chemical_formula_sum "Si O2"
_cell_formula_units_Z 48
_cell_length_a 31.017540
_cell_length_b 11.461431
_cell_length_c 15.292376
_cell_angle_alpha 90.000000
_cell_angle_beta 26.926826
_cell_angle_gamma 90.000000
_cell_volume 2461.941028
_symmetry_space_group_name_H-M "C 2/M"
_symmetry_group_IT_number 12
_symmetry_cell_setting 'monoclinic'
loop_
_space_group_symop_operation_xyz
x,y,z
-x,y,-z
-x,-y,-z
x,-y,z
1/2+x,1/2+y,z
1/2-x,1/2+y,-z
1/2-x,1/2-y,-z
1/2+x,1/2-y,z
loop_
_atom_site_type_symbol
_atom_site_label
_atom_site_fract_x
_atom_site_fract_y
_atom_site_fract_z
Si Si1 0.736293 0.000000 0.622432
Si Si2 0.317267 0.756921 0.653435
Si Si3 0.353189 0.500000 0.585461
Si Si4 0.506141 0.862206 0.386307
Si Si5 0.614592 0.500000 0.810488
Si Si6 0.680257 0.718477 0.047358
Si Si7 0.548787 0.500000 0.318046
Si Si8 0.707337 0.256380 0.675144
O O1 0.815364 0.000000 0.555564
O O2 0.805101 0.000000 0.412674
O O3 0.675451 0.880325 0.742669
O O4 0.315551 0.622296 0.689343
O O5 0.421505 0.803469 0.485547
O O6 0.286342 0.768766 0.608859
O O7 0.240429 0.817509 0.854176
O O8 0.466055 0.500000 0.395022
O O9 0.500000 0.825565 0.500000
O O10 0.607652 0.824876 0.164831
O O11 0.493644 0.000000 0.406487
O O12 0.639534 0.370945 0.806841
O O13 0.500000 0.500000 0.000000
O O14 0.613057 0.612649 0.194388
O O15 0.750000 0.750000 0.000000
O O16 0.500000 0.500000 0.500000
O O17 0.750000 0.250000 0.500000
#
# Coordination Sequence:
#
# PCOD9199938 Si02
#       8
#     4   8   4   8   4   8   4   8
#     4   8  18  38  63  80 116 162 197 240 324 375
#     4  11  23  40  65  90 122 166 212 256 314 379
#     4  10  20  40  60  83 116 157 204 258 300 367
#     4  11  24  42  59  86 130 163 206 259 318 370
#     4  10  20  36  62  91 121 149 202 266 313 366
#     4  12  25  38  60  89 120 164 207 253 309 368
#     4  12  24  40  60  85 123 160 208 255 306 371
#     4   9  20  40  63  89 123 165 206 256 323 380
#
# _framework density 19.496811999999998
#
# number of rings (size 3 to 8) (size 9 to 14) (size 15 to 20)
#    0.000    1.500    3.333    1.500    4.667    1.333 
#    3.000    0.417    0.000    0.000    0.000    0.000 
#    0.000    0.000    0.000    0.000    0.000    0.000 
#
# Total GULP energy -133685.722838 kJ/mol
# GULP energy per Si atom -5570.238452 kJ/mol
# Density = 1.945244 g / cm^3
# Si number density = 19.496812 Si / 1000 Ang^3
#
#
#
# Elastic Constant Matrix: (Units=GPa)
#
#
# Indices 1 2 3 4 5 6 
#
# 1 99.8846 36.9700 35.4572 0.0000 -12.5450 0.0000
# 2 36.9700 140.6088 25.9003 0.0000 -28.7073 0.0000
# 3 35.4572 25.9003 79.4289 0.0000 -19.4396 0.0000
# 4 0.0000 0.0000 0.0000 16.6486 0.0000 -4.4079
# 5 -12.5450 -28.7073 -19.4396 0.0000 26.4100 0.0000
# 6 0.0000 0.0000 0.0000 -4.4079 0.0000 27.4184
#
#
#
# Elastic Compliance Matrix: (Units=1/GPa)
#
#
# Indices 1 2 3 4 5 6 
#
# 1 0.012632 -0.002480 -0.004905 0.000000 -0.000306 0.000000
# 2 -0.002480 0.009657 0.000292 0.000000 0.009533 0.000000
# 3 -0.004905 0.000292 0.017310 0.000000 0.010728 0.000000
# 4 0.000000 0.000000 0.000000 0.062735 0.000000 0.010086
# 5 -0.000306 0.009533 0.010728 0.000000 0.055978 0.000000
# 6 0.000000 0.000000 0.000000 0.010086 0.000000 0.038093
#
#
# Mechanical properties :
#
#
# Convention : Reuss Voigt Hill
#
# Bulk Modulus (GPa) = 39.35298 57.39749 48.37523
# Shear Modulus (GPa) = 22.82431 28.86840 25.84635
#
# Velocity S-wave (km/s) = 3.42522 3.85213 3.64493
# Velocity P-wave (km/s) = 5.98924 7.02058 6.52531
#
# Compressibility (1/GPa) = 0.02541104
#
# Stress axis : x y z
#
# Youngs Moduli (GPa) = 79.16130 103.55494 57.76941
#
# Poissons Ratio (x) = 0.25686 0.28338
# Poissons Ratio (y) = 0.19635 -0.01684
# Poissons Ratio (z) = 0.38831 -0.03019
#
# Static dielectric constant tensor:
#      x y z
#    x 1.679250 0.000000 0.017580 
#    y 0.000000 1.671640 0.000000 
#    z 0.017580 0.000000 1.649480 
# 
# From -- ./inp_files/245907.got.cif
#   From: 2010.05.17/outbox.cif.g08.bks.cpg/sg12_123_cif.got.tgz:245907.got - 2010.06.03 13:09:07.
