data_PCOD9199473
_publ_section_title
;
Structure prediction by ZEFSAII (Michael W. Deem and Ramdas Pophale) SiO2 
 PCOD9199473
Probable space group: C 2/M
;
_chemical_formula_sum "Si O2"
_cell_formula_units_Z 56
_cell_length_a 11.371087
_cell_length_b 14.895727
_cell_length_c 20.167477
_cell_angle_alpha 90.000000
_cell_angle_beta 136.854246
_cell_angle_gamma 90.000000
_cell_volume 2336.040244
_symmetry_space_group_name_H-M "C 2/M"
_symmetry_group_IT_number 12
_symmetry_cell_setting 'monoclinic'
loop_
_space_group_symop_operation_xyz
x,y,z
-x,y,-z
-x,-y,-z
x,-y,z
1/2+x,1/2+y,z
1/2-x,1/2+y,-z
1/2-x,1/2-y,-z
1/2+x,1/2-y,z
loop_
_atom_site_type_symbol
_atom_site_label
_atom_site_fract_x
_atom_site_fract_y
_atom_site_fract_z
Si Si1 0.182065 0.396433 0.534417
Si Si2 0.722822 0.291028 0.859354
Si Si3 0.336503 0.902338 0.028735
Si Si4 0.712423 0.600178 0.121055
Si Si5 0.280498 0.101437 0.754707
Si Si6 0.566873 0.898268 0.671966
Si Si7 0.824618 0.228132 0.698459
O O1 0.247790 0.500000 0.564896
O O2 0.295596 0.320086 0.615615
O O3 0.000000 0.394090 0.500000
O O4 0.118611 0.374432 0.433657
O O5 0.832661 0.203647 0.881877
O O6 0.699349 0.358179 0.788314
O O7 0.525998 0.270015 0.798140
O O8 0.808689 0.332340 0.959637
O O9 0.213389 0.897081 0.041892
O O10 0.521446 0.900003 0.139232
O O11 0.313120 0.000000 0.987043
O O12 0.642505 0.500000 0.111487
O O13 0.898020 0.599183 0.235377
O O14 0.254910 0.172360 0.685063
O O15 0.226967 0.000000 0.717479
O O16 0.713977 0.836275 0.701381
O O17 0.597228 0.000000 0.660836
#
# Coordination Sequence:
#
# PCOD9199473 Si02
#       7
#     8   8   8   8   8   8   8
#     4   8  16  33  60  89 118 151 190 237 298 369
#     4  12  23  38  62  88 115 159 206 254 287 348
#     4  10  22  41  61  82 117 165 208 242 291 362
#     4  10  20  36  60  88 116 151 200 249 299 356
#     4  11  24  41  60  83 122 169 205 239 294 360
#     4   9  18  37  63  90 119 151 190 243 305 366
#     4  11  21  35  62  92 117 150 198 252 294 342
#
# _framework density 23.972189
#
# number of rings (size 3 to 8) (size 9 to 14) (size 15 to 20)
#    0.000    1.857    2.857    2.571    0.000    3.429 
#    0.000    1.429    0.000    8.143    0.000    0.000 
#    0.000    0.000    0.000    0.000    0.000    0.000 
#
# Total GULP energy -156050.255155 kJ/mol
# GULP energy per Si atom -5573.223398 kJ/mol
# Density = 2.391763 g / cm^3
# Si number density = 23.972189 Si / 1000 Ang^3
#
#
#
# Elastic Constant Matrix: (Units=GPa)
#
#
# Indices 1 2 3 4 5 6 
#
# 1 32.3128 30.3710 16.4362 0.0000 -1.6810 0.0000
# 2 30.3710 198.4038 64.5042 0.0000 -10.2902 0.0000
# 3 16.4362 64.5042 128.4237 0.0000 -27.7813 0.0000
# 4 0.0000 0.0000 0.0000 33.1691 0.0000 -8.3859
# 5 -1.6810 -10.2902 -27.7813 0.0000 20.7071 0.0000
# 6 0.0000 0.0000 0.0000 -8.3859 0.0000 22.9898
#
#
#
# Elastic Compliance Matrix: (Units=1/GPa)
#
#
# Indices 1 2 3 4 5 6 
#
# 1 0.036858 -0.004833 -0.003046 0.000000 -0.003496 0.000000
# 2 -0.004833 0.006691 -0.002970 0.000000 -0.001051 0.000000
# 3 -0.003046 -0.002970 0.013096 0.000000 0.015847 0.000000
# 4 0.000000 0.000000 0.000000 0.033211 0.000000 0.012114
# 5 -0.003496 -0.001051 0.015847 0.000000 0.068747 0.000000
# 6 0.000000 0.000000 0.000000 0.012114 0.000000 0.047917
#
#
# Mechanical properties :
#
#
# Convention : Reuss Voigt Hill
#
# Bulk Modulus (GPa) = 28.61432 64.64034 46.62733
# Shear Modulus (GPa) = 20.84491 31.89513 26.37002
#
# Velocity S-wave (km/s) = 2.95200 3.65157 3.32026
# Velocity P-wave (km/s) = 4.85608 6.69342 5.84736
#
# Compressibility (1/GPa) = 0.03494754
#
# Stress axis : x y z
#
# Youngs Moduli (GPa) = 27.13150 149.45458 76.35728
#
# Poissons Ratio (x) = 0.72232 0.23258
# Poissons Ratio (y) = 0.13113 0.22675
# Poissons Ratio (z) = 0.08264 0.44383
#
# Static dielectric constant tensor:
#      x y z
#    x 2.000920 0.000000 0.005410 
#    y 0.000000 1.984710 0.000000 
#    z 0.005410 0.000000 1.947500 
# 
# From -- ./inp_files/310872.got.cif
#   From: 2010.05.17/outbox.cif.g08.bks.cpg/sg12_156_cif.got.tgz:310872.got - 2010.06.03 13:09:07.
