data_PCOD9199393
_publ_section_title
;
Structure prediction by ZEFSAII (Michael W. Deem and Ramdas Pophale) SiO2 
 PCOD9199393
Probable space group: C 2/M
;
_chemical_formula_sum "Si O2"
_cell_formula_units_Z 64
_cell_length_a 29.670286
_cell_length_b 7.919262
_cell_length_c 16.673058
_cell_angle_alpha 90.000000
_cell_angle_beta 134.941337
_cell_angle_gamma 90.000000
_cell_volume 2773.006643
_symmetry_space_group_name_H-M "C 2/M"
_symmetry_group_IT_number 12
_symmetry_cell_setting 'monoclinic'
loop_
_space_group_symop_operation_xyz
x,y,z
-x,y,-z
-x,-y,-z
x,-y,z
1/2+x,1/2+y,z
1/2-x,1/2+y,-z
1/2-x,1/2-y,-z
1/2+x,1/2-y,z
loop_
_atom_site_type_symbol
_atom_site_label
_atom_site_fract_x
_atom_site_fract_y
_atom_site_fract_z
Si Si1 0.560550 0.302528 0.528698
Si Si2 0.772771 0.198400 0.913725
Si Si3 0.198736 0.199754 0.679700
Si Si4 0.978297 0.203872 0.098295
Si Si5 0.602797 0.294720 0.149440
Si Si6 0.736180 0.701610 0.391440
Si Si7 0.149417 0.696712 0.850994
Si Si8 0.513240 0.799642 0.706743
O O1 0.500000 0.226477 0.500000
O O2 0.564242 0.500000 0.554988
O O3 0.631300 0.228925 0.627049
O O4 0.542982 0.286432 0.412815
O O5 0.757938 0.222269 0.802433
O O6 0.708581 0.269796 0.876071
O O7 0.779603 0.000000 0.939301
O O8 0.830810 0.286472 0.030925
O O9 0.209154 0.234942 0.599675
O O10 0.199557 0.000000 0.694001
O O11 0.983162 0.270992 0.194145
O O12 0.043294 0.246289 0.132575
O O13 0.974144 0.000000 0.098325
O O14 0.919550 0.261251 0.967673
O O15 0.606248 0.500000 0.150461
O O16 0.668614 0.232775 0.270931
O O17 0.734508 0.500000 0.384797
O O18 0.750000 0.750000 0.500000
O O19 0.146288 0.500000 0.826139
O O20 0.079712 0.770455 0.753515
O O21 0.509398 0.000000 0.687525
#
# Coordination Sequence:
#
# PCOD9199393 Si02
#       8
#     8   8   8   8   8   8   8   8
#     4  10  23  43  65  87 115 159 212 257 300 361
#     4  10  20  36  60  86 115 157 202 242 290 357
#     4  11  24  41  62  89 121 158 202 254 310 361
#     4   9  18  37  63  88 113 151 197 245 294 350
#     4   8  18  38  63  86 114 151 197 245 290 345
#     4  11  24  42  63  91 124 162 206 247 301 365
#     4   9  20  37  55  83 124 159 190 238 300 360
#     4  11  23  36  56  89 123 153 190 245 308 361
#
# _framework density 23.079643000000001
#
# number of rings (size 3 to 8) (size 9 to 14) (size 15 to 20)
#    0.000    2.125    0.000    3.000    3.500    2.750 
#    0.000    2.500    0.000    0.000    0.000    0.000 
#    0.000    0.000    0.000    0.000    0.000    0.000 
#
# Total GULP energy -178795.256888 kJ/mol
# GULP energy per Si atom -5587.351778 kJ/mol
# Density = 2.302711 g / cm^3
# Si number density = 23.079643 Si / 1000 Ang^3
#
#
#
# Elastic Constant Matrix: (Units=GPa)
#
#
# Indices 1 2 3 4 5 6 
#
# 1 62.7940 3.9304 32.5181 0.0000 -0.5346 0.0000
# 2 3.9304 44.2324 -1.0510 0.0000 2.2229 0.0000
# 3 32.5181 -1.0510 130.1133 0.0000 3.0652 0.0000
# 4 0.0000 0.0000 0.0000 26.0877 0.0000 -9.5770
# 5 -0.5346 2.2229 3.0652 0.0000 41.4123 0.0000
# 6 0.0000 0.0000 0.0000 -9.5770 0.0000 20.0341
#
#
#
# Elastic Compliance Matrix: (Units=1/GPa)
#
#
# Indices 1 2 3 4 5 6 
#
# 1 0.018445 -0.001783 -0.004640 0.000000 0.000677 0.000000
# 2 -0.001783 0.022847 0.000661 0.000000 -0.001298 0.000000
# 3 -0.004640 0.000661 0.008868 0.000000 -0.000752 0.000000
# 4 0.000000 0.000000 0.000000 0.046491 0.000000 0.022224
# 5 0.000677 -0.001298 -0.000752 0.000000 0.024281 0.000000
# 6 0.000000 0.000000 0.000000 0.022224 0.000000 0.060539
#
#
# Mechanical properties :
#
#
# Convention : Reuss Voigt Hill
#
# Bulk Modulus (GPa) = 25.88290 34.21497 30.04894
# Shear Modulus (GPa) = 24.28642 30.95631 27.62137
#
# Velocity S-wave (km/s) = 3.24742 3.66632 3.46321
# Velocity P-wave (km/s) = 5.02990 5.72534 5.38885
#
# Compressibility (1/GPa) = 0.03863554
#
# Stress axis : x y z
#
# Youngs Moduli (GPa) = 54.21388 43.76888 112.76047
#
# Poissons Ratio (x) = 0.07805 0.52324
# Poissons Ratio (y) = 0.09668 -0.07451
# Poissons Ratio (z) = 0.25157 -0.02892
#
# Static dielectric constant tensor:
#      x y z
#    x 1.911630 0.000000 -0.003210 
#    y 0.000000 1.832460 0.000000 
#    z -0.003210 0.000000 1.895730 
# 
# From -- ./inp_files/249941.got.cif
#   From: 2010.05.17/outbox.cif.g08.bks.cpg/sg12_125_cif.got.tgz:249941.got - 2010.06.03 13:09:07.
