data_PCOD9199323
_publ_section_title
;
Structure prediction by ZEFSAII (Michael W. Deem and Ramdas Pophale) SiO2 
 PCOD9199323
Probable space group: C 2/M
;
_chemical_formula_sum "Si O2"
_cell_formula_units_Z 52
_cell_length_a 14.454250
_cell_length_b 9.858642
_cell_length_c 24.544918
_cell_angle_alpha 90.000000
_cell_angle_beta 40.954748
_cell_angle_gamma 90.000000
_cell_volume 2292.568202
_symmetry_space_group_name_H-M "C 2/M"
_symmetry_group_IT_number 12
_symmetry_cell_setting 'monoclinic'
loop_
_space_group_symop_operation_xyz
x,y,z
-x,y,-z
-x,-y,-z
x,-y,z
1/2+x,1/2+y,z
1/2-x,1/2+y,-z
1/2-x,1/2-y,-z
1/2+x,1/2-y,z
loop_
_atom_site_type_symbol
_atom_site_label
_atom_site_fract_x
_atom_site_fract_y
_atom_site_fract_z
Si Si1 0.883090 0.500000 0.747266
Si Si2 0.573473 0.657227 0.130112
Si Si3 0.664994 0.343960 0.372466
Si Si4 0.384220 0.345700 0.443549
Si Si5 0.695639 0.237094 0.801047
Si Si6 0.932249 0.764414 0.304611
Si Si7 0.653528 0.156709 0.937987
O O1 0.774983 0.380487 0.772491
O O2 0.990519 0.619982 0.722302
O O3 0.584743 0.500000 0.108071
O O4 0.470813 0.738853 0.136207
O O5 0.494886 0.663232 0.223741
O O6 0.728860 0.716443 0.074048
O O7 0.657850 0.500000 0.393108
O O8 0.505848 0.296873 0.430811
O O9 0.742995 0.336281 0.279126
O O10 0.766000 0.260153 0.366963
O O11 0.344807 0.500000 0.474318
O O12 0.250000 0.250000 0.500000
O O13 0.449015 0.341381 0.353925
O O14 0.713961 0.161295 0.849894
O O15 0.634207 0.000000 0.963452
O O16 0.500000 0.223252 0.000000
#
# Coordination Sequence:
#
# PCOD9199323 Si02
#       7
#     4   8   8   8   8   8   8
#     4  12  20  36  61  89 118 148 187 243 302 337
#     4  10  20  36  60  83 113 147 193 242 288 342
#     4  10  21  38  61  88 112 150 194 240 289 342
#     4  11  25  42  61  86 121 159 196 235 288 345
#     4  11  21  35  59  88 116 147 191 243 291 345
#     4  11  22  38  62  88 116 148 192 243 288 347
#     4  10  21  38  57  79 114 158 196 235 285 346
#
# _framework density 22.681985999999998
#
# number of rings (size 3 to 8) (size 9 to 14) (size 15 to 20)
#    0.000    1.385    4.615    0.923    1.077    3.692 
#    0.000    2.692    0.000    0.000    0.000    0.000 
#    0.000    0.000    0.000    0.000    0.000    0.000 
#
# Total GULP energy -144748.321585 kJ/mol
# GULP energy per Si atom -5567.243138 kJ/mol
# Density = 2.263036 g / cm^3
# Si number density = 22.681986 Si / 1000 Ang^3
#
#
#
# Elastic Constant Matrix: (Units=GPa)
#
#
# Indices 1 2 3 4 5 6 
#
# 1 168.3471 11.6848 28.6317 0.0000 -43.5673 0.0000
# 2 11.6848 63.1665 0.4573 0.0000 -16.1584 0.0000
# 3 28.6317 0.4573 49.6591 0.0000 -18.3743 0.0000
# 4 0.0000 0.0000 0.0000 8.6042 0.0000 -8.7485
# 5 -43.5673 -16.1584 -18.3743 0.0000 59.4592 0.0000
# 6 0.0000 0.0000 0.0000 -8.7485 0.0000 25.3422
#
#
#
# Elastic Compliance Matrix: (Units=1/GPa)
#
#
# Indices 1 2 3 4 5 6 
#
# 1 0.007624 -0.000184 -0.002649 0.000000 0.004718 0.000000
# 2 -0.000184 0.017155 0.001833 0.000000 0.005093 0.000000
# 3 -0.002649 0.001833 0.023840 0.000000 0.005924 0.000000
# 4 0.000000 0.000000 0.000000 0.179078 0.000000 0.061820
# 5 0.004718 0.005093 0.005924 0.000000 0.023490 0.000000
# 6 0.000000 0.000000 0.000000 0.061820 0.000000 0.060801
#
#
# Mechanical properties :
#
#
# Convention : Reuss Voigt Hill
#
# Bulk Modulus (GPa) = 21.45057 40.30227 30.87642
# Shear Modulus (GPa) = 15.17322 34.70771 24.94046
#
# Velocity S-wave (km/s) = 2.58922 3.91601 3.31958
# Velocity P-wave (km/s) = 4.29143 6.18496 5.32307
#
# Compressibility (1/GPa) = 0.04661881
#
# Stress axis : x y z
#
# Youngs Moduli (GPa) = 131.15875 58.29238 41.94706
#
# Poissons Ratio (x) = 0.01074 0.11110
# Poissons Ratio (y) = 0.02417 -0.07688
# Poissons Ratio (z) = 0.34738 -0.10684
#
# Static dielectric constant tensor:
#      x y z
#    x 1.851770 0.000000 -0.031220 
#    y 0.000000 1.769820 0.000000 
#    z -0.031220 0.000000 1.935660 
# 
# From -- ./inp_files/375316.got.cif
#   From: 2010.05.17/outbox.cif.g08.bks.cpg/sg12_188_cif.got.tgz:375316.got - 2010.06.03 13:09:07.
