data_PCOD9199556
_publ_section_title
;
Structure prediction by ZEFSAII (Michael W. Deem and Ramdas Pophale) SiO2 
 PCOD9199556
Probable space group: C 2/M
;
_chemical_formula_sum "Si O2"
_cell_formula_units_Z 58
_cell_length_a 19.715886
_cell_length_b 7.660480
_cell_length_c 18.731014
_cell_angle_alpha 90.000000
_cell_angle_beta 117.118206
_cell_angle_gamma 90.000000
_cell_volume 2518.006004
_symmetry_space_group_name_H-M "C 2/M"
_symmetry_group_IT_number 12
_symmetry_cell_setting 'monoclinic'
loop_
_space_group_symop_operation_xyz
x,y,z
-x,y,-z
-x,-y,-z
x,-y,z
1/2+x,1/2+y,z
1/2-x,1/2+y,-z
1/2-x,1/2-y,-z
1/2+x,1/2-y,z
loop_
_atom_site_type_symbol
_atom_site_label
_atom_site_fract_x
_atom_site_fract_y
_atom_site_fract_z
Si Si1 0.926242 0.798625 0.643401
Si Si2 0.609857 0.709923 0.532522
Si Si3 0.180218 0.305080 0.915937
Si Si4 0.512946 0.703087 0.813174
Si Si5 0.433088 0.287855 0.914327
Si Si6 0.280664 0.208470 0.665843
Si Si7 0.500000 0.000000 0.500000
Si Si8 0.766160 0.701967 0.821110
O O1 0.909311 0.724429 0.557321
O O2 0.849533 0.788779 0.653998
O O3 0.992178 0.720922 0.725712
O O4 0.945184 0.000000 0.636957
O O5 0.594960 0.500000 0.535242
O O6 0.699356 0.734652 0.589486
O O7 0.559815 0.842348 0.554583
O O8 0.160288 0.500000 0.926615
O O9 0.100148 0.206815 0.879510
O O10 0.210532 0.293955 0.849533
O O11 0.250000 0.250000 0.000000
O O12 0.491470 0.500000 0.797661
O O13 0.459061 0.777135 0.848962
O O14 0.427688 0.500000 0.912020
O O15 0.350984 0.215061 0.893879
O O16 0.500000 0.239034 0.000000
O O17 0.273308 0.272244 0.744040
O O18 0.295351 0.000000 0.675904
O O19 0.741882 0.500000 0.805247
#
# Coordination Sequence:
#
# PCOD9199556 Si02
#       8
#     8   8   8   8   8   8   2   8
#     4  10  21  39  68  97 133 173 217 275 334 394
#     4  10  24  45  66 100 141 182 225 279 335 395
#     4  12  26  44  65  91 125 170 217 271 331 403
#     4  10  21  39  62  94 130 170 215 270 330 393
#     4  10  20  36  60  89 123 165 209 263 327 385
#     4  10  22  40  66  96 135 172 217 277 331 391
#     4  12  26  44  68  98 128 188 230 270 328 414
#     4  11  23  40  63  94 128 170 215 270 329 391
#
# _framework density 23.034099000000001
#
# number of rings (size 3 to 8) (size 9 to 14) (size 15 to 20)
#    0.000    1.517    1.379    3.103    1.931    4.138 
#    2.483    4.138    0.000    0.000    0.000    0.000 
#    0.000    0.000    0.000    0.000    0.000    0.000 
#
# Total GULP energy -161772.130500 kJ/mol
# GULP energy per Si atom -5578.349328 kJ/mol
# Density = 2.298167 g / cm^3
# Si number density = 23.034099 Si / 1000 Ang^3
#
#
#
# Elastic Constant Matrix: (Units=GPa)
#
#
# Indices 1 2 3 4 5 6 
#
# 1 66.6049 -5.2617 0.4324 0.0000 10.0386 0.0000
# 2 -5.2617 69.3917 9.6968 0.0000 5.7097 0.0000
# 3 0.4324 9.6968 92.0670 0.0000 5.5536 0.0000
# 4 0.0000 0.0000 0.0000 9.5258 0.0000 5.5712
# 5 10.0386 5.7097 5.5536 0.0000 36.2430 0.0000
# 6 0.0000 0.0000 0.0000 5.5712 0.0000 17.9432
#
#
#
# Elastic Compliance Matrix: (Units=1/GPa)
#
#
# Indices 1 2 3 4 5 6 
#
# 1 0.015838 0.001577 0.000039 0.000000 -0.004641 0.000000
# 2 0.001577 0.014941 -0.001426 0.000000 -0.002572 0.000000
# 3 0.000039 -0.001426 0.011101 0.000000 -0.001487 0.000000
# 4 0.000000 0.000000 0.000000 0.128271 0.000000 -0.039827
# 5 -0.004641 -0.002572 -0.001487 0.000000 0.029510 0.000000
# 6 0.000000 0.000000 0.000000 -0.039827 0.000000 0.068097
#
#
# Mechanical properties :
#
#
# Convention : Reuss Voigt Hill
#
# Bulk Modulus (GPa) = 23.66178 26.42208 25.04193
# Shear Modulus (GPa) = 17.76422 27.62215 22.69319
#
# Velocity S-wave (km/s) = 2.78009 3.46668 3.14219
# Velocity P-wave (km/s) = 4.53872 5.24591 4.90508
#
# Compressibility (1/GPa) = 0.04226224
#
# Stress axis : x y z
#
# Youngs Moduli (GPa) = 63.14015 66.92795 90.07898
#
# Poissons Ratio (x) = -0.10556 -0.00355
# Poissons Ratio (y) = -0.09959 0.12845
# Poissons Ratio (z) = -0.00249 0.09543
#
# Static dielectric constant tensor:
#      x y z
#    x 1.480380 0.000000 -0.516000 
#    y 0.000000 1.908200 0.000000 
#    z -0.516000 0.000000 1.295810 
# 
# From -- ./inp_files/282262.got.cif
#   From: 2010.05.17/outbox.cif.g08.bks.cpg/sg12_142_cif.got.tgz:282262.got - 2010.06.03 13:09:07.
