data_PCOD9199488
_publ_section_title
;
Structure prediction by ZEFSAII (Michael W. Deem and Ramdas Pophale) SiO2 
 PCOD9199488
Probable space group: C 2/M
;
_chemical_formula_sum "Si O2"
_cell_formula_units_Z 64
_cell_length_a 29.120977
_cell_length_b 8.783733
_cell_length_c 14.654124
_cell_angle_alpha 90.000000
_cell_angle_beta 71.842072
_cell_angle_gamma 90.000000
_cell_volume 3561.725759
_symmetry_space_group_name_H-M "C 2/M"
_symmetry_group_IT_number 12
_symmetry_cell_setting 'monoclinic'
loop_
_space_group_symop_operation_xyz
x,y,z
-x,y,-z
-x,-y,-z
x,-y,z
1/2+x,1/2+y,z
1/2-x,1/2+y,-z
1/2-x,1/2-y,-z
1/2+x,1/2-y,z
loop_
_atom_site_type_symbol
_atom_site_label
_atom_site_fract_x
_atom_site_fract_y
_atom_site_fract_z
Si Si1 0.254131 0.680030 0.396734
Si Si2 0.655406 0.818146 0.765584
Si Si3 0.003025 0.681303 0.605060
Si Si4 0.894416 0.319974 0.691791
Si Si5 0.188429 0.181254 0.132294
Si Si6 0.655893 0.320556 0.440703
Si Si7 0.093745 0.181159 0.653506
Si Si8 0.200689 0.316853 0.925748
O O1 0.261106 0.500000 0.397230
O O2 0.250000 0.750000 0.500000
O O3 0.297703 0.755406 0.315852
O O4 0.202807 0.724388 0.385439
O O5 0.609441 0.753084 0.739884
O O6 0.664934 0.776581 0.865182
O O7 0.654616 0.000000 0.760211
O O8 0.013095 0.500000 0.597295
O O9 0.950314 0.706025 0.682134
O O10 0.000000 0.729828 0.500000
O O11 0.044763 0.759919 0.637659
O O12 0.889202 0.500000 0.676185
O O13 0.854224 0.266713 0.788497
O O14 0.884531 0.224459 0.606579
O O15 0.243022 0.217922 0.133072
O O16 0.181670 0.000000 0.146395
O O17 0.188551 0.230662 0.026424
O O18 0.666937 0.500000 0.430115
O O19 0.635873 0.282590 0.553342
O O20 0.091967 0.000000 0.663494
O O21 0.198461 0.500000 0.942297
#
# Coordination Sequence:
#
# PCOD9199488 Si02
#       8
#     8   8   8   8   8   8   8   8
#     4  12  23  34  50  74 108 149 189 228 272 327
#     4  11  22  37  58  80 112 153 191 234 281 337
#     4  10  21  38  58  80 110 148 194 238 284 338
#     4  11  22  36  58  84 112 148 188 237 287 340
#     4  10  20  36  60  88 118 148 183 234 285 338
#     4  11  22  35  51  76 111 148 187 231 278 333
#     4  11  23  36  54  79 111 149 190 234 280 335
#     4   9  20  38  59  85 115 150 189 228 278 339
#
# _framework density 17.968817999999999
#
# number of rings (size 3 to 8) (size 9 to 14) (size 15 to 20)
#    0.000    1.375    2.500    3.750    0.000    4.750 
#    0.000    0.000    0.000    0.750    0.000    5.250 
#    0.000    0.000    0.000    0.000    0.000    0.000 
#
# Total GULP energy -178728.911678 kJ/mol
# GULP energy per Si atom -5585.278490 kJ/mol
# Density = 1.792792 g / cm^3
# Si number density = 17.968818 Si / 1000 Ang^3
#
#
#
# Elastic Constant Matrix: (Units=GPa)
#
#
# Indices 1 2 3 4 5 6 
#
# 1 102.7271 31.4025 31.3733 0.0000 20.1120 0.0000
# 2 31.4025 32.9379 24.3229 0.0000 7.1236 0.0000
# 3 31.3733 24.3229 62.4782 0.0000 12.8123 0.0000
# 4 0.0000 0.0000 0.0000 26.2564 0.0000 0.6174
# 5 20.1120 7.1236 12.8123 0.0000 31.5497 0.0000
# 6 0.0000 0.0000 0.0000 0.6174 0.0000 30.0268
#
#
#
# Elastic Compliance Matrix: (Units=1/GPa)
#
#
# Indices 1 2 3 4 5 6 
#
# 1 0.015077 -0.011757 -0.001709 0.000000 -0.006262 0.000000
# 2 -0.011757 0.052066 -0.014718 0.000000 0.001716 0.000000
# 3 -0.001709 -0.014718 0.023659 0.000000 -0.005195 0.000000
# 4 0.000000 0.000000 0.000000 0.038104 0.000000 -0.000783
# 5 -0.006262 0.001716 -0.005195 0.000000 0.037410 0.000000
# 6 0.000000 0.000000 0.000000 -0.000783 0.000000 0.033320
#
#
# Mechanical properties :
#
#
# Convention : Reuss Voigt Hill
#
# Bulk Modulus (GPa) = 29.04144 41.37119 35.20632
# Shear Modulus (GPa) = 18.69281 24.96955 21.83118
#
# Velocity S-wave (km/s) = 3.22885 3.73178 3.48939
# Velocity P-wave (km/s) = 5.48615 6.45307 5.98916
#
# Compressibility (1/GPa) = 0.03443355
#
# Stress axis : x y z
#
# Youngs Moduli (GPa) = 66.32778 19.20624 42.26742
#
# Poissons Ratio (x) = 0.22581 0.07225
# Poissons Ratio (y) = 0.77983 0.62207
# Poissons Ratio (z) = 0.11338 0.28267
#
# Static dielectric constant tensor:
#      x y z
#    x 1.643140 0.000000 0.017810 
#    y 0.000000 1.604410 0.000000 
#    z 0.017810 0.000000 1.608000 
# 
# From -- ./inp_files/243960.got.cif
#   From: 2010.05.17/outbox.cif.g08.bks.cpg/sg12_122_cif.got.tgz:243960.got - 2010.06.03 13:09:07.
