data_PCOD9199128
_publ_section_title
;
Structure prediction by ZEFSAII (Michael W. Deem and Ramdas Pophale) SiO2 
 PCOD9199128
Probable space group: C 2/M
;
_chemical_formula_sum "Si O2"
_cell_formula_units_Z 64
_cell_length_a 19.011804
_cell_length_b 8.847811
_cell_length_c 32.942385
_cell_angle_alpha 90.000000
_cell_angle_beta 142.759448
_cell_angle_gamma 90.000000
_cell_volume 3353.407800
_symmetry_space_group_name_H-M "C 2/M"
_symmetry_group_IT_number 12
_symmetry_cell_setting 'monoclinic'
loop_
_space_group_symop_operation_xyz
x,y,z
-x,y,-z
-x,-y,-z
x,-y,z
1/2+x,1/2+y,z
1/2-x,1/2+y,-z
1/2-x,1/2-y,-z
1/2+x,1/2-y,z
loop_
_atom_site_type_symbol
_atom_site_label
_atom_site_fract_x
_atom_site_fract_y
_atom_site_fract_z
Si Si1 0.483202 0.820620 0.782684
Si Si2 0.262672 0.680489 0.635746
Si Si3 0.440549 0.674387 0.846981
Si Si4 0.054782 0.179431 0.589042
Si Si5 0.841606 0.178759 0.198975
Si Si6 0.340422 0.175089 0.283651
Si Si7 0.064847 0.679538 0.070484
Si Si8 0.699036 0.819444 0.517794
O O1 0.364691 0.756233 0.708452
O O2 0.487957 0.771853 0.831684
O O3 0.587408 0.746230 0.805530
O O4 0.484779 0.000000 0.779540
O O5 0.264906 0.500000 0.643347
O O6 0.140180 0.744905 0.595463
O O7 0.274594 0.710216 0.593113
O O8 0.474516 0.500000 0.857705
O O9 0.299791 0.682266 0.779634
O O10 0.473492 0.735927 0.906351
O O11 0.109498 0.221965 0.657799
O O12 0.926755 0.249272 0.530742
O O13 0.050748 0.000000 0.581173
O O14 0.877105 0.263571 0.256620
O O15 0.703521 0.200632 0.129842
O O16 0.864113 0.000000 0.213434
O O17 0.375088 0.000000 0.305526
O O18 0.043950 0.500000 0.065990
O O19 0.000000 0.730474 0.000000
O O20 0.750000 0.750000 0.500000
O O21 0.689179 0.000000 0.508733
#
# Coordination Sequence:
#
# PCOD9199128 Si02
#       8
#     8   8   8   8   8   8   8   8
#     4  12  24  38  60  89 123 159 200 250 304 360
#     4  11  24  43  64  87 117 157 202 250 306 363
#     4  10  20  36  60  89 122 157 198 246 295 350
#     4  12  24  39  63  90 119 155 200 247 303 367
#     4  10  21  37  59  87 124 159 197 246 300 355
#     4  10  20  36  59  86 117 154 198 246 295 353
#     4   9  19  38  64  92 123 161 203 246 294 353
#     4  11  26  45  64  86 119 157 201 254 309 367
#
# _framework density 19.085063000000002
#
# number of rings (size 3 to 8) (size 9 to 14) (size 15 to 20)
#    0.000    1.375    1.250    4.500    1.750    5.250 
#    0.000    0.625    0.000    0.000    0.000    0.000 
#    0.000    0.000    0.000    0.000    0.000    0.000 
#
# Total GULP energy -178932.512001 kJ/mol
# GULP energy per Si atom -5591.641000 kJ/mol
# Density = 1.904162 g / cm^3
# Si number density = 19.085063 Si / 1000 Ang^3
#
#
#
# Elastic Constant Matrix: (Units=GPa)
#
#
# Indices 1 2 3 4 5 6 
#
# 1 111.2683 42.7197 15.5346 -0.0001 -20.2870 0.0002
# 2 42.7197 76.7049 13.7457 -0.0002 -1.7555 0.0005
# 3 15.5346 13.7457 51.4870 0.0000 -23.9917 0.0000
# 4 -0.0001 -0.0002 0.0000 26.5815 0.0000 -4.8912
# 5 -20.2870 -1.7555 -23.9917 0.0000 21.4513 -0.0001
# 6 0.0002 0.0005 0.0000 -4.8912 -0.0001 37.7559
#
#
#
# Elastic Compliance Matrix: (Units=1/GPa)
#
#
# Indices 1 2 3 4 5 6 
#
# 1 0.016099 -0.010096 0.009497 0.000000 0.025021 0.000000
# 2 -0.010096 0.020429 -0.012693 0.000000 -0.022072 0.000000
# 3 0.009497 -0.012693 0.049384 0.000000 0.063175 0.000000
# 4 0.000000 0.000000 0.000000 0.038539 0.000000 0.004993
# 5 0.025021 -0.022072 0.063175 0.000000 0.139130 0.000000
# 6 0.000000 0.000000 0.000000 0.004993 0.000000 0.027133
#
#
# Mechanical properties :
#
#
# Convention : Reuss Voigt Hill
#
# Bulk Modulus (GPa) = 16.85522 42.60669 29.73095
# Shear Modulus (GPa) = 14.83355 28.32174 21.57765
#
# Velocity S-wave (km/s) = 2.79092 3.85642 3.36609
# Velocity P-wave (km/s) = 4.38593 6.49633 5.54251
#
# Compressibility (1/GPa) = 0.05932880
#
# Stress axis : x y z
#
# Youngs Moduli (GPa) = 62.11413 48.94982 20.24961
#
# Poissons Ratio (x) = 0.49418 -0.19231
# Poissons Ratio (y) = 0.62708 0.25703
# Poissons Ratio (z) = -0.58990 0.62133
#
# Static dielectric constant tensor:
#      x y z
#    x 1.647720 0.000000 -0.006660 
#    y 0.000000 1.635910 0.000000 
#    z -0.006660 0.000000 1.660840 
# 
# From -- ./inp_files/378533.got.cif
#   From: 2010.05.17/outbox.cif.g08.bks.cpg/sg12_190_cif.got.tgz:378533.got - 2010.06.03 13:09:07.
