data_PCOD9199132
_publ_section_title
;
Structure prediction by ZEFSAII (Michael W. Deem and Ramdas Pophale) SiO2 
 PCOD9199132
Probable space group: C 2/M
;
_chemical_formula_sum "Si O2"
_cell_formula_units_Z 56
_cell_length_a 21.164876
_cell_length_b 22.350716
_cell_length_c 10.761809
_cell_angle_alpha 90.000000
_cell_angle_beta 31.524513
_cell_angle_gamma 90.000000
_cell_volume 2661.831815
_symmetry_space_group_name_H-M "C 2/M"
_symmetry_group_IT_number 12
_symmetry_cell_setting 'monoclinic'
loop_
_space_group_symop_operation_xyz
x,y,z
-x,y,-z
-x,-y,-z
x,-y,z
1/2+x,1/2+y,z
1/2-x,1/2+y,-z
1/2-x,1/2-y,-z
1/2+x,1/2-y,z
loop_
_atom_site_type_symbol
_atom_site_label
_atom_site_fract_x
_atom_site_fract_y
_atom_site_fract_z
Si Si1 0.255050 0.763751 0.238143
Si Si2 0.306527 0.383566 0.554964
Si Si3 0.860466 0.068403 0.726541
Si Si4 0.749624 0.070596 0.378098
Si Si5 0.313898 0.167244 0.909659
Si Si6 0.945919 0.838711 0.956941
Si Si7 0.417247 0.167056 0.457351
O O1 0.273677 0.824561 0.284587
O O2 0.144607 0.727801 0.489597
O O3 0.236125 0.787817 0.128247
O O4 0.363493 0.716103 0.051347
O O5 0.311306 0.424623 0.668367
O O6 0.269746 0.416589 0.490835
O O7 0.442604 0.358100 0.313517
O O8 0.000000 0.088571 0.500000
O O9 0.856935 0.000000 0.773497
O O10 0.771350 0.109541 0.953805
O O11 0.635699 0.108968 0.521381
O O12 0.742457 0.000000 0.366425
O O13 0.861828 0.103207 0.121619
O O14 0.363260 0.172857 0.687530
O O15 0.439398 0.163838 0.776047
O O16 0.000000 0.821630 0.000000
#
# Coordination Sequence:
#
# PCOD9199132 Si02
#       7
#     8   8   8   8   8   8   8
#     4  10  20  36  59  86 118 155 190 242 293 357
#     4  10  21  38  58  86 119 152 194 245 295 350
#     4  10  23  40  61  86 117 158 202 246 294 349
#     4  10  22  38  59  85 115 153 199 247 293 346
#     4  10  22  40  59  87 122 155 198 244 294 349
#     4   9  20  34  56  87 117 153 194 238 296 351
#     4  10  22  39  60  89 120 157 199 239 296 353
#
# _framework density 21.038143000000002
#
# number of rings (size 3 to 8) (size 9 to 14) (size 15 to 20)
#    0.000    2.143    0.000    1.714    4.000   10.571 
#   10.286    3.571    0.000    4.286    0.000    0.000 
#    0.000    0.000    0.000    0.000    0.000    0.000 
#
# Total GULP energy -156177.698239 kJ/mol
# GULP energy per Si atom -5577.774937 kJ/mol
# Density = 2.099026 g / cm^3
# Si number density = 21.038143 Si / 1000 Ang^3
#
#
#
# Elastic Constant Matrix: (Units=GPa)
#
#
# Indices 1 2 3 4 5 6 
#
# 1 49.6619 28.2636 -3.6863 0.0001 -11.4778 -0.0002
# 2 28.2636 114.4658 23.4488 0.0000 -3.3311 -0.0002
# 3 -3.6863 23.4488 68.4134 0.0002 -8.3353 -0.0003
# 4 0.0001 0.0000 0.0002 15.3902 -0.0002 -2.9436
# 5 -11.4778 -3.3311 -8.3353 -0.0002 30.8620 0.0003
# 6 -0.0002 -0.0002 -0.0003 -2.9436 0.0003 5.6261
#
#
#
# Elastic Compliance Matrix: (Units=1/GPa)
#
#
# Indices 1 2 3 4 5 6 
#
# 1 0.027315 -0.007530 0.005368 0.000000 0.010796 0.000000
# 2 -0.007530 0.011472 -0.004682 0.000000 -0.002827 0.000000
# 3 0.005368 -0.004682 0.017261 0.000000 0.006153 0.000001
# 4 0.000000 0.000000 0.000000 0.072202 0.000000 0.037776
# 5 0.010796 -0.002827 0.006153 0.000000 0.037774 -0.000001
# 6 0.000000 0.000000 0.000001 0.037776 -0.000001 0.197506
#
#
# Mechanical properties :
#
#
# Convention : Reuss Voigt Hill
#
# Bulk Modulus (GPa) = 23.60727 36.51037 30.05882
# Shear Modulus (GPa) = 12.77665 22.67668 17.72666
#
# Velocity S-wave (km/s) = 2.46704 3.28668 2.90590
# Velocity P-wave (km/s) = 4.40006 5.63871 5.05745
#
# Compressibility (1/GPa) = 0.04235984
#
# Stress axis : x y z
#
# Youngs Moduli (GPa) = 36.60949 87.16496 57.93475
#
# Poissons Ratio (x) = 0.65636 -0.31100
# Poissons Ratio (y) = 0.27567 0.27127
# Poissons Ratio (z) = -0.19652 0.40814
#
# Static dielectric constant tensor:
#      x y z
#    x 1.793870 0.000000 -0.000760 
#    y 0.000000 1.763280 0.000000 
#    z -0.000760 0.000000 1.768980 
# 
# From -- ./inp_files/177871.got.cif
#   From: 2010.05.17/outbox.cif.g08.bks.cpg/sg12_89_cif.got.tgz:177871.got - 2010.06.03 13:09:07.
