data_PCOD9199168
_publ_section_title
;
Structure prediction by ZEFSAII (Michael W. Deem and Ramdas Pophale) SiO2 
 PCOD9199168
Probable space group: C 2/M
;
_chemical_formula_sum "Si O2"
_cell_formula_units_Z 48
_cell_length_a 28.716577
_cell_length_b 13.837213
_cell_length_c 11.241627
_cell_angle_alpha 90.000000
_cell_angle_beta 29.265015
_cell_angle_gamma 90.000000
_cell_volume 2183.664804
_symmetry_space_group_name_H-M "C 2/M"
_symmetry_group_IT_number 12
_symmetry_cell_setting 'monoclinic'
loop_
_space_group_symop_operation_xyz
x,y,z
-x,y,-z
-x,-y,-z
x,-y,z
1/2+x,1/2+y,z
1/2-x,1/2+y,-z
1/2-x,1/2-y,-z
1/2+x,1/2-y,z
loop_
_atom_site_type_symbol
_atom_site_label
_atom_site_fract_x
_atom_site_fract_y
_atom_site_fract_z
Si Si1 0.726636 0.887879 0.993160
Si Si2 0.295183 0.115150 0.236941
Si Si3 0.950861 0.324809 0.491183
Si Si4 0.915881 0.146297 0.271025
Si Si5 0.992817 0.649059 0.887974
Si Si6 0.556624 0.394901 0.521061
O O1 0.661141 0.828522 0.229250
O O2 0.695781 0.000000 0.068820
O O3 0.711544 0.857049 0.888326
O O4 0.838892 0.888729 0.770870
O O5 0.192682 0.132506 0.525235
O O6 0.315339 0.000000 0.197093
O O7 0.381435 0.168343 0.110142
O O8 0.986863 0.212437 0.400018
O O9 0.000000 0.366033 0.500000
O O10 0.972962 0.381816 0.320383
O O11 0.923465 0.100633 0.383365
O O12 0.941564 0.257860 0.235049
O O13 0.000000 0.109165 0.000000
O O14 0.000000 0.597491 0.000000
O O15 0.511068 0.500000 0.594374
#
# Coordination Sequence:
#
# PCOD9199168 Si02
#       6
#     8   8   8   8   8   8
#     4   9  18  34  57  83 110 145 195 241 281 343
#     4  10  20  36  59  87 118 152 194 246 296 344
#     4  11  20  34  58  86 109 151 195 231 283 354
#     4   9  19  35  59  85 113 158 204 235 280 360
#     4  10  22  38  56  86 121 154 188 243 299 345
#     4   9  19  34  53  82 115 146 186 243 294 335
#
# _framework density 21.981394999999999
#
# number of rings (size 3 to 8) (size 9 to 14) (size 15 to 20)
#    0.000    2.333    1.667    2.000    0.000    5.667 
#    0.000    0.000    0.000    0.000    0.000    0.000 
#    0.000    0.000    0.000    0.000    0.000    0.000 
#
# Total GULP energy -133619.563516 kJ/mol
# GULP energy per Si atom -5567.481813 kJ/mol
# Density = 2.193136 g / cm^3
# Si number density = 21.981395 Si / 1000 Ang^3
#
#
#
# Elastic Constant Matrix: (Units=GPa)
#
#
# Indices 1 2 3 4 5 6 
#
# 1 94.2029 -0.1379 29.5652 0.0000 22.6336 0.0000
# 2 -0.1379 98.5887 1.2716 0.0000 6.8523 0.0000
# 3 29.5652 1.2716 137.2563 0.0000 20.8860 0.0000
# 4 0.0000 0.0000 0.0000 35.7474 0.0000 17.7275
# 5 22.6336 6.8523 20.8860 0.0000 31.2998 0.0000
# 6 0.0000 0.0000 0.0000 17.7275 0.0000 -5.6451
#
#
#
# Elastic Compliance Matrix: (Units=1/GPa)
#
#
# Indices 1 2 3 4 5 6 
#
# 1 0.013173 0.000639 -0.001528 0.000000 -0.008646 0.000000
# 2 0.000639 0.010340 0.000202 0.000000 -0.002861 0.000000
# 3 -0.001528 0.000202 0.008294 0.000000 -0.004474 0.000000
# 4 0.000000 0.000000 0.000000 0.010939 0.000000 0.034351
# 5 -0.008646 -0.002861 -0.004474 0.000000 0.041813 0.000000
# 6 0.000000 0.000000 0.000000 0.034351 0.000000 -0.069269
#
#
# Mechanical properties :
#
#
# Convention : Reuss Voigt Hill
#
# Bulk Modulus (GPa) = 32.85868 43.49396 38.17632
# Shear Modulus (GPa) = 186.51462 32.23702 109.37582
#
# Velocity S-wave (km/s) = 9.22146 3.83372 7.06161
# Velocity P-wave (km/s) = 11.32966 6.27903 9.15935
#
# Compressibility (1/GPa) = 0.03043336
#
# Stress axis : x y z
#
# Youngs Moduli (GPa) = 75.91168 96.70939 120.57503
#
# Poissons Ratio (x) = -0.06181 0.18421
# Poissons Ratio (y) = -0.04851 -0.02434
# Poissons Ratio (z) = 0.11597 -0.01952
#
# Static dielectric constant tensor:
#      x y z
#    x 1.828820 0.000000 0.010360 
#    y 0.000000 1.861570 0.000000 
#    z 0.010360 0.000000 1.851290 
# 
# From -- ./inp_files/189355.got.cif
#   From: 2010.05.17/outbox.cif.g08.bks.cpg/sg12_95_cif.got.tgz:189355.got - 2010.06.03 13:09:07.
