data_PCOD9199461
_publ_section_title
;
Structure prediction by ZEFSAII (Michael W. Deem and Ramdas Pophale) SiO2 
 PCOD9199461
Probable space group: C 2/M
;
_chemical_formula_sum "Si O2"
_cell_formula_units_Z 64
_cell_length_a 31.870472
_cell_length_b 7.545947
_cell_length_c 20.274932
_cell_angle_alpha 90.000000
_cell_angle_beta 37.742506
_cell_angle_gamma 90.000000
_cell_volume 2984.653113
_symmetry_space_group_name_H-M "C 2/M"
_symmetry_group_IT_number 12
_symmetry_cell_setting 'monoclinic'
loop_
_space_group_symop_operation_xyz
x,y,z
-x,y,-z
-x,-y,-z
x,-y,z
1/2+x,1/2+y,z
1/2-x,1/2+y,-z
1/2-x,1/2-y,-z
1/2+x,1/2-y,z
loop_
_atom_site_type_symbol
_atom_site_label
_atom_site_fract_x
_atom_site_fract_y
_atom_site_fract_z
Si Si1 0.562931 0.782420 0.875501
Si Si2 0.303644 0.210432 0.990637
Si Si3 0.210676 0.703488 0.740038
Si Si4 0.065355 0.294693 0.722253
Si Si5 0.939935 0.216833 0.625219
Si Si6 0.713033 0.716960 0.226256
Si Si7 0.794698 0.288931 0.508684
Si Si8 0.452919 0.297839 0.759170
O O1 0.636211 0.721458 0.813479
O O2 0.555396 0.722560 0.808604
O O3 0.562761 0.000000 0.875673
O O4 0.500000 0.726872 0.000000
O O5 0.266835 0.270442 0.103095
O O6 0.315097 0.000000 0.981217
O O7 0.250000 0.250000 0.000000
O O8 0.375502 0.293935 0.881731
O O9 0.196509 0.500000 0.777067
O O10 0.255367 0.780167 0.744106
O O11 0.257512 0.706266 0.617260
O O12 0.084027 0.500000 0.710054
O O13 0.129789 0.218675 0.602196
O O14 0.000202 0.288218 0.755862
O O15 0.864370 0.274509 0.694842
O O16 0.953419 0.276525 0.683908
O O17 0.000000 0.269685 0.500000
O O18 0.938977 0.000000 0.627966
O O19 0.709767 0.500000 0.230439
O O20 0.796764 0.500000 0.518430
O O21 0.750000 0.250000 0.500000
O O22 0.477021 0.500000 0.724146
#
# Coordination Sequence:
#
# PCOD9199461 Si02
#       8
#     8   8   8   8   8   8   8   8
#     4   9  18  34  57  83 112 147 191 237 279 338
#     4  11  21  38  62  87 117 155 196 243 291 342
#     4  10  20  36  60  88 112 146 195 239 286 343
#     4  10  22  39  58  84 116 151 191 236 286 343
#     4   9  18  34  54  81 115 147 187 238 282 331
#     4   9  19  34  57  85 113 149 195 236 280 345
#     4  11  22  39  61  85 118 154 193 242 292 347
#     4  11  23  38  59  88 117 150 195 242 291 347
#
# _framework density 21.443028999999999
#
# number of rings (size 3 to 8) (size 9 to 14) (size 15 to 20)
#    0.000    2.000    2.500    1.125    3.500    1.000 
#    0.000    1.250    0.000    2.250    0.000    0.000 
#    0.000    0.000    0.000    0.000    0.000    0.000 
#
# Total GULP energy -178695.164734 kJ/mol
# GULP energy per Si atom -5584.223898 kJ/mol
# Density = 2.139422 g / cm^3
# Si number density = 21.443029 Si / 1000 Ang^3
#
#
#
# Elastic Constant Matrix: (Units=GPa)
#
#
# Indices 1 2 3 4 5 6 
#
# 1 161.3043 -7.2161 83.9255 -0.0033 7.7870 0.0146
# 2 -7.2161 53.4769 -5.3867 -0.0038 0.7778 0.0031
# 3 83.9255 -5.3867 168.4116 0.0083 1.0831 0.0007
# 4 -0.0033 -0.0038 0.0083 16.1051 -0.0065 0.4929
# 5 7.7870 0.7778 1.0831 -0.0065 39.9577 -0.0008
# 6 0.0146 0.0031 0.0007 0.4929 -0.0008 16.2484
#
#
#
# Elastic Compliance Matrix: (Units=1/GPa)
#
#
# Indices 1 2 3 4 5 6 
#
# 1 0.008492 0.000746 -0.004198 0.000004 -0.001556 -0.000008
# 2 0.000746 0.018831 0.000234 0.000004 -0.000518 -0.000004
# 3 -0.004198 0.000234 0.008034 -0.000005 0.000596 0.000004
# 4 0.000004 0.000004 -0.000005 0.062150 0.000009 -0.001885
# 5 -0.001556 -0.000518 0.000596 0.000009 0.025324 0.000002
# 6 -0.000008 -0.000004 0.000004 -0.001885 0.000002 0.061602
#
#
# Mechanical properties :
#
#
# Convention : Reuss Voigt Hill
#
# Bulk Modulus (GPa) = 34.57767 58.42647 46.50207
# Shear Modulus (GPa) = 24.93655 35.25358 30.09506
#
# Velocity S-wave (km/s) = 3.41386 4.05910 3.75038
# Velocity P-wave (km/s) = 5.63024 7.01960 6.36296
#
# Compressibility (1/GPa) = 0.02892040
#
# Stress axis : x y z
#
# Youngs Moduli (GPa) = 117.75564 53.10280 124.47795
#
# Poissons Ratio (x) = -0.03960 0.52257
# Poissons Ratio (y) = -0.08781 -0.02914
# Poissons Ratio (z) = 0.49435 -0.01243
#
# Static dielectric constant tensor:
#      x y z
#    x 1.750280 -0.000010 0.005780 
#    y -0.000010 1.850020 0.000030 
#    z 0.005780 0.000030 1.702900 
# 
# From -- ./inp_files/295616.got.cif
#   From: 2010.05.17/outbox.cif.g08.bks.cpg/sg12_148_cif.got.tgz:295616.got - 2010.06.03 13:09:07.
