data_PCOD9199064
_publ_section_title
;
Structure prediction by ZEFSAII (Michael W. Deem and Ramdas Pophale) SiO2 
 PCOD9199064
Probable space group: C 2/M
;
_chemical_formula_sum "Si O2"
_cell_formula_units_Z 36
_cell_length_a 8.817224
_cell_length_b 10.683651
_cell_length_c 18.372782
_cell_angle_alpha 90.000000
_cell_angle_beta 102.894397
_cell_angle_gamma 90.000000
_cell_volume 1687.075213
_symmetry_space_group_name_H-M "C 2/M"
_symmetry_group_IT_number 12
_symmetry_cell_setting 'monoclinic'
loop_
_space_group_symop_operation_xyz
x,y,z
-x,y,-z
-x,-y,-z
x,-y,z
1/2+x,1/2+y,z
1/2-x,1/2+y,-z
1/2-x,1/2-y,-z
1/2+x,1/2-y,z
loop_
_atom_site_type_symbol
_atom_site_label
_atom_site_fract_x
_atom_site_fract_y
_atom_site_fract_z
Si Si1 0.500000 0.743384 0.500000
Si Si2 0.604070 0.224634 0.824879
Si Si3 0.169950 0.139664 0.275768
Si Si4 0.304244 0.859017 0.603551
Si Si5 0.388002 0.858136 0.924577
O O1 0.437138 0.828547 0.558909
O O2 0.358750 0.659761 0.455649
O O3 0.694678 0.155218 0.769879
O O4 0.496709 0.334505 0.779996
O O5 0.486649 0.143723 0.860446
O O6 0.736016 0.278230 0.892202
O O7 0.188427 0.251497 0.335067
O O8 0.175135 0.000000 0.308093
O O9 0.318498 0.000000 0.633815
O O10 0.345291 0.000000 0.939718
O O11 0.500000 0.807921 0.000000
#
# Coordination Sequence:
#
# PCOD9199064 Si02
#       5
#     4   8   8   8   8
#     4  10  24  42  64  90 122 154 194 244 298 352
#     4  10  22  38  58  84 120 156 196 244 296 350
#     4  11  24  40  60  88 122 159 199 244 295 352
#     4  11  24  42  65  91 120 156 198 244 295 352
#     4  10  20  36  59  85 114 152 198 245 294 349
#
# _framework density 21.338705000000001
#
# number of rings (size 3 to 8) (size 9 to 14) (size 15 to 20)
#    0.000    1.556    0.000    4.000    0.000   14.222 
#    0.000    0.000    0.000   10.667    0.000    0.000 
#    0.000    0.000    0.000    0.000    0.000    0.000 
#
# Total GULP energy -100634.489307 kJ/mol
# GULP energy per Si atom -5590.804962 kJ/mol
# Density = 2.129014 g / cm^3
# Si number density = 21.338705 Si / 1000 Ang^3
#
#
#
# Elastic Constant Matrix: (Units=GPa)
#
#
# Indices 1 2 3 4 5 6 
#
# 1 80.6629 13.3326 -0.6074 0.0000 -4.9312 0.0000
# 2 13.3326 134.6701 24.8944 0.0000 -6.5174 0.0000
# 3 -0.6074 24.8944 58.1976 0.0000 -11.8738 0.0000
# 4 0.0000 0.0000 0.0000 22.4844 0.0000 -5.0560
# 5 -4.9312 -6.5174 -11.8738 0.0000 22.3710 0.0000
# 6 0.0000 0.0000 0.0000 -5.0560 0.0000 -4.2536
#
#
#
# Elastic Compliance Matrix: (Units=1/GPa)
#
#
# Indices 1 2 3 4 5 6 
#
# 1 0.012827 -0.001369 0.001363 0.000000 0.003152 0.000000
# 2 -0.001369 0.008216 -0.003479 0.000000 0.000245 0.000000
# 3 0.001363 -0.003479 0.020791 0.000000 0.010322 0.000000
# 4 0.000000 0.000000 0.000000 0.035095 0.000000 -0.041715
# 5 0.003152 0.000245 0.010322 0.000000 0.050946 0.000000
# 6 0.000000 0.000000 0.000000 -0.041715 0.000000 -0.185511
#
#
# Mechanical properties :
#
#
# Convention : Reuss Voigt Hill
#
# Bulk Modulus (GPa) = 28.68373 38.75220 33.71796
# Shear Modulus (GPa) = -128.05691 23.84778 -52.10456
#
# Velocity S-wave (km/s) = -7.75512 3.34665 -4.94680
# Velocity P-wave (km/s) = 8.16810 5.75616 4.09783
#
# Compressibility (1/GPa) = 0.03486298
#
# Stress axis : x y z
#
# Youngs Moduli (GPa) = 77.96355 121.71329 48.09759
#
# Poissons Ratio (x) = 0.16665 -0.06554
# Poissons Ratio (y) = 0.10675 0.16732
# Poissons Ratio (z) = -0.10623 0.42340
#
# Static dielectric constant tensor:
#      x y z
#    x 1.756300 0.000000 0.010260 
#    y 0.000000 1.747500 0.000000 
#    z 0.010260 0.000000 1.783730 
# 
# From -- ./inp_files/254804.got.cif
#   From: 2010.05.17/outbox.cif.g08.bks.cpg/sg12_128_cif.got.tgz:254804.got - 2010.06.03 13:09:07.
