data_PCOD9199543
_publ_section_title
;
Structure prediction by ZEFSAII (Michael W. Deem and Ramdas Pophale) SiO2 
 PCOD9199543
Probable space group: C 2/M
;
_chemical_formula_sum "Si O2"
_cell_formula_units_Z 48
_cell_length_a 8.927076
_cell_length_b 22.477697
_cell_length_c 12.008292
_cell_angle_alpha 90.000000
_cell_angle_beta 79.817167
_cell_angle_gamma 90.000000
_cell_volume 2371.630900
_symmetry_space_group_name_H-M "C 2/M"
_symmetry_group_IT_number 12
_symmetry_cell_setting 'monoclinic'
loop_
_space_group_symop_operation_xyz
x,y,z
-x,y,-z
-x,-y,-z
x,-y,z
1/2+x,1/2+y,z
1/2-x,1/2+y,-z
1/2-x,1/2-y,-z
1/2+x,1/2-y,z
loop_
_atom_site_type_symbol
_atom_site_label
_atom_site_fract_x
_atom_site_fract_y
_atom_site_fract_z
Si Si1 0.141707 0.778369 0.419327
Si Si2 0.622746 0.159662 0.293708
Si Si3 0.293255 0.891831 0.308846
Si Si4 0.681029 0.935117 0.939201
Si Si5 0.816077 0.565930 0.544338
Si Si6 0.330631 0.811936 0.965510
O O1 0.250000 0.750000 0.500000
O O2 0.084345 0.720642 0.361110
O O3 0.216531 0.826593 0.327854
O O4 0.000000 0.807617 0.500000
O O5 0.472096 0.121998 0.291916
O O6 0.721602 0.118225 0.363450
O O7 0.677359 0.177952 0.165524
O O8 0.282455 0.928708 0.197097
O O9 0.248587 0.923441 0.430377
O O10 0.737674 0.000000 0.970493
O O11 0.500000 0.934651 0.000000
O O12 0.742078 0.872759 0.977768
O O13 0.778916 0.500000 0.591037
O O14 0.000000 0.568396 0.500000
O O15 0.500000 0.808468 0.000000
O O16 0.250000 0.750000 0.000000
#
# Coordination Sequence:
#
# PCOD9199543 Si02
#       6
#     8   8   8   8   8   8
#     4  12  22  36  57  86 120 153 192 241 299 361
#     4  11  20  34  56  83 119 148 190 242 294 354
#     4  11  19  36  54  84 119 148 192 243 298 356
#     4  10  20  36  60  89 120 157 203 253 302 351
#     4   9  18  30  51  81 111 144 183 233 294 346
#     4  11  23  40  59  90 121 156 202 250 298 353
#
# _framework density 20.239236999999999
#
# number of rings (size 3 to 8) (size 9 to 14) (size 15 to 20)
#    0.000    1.333    6.667    2.000    0.000    1.333 
#    0.000    0.000    0.000    2.500    0.000    0.000 
#    0.000    0.000    0.000    0.000    0.000    0.000 
#
# Total GULP energy -133643.991770 kJ/mol
# GULP energy per Si atom -5568.499657 kJ/mol
# Density = 2.019317 g / cm^3
# Si number density = 20.239237 Si / 1000 Ang^3
#
#
#
# Elastic Constant Matrix: (Units=GPa)
#
#
# Indices 1 2 3 4 5 6 
#
# 1 11.1056 4.8525 9.1617 0.0000 -1.0719 0.0000
# 2 4.8525 156.5204 52.9968 0.0000 -4.2961 0.0000
# 3 9.1617 52.9968 137.6106 0.0000 -1.8786 0.0000
# 4 0.0000 0.0000 0.0000 33.2022 0.0000 0.2482
# 5 -1.0719 -4.2961 -1.8786 0.0000 8.8548 0.0000
# 6 0.0000 0.0000 0.0000 0.2482 0.0000 13.6956
#
#
#
# Elastic Compliance Matrix: (Units=1/GPa)
#
#
# Indices 1 2 3 4 5 6 
#
# 1 0.096269 -0.000673 -0.006013 0.000000 0.010052 0.000000
# 2 -0.000673 0.007431 -0.002777 0.000000 0.002935 0.000000
# 3 -0.006013 -0.002777 0.008734 0.000000 -0.000222 0.000000
# 4 0.000000 0.000000 0.000000 0.030123 0.000000 -0.000546
# 5 0.010052 0.002935 -0.000222 0.000000 0.115526 0.000000
# 6 0.000000 0.000000 0.000000 -0.000546 0.000000 0.073026
#
#
# Mechanical properties :
#
#
# Convention : Reuss Voigt Hill
#
# Bulk Modulus (GPa) = 10.69423 48.80650 29.75037
# Shear Modulus (GPa) = 13.11638 27.03224 20.07431
#
# Velocity S-wave (km/s) = 2.54848 3.65860 3.15278
# Velocity P-wave (km/s) = 3.73564 6.48184 5.29005
#
# Compressibility (1/GPa) = 0.09350839
#
# Stress axis : x y z
#
# Youngs Moduli (GPa) = 10.38753 134.57943 114.50044
#
# Poissons Ratio (x) = 0.09053 0.68849
# Poissons Ratio (y) = 0.00699 0.31795
# Poissons Ratio (z) = 0.06246 0.37370
#
# Static dielectric constant tensor:
#      x y z
#    x 1.728670 0.000000 -0.006090 
#    y 0.000000 1.778250 0.000000 
#    z -0.006090 0.000000 1.763880 
# 
# From -- ./inp_files/121839.got.cif
#   From: 2010.05.17/outbox.cif.g08.bks.cpg/sg12_61_cif.got.tgz:121839.got - 2010.06.03 13:09:07.
