data_PCOD9199924
_publ_section_title
;
Structure prediction by ZEFSAII (Michael W. Deem and Ramdas Pophale) SiO2 
 PCOD9199924
Probable space group: C 2/M
;
_chemical_formula_sum "Si O2"
_cell_formula_units_Z 64
_cell_length_a 21.932126
_cell_length_b 16.758988
_cell_length_c 21.606577
_cell_angle_alpha 90.000000
_cell_angle_beta 21.562886
_cell_angle_gamma 90.000000
_cell_volume 2918.757890
_symmetry_space_group_name_H-M "C 2/M"
_symmetry_group_IT_number 12
_symmetry_cell_setting 'monoclinic'
loop_
_space_group_symop_operation_xyz
x,y,z
-x,y,-z
-x,-y,-z
x,-y,z
1/2+x,1/2+y,z
1/2-x,1/2+y,-z
1/2-x,1/2-y,-z
1/2+x,1/2-y,z
loop_
_atom_site_type_symbol
_atom_site_label
_atom_site_fract_x
_atom_site_fract_y
_atom_site_fract_z
Si Si1 0.335531 0.272958 0.137393
Si Si2 0.581332 0.906930 0.590891
Si Si3 0.968361 0.825519 0.602290
Si Si4 0.699200 0.341957 0.059051
Si Si5 0.768932 0.789393 0.341963
Si Si6 0.054587 0.343851 0.749292
Si Si7 0.915646 0.912931 0.404564
Si Si8 0.709911 0.590748 0.911509
O O1 0.206655 0.216614 0.225716
O O2 0.277266 0.300618 0.260230
O O3 0.370378 0.347054 0.059771
O O4 0.500000 0.225512 0.000000
O O5 0.734473 0.872875 0.407686
O O6 0.561574 0.846657 0.667515
O O7 0.410147 0.903453 0.714074
O O8 0.599047 0.000000 0.593224
O O9 0.992110 0.905730 0.617116
O O10 0.000000 0.834980 0.500000
O O11 0.103509 0.764948 0.503515
O O12 0.684110 0.385358 0.007224
O O13 0.865339 0.373617 0.938486
O O14 0.750000 0.250000 0.000000
O O15 0.525541 0.353848 0.258291
O O16 0.908116 0.736678 0.246431
O O17 0.222011 0.395673 0.601490
O O18 0.931311 0.000000 0.361496
O O19 0.657778 0.500000 0.950033
#
# Coordination Sequence:
#
# PCOD9199924 Si02
#       8
#     8   8   8   8   8   8   8   8
#     4  11  23  37  61  86 120 167 216 261 313 373
#     4  10  20  36  62  90 126 165 204 261 323 384
#     4   9  20  41  61  88 121 158 212 271 309 377
#     4  11  25  40  69  98 131 172 217 269 321 389
#     4  10  21  37  63  88 117 164 215 263 309 376
#     4  10  24  41  63  96 132 163 215 266 324 383
#     4  11  24  41  68  97 129 171 210 261 333 398
#     4  10  22  40  58  88 132 169 205 263 327 379
#
# _framework density 21.927135
#
# number of rings (size 3 to 8) (size 9 to 14) (size 15 to 20)
#    0.000    1.750    1.250    1.875   10.500    2.500 
#    0.000    2.500    0.000    0.375    0.000    0.000 
#    0.000    0.000    0.000    0.000    0.000    0.000 
#
# Total GULP energy -178411.134873 kJ/mol
# GULP energy per Si atom -5575.347965 kJ/mol
# Density = 2.187723 g / cm^3
# Si number density = 21.927135 Si / 1000 Ang^3
#
#
#
# Elastic Constant Matrix: (Units=GPa)
#
#
# Indices 1 2 3 4 5 6 
#
# 1 80.0897 20.9964 23.9582 0.0013 -15.1028 0.0011
# 2 20.9964 76.6590 21.6273 -0.0111 -3.8772 0.0035
# 3 23.9582 21.6273 59.5339 -0.0164 -14.6688 0.0043
# 4 0.0013 -0.0111 -0.0164 17.4673 0.0079 3.2173
# 5 -15.1028 -3.8772 -14.6688 0.0079 38.2024 -0.0013
# 6 0.0011 0.0035 0.0043 3.2173 -0.0013 19.0294
#
#
#
# Elastic Compliance Matrix: (Units=1/GPa)
#
#
# Indices 1 2 3 4 5 6 
#
# 1 0.015229 -0.002809 -0.004081 -0.000009 0.004169 0.000002
# 2 -0.002809 0.015065 -0.004682 0.000006 -0.001379 -0.000003
# 3 -0.004081 -0.004682 0.021677 0.000016 0.006235 -0.000006
# 4 -0.000009 0.000006 0.000016 0.059090 -0.000009 -0.009990
# 5 0.004169 -0.001379 0.006235 -0.000009 0.030078 0.000002
# 6 0.000002 -0.000003 -0.000006 -0.009990 0.000002 0.054239
#
#
# Mechanical properties :
#
#
# Convention : Reuss Voigt Hill
#
# Bulk Modulus (GPa) = 34.69050 38.82740 36.75895
# Shear Modulus (GPa) = 21.91706 24.91987 23.41847
#
# Velocity S-wave (km/s) = 3.16498 3.37484 3.27159
# Velocity P-wave (km/s) = 5.40475 5.73864 5.57419
#
# Compressibility (1/GPa) = 0.02882633
#
# Stress axis : x y z
#
# Youngs Moduli (GPa) = 65.66275 66.37734 46.13246
#
# Poissons Ratio (x) = 0.18645 0.18828
# Poissons Ratio (y) = 0.18445 0.21601
# Poissons Ratio (z) = 0.26798 0.31080
#
# Static dielectric constant tensor:
#      x y z
#    x 1.792270 0.000000 -0.011470 
#    y 0.000000 1.811360 0.000000 
#    z -0.011470 0.000000 1.927340 
# 
# From -- ./inp_files/350002.got.cif
#   From: 2010.05.17/outbox.cif.g08.bks.cpg/sg12_176_cif.got.tgz:350002.got - 2010.06.03 13:09:07.
