data_PCOD9199980
_publ_section_title
;
Structure prediction by ZEFSAII (Michael W. Deem and Ramdas Pophale) SiO2 
 PCOD9199980
Probable space group: C 2/M
;
_chemical_formula_sum "Si O2"
_cell_formula_units_Z 50
_cell_length_a 17.678839
_cell_length_b 15.147800
_cell_length_c 11.957832
_cell_angle_alpha 90.000000
_cell_angle_beta 122.644246
_cell_angle_gamma 90.000000
_cell_volume 2696.413264
_symmetry_space_group_name_H-M "C 2/M"
_symmetry_group_IT_number 12
_symmetry_cell_setting 'monoclinic'
loop_
_space_group_symop_operation_xyz
x,y,z
-x,y,-z
-x,-y,-z
x,-y,z
1/2+x,1/2+y,z
1/2-x,1/2+y,-z
1/2-x,1/2-y,-z
1/2+x,1/2-y,z
loop_
_atom_site_type_symbol
_atom_site_label
_atom_site_fract_x
_atom_site_fract_y
_atom_site_fract_z
Si Si1 0.314204 0.676026 0.106364
Si Si2 0.895813 0.155334 0.941767
Si Si3 0.897789 0.248976 0.392157
Si Si4 0.000000 0.500000 0.000000
Si Si5 0.340778 0.860018 0.861831
Si Si6 0.709305 0.604160 0.563312
Si Si7 0.743088 0.100333 0.654569
O O1 0.380170 0.719834 0.250075
O O2 0.243026 0.620240 0.122024
O O3 0.250000 0.750000 0.000000
O O4 0.368108 0.633531 0.047335
O O5 0.873327 0.259473 0.904795
O O6 0.828452 0.106727 0.804123
O O7 0.000000 0.138557 0.000000
O O8 0.866185 0.167177 0.444461
O O9 0.831024 0.329887 0.364616
O O10 0.000000 0.271417 0.500000
O O11 0.922196 0.423959 0.947291
O O12 0.299190 0.873448 0.705434
O O13 0.689316 0.500000 0.560701
O O14 0.725976 0.622336 0.446476
O O15 0.708003 0.000000 0.626716
#
# Coordination Sequence:
#
# PCOD9199980 Si02
#       7
#     8   8   8   2   8   8   8
#     4   9  19  41  59  87 125 166 200 253 316 370
#     4  11  22  39  66  88 120 166 216 255 310 383
#     4  11  23  39  67  92 122 165 210 255 322 376
#     4  12  20  36  64 112 116 148 214 256 324 364
#     4  10  20  36  62  93 127 157 196 258 316 370
#     4  10  21  40  63  88 126 162 203 254 312 369
#     4  11  24  42  61  88 128 167 208 258 311 373
#
# _framework density 18.543151000000002
#
# number of rings (size 3 to 8) (size 9 to 14) (size 15 to 20)
#    0.000    1.600    6.400    0.480    2.240    0.960 
#    1.440    0.000    0.000    0.000    0.000    0.000 
#    0.000    0.000    0.000    0.000    0.000    0.000 
#
# Total GULP energy -139251.718749 kJ/mol
# GULP energy per Si atom -5570.068750 kJ/mol
# Density = 1.850095 g / cm^3
# Si number density = 18.543151 Si / 1000 Ang^3
#
#
#
# Elastic Constant Matrix: (Units=GPa)
#
#
# Indices 1 2 3 4 5 6 
#
# 1 119.7584 17.1713 84.7885 0.0000 9.9832 0.0000
# 2 17.1713 55.0653 24.0196 0.0000 1.5280 0.0000
# 3 84.7885 24.0196 133.5184 0.0000 -13.4179 0.0000
# 4 0.0000 0.0000 0.0000 20.7542 0.0000 9.2120
# 5 9.9832 1.5280 -13.4179 0.0000 37.0966 0.0000
# 6 0.0000 0.0000 0.0000 9.2120 0.0000 -0.1883
#
#
#
# Elastic Compliance Matrix: (Units=1/GPa)
#
#
# Indices 1 2 3 4 5 6 
#
# 1 0.017750 0.000043 -0.012204 0.000000 -0.009193 0.000000
# 2 0.000043 0.019877 -0.003826 0.000000 -0.002214 0.000000
# 3 -0.012204 -0.003826 0.016887 0.000000 0.009550 0.000000
# 4 0.000000 0.000000 0.000000 0.002121 0.000000 0.103775
# 5 -0.009193 -0.002214 0.009550 0.000000 0.032976 0.000000
# 6 0.000000 0.000000 0.000000 0.103775 0.000000 -0.233801
#
#
# Mechanical properties :
#
#
# Convention : Reuss Voigt Hill
#
# Bulk Modulus (GPa) = 44.36123 62.25568 53.30845
# Shear Modulus (GPa) = -47.75428 23.69001 -12.03213
#
# Velocity S-wave (km/s) = -5.08025 3.57818 -2.55006
# Velocity P-wave (km/s) = 3.23060 7.12162 4.48780
#
# Compressibility (1/GPa) = 0.02254221
#
# Stress axis : x y z
#
# Youngs Moduli (GPa) = 56.33657 50.30936 59.21610
#
# Poissons Ratio (x) = -0.00217 0.72266
# Poissons Ratio (y) = -0.00243 0.22654
# Poissons Ratio (z) = 0.68751 0.19247
#
# Static dielectric constant tensor:
#      x y z
#    x 1.628340 0.000000 -0.027090 
#    y 0.000000 1.636120 0.000000 
#    z -0.027090 0.000000 1.637290 
# 
# From -- ./inp_files/156226.got.cif
#   From: 2010.05.17/outbox.cif.g08.bks.cpg/sg12_79_cif.got.tgz:156226.got - 2010.06.03 13:09:07.
