data_PCOD9199415
_publ_section_title
;
Structure prediction by ZEFSAII (Michael W. Deem and Ramdas Pophale) SiO2 
 PCOD9199415
Probable space group: C 2/M
;
_chemical_formula_sum "Si O2"
_cell_formula_units_Z 48
_cell_length_a 15.220263
_cell_length_b 9.067803
_cell_length_c 26.609530
_cell_angle_alpha 90.000000
_cell_angle_beta 46.046554
_cell_angle_gamma 90.000000
_cell_volume 2643.845156
_symmetry_space_group_name_H-M "C 2/M"
_symmetry_group_IT_number 12
_symmetry_cell_setting 'monoclinic'
loop_
_space_group_symop_operation_xyz
x,y,z
-x,y,-z
-x,-y,-z
x,-y,z
1/2+x,1/2+y,z
1/2-x,1/2+y,-z
1/2-x,1/2-y,-z
1/2+x,1/2-y,z
loop_
_atom_site_type_symbol
_atom_site_label
_atom_site_fract_x
_atom_site_fract_y
_atom_site_fract_z
Si Si1 0.369529 0.675471 0.077339
Si Si2 0.555127 0.175337 0.586868
Si Si3 0.289353 0.324092 0.560519
Si Si4 0.196574 0.176258 0.327369
Si Si5 0.593239 0.323937 0.819904
Si Si6 0.690628 0.323580 0.072734
O O1 0.348519 0.500000 0.078489
O O2 0.377191 0.705713 0.133407
O O3 0.265457 0.765864 0.090644
O O4 0.500000 0.709517 0.000000
O O5 0.614501 0.237899 0.512063
O O6 0.655528 0.205839 0.590263
O O7 0.426233 0.253065 0.646212
O O8 0.539026 0.000000 0.589831
O O9 0.312460 0.500000 0.546003
O O10 0.297568 0.285567 0.615666
O O11 0.314044 0.238636 0.252402
O O12 0.191717 0.000000 0.325208
O O13 0.606152 0.500000 0.806750
O O14 0.452020 0.284233 0.867081
O O15 0.699060 0.500000 0.064628
O O16 0.750000 0.250000 0.000000
#
# Coordination Sequence:
#
# PCOD9199415 Si02
#       6
#     8   8   8   8   8   8
#     4  10  20  39  62  84 113 149 187 234 294 347
#     4  10  20  36  60  87 114 149 194 237 284 338
#     4   9  20  38  58  83 116 153 191 233 283 338
#     4  11  23  38  57  82 117 154 192 235 284 342
#     4  10  23  41  58  81 117 154 190 235 291 348
#     4  11  22  38  61  88 115 147 190 239 289 345
#
# _framework density 18.155374999999999
#
# number of rings (size 3 to 8) (size 9 to 14) (size 15 to 20)
#    0.000    1.833    1.667    2.000    0.000    7.667 
#    0.000    5.000    0.000    0.000    0.000    0.000 
#    0.000    0.000    0.000    0.000    0.000    0.000 
#
# Total GULP energy -134103.408229 kJ/mol
# GULP energy per Si atom -5587.642010 kJ/mol
# Density = 1.811405 g / cm^3
# Si number density = 18.155375 Si / 1000 Ang^3
#
#
#
# Elastic Constant Matrix: (Units=GPa)
#
#
# Indices 1 2 3 4 5 6 
#
# 1 91.4415 45.6026 40.2935 0.0000 -26.2990 0.0000
# 2 45.6026 42.5919 40.7293 0.0000 -17.4262 0.0000
# 3 40.2935 40.7293 79.9175 0.0000 -30.9183 0.0000
# 4 0.0000 0.0000 0.0000 35.6193 0.0000 -1.4364
# 5 -26.2990 -17.4262 -30.9183 0.0000 27.5434 0.0000
# 6 0.0000 0.0000 0.0000 -1.4364 0.0000 32.4603
#
#
#
# Elastic Compliance Matrix: (Units=1/GPa)
#
#
# Indices 1 2 3 4 5 6 
#
# 1 0.026779 -0.029579 0.007469 0.000000 0.015239 0.000000
# 2 -0.029579 0.078849 -0.029870 0.000000 -0.011886 0.000000
# 3 0.007469 -0.029870 0.034324 0.000000 0.026763 0.000000
# 4 0.000000 0.000000 0.000000 0.028125 0.000000 0.001245
# 5 0.015239 -0.011886 0.026763 0.000000 0.073379 0.000000
# 6 0.000000 0.000000 0.000000 0.001245 0.000000 0.030862
#
#
# Mechanical properties :
#
#
# Convention : Reuss Voigt Hill
#
# Bulk Modulus (GPa) = 27.78411 51.91128 39.84769
# Shear Modulus (GPa) = 12.87747 24.94629 18.91188
#
# Velocity S-wave (km/s) = 2.66614 3.71083 3.23099
# Velocity P-wave (km/s) = 4.98142 6.85676 5.99290
#
# Compressibility (1/GPa) = 0.03599180
#
# Stress axis : x y z
#
# Youngs Moduli (GPa) = 37.34286 12.68249 29.13396
#
# Poissons Ratio (x) = 0.37513 -0.21759
# Poissons Ratio (y) = 1.10456 0.87022
# Poissons Ratio (z) = -0.27890 0.37882
#
# Static dielectric constant tensor:
#      x y z
#    x 1.621700 0.000000 -0.003480 
#    y 0.000000 1.603360 0.000000 
#    z -0.003480 0.000000 1.587130 
# 
# From -- ./inp_files/267729.got.cif
#   From: 2010.05.17/outbox.cif.g08.bks.cpg/sg12_134_cif.got.tgz:267729.got - 2010.06.03 13:09:07.
