data_PCOD9199641
_publ_section_title
;
Structure prediction by ZEFSAII (Michael W. Deem and Ramdas Pophale) SiO2 
 PCOD9199641
Probable space group: C 2/M
;
_chemical_formula_sum "Si O2"
_cell_formula_units_Z 40
_cell_length_a 29.978510
_cell_length_b 17.500210
_cell_length_c 12.167355
_cell_angle_alpha 90.000000
_cell_angle_beta 17.750754
_cell_angle_gamma 90.000000
_cell_volume 1946.139228
_symmetry_space_group_name_H-M "C 2/M"
_symmetry_group_IT_number 12
_symmetry_cell_setting 'monoclinic'
loop_
_space_group_symop_operation_xyz
x,y,z
-x,y,-z
-x,-y,-z
x,-y,z
1/2+x,1/2+y,z
1/2-x,1/2+y,-z
1/2-x,1/2-y,-z
1/2+x,1/2-y,z
loop_
_atom_site_type_symbol
_atom_site_label
_atom_site_fract_x
_atom_site_fract_y
_atom_site_fract_z
Si Si1 0.746506 0.788435 0.695517
Si Si2 0.734638 0.591100 0.159299
Si Si3 0.436980 0.345483 0.760802
Si Si4 0.014140 0.319014 0.085110
Si Si5 0.848927 0.412930 0.657786
O O1 0.730607 0.859076 0.815919
O O2 0.911226 0.755874 0.311954
O O3 0.643948 0.719447 0.980082
O O4 0.680783 0.808538 0.731220
O O5 0.746342 0.500000 0.148079
O O6 0.569567 0.614382 0.512211
O O7 0.833956 0.612202 0.819852
O O8 0.500000 0.310154 0.500000
O O9 0.315028 0.405460 0.006633
O O10 0.944282 0.362623 0.352561
O O11 0.000000 0.359323 0.000000
O O12 0.899094 0.500000 0.539150
#
# Coordination Sequence:
#
# PCOD9199641 Si02
#       5
#     8   8   8   8   8
#     4  11  22  38  62  89 117 153 200 251 297 348
#     4  10  20  36  60  93 126 154 189 243 307 362
#     4   9  18  32  59  87 121 156 192 235 293 362
#     4  11  24  40  60  83 116 161 207 247 287 347
#     4   9  20  36  58  88 121 155 194 241 301 359
#
# _framework density 20.553515000000001
#
# number of rings (size 3 to 8) (size 9 to 14) (size 15 to 20)
#    0.000    2.000    2.000    1.200    2.800    6.000 
#    0.000    2.000    0.000    0.600    0.000    0.000 
#    0.000    0.000    0.000    0.000    0.000    0.000 
#
# Total GULP energy -111637.730940 kJ/mol
# GULP energy per Si atom -5581.886547 kJ/mol
# Density = 2.050673 g / cm^3
# Si number density = 20.553515 Si / 1000 Ang^3
#
#
#
# Elastic Constant Matrix: (Units=GPa)
#
#
# Indices 1 2 3 4 5 6 
#
# 1 130.1313 34.9234 41.2919 0.0002 -21.5955 -0.0001
# 2 34.9234 67.2176 23.1989 0.0000 5.4172 0.0003
# 3 41.2919 23.1989 52.4568 0.0008 4.4706 0.0007
# 4 0.0002 0.0000 0.0008 10.4319 0.0001 7.1350
# 5 -21.5955 5.4172 4.4706 0.0001 30.4762 -0.0001
# 6 -0.0001 0.0003 0.0007 7.1350 -0.0001 6.0207
#
#
#
# Elastic Compliance Matrix: (Units=1/GPa)
#
#
# Indices 1 2 3 4 5 6 
#
# 1 0.014301 -0.004938 -0.010138 -0.000005 0.012499 0.000007
# 2 -0.004938 0.019384 -0.004145 0.000004 -0.006337 -0.000006
# 3 -0.010138 -0.004145 0.029799 0.000002 -0.010819 -0.000007
# 4 -0.000005 0.000004 0.000002 0.505949 -0.000009 -0.599583
# 5 0.012499 -0.006337 -0.010819 -0.000009 0.044383 0.000013
# 6 0.000007 -0.000006 -0.000007 -0.599583 0.000013 0.876639
#
#
# Mechanical properties :
#
#
# Convention : Reuss Voigt Hill
#
# Bulk Modulus (GPa) = 39.93580 49.84824 44.89202
# Shear Modulus (GPa) = 3.25257 19.41184 11.33221
#
# Velocity S-wave (km/s) = 1.25933 3.07653 2.35063
# Velocity P-wave (km/s) = 4.64617 6.07664 5.40891
#
# Compressibility (1/GPa) = 0.02504019
#
# Stress axis : x y z
#
# Youngs Moduli (GPa) = 69.92451 51.58833 33.55803
#
# Poissons Ratio (x) = 0.25477 0.34023
# Poissons Ratio (y) = 0.34532 0.13911
# Poissons Ratio (z) = 0.70893 0.21384
#
# Static dielectric constant tensor:
#      x y z
#    x 1.745220 0.000000 -0.012080 
#    y 0.000000 1.698890 0.000000 
#    z -0.012080 0.000000 1.782560 
# 
# From -- ./inp_files/119154.got.cif
#   From: 2010.05.17/outbox.cif.g08.bks.cpg/sg12_60_cif.got.tgz:119154.got - 2010.06.03 13:09:07.
