data_PCOD9199160
_publ_section_title
;
Structure prediction by ZEFSAII (Michael W. Deem and Ramdas Pophale) SiO2 
 PCOD9199160
Probable space group: C 2/M
;
_chemical_formula_sum "Si O2"
_cell_formula_units_Z 64
_cell_length_a 20.076170
_cell_length_b 7.887841
_cell_length_c 32.473007
_cell_angle_alpha 90.000000
_cell_angle_beta 143.739368
_cell_angle_gamma 90.000000
_cell_volume 3041.489855
_symmetry_space_group_name_H-M "C 2/M"
_symmetry_group_IT_number 12
_symmetry_cell_setting 'monoclinic'
loop_
_space_group_symop_operation_xyz
x,y,z
-x,y,-z
-x,-y,-z
x,-y,z
1/2+x,1/2+y,z
1/2-x,1/2+y,-z
1/2-x,1/2-y,-z
1/2+x,1/2-y,z
loop_
_atom_site_type_symbol
_atom_site_label
_atom_site_fract_x
_atom_site_fract_y
_atom_site_fract_z
Si Si1 0.532086 0.804086 0.713400
Si Si2 0.185488 0.795788 0.009567
Si Si3 0.255243 0.707332 0.871055
Si Si4 0.839244 0.801466 0.676777
Si Si5 0.604424 0.296523 0.521542
Si Si6 0.427681 0.707521 0.889109
Si Si7 0.970158 0.803243 0.377802
Si Si8 0.286015 0.700492 0.740299
O O1 0.646205 0.735589 0.791073
O O2 0.432703 0.790685 0.696555
O O3 0.499607 0.714738 0.654796
O O4 0.553504 0.000000 0.713126
O O5 0.055733 0.736348 0.946533
O O6 0.182661 0.000000 0.009790
O O7 0.250000 0.750000 0.000000
O O8 0.243176 0.735751 0.080839
O O9 0.251737 0.500000 0.869754
O O10 0.366860 0.757087 0.901327
O O11 0.717619 0.784992 0.594884
O O12 0.828560 0.730989 0.717805
O O13 0.869946 0.000000 0.693688
O O14 0.500000 0.262687 0.500000
O O15 0.623727 0.500000 0.530678
O O16 0.563498 0.237086 0.456120
O O17 0.428240 0.500000 0.889503
O O18 0.350255 0.767057 0.812459
O O19 0.847632 0.722952 0.322930
O O20 0.955640 0.000000 0.381263
O O21 0.308303 0.500000 0.750553
#
# Coordination Sequence:
#
# PCOD9199160 Si02
#       8
#     8   8   8   8   8   8   8   8
#     4  11  23  40  61  84 119 158 195 243 296 349
#     4  10  21  36  58  87 118 153 190 236 286 338
#     4   9  18  35  60  86 110 148 200 239 277 341
#     4  11  24  38  58  89 121 152 196 245 292 350
#     4  10  21  39  61  85 116 154 194 238 294 354
#     4   9  17  34  60  85 111 149 196 237 278 333
#     4  11  22  38  62  89 117 149 194 246 291 347
#     4  10  20  36  59  87 117 152 196 240 290 349
#
# _framework density 21.04232
#
# number of rings (size 3 to 8) (size 9 to 14) (size 15 to 20)
#    0.000    1.875    2.500    1.500    1.750    3.750 
#    0.000    1.250    0.000    0.750    0.000    0.000 
#    0.000    0.000    0.000    0.000    0.000    0.000 
#
# Total GULP energy -178763.958933 kJ/mol
# GULP energy per Si atom -5586.373717 kJ/mol
# Density = 2.099443 g / cm^3
# Si number density = 21.042320 Si / 1000 Ang^3
#
#
#
# Elastic Constant Matrix: (Units=GPa)
#
#
# Indices 1 2 3 4 5 6 
#
# 1 134.9795 -2.1242 35.0700 0.0002 -20.6040 0.0000
# 2 -2.1242 21.0084 6.3910 0.0001 -3.3491 -0.0002
# 3 35.0700 6.3910 80.2600 0.0001 -24.0366 -0.0001
# 4 0.0002 0.0001 0.0001 -10.2805 0.0000 -11.3305
# 5 -20.6040 -3.3491 -24.0366 0.0000 40.8722 -0.0001
# 6 0.0000 -0.0002 -0.0001 -11.3305 -0.0001 17.4309
#
#
#
# Elastic Compliance Matrix: (Units=1/GPa)
#
#
# Indices 1 2 3 4 5 6 
#
# 1 0.008679 0.002271 -0.003164 0.000000 0.002700 0.000000
# 2 0.002271 0.049522 -0.004099 0.000000 0.002792 0.000000
# 3 -0.003164 -0.004099 0.016496 0.000000 0.007770 0.000000
# 4 0.000000 0.000000 0.000000 -0.056672 0.000000 -0.036838
# 5 0.002700 0.002792 0.007770 0.000000 0.030626 0.000000
# 6 0.000000 0.000000 0.000000 -0.036838 0.000000 0.033424
#
#
# Mechanical properties :
#
#
# Convention : Reuss Voigt Hill
#
# Bulk Modulus (GPa) = 15.45370 34.99129 25.22250
# Shear Modulus (GPa) = 44.00239 22.73193 33.36716
#
# Velocity S-wave (km/s) = 4.57786 3.29035 3.98643
# Velocity P-wave (km/s) = 5.94158 5.57677 5.76206
#
# Compressibility (1/GPa) = 0.06470941
#
# Stress axis : x y z
#
# Youngs Moduli (GPa) = 115.22647 20.19320 60.62247
#
# Poissons Ratio (x) = -0.04585 0.19183
# Poissons Ratio (y) = -0.26163 0.24852
# Poissons Ratio (z) = 0.36461 0.08278
#
# Static dielectric constant tensor:
#      x y z
#    x 1.724520 0.000000 -0.030440 
#    y 0.000000 1.780830 0.000000 
#    z -0.030440 0.000000 1.752630 
# 
# From -- ./inp_files/378267.got.cif
#   From: 2010.05.17/outbox.cif.g08.bks.cpg/sg12_190_cif.got.tgz:378267.got - 2010.06.03 13:09:07.
