data_PCOD9199974
_publ_section_title
;
Structure prediction by ZEFSAII (Michael W. Deem and Ramdas Pophale) SiO2 
 PCOD9199974
Probable space group: C 2/M
;
_chemical_formula_sum "Si O2"
_cell_formula_units_Z 40
_cell_length_a 10.283012
_cell_length_b 19.521376
_cell_length_c 9.195964
_cell_angle_alpha 90.000000
_cell_angle_beta 89.084334
_cell_angle_gamma 90.000000
_cell_volume 1845.748689
_symmetry_space_group_name_H-M "C 2/M"
_symmetry_group_IT_number 12
_symmetry_cell_setting 'monoclinic'
loop_
_space_group_symop_operation_xyz
x,y,z
-x,y,-z
-x,-y,-z
x,-y,z
1/2+x,1/2+y,z
1/2-x,1/2+y,-z
1/2-x,1/2-y,-z
1/2+x,1/2-y,z
loop_
_atom_site_type_symbol
_atom_site_label
_atom_site_fract_x
_atom_site_fract_y
_atom_site_fract_z
Si Si1 0.033105 0.398528 0.658905
Si Si2 0.727924 0.422459 0.141102
Si Si3 0.880604 0.755731 0.405405
Si Si4 0.373247 0.838673 0.896442
Si Si5 0.537717 0.310324 0.164548
O O1 0.147518 0.428909 0.754923
O O2 0.083964 0.321753 0.632720
O O3 0.000000 0.426420 0.500000
O O4 0.906069 0.388177 0.760875
O O5 0.687684 0.500000 0.102918
O O6 0.617910 0.375646 0.217948
O O7 0.769443 0.375523 0.001865
O O8 0.750000 0.750000 0.500000
O O9 0.000000 0.782946 0.500000
O O10 0.904753 0.796704 0.256208
O O11 0.372930 0.759593 0.838688
O O12 0.500000 0.836877 0.000000
O O13 0.500000 0.322875 0.000000
#
# Coordination Sequence:
#
# PCOD9199974 Si02
#       5
#     8   8   8   8   8
#     4   9  19  34  55  85 115 151 200 247 297 355
#     4  11  22  36  56  83 120 160 197 245 307 367
#     4  10  20  36  62  93 124 154 194 257 315 357
#     4   8  17  34  57  85 113 145 192 252 302 343
#     4  10  21  37  60  86 115 153 204 255 299 356
#
# _framework density 21.671423000000001
#
# number of rings (size 3 to 8) (size 9 to 14) (size 15 to 20)
#    0.000    2.400    0.000    3.000    0.000    9.200 
#    0.000    0.000    0.000    5.400    0.000    0.000 
#    0.000    0.000    0.000    0.000    0.000    0.000 
#
# Total GULP energy -111481.201663 kJ/mol
# GULP energy per Si atom -5574.060083 kJ/mol
# Density = 2.162210 g / cm^3
# Si number density = 21.671423 Si / 1000 Ang^3
#
#
#
# Elastic Constant Matrix: (Units=GPa)
#
#
# Indices 1 2 3 4 5 6 
#
# 1 97.6905 34.6134 44.9374 0.0000 -28.5082 0.0000
# 2 34.6134 121.2073 22.3730 0.0000 -12.3003 0.0000
# 3 44.9374 22.3730 118.7448 0.0000 -16.0207 0.0000
# 4 0.0000 0.0000 0.0000 -22.1070 0.0000 20.8878
# 5 -28.5082 -12.3003 -16.0207 0.0000 38.2639 0.0000
# 6 0.0000 0.0000 0.0000 20.8878 0.0000 -11.6388
#
#
#
# Elastic Compliance Matrix: (Units=1/GPa)
#
#
# Indices 1 2 3 4 5 6 
#
# 1 0.015846 -0.002817 -0.004234 0.000000 0.009127 0.000000
# 2 -0.002817 0.009226 -0.000588 0.000000 0.000621 0.000000
# 3 -0.004234 -0.000588 0.010263 0.000000 0.000953 0.000000
# 4 0.000000 0.000000 0.000000 0.065021 0.000000 0.116692
# 5 0.009127 0.000621 0.000953 0.000000 0.033533 0.000000
# 6 0.000000 0.000000 0.000000 0.116692 0.000000 0.123503
#
#
# Mechanical properties :
#
#
# Convention : Reuss Voigt Hill
#
# Bulk Modulus (GPa) = 49.86202 60.16558 55.01380
# Shear Modulus (GPa) = 17.89812 16.61821 17.25817
#
# Velocity S-wave (km/s) = 2.87694 2.77217 2.82504
# Velocity P-wave (km/s) = 5.83899 6.17004 6.00680
#
# Compressibility (1/GPa) = 0.02005534
#
# Stress axis : x y z
#
# Youngs Moduli (GPa) = 63.10725 108.38374 97.43389
#
# Poissons Ratio (x) = 0.30535 0.41258
# Poissons Ratio (y) = 0.17779 0.05734
# Poissons Ratio (z) = 0.26723 0.06378
#
# Static dielectric constant tensor:
#      x y z
#    x 2.069130 0.000000 0.145770 
#    y 0.000000 1.778280 0.000000 
#    z 0.145770 0.000000 2.023380 
# 
# From -- ./inp_files/46967.got.cif
#   From: 2010.05.17/outbox.cif.g08.bks.cpg/sg12_24_cif.got.tgz:46967.got - 2010.06.03 13:09:07.
