data_PCOD9199413
_publ_section_title
;
Structure prediction by ZEFSAII (Michael W. Deem and Ramdas Pophale) SiO2 
 PCOD9199413
Probable space group: C 2/M
;
_chemical_formula_sum "Si O2"
_cell_formula_units_Z 64
_cell_length_a 32.836175
_cell_length_b 8.032694
_cell_length_c 10.887348
_cell_angle_alpha 90.000000
_cell_angle_beta 94.415465
_cell_angle_gamma 90.000000
_cell_volume 2863.155862
_symmetry_space_group_name_H-M "C 2/M"
_symmetry_group_IT_number 12
_symmetry_cell_setting 'monoclinic'
loop_
_space_group_symop_operation_xyz
x,y,z
-x,y,-z
-x,-y,-z
x,-y,z
1/2+x,1/2+y,z
1/2-x,1/2+y,-z
1/2-x,1/2-y,-z
1/2+x,1/2-y,z
loop_
_atom_site_type_symbol
_atom_site_label
_atom_site_fract_x
_atom_site_fract_y
_atom_site_fract_z
Si Si1 0.019353 0.300188 0.632473
Si Si2 0.886527 0.202055 0.346123
Si Si3 0.338826 0.297729 0.576642
Si Si4 0.882648 0.801893 0.841056
Si Si5 0.688469 0.306783 0.815635
Si Si6 0.023681 0.298687 0.127396
Si Si7 0.697056 0.186607 0.076708
Si Si8 0.741010 0.309052 0.321127
O O1 0.014532 0.500000 0.630302
O O2 0.067297 0.261051 0.649682
O O3 0.000000 0.235762 0.500000
O O4 0.996752 0.237585 0.750138
O O5 0.863432 0.260053 0.464031
O O6 0.856422 0.256274 0.229915
O O7 0.886666 0.000000 0.347179
O O8 0.336011 0.500000 0.571074
O O9 0.366091 0.255623 0.701730
O O10 0.292218 0.239111 0.589990
O O11 0.929338 0.753471 0.866843
O O12 0.851629 0.711420 0.925214
O O13 0.878219 0.000000 0.855563
O O14 0.685506 0.500000 0.846705
O O15 0.717808 0.286398 0.704329
O O16 0.707393 0.219155 0.938184
O O17 0.021731 0.500000 0.127989
O O18 0.000000 0.240263 0.000000
O O19 0.715714 0.303068 0.186095
O O20 0.709281 0.000000 0.114153
O O21 0.750742 0.500000 0.352094
#
# Coordination Sequence:
#
# PCOD9199413 Si02
#       8
#     8   8   8   8   8   8   8   8
#     4  10  22  40  61  86 118 155 199 247 294 352
#     4  10  22  39  60  85 115 152 193 238 289 346
#     4   8  17  36  59  83 112 146 188 236 284 339
#     4  10  20  36  60  87 114 146 189 239 287 345
#     4  11  23  37  54  83 120 153 192 241 289 342
#     4  10  22  38  56  83 118 155 192 240 298 355
#     4  11  22  37  59  83 114 155 195 237 289 347
#     4  10  20  37  60  85 114 151 195 239 287 344
#
# _framework density 22.352957
#
# number of rings (size 3 to 8) (size 9 to 14) (size 15 to 20)
#    0.000    2.000    0.000    4.125    1.750    2.500 
#    0.000    3.125    0.000    0.000    0.000    0.000 
#    0.000    0.000    0.000    0.000    0.000    0.000 
#
# Total GULP energy -178867.045624 kJ/mol
# GULP energy per Si atom -5589.595176 kJ/mol
# Density = 2.230208 g / cm^3
# Si number density = 22.352957 Si / 1000 Ang^3
#
#
#
# Elastic Constant Matrix: (Units=GPa)
#
#
# Indices 1 2 3 4 5 6 
#
# 1 132.4585 -10.8128 26.9103 0.0000 4.3568 0.0000
# 2 -10.8128 31.0043 10.4558 0.0000 2.7046 0.0000
# 3 26.9103 10.4558 90.4176 0.0000 -3.9911 0.0000
# 4 0.0000 0.0000 0.0000 11.2918 0.0000 -3.6283
# 5 4.3568 2.7046 -3.9911 0.0000 36.4580 0.0000
# 6 0.0000 0.0000 0.0000 -3.6283 0.0000 33.5640
#
#
#
# Elastic Compliance Matrix: (Units=1/GPa)
#
#
# Indices 1 2 3 4 5 6 
#
# 1 0.008579 0.004187 -0.003111 0.000000 -0.001676 0.000000
# 2 0.004187 0.035920 -0.005567 0.000000 -0.003775 0.000000
# 3 -0.003111 -0.005567 0.012726 0.000000 0.002178 0.000000
# 4 0.000000 0.000000 0.000000 0.091747 0.000000 0.009918
# 5 -0.001676 -0.003775 0.002178 0.000000 0.028148 0.000000
# 6 0.000000 0.000000 0.000000 0.009918 0.000000 0.030866
#
#
# Mechanical properties :
#
#
# Convention : Reuss Voigt Hill
#
# Bulk Modulus (GPa) = 20.72827 34.10967 27.41897
# Shear Modulus (GPa) = 21.45484 31.41789 26.43636
#
# Velocity S-wave (km/s) = 3.10146 3.75312 3.44274
# Velocity P-wave (km/s) = 4.70305 5.83728 5.30059
#
# Compressibility (1/GPa) = 0.04824328
#
# Stress axis : x y z
#
# Youngs Moduli (GPa) = 116.56905 27.83928 78.58137
#
# Poissons Ratio (x) = -0.11657 0.24450
# Poissons Ratio (y) = -0.48811 0.43744
# Poissons Ratio (z) = 0.36269 0.15497
#
# Static dielectric constant tensor:
#      x y z
#    x 1.807000 0.000000 -0.005260 
#    y 0.000000 1.788480 0.000000 
#    z -0.005260 0.000000 1.842550 
# 
# From -- ./inp_files/187562.got.cif
#   From: 2010.05.17/outbox.cif.g08.bks.cpg/sg12_94_cif.got.tgz:187562.got - 2010.06.03 13:09:07.
