data_PCOD9199436
_publ_section_title
;
Structure prediction by ZEFSAII (Michael W. Deem and Ramdas Pophale) SiO2 
 PCOD9199436
Probable space group: C 2/M
;
_chemical_formula_sum "Si O2"
_cell_formula_units_Z 64
_cell_length_a 31.133782
_cell_length_b 18.120620
_cell_length_c 12.386120
_cell_angle_alpha 90.000000
_cell_angle_beta 151.592798
_cell_angle_gamma 90.000000
_cell_volume 3324.337554
_symmetry_space_group_name_H-M "C 2/M"
_symmetry_group_IT_number 12
_symmetry_cell_setting 'monoclinic'
loop_
_space_group_symop_operation_xyz
x,y,z
-x,y,-z
-x,-y,-z
x,-y,z
1/2+x,1/2+y,z
1/2-x,1/2+y,-z
1/2-x,1/2-y,-z
1/2+x,1/2-y,z
loop_
_atom_site_type_symbol
_atom_site_label
_atom_site_fract_x
_atom_site_fract_y
_atom_site_fract_z
Si Si1 0.703558 0.817015 0.331677
Si Si2 0.856111 0.584646 0.610215
Si Si3 0.746877 0.191683 0.185719
Si Si4 0.236878 0.631431 0.812324
Si Si5 0.003335 0.286528 0.123364
Si Si6 0.563369 0.418865 0.744844
Si Si7 0.566428 0.298958 0.468124
Si Si8 0.403544 0.158971 0.316376
O O1 0.750000 0.750000 0.500000
O O2 0.694871 0.884094 0.396837
O O3 0.749275 0.828499 0.317029
O O4 0.599878 0.798120 0.072853
O O5 0.882102 0.500000 0.681213
O O6 0.793949 0.595018 0.367682
O O7 0.941338 0.638284 0.776726
O O8 0.751768 0.280622 0.182256
O O9 0.836472 0.161862 0.324280
O O10 0.657562 0.167000 0.925039
O O11 0.159491 0.621584 0.731762
O O12 0.334187 0.599999 0.058333
O O13 0.054929 0.245237 0.331402
O O14 0.000000 0.246381 0.000000
O O15 0.500000 0.420775 0.500000
O O16 0.560464 0.500000 0.790337
O O17 0.517797 0.353410 0.711064
O O18 0.572744 0.239166 0.578217
O O19 0.500000 0.124046 0.500000
#
# Coordination Sequence:
#
# PCOD9199436 Si02
#       8
#     8   8   8   8   8   8   8   8
#     4  11  21  37  60  90 122 158 205 258 306 359
#     4  11  23  40  63  90 123 164 208 253 309 372
#     4  11  20  34  61  92 125 157 203 258 307 359
#     4  11  20  38  60  91 126 161 207 255 306 368
#     4  10  20  36  60  87 118 154 201 256 301 354
#     4  11  23  38  59  87 123 163 205 254 304 363
#     4  11  20  38  58  92 123 160 206 252 303 364
#     4  11  21  33  61  96 127 157 199 259 310 364
#
# _framework density 19.251954999999999
#
# number of rings (size 3 to 8) (size 9 to 14) (size 15 to 20)
#    0.000    1.125    3.750    6.750    0.000    2.250 
#    0.000    0.625    0.000    3.375    0.000    0.000 
#    0.000    0.000    0.000    0.000    0.000    0.000 
#
# Total GULP energy -178644.941975 kJ/mol
# GULP energy per Si atom -5582.654437 kJ/mol
# Density = 1.920814 g / cm^3
# Si number density = 19.251955 Si / 1000 Ang^3
#
#
#
# Elastic Constant Matrix: (Units=GPa)
#
#
# Indices 1 2 3 4 5 6 
#
# 1 99.8804 20.5336 47.7641 0.0000 0.1187 0.0000
# 2 20.5336 63.1550 18.9148 0.0000 -0.6769 0.0000
# 3 47.7641 18.9148 129.0107 0.0000 5.0637 0.0000
# 4 0.0000 0.0000 0.0000 0.2035 0.0000 2.2607
# 5 0.1187 -0.6769 5.0637 0.0000 41.0327 0.0000
# 6 0.0000 0.0000 0.0000 2.2607 0.0000 14.9779
#
#
#
# Elastic Compliance Matrix: (Units=1/GPa)
#
#
# Indices 1 2 3 4 5 6 
#
# 1 0.012640 -0.002822 -0.004283 0.000000 0.000445 0.000000
# 2 -0.002822 0.017205 -0.001496 0.000000 0.000477 0.000000
# 3 -0.004283 -0.001496 0.009604 0.000000 -0.001197 0.000000
# 4 0.000000 0.000000 0.000000 -7.262599 0.000000 1.096201
# 5 0.000445 0.000477 -0.001197 0.000000 0.024525 0.000000
# 6 0.000000 0.000000 0.000000 1.096201 0.000000 -0.098693
#
#
# Mechanical properties :
#
#
# Convention : Reuss Voigt Hill
#
# Bulk Modulus (GPa) = 44.95454 51.83013 48.39233
# Shear Modulus (GPa) = -0.68750 24.89840 12.10545
#
# Velocity S-wave (km/s) = -0.59823 3.60014 2.51029
# Velocity P-wave (km/s) = 4.78792 6.65295 5.79594
#
# Compressibility (1/GPa) = 0.02224470
#
# Stress axis : x y z
#
# Youngs Moduli (GPa) = 79.11382 58.12314 104.12785
#
# Poissons Ratio (x) = 0.16402 0.44603
# Poissons Ratio (y) = 0.22326 0.15582
# Poissons Ratio (z) = 0.33888 0.08697
#
# Static dielectric constant tensor:
#      x y z
#    x 1.718450 0.000000 0.021160 
#    y 0.000000 1.670130 0.000000 
#    z 0.021160 0.000000 1.696070 
# 
# From -- ./inp_files/190058.got.cif
#   From: 2010.05.17/outbox.cif.g08.bks.cpg/sg12_96_cif.got.tgz:190058.got - 2010.06.03 13:09:07.
