data_PCOD9199599
_publ_section_title
;
Structure prediction by ZEFSAII (Michael W. Deem and Ramdas Pophale) SiO2 
 PCOD9199599
Probable space group: C 2/M
;
_chemical_formula_sum "Si O2"
_cell_formula_units_Z 64
_cell_length_a 26.008842
_cell_length_b 17.360183
_cell_length_c 16.869045
_cell_angle_alpha 90.000000
_cell_angle_beta 25.833567
_cell_angle_gamma 90.000000
_cell_volume 3319.033685
_symmetry_space_group_name_H-M "C 2/M"
_symmetry_group_IT_number 12
_symmetry_cell_setting 'monoclinic'
loop_
_space_group_symop_operation_xyz
x,y,z
-x,y,-z
-x,-y,-z
x,-y,z
1/2+x,1/2+y,z
1/2-x,1/2+y,-z
1/2-x,1/2-y,-z
1/2+x,1/2-y,z
loop_
_atom_site_type_symbol
_atom_site_label
_atom_site_fract_x
_atom_site_fract_y
_atom_site_fract_z
Si Si1 0.741836 0.657191 0.507902
Si Si2 0.787383 0.910153 0.025074
Si Si3 0.434535 0.856393 0.363381
Si Si4 0.138659 0.413120 0.810451
Si Si5 0.692596 0.909669 0.983892
Si Si6 0.116402 0.344865 0.390145
Si Si7 0.802889 0.826607 0.690243
Si Si8 0.535903 0.328712 0.682275
O O1 0.750000 0.750000 0.500000
O O2 0.809976 0.628455 0.491744
O O3 0.818237 0.619942 0.332299
O O4 0.610090 0.642424 0.656461
O O5 0.703195 0.895090 0.216398
O O6 0.819901 0.000000 0.975802
O O7 0.718954 0.889959 0.038865
O O8 0.904284 0.859127 0.868035
O O9 0.420543 0.880244 0.474338
O O10 0.456920 0.764105 0.328635
O O11 0.553875 0.892219 0.161477
O O12 0.185440 0.500000 0.760778
O O13 0.183235 0.352778 0.813232
O O14 0.000000 0.417260 0.000000
O O15 0.786588 0.865546 0.798186
O O16 0.710724 0.000000 0.946280
O O17 0.179196 0.263691 0.322351
O O18 0.000000 0.328829 0.500000
O O19 0.900830 0.852852 0.489012
#
# Coordination Sequence:
#
# PCOD9199599 Si02
#       8
#     8   8   8   8   8   8   8   8
#     4   9  19  37  59  87 120 154 199 243 292 351
#     4  11  25  41  58  84 120 162 200 244 304 361
#     4  10  20  38  63  89 115 151 204 256 292 340
#     4  10  20  36  60  90 125 160 193 240 301 356
#     4  11  23  36  56  87 121 156 197 246 299 356
#     4  11  23  41  64  87 113 156 207 257 304 346
#     4  10  22  36  60  91 121 154 198 243 296 361
#     4   9  21  39  60  86 118 158 191 240 300 362
#
# _framework density 19.282720999999999
#
# number of rings (size 3 to 8) (size 9 to 14) (size 15 to 20)
#    0.000    1.875    1.250    2.625    3.500    6.750 
#    0.000    1.875    0.000    0.750    0.000    0.000 
#    0.000    0.000    0.000    0.000    0.000    0.000 
#
# Total GULP energy -178378.156625 kJ/mol
# GULP energy per Si atom -5574.317395 kJ/mol
# Density = 1.923883 g / cm^3
# Si number density = 19.282721 Si / 1000 Ang^3
#
#
#
# Elastic Constant Matrix: (Units=GPa)
#
#
# Indices 1 2 3 4 5 6 
#
# 1 74.5451 2.0838 0.6977 -0.0001 7.9299 -0.0001
# 2 2.0838 13.0777 9.6233 -0.0004 1.0802 -0.0002
# 3 0.6977 9.6233 51.3268 -0.0003 0.2137 -0.0002
# 4 -0.0001 -0.0004 -0.0003 -442.0037 0.0003 -223.5217
# 5 7.9299 1.0802 0.2137 0.0003 26.0362 0.0002
# 6 -0.0001 -0.0002 -0.0002 -223.5217 0.0002 -86.7366
#
#
#
# Elastic Compliance Matrix: (Units=1/GPa)
#
#
# Indices 1 2 3 4 5 6 
#
# 1 0.013911 -0.002027 0.000208 0.000000 -0.004155 0.000000
# 2 -0.002027 0.089328 -0.016708 0.000000 -0.002952 0.000000
# 3 0.000208 -0.016708 0.022611 0.000000 0.000444 0.000000
# 4 0.000000 0.000000 0.000000 0.007462 0.000000 -0.019229
# 5 -0.004155 -0.002952 0.000444 0.000000 0.039792 0.000000
# 6 0.000000 0.000000 0.000000 -0.019229 0.000000 0.038025
#
#
# Mechanical properties :
#
#
# Convention : Reuss Voigt Hill
#
# Bulk Modulus (GPa) = 11.26171 18.19547 14.72859
# Shear Modulus (GPa) = 17.99973 -92.10453 -37.05240
#
# Velocity S-wave (km/s) = 3.05858 -6.91874 -4.38829
# Velocity P-wave (km/s) = 4.28091 7.37351 4.24514
#
# Compressibility (1/GPa) = 0.08879646
#
# Stress axis : x y z
#
# Youngs Moduli (GPa) = 71.88367 11.19471 44.22627
#
# Poissons Ratio (x) = 0.02269 -0.00921
# Poissons Ratio (y) = 0.14569 0.73895
# Poissons Ratio (z) = -0.01497 0.18705
#
# Static dielectric constant tensor:
#      x y z
#    x 1.610660 0.000000 0.025290 
#    y 0.000000 1.649730 0.000000 
#    z 0.025290 0.000000 1.640710 
# 
# From -- ./inp_files/241458.got.cif
#   From: 2010.05.17/outbox.cif.g08.bks.cpg/sg12_121_cif.got.tgz:241458.got - 2010.06.03 13:09:07.
