data_PCOD9199113
_publ_section_title
;
Structure prediction by ZEFSAII (Michael W. Deem and Ramdas Pophale) SiO2 
 PCOD9199113
Probable space group: C 2/M
;
_chemical_formula_sum "Si O2"
_cell_formula_units_Z 64
_cell_length_a 15.047515
_cell_length_b 13.485508
_cell_length_c 16.773595
_cell_angle_alpha 90.000000
_cell_angle_beta 122.963682
_cell_angle_gamma 90.000000
_cell_volume 2855.803355
_symmetry_space_group_name_H-M "C 2/M"
_symmetry_group_IT_number 12
_symmetry_cell_setting 'monoclinic'
loop_
_space_group_symop_operation_xyz
x,y,z
-x,y,-z
-x,-y,-z
x,-y,z
1/2+x,1/2+y,z
1/2-x,1/2+y,-z
1/2-x,1/2-y,-z
1/2+x,1/2-y,z
loop_
_atom_site_type_symbol
_atom_site_label
_atom_site_fract_x
_atom_site_fract_y
_atom_site_fract_z
Si Si1 0.413062 0.892402 0.147788
Si Si2 0.413759 0.323037 0.201157
Si Si3 0.679176 0.814634 0.059454
Si Si4 0.089618 0.218458 0.399132
Si Si5 0.146097 0.611419 0.204713
Si Si6 0.915793 0.113858 0.030515
Si Si7 0.948667 0.388760 0.388031
Si Si8 0.788034 0.760670 0.384260
O O1 0.390505 0.795292 0.188007
O O2 0.539970 0.892354 0.204337
O O3 0.374555 0.000000 0.155335
O O4 0.371701 0.873791 0.037991
O O5 0.293783 0.360151 0.137206
O O6 0.493810 0.343746 0.312264
O O7 0.462961 0.356325 0.140249
O O8 0.619350 0.824830 0.113592
O O9 0.671290 0.699265 0.028574
O O10 0.131816 0.196410 0.509005
O O11 0.189488 0.217600 0.387990
O O12 0.037962 0.328026 0.383457
O O13 0.170426 0.500000 0.191457
O O14 0.239155 0.658557 0.301687
O O15 0.877888 0.000000 0.015865
O O16 0.000000 0.119218 0.000000
O O17 0.926953 0.500000 0.348105
O O18 0.846874 0.320352 0.357771
O O19 0.000000 0.398832 0.500000
#
# Coordination Sequence:
#
# PCOD9199113 Si02
#       8
#     8   8   8   8   8   8   8   8
#     4  10  20  36  59  86 115 149 200 256 308 369
#     4  11  22  38  59  88 123 157 204 258 314 383
#     4  11  22  36  61  88 121 161 197 255 322 382
#     4  10  21  39  64  92 131 175 218 271 329 391
#     4  11  22  38  62  90 121 159 208 260 315 387
#     4  10  22  40  61  84 119 165 207 253 313 390
#     4   9  19  38  66  98 130 170 225 280 328 386
#     4  10  21  40  65  92 133 178 216 272 341 388
#
# _framework density 22.410506999999999
#
# number of rings (size 3 to 8) (size 9 to 14) (size 15 to 20)
#    0.000    1.750    1.250    4.500    0.000    4.500 
#    0.000    5.000    0.000    7.875    0.000    0.000 
#    0.000    0.000    0.000    0.000    0.000    0.000 
#
# Total GULP energy -178571.086575 kJ/mol
# GULP energy per Si atom -5580.346455 kJ/mol
# Density = 2.235950 g / cm^3
# Si number density = 22.410507 Si / 1000 Ang^3
#
#
#
# Elastic Constant Matrix: (Units=GPa)
#
#
# Indices 1 2 3 4 5 6 
#
# 1 66.5116 13.2886 15.7030 0.0000 9.4494 0.0000
# 2 13.2886 98.0458 31.7742 0.0000 4.6281 0.0000
# 3 15.7030 31.7742 171.8477 0.0000 2.6160 0.0000
# 4 0.0000 0.0000 0.0000 14.4156 0.0000 2.9218
# 5 9.4494 4.6281 2.6160 0.0000 37.0484 0.0000
# 6 0.0000 0.0000 0.0000 2.9218 0.0000 18.8574
#
#
#
# Elastic Compliance Matrix: (Units=1/GPa)
#
#
# Indices 1 2 3 4 5 6 
#
# 1 0.016173 -0.001650 -0.001114 0.000000 -0.003840 0.000000
# 2 -0.001650 0.011073 -0.001884 0.000000 -0.000829 0.000000
# 3 -0.001114 -0.001884 0.006268 0.000000 0.000077 0.000000
# 4 0.000000 0.000000 0.000000 0.071618 0.000000 -0.011097
# 5 -0.003840 -0.000829 0.000077 0.000000 0.028069 0.000000
# 6 0.000000 0.000000 0.000000 -0.011097 0.000000 0.054749
#
#
# Mechanical properties :
#
#
# Convention : Reuss Voigt Hill
#
# Bulk Modulus (GPa) = 41.29150 50.88184 46.08667
# Shear Modulus (GPa) = 24.35233 32.44023 28.39628
#
# Velocity S-wave (km/s) = 3.30001 3.80879 3.56349
# Velocity P-wave (km/s) = 5.74327 6.48816 6.12705
#
# Compressibility (1/GPa) = 0.02421806
#
# Stress axis : x y z
#
# Youngs Moduli (GPa) = 61.83051 90.31317 159.53796
#
# Poissons Ratio (x) = 0.14898 0.17779
# Poissons Ratio (y) = 0.10200 0.30056
# Poissons Ratio (z) = 0.06890 0.17014
#
# Static dielectric constant tensor:
#      x y z
#    x 1.891160 0.000000 -0.006680 
#    y 0.000000 1.846490 0.000000 
#    z -0.006680 0.000000 1.858670 
# 
# From -- ./inp_files/270700.got.cif
#   From: 2010.05.17/outbox.cif.g08.bks.cpg/sg12_136_cif.got.tgz:270700.got - 2010.06.03 13:09:07.
