data_PCOD9199342
_publ_section_title
;
Structure prediction by ZEFSAII (Michael W. Deem and Ramdas Pophale) SiO2 
 PCOD9199342
Probable space group: C 2/M
;
_chemical_formula_sum "Si O2"
_cell_formula_units_Z 60
_cell_length_a 14.647087
_cell_length_b 14.804876
_cell_length_c 14.694575
_cell_angle_alpha 90.000000
_cell_angle_beta 85.447960
_cell_angle_gamma 90.000000
_cell_volume 3176.442425
_symmetry_space_group_name_H-M "C 2/M"
_symmetry_group_IT_number 12
_symmetry_cell_setting 'monoclinic'
loop_
_space_group_symop_operation_xyz
x,y,z
-x,y,-z
-x,-y,-z
x,-y,z
1/2+x,1/2+y,z
1/2-x,1/2+y,-z
1/2-x,1/2-y,-z
1/2+x,1/2-y,z
loop_
_atom_site_type_symbol
_atom_site_label
_atom_site_fract_x
_atom_site_fract_y
_atom_site_fract_z
Si Si1 0.961493 0.791370 0.809478
Si Si2 0.132180 0.401794 0.187546
Si Si3 0.904512 0.599817 0.455870
Si Si4 0.860942 0.738158 0.306248
Si Si5 0.759994 0.399845 0.629656
Si Si6 0.225333 0.895209 0.204301
Si Si7 0.000000 0.746033 0.000000
Si Si8 0.194421 0.657274 0.991383
O O1 0.930474 0.686322 0.806105
O O2 0.877741 0.853371 0.781769
O O3 0.059423 0.790834 0.753746
O O4 0.977150 0.806562 0.915013
O O5 0.084831 0.500000 0.187724
O O6 0.189108 0.399184 0.276393
O O7 0.190785 0.391255 0.089906
O O8 0.891757 0.500000 0.416245
O O9 0.903258 0.672350 0.377459
O O10 0.828866 0.611738 0.540111
O O11 0.000000 0.602247 0.500000
O O12 0.805433 0.815198 0.362348
O O13 0.793364 0.675105 0.250698
O O14 0.717396 0.500000 0.623986
O O15 0.258664 0.892555 0.096514
O O16 0.228563 0.000000 0.235682
O O17 0.910671 0.683937 0.024389
O O18 0.250000 0.750000 0.000000
#
# Coordination Sequence:
#
# PCOD9199342 Si02
#       8
#     8   8   8   8   8   8   4   8
#     4  11  23  39  60  89 127 167 208 261 307 367
#     4  10  20  36  60  87 116 155 206 257 308 357
#     4  10  22  40  65  97 123 151 201 262 314 373
#     4  12  23  41  67  92 125 170 207 250 318 378
#     4  10  21  39  63  90 120 157 204 254 305 368
#     4  12  25  41  62  93 131 169 210 261 314 375
#     4  10  20  36  60  84 118 168 208 254 304 360
#     4  11  19  38  60  84 124 164 209 257 311 365
#
# _framework density 18.889057000000001
#
# number of rings (size 3 to 8) (size 9 to 14) (size 15 to 20)
#    0.000    1.200    5.333    2.000    0.000    2.667 
#    0.000    2.000    0.000    0.400    0.000    0.000 
#    0.000    0.000    0.000    0.000    0.000    0.000 
#
# Total GULP energy -167353.656388 kJ/mol
# GULP energy per Si atom -5578.455213 kJ/mol
# Density = 1.884606 g / cm^3
# Si number density = 18.889057 Si / 1000 Ang^3
#
#
#
# Elastic Constant Matrix: (Units=GPa)
#
#
# Indices 1 2 3 4 5 6 
#
# 1 83.7663 26.7900 2.0412 0.0000 -5.4898 0.0000
# 2 26.7900 62.5263 -5.0518 0.0000 -11.6813 0.0000
# 3 2.0412 -5.0518 39.9670 0.0000 3.2116 0.0000
# 4 0.0000 0.0000 0.0000 18.9119 0.0000 2.0484
# 5 -5.4898 -11.6813 3.2116 0.0000 21.3489 0.0000
# 6 0.0000 0.0000 0.0000 2.0484 0.0000 16.2000
#
#
#
# Elastic Compliance Matrix: (Units=1/GPa)
#
#
# Indices 1 2 3 4 5 6 
#
# 1 0.013925 -0.005989 -0.001511 0.000000 0.000531 0.000000
# 2 -0.005989 0.020478 0.002144 0.000000 0.009342 0.000000
# 3 -0.001511 0.002144 0.025615 0.000000 -0.003069 0.000000
# 4 0.000000 0.000000 0.000000 0.053611 0.000000 -0.006779
# 5 0.000531 0.009342 -0.003069 0.000000 0.052551 0.000000
# 6 0.000000 0.000000 0.000000 -0.006779 0.000000 0.062586
#
#
# Mechanical properties :
#
#
# Convention : Reuss Voigt Hill
#
# Bulk Modulus (GPa) = 20.28176 25.97979 23.13078
# Shear Modulus (GPa) = 19.53785 22.12419 20.83102
#
# Velocity S-wave (km/s) = 3.21962 3.42610 3.32446
# Velocity P-wave (km/s) = 4.95801 5.42536 5.19694
#
# Compressibility (1/GPa) = 0.04930538
#
# Stress axis : x y z
#
# Youngs Moduli (GPa) = 71.81306 48.83313 39.03906
#
# Poissons Ratio (x) = 0.29247 0.05898
# Poissons Ratio (y) = 0.43010 -0.08368
# Poissons Ratio (z) = 0.10850 -0.10468
#
# Static dielectric constant tensor:
#      x y z
#    x 1.674580 0.000000 0.000740 
#    y 0.000000 1.653750 0.000000 
#    z 0.000740 0.000000 1.664820 
# 
# From -- ./inp_files/214840.got.cif
#   From: 2010.05.17/outbox.cif.g08.bks.cpg/sg12_108_cif.got.tgz:214840.got - 2010.06.03 13:09:07.
