data_PCOD9199390
_publ_section_title
;
Structure prediction by ZEFSAII (Michael W. Deem and Ramdas Pophale) SiO2 
 PCOD9199390
Probable space group: C 2/M
;
_chemical_formula_sum "Si O2"
_cell_formula_units_Z 40
_cell_length_a 13.642503
_cell_length_b 10.886999
_cell_length_c 17.556549
_cell_angle_alpha 90.000000
_cell_angle_beta 136.753927
_cell_angle_gamma 90.000000
_cell_volume 1786.554719
_symmetry_space_group_name_H-M "C 2/M"
_symmetry_group_IT_number 12
_symmetry_cell_setting 'monoclinic'
loop_
_space_group_symop_operation_xyz
x,y,z
-x,y,-z
-x,-y,-z
x,-y,z
1/2+x,1/2+y,z
1/2-x,1/2+y,-z
1/2-x,1/2-y,-z
1/2+x,1/2-y,z
loop_
_atom_site_type_symbol
_atom_site_label
_atom_site_fract_x
_atom_site_fract_y
_atom_site_fract_z
Si Si1 0.374855 0.133226 0.993644
Si Si2 0.990948 0.868570 0.902692
Si Si3 0.731545 0.638445 0.431964
Si Si4 0.658109 0.861650 0.669289
Si Si5 0.411628 0.638421 0.266080
O O1 0.226204 0.152415 0.865496
O O2 0.373977 0.000000 0.032291
O O3 0.500000 0.126632 0.000000
O O4 0.418899 0.249431 0.068891
O O5 0.824644 0.857429 0.789163
O O6 0.044932 0.000000 0.903566
O O7 0.000000 0.873891 0.000000
O O8 0.752153 0.500000 0.475777
O O9 0.750000 0.750000 0.500000
O O10 0.833547 0.651429 0.416966
O O11 0.565038 0.642735 0.311740
O O12 0.587713 0.748008 0.672429
O O13 0.605171 0.000000 0.658163
O O14 0.399823 0.500000 0.293386
#
# Coordination Sequence:
#
# PCOD9199390 Si02
#       5
#     8   8   8   8   8
#     4   9  15  26  49  79 112 147 181 219 268 329
#     4   9  15  26  49  79 112 147 181 219 268 329
#     4  10  24  44  61  82 114 150 193 246 293 338
#     4  10  20  36  60  86 115 152 191 234 287 341
#     4  10  20  36  60  86 115 152 191 234 287 341
#
# _framework density 22.389461000000001
#
# number of rings (size 3 to 8) (size 9 to 14) (size 15 to 20)
#    0.000    2.400    4.000    0.000    0.000    2.400 
#    0.000    5.000    0.000    0.000    0.000    0.000 
#    0.000    0.000    0.000    0.000    0.000    0.000 
#
# Total GULP energy -111696.641654 kJ/mol
# GULP energy per Si atom -5584.832083 kJ/mol
# Density = 2.233850 g / cm^3
# Si number density = 22.389461 Si / 1000 Ang^3
#
#
#
# Elastic Constant Matrix: (Units=GPa)
#
#
# Indices 1 2 3 4 5 6 
#
# 1 91.3038 48.1268 16.9555 0.0000 13.8969 0.0000
# 2 48.1268 229.9168 31.2724 0.0000 -4.4901 0.0000
# 3 16.9555 31.2724 72.3831 0.0000 17.8178 0.0000
# 4 0.0000 0.0000 0.0000 35.4490 0.0000 -0.2014
# 5 13.8969 -4.4901 17.8178 0.0000 36.2896 0.0000
# 6 0.0000 0.0000 0.0000 -0.2014 0.0000 17.9607
#
#
#
# Elastic Compliance Matrix: (Units=1/GPa)
#
#
# Indices 1 2 3 4 5 6 
#
# 1 0.013332 -0.002803 -0.000648 0.000000 -0.005134 0.000000
# 2 -0.002803 0.005312 -0.002348 0.000000 0.002883 0.000000
# 3 -0.000648 -0.002348 0.017053 0.000000 -0.008415 0.000000
# 4 0.000000 0.000000 0.000000 0.028211 0.000000 0.000316
# 5 -0.005134 0.002883 -0.008415 0.000000 0.034011 0.000000
# 6 0.000000 0.000000 0.000000 0.000316 0.000000 0.055681
#
#
# Mechanical properties :
#
#
# Convention : Reuss Voigt Hill
#
# Bulk Modulus (GPa) = 41.49675 65.14592 53.32134
# Shear Modulus (GPa) = 28.86334 37.75645 33.30990
#
# Velocity S-wave (km/s) = 3.59437 4.11097 3.86132
# Velocity P-wave (km/s) = 5.98333 7.18981 6.61414
#
# Compressibility (1/GPa) = 0.02409827
#
# Stress axis : x y z
#
# Youngs Moduli (GPa) = 75.01021 188.26150 58.63990
#
# Poissons Ratio (x) = 0.52764 0.03802
# Poissons Ratio (y) = 0.21023 0.13770
# Poissons Ratio (z) = 0.04863 0.44207
#
# Static dielectric constant tensor:
#      x y z
#    x 1.813300 0.000000 0.013770 
#    y 0.000000 1.884540 0.000000 
#    z 0.013770 0.000000 1.835290 
# 
# From -- ./inp_files/269049.got.cif
#   From: 2010.05.17/outbox.cif.g08.bks.cpg/sg12_135_cif.got.tgz:269049.got - 2010.06.03 13:09:07.
