data_PCOD9199600
_publ_section_title
;
Structure prediction by ZEFSAII (Michael W. Deem and Ramdas Pophale) SiO2 
 PCOD9199600
Probable space group: C 2/M
;
_chemical_formula_sum "Si O2"
_cell_formula_units_Z 40
_cell_length_a 17.629311
_cell_length_b 11.868177
_cell_length_c 9.585239
_cell_angle_alpha 90.000000
_cell_angle_beta 64.967648
_cell_angle_gamma 90.000000
_cell_volume 1817.119870
_symmetry_space_group_name_H-M "C 2/M"
_symmetry_group_IT_number 12
_symmetry_cell_setting 'monoclinic'
loop_
_space_group_symop_operation_xyz
x,y,z
-x,y,-z
-x,-y,-z
x,-y,z
1/2+x,1/2+y,z
1/2-x,1/2+y,-z
1/2-x,1/2-y,-z
1/2+x,1/2-y,z
loop_
_atom_site_type_symbol
_atom_site_label
_atom_site_fract_x
_atom_site_fract_y
_atom_site_fract_z
Si Si1 0.011386 0.628317 0.647286
Si Si2 0.233886 0.372905 0.882080
Si Si3 0.826941 0.332944 0.779451
Si Si4 0.414325 0.263362 0.154134
Si Si5 0.767623 0.125031 0.415052
O O1 0.041230 0.500000 0.612701
O O2 0.915021 0.628392 0.767597
O O3 0.000000 0.678066 0.500000
O O4 0.060642 0.693508 0.727008
O O5 0.233683 0.500000 0.835106
O O6 0.313967 0.300825 0.773357
O O7 0.151496 0.309742 0.886699
O O8 0.235429 0.368625 0.048981
O O9 0.803421 0.380173 0.648644
O O10 0.355745 0.361765 0.263064
O O11 0.500000 0.288011 0.000000
O O12 0.750000 0.250000 0.500000
O O13 0.766785 0.000000 0.487114
#
# Coordination Sequence:
#
# PCOD9199600 Si02
#       5
#     8   8   8   8   8
#     4  11  22  37  59  89 129 172 214 266 325 388
#     4  10  20  36  60  90 125 161 207 266 322 378
#     4  10  21  37  59  90 121 161 213 261 316 378
#     4  11  23  39  64  99 129 166 215 274 329 390
#     4  11  25  45  68  94 132 178 223 267 326 397
#
# _framework density 22.012858000000001
#
# number of rings (size 3 to 8) (size 9 to 14) (size 15 to 20)
#    0.000    1.400    2.000    3.600    0.000    6.800 
#    0.000    1.000    0.000    2.400    0.000    0.000 
#    0.000    0.000    0.000    0.000    0.000    0.000 
#
# Total GULP energy -111444.286673 kJ/mol
# GULP energy per Si atom -5572.214334 kJ/mol
# Density = 2.196276 g / cm^3
# Si number density = 22.012858 Si / 1000 Ang^3
#
#
#
# Elastic Constant Matrix: (Units=GPa)
#
#
# Indices 1 2 3 4 5 6 
#
# 1 97.9121 36.7792 16.5827 0.0000 10.2647 0.0000
# 2 36.7792 150.8779 34.8734 0.0000 -7.9753 0.0000
# 3 16.5827 34.8734 102.0867 0.0000 13.2709 0.0000
# 4 0.0000 0.0000 0.0000 11.8358 0.0000 0.7050
# 5 10.2647 -7.9753 13.2709 0.0000 46.6749 0.0000
# 6 0.0000 0.0000 0.0000 0.7050 0.0000 9.0851
#
#
#
# Elastic Compliance Matrix: (Units=1/GPa)
#
#
# Indices 1 2 3 4 5 6 
#
# 1 0.011691 -0.002880 -0.000537 0.000000 -0.002910 0.000000
# 2 -0.002880 0.008090 -0.002656 0.000000 0.002771 0.000000
# 3 -0.000537 -0.002656 0.011250 0.000000 -0.003534 0.000000
# 4 0.000000 0.000000 0.000000 0.084882 0.000000 -0.006587
# 5 -0.002910 0.002771 -0.003534 0.000000 0.023543 0.000000
# 6 0.000000 0.000000 0.000000 -0.006587 0.000000 0.110582
#
#
# Mechanical properties :
#
#
# Convention : Reuss Voigt Hill
#
# Bulk Modulus (GPa) = 52.95108 58.59415 55.77262
# Shear Modulus (GPa) = 18.62346 31.02856 24.82601
#
# Velocity S-wave (km/s) = 2.91181 3.75849 3.36191
# Velocity P-wave (km/s) = 5.95077 6.74618 6.36092
#
# Compressibility (1/GPa) = 0.01888536
#
# Stress axis : x y z
#
# Youngs Moduli (GPa) = 85.53588 123.60599 88.89189
#
# Poissons Ratio (x) = 0.35594 0.04774
# Poissons Ratio (y) = 0.24631 0.23611
# Poissons Ratio (z) = 0.04593 0.32831
#
# Static dielectric constant tensor:
#      x y z
#    x 1.829530 0.000000 -0.081780 
#    y 0.000000 1.881410 0.000000 
#    z -0.081780 0.000000 1.910250 
# 
# From -- ./inp_files/71214.got.cif
#   From: 2010.05.17/outbox.cif.g08.bks.cpg/sg12_36_cif.got.tgz:71214.got - 2010.06.03 13:09:07.
