data_PCOD9199304
_publ_section_title
;
Structure prediction by ZEFSAII (Michael W. Deem and Ramdas Pophale) SiO2 
 PCOD9199304
Probable space group: C 2/M
;
_chemical_formula_sum "Si O2"
_cell_formula_units_Z 56
_cell_length_a 16.880140
_cell_length_b 12.492127
_cell_length_c 12.954350
_cell_angle_alpha 90.000000
_cell_angle_beta 125.834151
_cell_angle_gamma 90.000000
_cell_volume 2214.605004
_symmetry_space_group_name_H-M "C 2/M"
_symmetry_group_IT_number 12
_symmetry_cell_setting 'monoclinic'
loop_
_space_group_symop_operation_xyz
x,y,z
-x,y,-z
-x,-y,-z
x,-y,z
1/2+x,1/2+y,z
1/2-x,1/2+y,-z
1/2-x,1/2-y,-z
1/2+x,1/2-y,z
loop_
_atom_site_type_symbol
_atom_site_label
_atom_site_fract_x
_atom_site_fract_y
_atom_site_fract_z
Si Si1 0.929756 0.615719 0.043993
Si Si2 0.010637 0.121990 0.668152
Si Si3 0.934040 0.797863 0.810406
Si Si4 0.263440 0.627582 0.821541
Si Si5 0.358347 0.241567 0.446850
Si Si6 0.801586 0.378715 0.608478
Si Si7 0.214341 0.875973 0.924684
O O1 0.941037 0.500000 0.111633
O O2 0.963659 0.733346 0.105584
O O3 0.814660 0.622393 0.936136
O O4 0.000000 0.605257 0.000000
O O5 0.120753 0.152122 0.784940
O O6 0.948195 0.122183 0.726793
O O7 0.965146 0.220381 0.567416
O O8 0.010029 0.000000 0.625741
O O9 0.872234 0.849795 0.856076
O O10 0.868419 0.698810 0.725153
O O11 0.245722 0.500000 0.802556
O O12 0.182505 0.686039 0.687641
O O13 0.259331 0.664588 0.938606
O O14 0.304028 0.354816 0.425465
O O15 0.314518 0.162017 0.501517
O O16 0.829662 0.500000 0.638934
O O17 0.189471 0.000000 0.931325
#
# Coordination Sequence:
#
# PCOD9199304 Si02
#       7
#     8   8   8   8   8   8   8
#     4  10  22  42  65  94 133 177 228 279 335 413
#     4  10  20  36  59  96 142 182 227 278 337 404
#     4  10  21  33  56  95 131 176 226 271 340 398
#     4  10  20  37  62 101 143 175 223 283 343 405
#     4   9  18  30  55  94 126 177 235 272 337 391
#     4   9  16  29  49  79 123 170 226 283 321 382
#     4   9  21  40  64  97 139 179 214 279 355 405
#
# _framework density 25.286676
#
# number of rings (size 3 to 8) (size 9 to 14) (size 15 to 20)
#    0.000    2.429    0.000    2.571    2.000    0.571 
#    0.000    2.143    0.000    3.429   14.857   20.000 
#    0.000    0.000    0.000    0.000    0.000    0.000 
#
# Total GULP energy -156163.181253 kJ/mol
# GULP energy per Si atom -5577.256473 kJ/mol
# Density = 2.522912 g / cm^3
# Si number density = 25.286676 Si / 1000 Ang^3
#
#
#
# Elastic Constant Matrix: (Units=GPa)
#
#
# Indices 1 2 3 4 5 6 
#
# 1 116.0107 32.5659 66.9751 0.0000 -6.0780 0.0000
# 2 32.5659 141.3484 55.5787 0.0000 -7.5125 0.0000
# 3 66.9751 55.5787 166.8094 0.0000 27.2598 0.0000
# 4 0.0000 0.0000 0.0000 12.2379 0.0000 18.4245
# 5 -6.0780 -7.5125 27.2598 0.0000 42.5289 0.0000
# 6 0.0000 0.0000 0.0000 18.4245 0.0000 5.2085
#
#
#
# Elastic Compliance Matrix: (Units=1/GPa)
#
#
# Indices 1 2 3 4 5 6 
#
# 1 0.012279 -0.000301 -0.005706 0.000000 0.005359 0.000000
# 2 -0.000301 0.008658 -0.003359 0.000000 0.003639 0.000000
# 3 -0.005706 -0.003359 0.010762 0.000000 -0.008307 0.000000
# 4 0.000000 0.000000 0.000000 -0.018891 0.000000 0.066823
# 5 0.005359 0.003639 -0.008307 0.000000 0.030247 0.000000
# 6 0.000000 0.000000 0.000000 0.066823 0.000000 -0.044385
#
#
# Mechanical properties :
#
#
# Convention : Reuss Voigt Hill
#
# Bulk Modulus (GPa) = 77.10559 81.60087 79.35323
# Shear Modulus (GPa) = 230.16139 29.93167 130.04653
#
# Velocity S-wave (km/s) = 9.55083 3.44422 7.17917
# Velocity P-wave (km/s) = 12.33626 6.93954 10.00851
#
# Compressibility (1/GPa) = 0.01296923
#
# Stress axis : x y z
#
# Youngs Moduli (GPa) = 81.43937 115.49873 92.91627
#
# Poissons Ratio (x) = 0.03473 0.53015
# Poissons Ratio (y) = 0.02449 0.31208
# Poissons Ratio (z) = 0.46467 0.38793
#
# Static dielectric constant tensor:
#      x y z
#    x 2.076430 0.000000 0.040710 
#    y 0.000000 2.079700 0.000000 
#    z 0.040710 0.000000 2.148170 
# 
# From -- ./inp_files/277077.got.cif
#   From: 2010.05.17/outbox.cif.g08.bks.cpg/sg12_139_cif.got.tgz:277077.got - 2010.06.03 13:09:07.
