data_PCOD9199430
_publ_section_title
;
Structure prediction by ZEFSAII (Michael W. Deem and Ramdas Pophale) SiO2 
 PCOD9199430
Probable space group: C 2/M
;
_chemical_formula_sum "Si O2"
_cell_formula_units_Z 64
_cell_length_a 20.183881
_cell_length_b 8.711157
_cell_length_c 32.201482
_cell_angle_alpha 90.000000
_cell_angle_beta 143.764911
_cell_angle_gamma 90.000000
_cell_volume 3346.702872
_symmetry_space_group_name_H-M "C 2/M"
_symmetry_group_IT_number 12
_symmetry_cell_setting 'monoclinic'
loop_
_space_group_symop_operation_xyz
x,y,z
-x,y,-z
-x,-y,-z
x,-y,z
1/2+x,1/2+y,z
1/2-x,1/2+y,-z
1/2-x,1/2-y,-z
1/2+x,1/2-y,z
loop_
_atom_site_type_symbol
_atom_site_label
_atom_site_fract_x
_atom_site_fract_y
_atom_site_fract_z
Si Si1 0.013178 0.683532 0.729897
Si Si2 0.484820 0.185249 0.124868
Si Si3 0.073683 0.315771 0.667783
Si Si4 0.344168 0.317876 0.516779
Si Si5 0.768830 0.817363 0.618950
Si Si6 0.817644 0.315225 0.110136
Si Si7 0.929415 0.685444 0.004499
Si Si8 0.286916 0.314797 0.723012
O O1 0.990290 0.500000 0.720196
O O2 0.895959 0.771300 0.672068
O O3 0.072164 0.717035 0.715987
O O4 0.092927 0.723114 0.808615
O O5 0.375046 0.233512 0.095697
O O6 0.480341 0.235790 0.074677
O O7 0.594982 0.245655 0.203529
O O8 0.487238 0.000000 0.126992
O O9 0.064170 0.500000 0.657948
O O10 0.188149 0.265803 0.703927
O O11 0.964987 0.241374 0.592104
O O12 0.339342 0.500000 0.516981
O O13 0.250000 0.250000 0.500000
O O14 0.312976 0.263457 0.454823
O O15 0.754474 0.771362 0.659656
O O16 0.754607 0.000000 0.608109
O O17 0.804434 0.500000 0.102944
O O18 0.698595 0.241188 0.059793
O O19 0.930186 0.500000 0.004303
O O20 0.000000 0.738844 0.000000
O O21 0.296491 0.500000 0.729014
#
# Coordination Sequence:
#
# PCOD9199430 Si02
#       8
#     8   8   8   8   8   8   8   8
#     4  10  20  36  60  87 117 153 198 249 296 349
#     4  10  21  39  61  84 117 157 199 245 294 352
#     4  10  22  40  60  86 121 158 196 243 300 355
#     4  12  24  39  61  89 119 156 201 247 297 353
#     4  11  22  38  61  89 120 155 198 243 294 354
#     4  10  21  37  60  89 115 153 201 243 291 347
#     4  10  23  40  57  85 122 158 194 240 298 353
#     4  10  23  40  61  90 121 156 197 244 297 353
#
# _framework density 19.123298999999999
#
# number of rings (size 3 to 8) (size 9 to 14) (size 15 to 20)
#    0.000    1.625    2.500    1.875    1.750    3.250 
#    0.000    2.500    0.000    0.000    0.000    0.000 
#    0.000    0.000    0.000    0.000    0.000    0.000 
#
# Total GULP energy -178806.709982 kJ/mol
# GULP energy per Si atom -5587.709687 kJ/mol
# Density = 1.907977 g / cm^3
# Si number density = 19.123299 Si / 1000 Ang^3
#
#
#
# Elastic Constant Matrix: (Units=GPa)
#
#
# Indices 1 2 3 4 5 6 
#
# 1 153.0961 30.9200 44.5175 0.0000 -9.1075 0.0000
# 2 30.9200 16.0279 16.4508 0.0001 -5.9834 -0.0001
# 3 44.5175 16.4508 83.2693 0.0000 -14.0156 0.0000
# 4 0.0000 0.0001 0.0000 31.5376 0.0000 8.2217
# 5 -9.1075 -5.9834 -14.0156 0.0000 35.2312 0.0000
# 6 0.0000 -0.0001 0.0000 8.2217 0.0000 19.5908
#
#
#
# Elastic Compliance Matrix: (Units=1/GPa)
#
#
# Indices 1 2 3 4 5 6 
#
# 1 0.011050 -0.019475 -0.002289 0.000000 -0.001362 0.000000
# 2 -0.019475 0.114560 -0.010496 -0.000001 0.010246 0.000001
# 3 -0.002289 -0.010496 0.015977 0.000000 0.003982 0.000000
# 4 0.000000 -0.000001 0.000000 0.035603 0.000000 -0.014942
# 5 -0.001362 0.010246 0.003982 0.000000 0.031356 0.000000
# 6 0.000000 0.000001 0.000000 -0.014942 0.000000 0.057315
#
#
# Mechanical properties :
#
#
# Convention : Reuss Voigt Hill
#
# Bulk Modulus (GPa) = 12.97604 48.46333 30.71968
# Shear Modulus (GPa) = 14.04219 27.97227 21.00723
#
# Velocity S-wave (km/s) = 2.71273 3.82872 3.31798
# Velocity P-wave (km/s) = 4.07579 6.70395 5.54775
#
# Compressibility (1/GPa) = 0.07706512
#
# Stress axis : x y z
#
# Youngs Moduli (GPa) = 90.49948 8.72908 62.59080
#
# Poissons Ratio (x) = 0.17000 0.14327
# Poissons Ratio (y) = 1.76251 0.65696
# Poissons Ratio (z) = 0.20716 0.09162
#
# Static dielectric constant tensor:
#      x y z
#    x 1.672580 0.000000 -0.027380 
#    y 0.000000 1.651450 0.000000 
#    z -0.027380 0.000000 1.629400 
# 
# From -- ./inp_files/378373.got.cif
#   From: 2010.05.17/outbox.cif.g08.bks.cpg/sg12_190_cif.got.tgz:378373.got - 2010.06.03 13:09:07.
