data_PCOD9199892
_publ_section_title
;
Structure prediction by ZEFSAII (Michael W. Deem and Ramdas Pophale) SiO2 
 PCOD9199892
Probable space group: C 2/M
;
_chemical_formula_sum "Si O2"
_cell_formula_units_Z 60
_cell_length_a 9.598529
_cell_length_b 14.028952
_cell_length_c 24.388303
_cell_angle_alpha 90.000000
_cell_angle_beta 110.136325
_cell_angle_gamma 90.000000
_cell_volume 3083.328636
_symmetry_space_group_name_H-M "C 2/M"
_symmetry_group_IT_number 12
_symmetry_cell_setting 'monoclinic'
loop_
_space_group_symop_operation_xyz
x,y,z
-x,y,-z
-x,-y,-z
x,-y,z
1/2+x,1/2+y,z
1/2-x,1/2+y,-z
1/2-x,1/2-y,-z
1/2+x,1/2-y,z
loop_
_atom_site_type_symbol
_atom_site_label
_atom_site_fract_x
_atom_site_fract_y
_atom_site_fract_z
Si Si1 0.500000 0.239441 0.000000
Si Si2 0.969458 0.710424 0.736744
Si Si3 0.816110 0.798432 0.077590
Si Si4 0.848197 0.758940 0.343825
Si Si5 0.361571 0.889519 0.443272
Si Si6 0.538418 0.391447 0.187368
Si Si7 0.040900 0.110669 0.445247
Si Si8 0.331325 0.890095 0.151041
O O1 0.642066 0.182654 0.043256
O O2 0.417988 0.299395 0.036796
O O3 0.085803 0.718244 0.703341
O O4 0.956587 0.813420 0.764366
O O5 0.031826 0.638006 0.790677
O O6 0.808289 0.691382 0.689984
O O7 0.892806 0.866936 0.131889
O O8 0.825497 0.690309 0.103177
O O9 0.836665 0.675324 0.386998
O O10 0.960636 0.832759 0.386488
O O11 0.500000 0.862764 0.500000
O O12 0.215680 0.882373 0.460436
O O13 0.381424 0.000000 0.429253
O O14 0.536569 0.500000 0.207012
O O15 0.681493 0.379753 0.167137
O O16 0.000000 0.146366 0.500000
O O17 0.996587 0.000000 0.436266
O O18 0.340856 0.000000 0.133792
#
# Coordination Sequence:
#
# PCOD9199892 Si02
#       8
#     4   8   8   8   8   8   8   8
#     4  10  20  36  62  88 134 154 192 244 302 324
#     4  11  24  39  60  90 117 150 197 250 295 342
#     4  10  20  39  60  93 120 165 191 246 287 350
#     4  12  23  39  61  87 117 152 194 244 296 351
#     4  10  23  41  61  85 116 156 194 233 292 363
#     4  10  21  40  64  85 117 163 201 235 292 358
#     4  10  23  41  60  85 119 154 190 238 296 355
#     4  10  21  40  63  86 118 160 202 239 289 354
#
# _framework density 19.459491
#
# number of rings (size 3 to 8) (size 9 to 14) (size 15 to 20)
#    0.000    1.600    4.000    0.400    1.867    3.200 
#    0.000    6.000    0.000    0.000    0.000    0.000 
#    0.000    0.000    0.000    0.000    0.000    0.000 
#
# Total GULP energy -167498.870330 kJ/mol
# GULP energy per Si atom -5583.295678 kJ/mol
# Density = 1.941520 g / cm^3
# Si number density = 19.459491 Si / 1000 Ang^3
#
#
#
# Elastic Constant Matrix: (Units=GPa)
#
#
# Indices 1 2 3 4 5 6 
#
# 1 76.0831 11.3174 22.9276 0.0000 17.1018 0.0000
# 2 11.3174 76.6480 13.2562 0.0000 -0.9822 0.0000
# 3 22.9276 13.2562 72.9388 0.0000 15.8163 0.0000
# 4 0.0000 0.0000 0.0000 10.3132 0.0000 -3.1258
# 5 17.1018 -0.9822 15.8163 0.0000 49.9573 0.0000
# 6 0.0000 0.0000 0.0000 -3.1258 0.0000 19.3886
#
#
#
# Elastic Compliance Matrix: (Units=1/GPa)
#
#
# Indices 1 2 3 4 5 6 
#
# 1 0.015429 -0.001702 -0.003638 0.000000 -0.004164 0.000000
# 2 -0.001702 0.013716 -0.002300 0.000000 0.001581 0.000000
# 3 -0.003638 -0.002300 0.016118 0.000000 -0.003903 0.000000
# 4 0.000000 0.000000 0.000000 0.101944 0.000000 0.016435
# 5 -0.004164 0.001581 -0.003903 0.000000 0.022709 0.000000
# 6 0.000000 0.000000 0.000000 0.016435 0.000000 0.054226
#
#
# Mechanical properties :
#
#
# Convention : Reuss Voigt Hill
#
# Bulk Modulus (GPa) = 33.35341 35.63025 34.49183
# Shear Modulus (GPa) = 20.04670 27.80972 23.92821
#
# Velocity S-wave (km/s) = 3.21312 3.78446 3.51043
# Velocity P-wave (km/s) = 5.56261 6.11930 5.84758
#
# Compressibility (1/GPa) = 0.02998194
#
# Stress axis : x y z
#
# Youngs Moduli (GPa) = 64.81369 72.90680 62.04244
#
# Poissons Ratio (x) = 0.12411 0.22569
# Poissons Ratio (y) = 0.11034 0.14273
# Poissons Ratio (z) = 0.23577 0.16772
#
# Static dielectric constant tensor:
#      x y z
#    x 1.678940 0.000000 0.016770 
#    y 0.000000 1.662870 0.000000 
#    z 0.016770 0.000000 1.722360 
# 
# From -- ./inp_files/332995.got.cif
#   From: 2010.05.17/outbox.cif.g08.bks.cpg/sg12_167_cif.got.tgz:332995.got - 2010.06.03 13:09:07.
