data_PCOD9199705
_publ_section_title
;
Structure prediction by ZEFSAII (Michael W. Deem and Ramdas Pophale) SiO2 
 PCOD9199705
Probable space group: C 2/M
;
_chemical_formula_sum "Si O2"
_cell_formula_units_Z 56
_cell_length_a 18.898291
_cell_length_b 8.908914
_cell_length_c 18.347313
_cell_angle_alpha 90.000000
_cell_angle_beta 110.640585
_cell_angle_gamma 90.000000
_cell_volume 2890.729710
_symmetry_space_group_name_H-M "C 2/M"
_symmetry_group_IT_number 12
_symmetry_cell_setting 'monoclinic'
loop_
_space_group_symop_operation_xyz
x,y,z
-x,y,-z
-x,-y,-z
x,-y,z
1/2+x,1/2+y,z
1/2-x,1/2+y,-z
1/2-x,1/2-y,-z
1/2+x,1/2-y,z
loop_
_atom_site_type_symbol
_atom_site_label
_atom_site_fract_x
_atom_site_fract_y
_atom_site_fract_z
Si Si1 0.216032 0.182361 0.126923
Si Si2 0.427926 0.669938 0.525352
Si Si3 0.073132 0.818490 0.978182
Si Si4 0.112266 0.681145 0.839390
Si Si5 0.220475 0.321681 0.563832
Si Si6 0.526587 0.179292 0.305818
Si Si7 0.660221 0.680908 0.266902
O O1 0.301041 0.233543 0.139433
O O2 0.188908 0.226666 0.197700
O O3 0.218198 0.000000 0.127183
O O4 0.150872 0.227921 0.046768
O O5 0.500000 0.665051 0.500000
O O6 0.401548 0.500000 0.531327
O O7 0.363349 0.758784 0.459296
O O8 0.448946 0.746818 0.609316
O O9 0.075986 0.749668 0.898963
O O10 0.071810 0.000000 0.972411
O O11 0.000000 0.774831 0.000000
O O12 0.112877 0.500000 0.846164
O O13 0.058068 0.718220 0.751431
O O14 0.218722 0.500000 0.556453
O O15 0.250000 0.250000 0.500000
O O16 0.275550 0.283295 0.650219
O O17 0.584315 0.238848 0.265507
O O18 0.532511 0.000000 0.314326
O O19 0.648431 0.500000 0.262542
#
# Coordination Sequence:
#
# PCOD9199705 Si02
#       7
#     8   8   8   8   8   8   8
#     4   9  19  37  59  85 116 151 192 236 285 347
#     4  11  25  42  60  84 118 158 200 249 302 352
#     4  10  20  36  61  88 114 151 193 233 283 345
#     4  10  22  38  58  85 118 152 189 237 290 344
#     4  11  22  37  62  90 118 156 199 246 298 353
#     4  11  23  38  59  85 115 153 196 244 296 353
#     4  10  21  38  62  85 114 154 195 240 291 350
#
# _framework density 19.372271000000001
#
# number of rings (size 3 to 8) (size 9 to 14) (size 15 to 20)
#    0.000    1.714    1.429    2.571    2.000    4.286 
#    0.000    1.429    0.000    0.000    0.000    0.000 
#    0.000    0.000    0.000    0.000    0.000    0.000 
#
# Total GULP energy -156427.981216 kJ/mol
# GULP energy per Si atom -5586.713615 kJ/mol
# Density = 1.932818 g / cm^3
# Si number density = 19.372271 Si / 1000 Ang^3
#
#
#
# Elastic Constant Matrix: (Units=GPa)
#
#
# Indices 1 2 3 4 5 6 
#
# 1 99.2153 18.0172 12.7716 0.0000 14.5335 0.0000
# 2 18.0172 22.0125 24.9022 0.0000 9.4100 0.0000
# 3 12.7716 24.9022 74.2802 0.0000 11.8821 0.0000
# 4 0.0000 0.0000 0.0000 7.8463 0.0000 8.8333
# 5 14.5335 9.4100 11.8821 0.0000 38.7100 0.0000
# 6 0.0000 0.0000 0.0000 8.8333 0.0000 18.9455
#
#
#
# Elastic Compliance Matrix: (Units=1/GPa)
#
#
# Indices 1 2 3 4 5 6 
#
# 1 0.012227 -0.011305 0.002085 0.000000 -0.002482 0.000000
# 2 -0.011305 0.088188 -0.026155 0.000000 -0.009165 0.000000
# 3 0.002085 -0.026155 0.022064 0.000000 -0.001197 0.000000
# 4 0.000000 0.000000 0.000000 0.268254 0.000000 -0.125074
# 5 -0.002482 -0.009165 -0.001197 0.000000 0.029361 0.000000
# 6 0.000000 0.000000 0.000000 -0.125074 0.000000 0.111099
#
#
# Mechanical properties :
#
#
# Convention : Reuss Voigt Hill
#
# Bulk Modulus (GPa) = 19.33165 34.09887 26.71526
# Shear Modulus (GPa) = 8.07510 22.42150 15.24830
#
# Velocity S-wave (km/s) = 2.04388 3.40575 2.80861
# Velocity P-wave (km/s) = 3.94596 5.75375 4.93337
#
# Compressibility (1/GPa) = 0.05172865
#
# Stress axis : x y z
#
# Youngs Moduli (GPa) = 81.78369 11.33937 45.32281
#
# Poissons Ratio (x) = 0.12820 -0.09449
# Poissons Ratio (y) = 0.92460 1.18541
# Poissons Ratio (z) = -0.17051 0.29658
#
# Static dielectric constant tensor:
#      x y z
#    x 1.667680 0.000000 0.015020 
#    y 0.000000 1.661300 0.000000 
#    z 0.015020 0.000000 1.649020 
# 
# From -- ./inp_files/275693.got.cif
#   From: 2010.05.17/outbox.cif.g08.bks.cpg/sg12_138_cif.got.tgz:275693.got - 2010.06.03 13:09:07.
