data_PCOD9199919
_publ_section_title
;
Structure prediction by ZEFSAII (Michael W. Deem and Ramdas Pophale) SiO2 
 PCOD9199919
Probable space group: C 2/M
;
_chemical_formula_sum "Si O2"
_cell_formula_units_Z 64
_cell_length_a 18.507047
_cell_length_b 11.032819
_cell_length_c 32.500568
_cell_angle_alpha 90.000000
_cell_angle_beta 28.366547
_cell_angle_gamma 90.000000
_cell_volume 3152.892984
_symmetry_space_group_name_H-M "C 2/M"
_symmetry_group_IT_number 12
_symmetry_cell_setting 'monoclinic'
loop_
_space_group_symop_operation_xyz
x,y,z
-x,y,-z
-x,-y,-z
x,-y,z
1/2+x,1/2+y,z
1/2-x,1/2+y,-z
1/2-x,1/2-y,-z
1/2+x,1/2-y,z
loop_
_atom_site_type_symbol
_atom_site_label
_atom_site_fract_x
_atom_site_fract_y
_atom_site_fract_z
Si Si1 0.890400 0.854185 0.591505
Si Si2 0.523252 0.638762 0.835261
Si Si3 0.846988 0.751446 0.700349
Si Si4 0.107651 0.639613 0.684667
Si Si5 0.177345 0.634396 0.860234
Si Si6 0.452803 0.637093 0.962645
Si Si7 0.659269 0.862224 0.565228
Si Si8 0.827712 0.760137 0.858179
O O1 0.916592 0.815629 0.625036
O O2 0.723758 0.812151 0.660473
O O3 0.000000 0.809916 0.500000
O O4 0.894136 0.000000 0.588338
O O5 0.548073 0.500000 0.810646
O O6 0.688074 0.693094 0.764657
O O7 0.430685 0.642199 0.924557
O O8 0.424170 0.699752 0.849379
O O9 0.797976 0.837803 0.762944
O O10 0.978625 0.659257 0.648533
O O11 0.079360 0.500000 0.708686
O O12 0.183687 0.645014 0.602002
O O13 0.948401 0.704494 0.766205
O O14 0.110473 0.500000 0.886226
O O15 0.247354 0.638053 0.870908
O O16 0.064740 0.750383 0.916006
O O17 0.510403 0.500000 0.943020
O O18 0.298068 0.664667 0.064004
O O19 0.750000 0.750000 0.500000
O O20 0.700485 0.000000 0.531033
#
# Coordination Sequence:
#
# PCOD9199919 Si02
#       8
#     8   8   8   8   8   8   8   8
#     4  10  20  36  62  90 122 161 209 263 314 367
#     4  10  22  40  62  90 125 166 209 260 317 376
#     4  11  21  41  65  90 128 166 214 258 315 382
#     4  10  21  38  61  93 124 163 214 261 313 371
#     4  11  25  41  64  96 130 170 212 260 320 381
#     4  10  24  43  66  95 125 167 218 264 313 373
#     4  11  24  43  68  96 129 169 212 267 321 380
#     4  12  21  40  63  91 128 170 210 261 315 384
#
# _framework density 20.298817
#
# number of rings (size 3 to 8) (size 9 to 14) (size 15 to 20)
#    0.000    1.375    2.500    3.000    0.000    5.500 
#    0.000    1.875    0.000    1.500    0.000    0.000 
#    0.000    0.000    0.000    0.000    0.000    0.000 
#
# Total GULP energy -178458.198538 kJ/mol
# GULP energy per Si atom -5576.818704 kJ/mol
# Density = 2.025262 g / cm^3
# Si number density = 20.298817 Si / 1000 Ang^3
#
#
#
# Elastic Constant Matrix: (Units=GPa)
#
#
# Indices 1 2 3 4 5 6 
#
# 1 97.3108 30.4870 8.3773 0.0001 5.4351 0.0003
# 2 30.4870 119.8880 39.4389 0.0001 -5.3956 0.0001
# 3 8.3773 39.4389 71.0603 0.0005 9.8930 -0.0001
# 4 0.0001 0.0001 0.0005 17.9869 -0.0002 -3.1308
# 5 5.4351 -5.3956 9.8930 -0.0002 22.5357 0.0001
# 6 0.0003 0.0001 -0.0001 -3.1308 0.0001 22.6078
#
#
#
# Elastic Compliance Matrix: (Units=1/GPa)
#
#
# Indices 1 2 3 4 5 6 
#
# 1 0.011500 -0.003489 0.001154 0.000000 -0.004115 0.000000
# 2 -0.003489 0.011881 -0.007132 0.000000 0.006817 0.000000
# 3 0.001154 -0.007132 0.019354 -0.000001 -0.010482 0.000000
# 4 0.000000 0.000000 -0.000001 0.056969 0.000001 0.007889
# 5 -0.004115 0.006817 -0.010482 0.000001 0.051600 0.000000
# 6 0.000000 0.000000 0.000000 0.007889 0.000000 0.045325
#
#
# Mechanical properties :
#
#
# Convention : Reuss Voigt Hill
#
# Bulk Modulus (GPa) = 42.01554 49.42949 45.72252
# Shear Modulus (GPa) = 22.37154 26.62315 24.49734
#
# Velocity S-wave (km/s) = 3.32341 3.62548 3.47772
# Velocity P-wave (km/s) = 5.95568 6.47528 6.22091
#
# Compressibility (1/GPa) = 0.02380071
#
# Stress axis : x y z
#
# Youngs Moduli (GPa) = 86.95645 84.16558 51.66854
#
# Poissons Ratio (x) = 0.29366 -0.05961
# Poissons Ratio (y) = 0.30340 0.36850
# Poissons Ratio (z) = -0.10032 0.60026
#
# Static dielectric constant tensor:
#      x y z
#    x 1.737880 0.000000 -0.021170 
#    y 0.000000 1.703530 0.000000 
#    z -0.021170 0.000000 1.744080 
# 
# From -- ./inp_files/379081.got.cif
#   From: 2010.05.17/outbox.cif.g08.bks.cpg/sg12_190_cif.got.tgz:379081.got - 2010.06.03 13:09:07.
