data_PCOD9199989
_publ_section_title
;
Structure prediction by ZEFSAII (Michael W. Deem and Ramdas Pophale) SiO2 
 PCOD9199989
Probable space group: C 2/M
;
_chemical_formula_sum "Si O2"
_cell_formula_units_Z 64
_cell_length_a 11.449271
_cell_length_b 29.587446
_cell_length_c 9.161144
_cell_angle_alpha 90.000000
_cell_angle_beta 95.199624
_cell_angle_gamma 90.000000
_cell_volume 3090.610041
_symmetry_space_group_name_H-M "C 2/M"
_symmetry_group_IT_number 12
_symmetry_cell_setting 'monoclinic'
loop_
_space_group_symop_operation_xyz
x,y,z
-x,y,-z
-x,-y,-z
x,-y,z
1/2+x,1/2+y,z
1/2-x,1/2+y,-z
1/2-x,1/2-y,-z
1/2+x,1/2-y,z
loop_
_atom_site_type_symbol
_atom_site_label
_atom_site_fract_x
_atom_site_fract_y
_atom_site_fract_z
Si Si1 0.023608 0.052326 0.677968
Si Si2 0.864349 0.552357 0.525268
Si Si3 0.617368 0.760895 0.923409
Si Si4 0.684722 0.321207 0.439248
Si Si5 0.296757 0.404280 0.743818
Si Si6 0.903002 0.737568 0.404271
Si Si7 0.369326 0.866031 0.025240
Si Si8 0.741745 0.616008 0.719949
O O1 0.125754 0.086533 0.734312
O O2 0.000000 0.059905 0.500000
O O3 0.907542 0.062364 0.759938
O O4 0.057931 0.000000 0.696905
O O5 0.829623 0.500000 0.537793
O O6 0.787839 0.575084 0.389578
O O7 0.835988 0.580797 0.665550
O O8 0.000000 0.554518 0.500000
O O9 0.592855 0.743066 0.757517
O O10 0.500000 0.746686 0.000000
O O11 0.750000 0.750000 0.000000
O O12 0.611130 0.815482 0.912930
O O13 0.646871 0.358053 0.316644
O O14 0.795880 0.296525 0.385420
O O15 0.611755 0.277987 0.480779
O O16 0.714055 0.347971 0.590696
O O17 0.213524 0.393646 0.871844
O O18 0.000000 0.708515 0.500000
O O19 0.295416 0.861780 0.868400
O O20 0.500000 0.884489 0.000000
#
# Coordination Sequence:
#
# PCOD9199989 Si02
#       8
#     8   8   8   8   8   8   8   8
#     4  11  22  41  70 101 132 167 212 279 344 405
#     4  10  20  36  62  94 125 163 216 269 324 391
#     4  11  26  47  66  95 137 188 227 286 360 416
#     4  10  23  39  61  95 126 165 231 273 337 376
#     4  11  22  41  66  94 129 173 218 269 338 402
#     4  11  25  39  66  93 132 173 231 290 330 398
#     4  11  25  44  65  91 135 175 230 270 339 411
#     4  11  23  40  66  94 129 172 221 269 335 403
#
# _framework density 20.707885999999998
#
# number of rings (size 3 to 8) (size 9 to 14) (size 15 to 20)
#    0.000    1.250    3.750    2.250    8.750    2.500 
#    2.250    3.125    0.000    4.500    0.000    0.000 
#    0.000    0.000    0.000    0.000    0.000    0.000 
#
# Total GULP energy -178440.971237 kJ/mol
# GULP energy per Si atom -5576.280351 kJ/mol
# Density = 2.066075 g / cm^3
# Si number density = 20.707886 Si / 1000 Ang^3
#
#
#
# Elastic Constant Matrix: (Units=GPa)
#
#
# Indices 1 2 3 4 5 6 
#
# 1 89.2579 1.3778 30.7358 0.0000 -14.7394 0.0000
# 2 1.3778 36.5503 -18.9172 0.0000 -13.2033 0.0000
# 3 30.7358 -18.9172 63.6600 0.0000 -12.0582 0.0000
# 4 0.0000 0.0000 0.0000 26.7873 0.0000 -20.3504
# 5 -14.7394 -13.2033 -12.0582 0.0000 28.2818 0.0000
# 6 0.0000 0.0000 0.0000 -20.3504 0.0000 70.4753
#
#
#
# Elastic Compliance Matrix: (Units=1/GPa)
#
#
# Indices 1 2 3 4 5 6 
#
# 1 0.014238 -0.003369 -0.007362 0.000000 0.002709 0.000000
# 2 -0.003369 0.050573 0.022621 0.000000 0.031499 0.000000
# 3 -0.007362 0.022621 0.029654 0.000000 0.019367 0.000000
# 4 0.000000 0.000000 0.000000 0.047822 0.000000 0.013809
# 5 0.002709 0.031499 0.019367 0.000000 0.059733 0.000000
# 6 0.000000 0.000000 0.000000 0.013809 0.000000 0.018177
#
#
# Mechanical properties :
#
#
# Convention : Reuss Voigt Hill
#
# Bulk Modulus (GPa) = 8.45701 23.98454 16.22077
# Shear Modulus (GPa) = 21.20171 36.86036 29.03103
#
# Velocity S-wave (km/s) = 3.20323 4.22360 3.74830
# Velocity P-wave (km/s) = 4.21589 5.94916 5.15588
#
# Compressibility (1/GPa) = 0.11824512
#
# Stress axis : x y z
#
# Youngs Moduli (GPa) = 70.23488 19.77337 33.72281
#
# Poissons Ratio (x) = 0.06661 0.24827
# Poissons Ratio (y) = 0.23660 -0.76285
# Poissons Ratio (z) = 0.51708 -0.44730
#
# Static dielectric constant tensor:
#      x y z
#    x 1.820990 0.000000 -0.053130 
#    y 0.000000 1.725240 0.000000 
#    z -0.053130 0.000000 1.614740 
# 
# From -- ./inp_files/54708.got.cif
#   From: 2010.05.17/outbox.cif.g08.bks.cpg/sg12_28_cif.got.tgz:54708.got - 2010.06.03 13:09:07.
