data_PCOD9199831
_publ_section_title
;
Structure prediction by ZEFSAII (Michael W. Deem and Ramdas Pophale) SiO2 
 PCOD9199831
Probable space group: C 2/M
;
_chemical_formula_sum "Si O2"
_cell_formula_units_Z 56
_cell_length_a 22.231619
_cell_length_b 11.246440
_cell_length_c 11.489793
_cell_angle_alpha 90.000000
_cell_angle_beta 71.480619
_cell_angle_gamma 90.000000
_cell_volume 2723.991628
_symmetry_space_group_name_H-M "C 2/M"
_symmetry_group_IT_number 12
_symmetry_cell_setting 'monoclinic'
loop_
_space_group_symop_operation_xyz
x,y,z
-x,y,-z
-x,-y,-z
x,-y,z
1/2+x,1/2+y,z
1/2-x,1/2+y,-z
1/2-x,1/2-y,-z
1/2+x,1/2-y,z
loop_
_atom_site_type_symbol
_atom_site_label
_atom_site_fract_x
_atom_site_fract_y
_atom_site_fract_z
Si Si1 0.969568 0.132532 0.339625
Si Si2 0.778384 0.371544 0.410266
Si Si3 0.649954 0.719792 0.470116
Si Si4 0.689472 0.867331 0.083876
Si Si5 0.934709 0.863900 0.091728
Si Si6 0.880012 0.142380 0.769056
Si Si7 0.298299 0.746986 0.153863
O O1 0.921833 0.212111 0.441904
O O2 0.944076 0.133011 0.224066
O O3 0.044039 0.156789 0.287662
O O4 0.961818 0.000000 0.394447
O O5 0.795687 0.500000 0.355135
O O6 0.704264 0.365785 0.491406
O O7 0.820950 0.340770 0.496104
O O8 0.786498 0.285285 0.294106
O O9 0.648633 0.679218 0.337976
O O10 0.646707 0.749236 0.134090
O O11 0.749024 0.850400 0.134612
O O12 0.661982 0.000000 0.117561
O O13 0.710466 0.851854 0.936291
O O14 0.870435 0.797044 0.104165
O O15 0.929749 0.000000 0.049845
O O16 0.000000 0.812394 0.000000
O O17 0.867869 0.000000 0.802304
#
# Coordination Sequence:
#
# PCOD9199831 Si02
#       7
#     8   8   8   8   8   8   8
#     4  10  20  36  62  92 124 161 214 266 311 364
#     4  11  23  40  63  93 126 167 211 262 317 377
#     4  11  22  39  61  94 124 167 208 265 307 375
#     4  11  25  41  65  98 130 166 211 262 322 385
#     4  10  20  36  61  93 124 156 205 267 316 361
#     4  11  23  41  66  95 130 170 213 264 318 375
#     4  11  22  42  65  90 125 171 208 260 314 387
#
# _framework density 20.558067000000001
#
# number of rings (size 3 to 8) (size 9 to 14) (size 15 to 20)
#    0.000    1.286    2.857    3.429    0.000    5.714 
#    0.000    0.714    0.000    3.429    0.000    0.000 
#    0.000    0.000    0.000    0.000    0.000    0.000 
#
# Total GULP energy -156006.337851 kJ/mol
# GULP energy per Si atom -5571.654923 kJ/mol
# Density = 2.051128 g / cm^3
# Si number density = 20.558067 Si / 1000 Ang^3
#
#
#
# Elastic Constant Matrix: (Units=GPa)
#
#
# Indices 1 2 3 4 5 6 
#
# 1 117.6899 37.4961 9.7655 0.0000 2.7742 0.0000
# 2 37.4961 91.7047 42.8220 0.0000 0.5437 0.0000
# 3 9.7655 42.8220 73.0481 0.0000 9.9451 0.0000
# 4 0.0000 0.0000 0.0000 11.9505 0.0000 1.3380
# 5 2.7742 0.5437 9.9451 0.0000 35.6022 0.0000
# 6 0.0000 0.0000 0.0000 1.3380 0.0000 -3.4141
#
#
#
# Elastic Compliance Matrix: (Units=1/GPa)
#
#
# Indices 1 2 3 4 5 6 
#
# 1 0.009924 -0.004827 0.001661 0.000000 -0.001164 0.000000
# 2 -0.004827 0.017548 -0.010038 0.000000 0.002912 0.000000
# 3 0.001661 -0.010038 0.020114 0.000000 -0.005595 0.000000
# 4 0.000000 0.000000 0.000000 0.080161 0.000000 0.031415
# 5 -0.001164 0.002912 -0.005595 0.000000 0.029697 0.000000
# 6 0.000000 0.000000 0.000000 0.031415 0.000000 -0.280587
#
#
# Mechanical properties :
#
#
# Convention : Reuss Voigt Hill
#
# Bulk Modulus (GPa) = 47.21701 51.40107 49.30904
# Shear Modulus (GPa) = -55.75641 21.65165 -17.05238
#
# Velocity S-wave (km/s) = -5.21347 3.24882 -2.88318
# Velocity P-wave (km/s) = 3.63633 6.25542 3.59912
#
# Compressibility (1/GPa) = 0.02117881
#
# Stress axis : x y z
#
# Youngs Moduli (GPa) = 100.76323 56.98584 49.71701
#
# Poissons Ratio (x) = 0.27505 -0.08259
# Poissons Ratio (y) = 0.48634 0.49907
# Poissons Ratio (z) = -0.16738 0.57204
#
# Static dielectric constant tensor:
#      x y z
#    x 1.750140 0.000000 -0.022180 
#    y 0.000000 1.769240 0.000000 
#    z -0.022180 0.000000 1.801680 
# 
# From -- ./inp_files/164856.got.cif
#   From: 2010.05.17/outbox.cif.g08.bks.cpg/sg12_83_cif.got.tgz:164856.got - 2010.06.03 13:09:07.
