data_PCOD9199374
_publ_section_title
;
Structure prediction by ZEFSAII (Michael W. Deem and Ramdas Pophale) SiO2 
 PCOD9199374
Probable space group: C 2/M
;
_chemical_formula_sum "Si O2"
_cell_formula_units_Z 64
_cell_length_a 20.395940
_cell_length_b 7.680441
_cell_length_c 32.174067
_cell_angle_alpha 90.000000
_cell_angle_beta 144.595087
_cell_angle_gamma 90.000000
_cell_volume 2919.965063
_symmetry_space_group_name_H-M "C 2/M"
_symmetry_group_IT_number 12
_symmetry_cell_setting 'monoclinic'
loop_
_space_group_symop_operation_xyz
x,y,z
-x,y,-z
-x,-y,-z
x,-y,z
1/2+x,1/2+y,z
1/2-x,1/2+y,-z
1/2-x,1/2-y,-z
1/2+x,1/2-y,z
loop_
_atom_site_type_symbol
_atom_site_label
_atom_site_fract_x
_atom_site_fract_y
_atom_site_fract_z
Si Si1 0.686187 0.790829 0.509668
Si Si2 0.021484 0.788678 0.211169
Si Si3 0.486707 0.795737 0.886978
Si Si4 0.655709 0.700768 0.813873
Si Si5 0.241830 0.712973 0.628980
Si Si6 0.064804 0.705414 0.601933
Si Si7 0.772404 0.211968 0.237976
Si Si8 0.607254 0.298994 0.029535
O O1 0.750000 0.750000 0.500000
O O2 0.747052 0.732366 0.583693
O O3 0.556934 0.723637 0.446947
O O4 0.682233 0.000000 0.509041
O O5 0.986339 0.729682 0.147325
O O6 0.148390 0.731796 0.288329
O O7 0.936858 0.722741 0.203019
O O8 0.019534 0.000000 0.209751
O O9 0.358140 0.729332 0.827168
O O10 0.487171 0.000000 0.897014
O O11 0.572747 0.710829 0.963659
O O12 0.621706 0.500000 0.789831
O O13 0.672684 0.775473 0.776715
O O14 0.777289 0.705849 0.899026
O O15 0.241221 0.500000 0.629341
O O16 0.127836 0.773669 0.593283
O O17 0.047336 0.500000 0.585275
O O18 0.154355 0.727643 0.685312
O O19 0.770812 0.000000 0.237368
O O20 0.622482 0.500000 0.049810
O O21 0.500000 0.228152 0.000000
#
# Coordination Sequence:
#
# PCOD9199374 Si02
#       8
#     8   8   8   8   8   8   8   8
#     4  10  22  38  58  87 119 153 191 235 289 340
#     4  10  21  38  61  87 114 151 195 239 287 341
#     4  11  22  38  61  86 117 153 190 239 292 344
#     4  10  22  39  59  85 116 152 194 237 292 352
#     4   9  18  36  61  83 111 151 195 236 275 334
#     4  10  20  36  60  86 112 151 198 240 281 333
#     4  10  21  36  58  87 116 151 192 236 290 345
#     4  11  23  38  60  87 115 151 195 241 290 342
#
# _framework density 21.91807
#
# number of rings (size 3 to 8) (size 9 to 14) (size 15 to 20)
#    0.000    1.875    2.500    1.125    1.750    4.500 
#    0.000    1.250    0.000    1.500    0.000    0.000 
#    0.000    0.000    0.000    0.000    0.000    0.000 
#
# Total GULP energy -178803.741252 kJ/mol
# GULP energy per Si atom -5587.616914 kJ/mol
# Density = 2.186818 g / cm^3
# Si number density = 21.918070 Si / 1000 Ang^3
#
#
#
# Elastic Constant Matrix: (Units=GPa)
#
#
# Indices 1 2 3 4 5 6 
#
# 1 157.4021 -3.2201 23.0688 0.0002 -13.8764 -0.0008
# 2 -3.2201 41.1022 -12.1285 0.0007 3.3085 -0.0019
# 3 23.0688 -12.1285 57.5271 0.0002 -15.1547 -0.0002
# 4 0.0002 0.0007 0.0002 6.5647 0.0000 7.0936
# 5 -13.8764 3.3085 -15.1547 0.0000 38.7316 0.0001
# 6 -0.0008 -0.0019 -0.0002 7.0936 0.0001 7.1244
#
#
#
# Elastic Compliance Matrix: (Units=1/GPa)
#
#
# Indices 1 2 3 4 5 6 
#
# 1 0.006834 -0.000296 -0.002398 0.000010 0.001535 -0.000009
# 2 -0.000296 0.025957 0.005551 0.000138 -0.000151 -0.000131
# 3 -0.002398 0.005551 0.021366 0.000040 0.007027 -0.000038
# 4 0.000010 0.000138 0.000040 -2.007077 0.000001 1.998400
# 5 0.001535 -0.000151 0.007027 0.000001 0.029131 -0.000001
# 6 -0.000009 -0.000131 -0.000038 1.998400 -0.000001 -1.849399
#
#
# Mechanical properties :
#
#
# Convention : Reuss Voigt Hill
#
# Bulk Modulus (GPa) = 16.70259 30.16353 23.43306
# Shear Modulus (GPa) = -1.33016 27.03822 12.85403
#
# Velocity S-wave (km/s) = -0.77987 3.51608 2.42432
# Velocity P-wave (km/s) = 2.61268 5.50233 4.30707
#
# Compressibility (1/GPa) = 0.05987094
#
# Stress axis : x y z
#
# Youngs Moduli (GPa) = 146.32809 38.52574 46.80259
#
# Poissons Ratio (x) = 0.01140 0.11225
# Poissons Ratio (y) = 0.04330 -0.25982
# Poissons Ratio (z) = 0.35095 -0.21387
#
# Static dielectric constant tensor:
#      x y z
#    x 1.805510 0.000000 0.009830 
#    y 0.000000 1.821230 0.000000 
#    z 0.009830 0.000000 1.757480 
# 
# From -- ./inp_files/378523.got.cif
#   From: 2010.05.17/outbox.cif.g08.bks.cpg/sg12_190_cif.got.tgz:378523.got - 2010.06.03 13:09:07.
