data_PCOD9199682
_publ_section_title
;
Structure prediction by ZEFSAII (Michael W. Deem and Ramdas Pophale) SiO2 
 PCOD9199682
Probable space group: C 2/M
;
_chemical_formula_sum "Si O2"
_cell_formula_units_Z 64
_cell_length_a 19.548826
_cell_length_b 7.533365
_cell_length_c 22.272722
_cell_angle_alpha 90.000000
_cell_angle_beta 132.327839
_cell_angle_gamma 90.000000
_cell_volume 2424.968185
_symmetry_space_group_name_H-M "C 2/M"
_symmetry_group_IT_number 12
_symmetry_cell_setting 'monoclinic'
loop_
_space_group_symop_operation_xyz
x,y,z
-x,y,-z
-x,-y,-z
x,-y,z
1/2+x,1/2+y,z
1/2-x,1/2+y,-z
1/2-x,1/2-y,-z
1/2+x,1/2-y,z
loop_
_atom_site_type_symbol
_atom_site_label
_atom_site_fract_x
_atom_site_fract_y
_atom_site_fract_z
Si Si1 0.843853 0.792790 0.113872
Si Si2 0.321310 0.782710 0.628620
Si Si3 0.878060 0.203150 0.480080
Si Si4 0.568339 0.713315 0.952052
Si Si5 0.204965 0.708142 0.129356
Si Si6 0.861119 0.289809 0.787255
Si Si7 0.415748 0.799293 0.372928
Si Si8 0.016356 0.284838 0.707097
O O1 0.859848 0.719157 0.056962
O O2 0.774096 0.709485 0.121039
O O3 0.942025 0.776466 0.205628
O O4 0.821206 0.000000 0.093658
O O5 0.218008 0.722464 0.551644
O O6 0.342627 0.721966 0.709517
O O7 0.409248 0.728868 0.640865
O O8 0.318454 0.000000 0.626456
O O9 0.870688 0.203357 0.402658
O O10 0.972771 0.303139 0.549462
O O11 0.891481 0.000000 0.506477
O O12 0.569951 0.500000 0.953714
O O13 0.466875 0.767784 0.870911
O O14 0.605458 0.776956 0.037881
O O15 0.227280 0.500000 0.147917
O O16 0.199391 0.783884 0.193066
O O17 0.843166 0.500000 0.773383
O O18 0.417433 0.719100 0.307358
O O19 0.381559 0.000000 0.352733
O O20 0.018505 0.500000 0.706402
#
# Coordination Sequence:
#
# PCOD9199682 Si02
#       8
#     8   8   8   8   8   8   8   8
#     4  10  22  38  56  82 112 142 185 234 276 324
#     4   9  19  36  58  83 109 143 189 231 267 320
#     4  10  20  36  61  87 112 148 188 226 268 317
#     4  11  22  37  56  81 113 145 178 229 285 329
#     4  10  22  37  57  82 106 144 190 228 274 330
#     4  10  20  37  59  80 107 146 187 228 273 325
#     4  10  21  37  57  85 119 149 179 222 276 329
#     4  10  21  38  59  81 110 150 186 223 276 330
#
# _framework density 26.392099000000002
#
# number of rings (size 3 to 8) (size 9 to 14) (size 15 to 20)
#    0.000    2.000    1.250    2.625    1.750    4.500 
#    0.000    2.500    0.000    0.000    0.000    0.000 
#    0.000    0.000    0.000    0.000    0.000    0.000 
#
# Total GULP energy -179080.739762 kJ/mol
# GULP energy per Si atom -5596.273118 kJ/mol
# Density = 2.633203 g / cm^3
# Si number density = 26.392099 Si / 1000 Ang^3
#
#
#
# Elastic Constant Matrix: (Units=GPa)
#
#
# Indices 1 2 3 4 5 6 
#
# 1 124.2820 4.7438 8.3128 0.0000 0.0067 0.0000
# 2 4.7438 91.7800 6.8226 0.0000 -3.5920 0.0000
# 3 8.3128 6.8226 74.3387 0.0000 -1.7346 0.0000
# 4 0.0000 0.0000 0.0000 19.2315 0.0000 3.6312
# 5 0.0067 -3.5920 -1.7346 0.0000 56.2024 0.0000
# 6 0.0000 0.0000 0.0000 3.6312 0.0000 12.4343
#
#
#
# Elastic Compliance Matrix: (Units=1/GPa)
#
#
# Indices 1 2 3 4 5 6 
#
# 1 0.008118 -0.000356 -0.000876 0.000000 -0.000051 0.000000
# 2 -0.000356 0.011011 -0.000955 0.000000 0.000674 0.000000
# 3 -0.000876 -0.000955 0.013646 0.000000 0.000360 0.000000
# 4 0.000000 0.000000 0.000000 0.055033 0.000000 -0.016071
# 5 -0.000051 0.000674 0.000360 0.000000 0.017847 0.000000
# 6 0.000000 0.000000 0.000000 -0.016071 0.000000 0.085116
#
#
# Mechanical properties :
#
#
# Convention : Reuss Voigt Hill
#
# Bulk Modulus (GPa) = 35.21088 36.68436 35.94762
# Shear Modulus (GPa) = 24.43630 35.60841 30.02236
#
# Velocity S-wave (km/s) = 3.04615 3.67714 3.37642
# Velocity P-wave (km/s) = 5.07370 5.65318 5.37126
#
# Compressibility (1/GPa) = 0.02840031
#
# Stress axis : x y z
#
# Youngs Moduli (GPa) = 123.17635 90.81477 73.28166
#
# Poissons Ratio (x) = 0.03237 0.06422
# Poissons Ratio (y) = 0.04391 0.06998
# Poissons Ratio (z) = 0.10794 0.08673
#
# Static dielectric constant tensor:
#      x y z
#    x 2.111810 0.000000 0.013590 
#    y 0.000000 1.941980 0.000000 
#    z 0.013590 0.000000 2.113080 
# 
# From -- ./inp_files/346113.got.cif
#   From: 2010.05.17/outbox.cif.g08.bks.cpg/sg12_174_cif.got.tgz:346113.got - 2010.06.03 13:09:07.
