data_PCOD9199313
_publ_section_title
;
Structure prediction by ZEFSAII (Michael W. Deem and Ramdas Pophale) SiO2 
 PCOD9199313
Probable space group: C 2/M
;
_chemical_formula_sum "Si O2"
_cell_formula_units_Z 64
_cell_length_a 5.567222
_cell_length_b 27.246104
_cell_length_c 18.542988
_cell_angle_alpha 90.000000
_cell_angle_beta 102.562494
_cell_angle_gamma 90.000000
_cell_volume 2745.357417
_symmetry_space_group_name_H-M "C 2/M"
_symmetry_group_IT_number 12
_symmetry_cell_setting 'monoclinic'
loop_
_space_group_symop_operation_xyz
x,y,z
-x,y,-z
-x,-y,-z
x,-y,z
1/2+x,1/2+y,z
1/2-x,1/2+y,-z
1/2-x,1/2-y,-z
1/2+x,1/2-y,z
loop_
_atom_site_type_symbol
_atom_site_label
_atom_site_fract_x
_atom_site_fract_y
_atom_site_fract_z
Si Si1 0.511468 0.406710 0.697440
Si Si2 0.649075 0.445396 0.172796
Si Si3 0.199727 0.192952 0.295605
Si Si4 0.542049 0.131406 0.222751
Si Si5 0.719846 0.443742 0.456101
Si Si6 0.600660 0.232727 0.158277
Si Si7 0.771884 0.940957 0.034538
Si Si8 0.270523 0.695255 0.531707
O O1 0.383989 0.443191 0.743840
O O2 0.495730 0.350981 0.726189
O O3 0.373079 0.408884 0.613586
O O4 0.801208 0.410870 0.725131
O O5 0.724414 0.500000 0.153007
O O6 0.834559 0.401467 0.169526
O O7 0.380837 0.433898 0.121628
O O8 0.440588 0.164779 0.282904
O O9 0.194984 0.203042 0.380198
O O10 0.150621 0.237499 0.238055
O O11 0.607565 0.174559 0.170621
O O12 0.500000 0.441422 0.500000
O O13 0.718179 0.500000 0.428694
O O14 0.000000 0.434940 0.500000
O O15 0.822943 0.250802 0.122730
O O16 0.758096 0.000000 0.022885
O O17 0.500000 0.921437 0.000000
O O18 0.000000 0.923375 0.000000
O O19 0.500000 0.673247 0.500000
O O20 0.250000 0.750000 0.500000
O O21 0.000000 0.672060 0.500000
#
# Coordination Sequence:
#
# PCOD9199313 Si02
#       8
#     8   8   8   8   8   8   8   8
#     4  11  23  40  62  91 119 165 217 275 327 388
#     4  10  23  40  62  97 138 173 215 269 316 379
#     4  10  23  38  57  79 119 155 203 258 327 384
#     4  10  23  37  62  91 122 167 215 265 322 390
#     4  10  24  44  64  83 111 158 215 274 330 384
#     4  10  20  36  60  80 116 160 200 252 318 376
#     4   9  19  37  62  94 133 179 212 241 305 389
#     4  10  24  34  52  78 104 145 194 242 310 399
#
# _framework density 23.312085
#
# number of rings (size 3 to 8) (size 9 to 14) (size 15 to 20)
#    0.000    2.000    1.250    0.375   14.000    2.000 
#    0.000    0.000    0.000    0.000    0.000    0.000 
#    0.000   27.000    0.000    0.000    0.000    0.000 
#
# Total GULP energy -178263.760178 kJ/mol
# GULP energy per Si atom -5570.742506 kJ/mol
# Density = 2.325903 g / cm^3
# Si number density = 23.312085 Si / 1000 Ang^3
#
#
#
# Elastic Constant Matrix: (Units=GPa)
#
#
# Indices 1 2 3 4 5 6 
#
# 1 140.8059 10.5469 17.1258 0.0000 27.4388 0.0000
# 2 10.5469 116.9649 -1.2204 0.0000 18.1672 0.0000
# 3 17.1258 -1.2204 51.6423 0.0000 10.4791 0.0000
# 4 0.0000 0.0000 0.0000 -2.4559 0.0000 5.4635
# 5 27.4388 18.1672 10.4791 0.0000 28.3476 0.0000
# 6 0.0000 0.0000 0.0000 5.4635 0.0000 132.6843
#
#
#
# Elastic Compliance Matrix: (Units=1/GPa)
#
#
# Indices 1 2 3 4 5 6 
#
# 1 0.008858 0.000501 -0.001212 0.000000 -0.008447 0.000000
# 2 0.000501 0.009643 0.001529 0.000000 -0.007230 0.000000
# 3 -0.001212 0.001529 0.021365 0.000000 -0.007705 0.000000
# 4 0.000000 0.000000 0.000000 -0.373013 0.000000 0.015360
# 5 -0.008447 -0.007230 -0.007705 0.000000 0.050934 0.000000
# 6 0.000000 0.000000 0.000000 0.015360 0.000000 0.006904
#
#
# Mechanical properties :
#
#
# Convention : Reuss Voigt Hill
#
# Bulk Modulus (GPa) = 24.09499 40.25752 32.17625
# Shear Modulus (GPa) = -19.00351 50.57926 15.78788
#
# Velocity S-wave (km/s) = -2.85823 4.66301 2.60521
# Velocity P-wave (km/s) = 0.73100 6.80426 4.78350
#
# Compressibility (1/GPa) = 0.04150241
#
# Stress axis : x y z
#
# Youngs Moduli (GPa) = 112.89381 103.69847 46.80468
#
# Poissons Ratio (x) = -0.05191 0.05671
# Poissons Ratio (y) = -0.05651 -0.07156
# Poissons Ratio (z) = 0.13679 -0.15855
#
# Static dielectric constant tensor:
#      x y z
#    x 2.135820 0.000000 0.056000 
#    y 0.000000 1.916230 0.000000 
#    z 0.056000 0.000000 1.919030 
# 
# From -- ./inp_files/298531.got.cif
#   From: 2010.05.17/outbox.cif.g08.bks.cpg/sg12_150_cif.got.tgz:298531.got - 2010.06.03 13:09:07.
