data_PCOD9199175
_publ_section_title
;
Structure prediction by ZEFSAII (Michael W. Deem and Ramdas Pophale) SiO2 
 PCOD9199175
Probable space group: C 2/M
;
_chemical_formula_sum "Si O2"
_cell_formula_units_Z 56
_cell_length_a 29.184450
_cell_length_b 22.437186
_cell_length_c 8.628204
_cell_angle_alpha 90.000000
_cell_angle_beta 30.688482
_cell_angle_gamma 90.000000
_cell_volume 2883.536747
_symmetry_space_group_name_H-M "C 2/M"
_symmetry_group_IT_number 12
_symmetry_cell_setting 'monoclinic'
loop_
_space_group_symop_operation_xyz
x,y,z
-x,y,-z
-x,-y,-z
x,-y,z
1/2+x,1/2+y,z
1/2-x,1/2+y,-z
1/2-x,1/2-y,-z
1/2+x,1/2-y,z
loop_
_atom_site_type_symbol
_atom_site_label
_atom_site_fract_x
_atom_site_fract_y
_atom_site_fract_z
Si Si1 0.091751 0.715770 0.159161
Si Si2 0.601037 0.000000 0.640987
Si Si3 0.096111 0.151402 0.650116
Si Si4 0.899639 0.500000 0.731647
Si Si5 0.286708 0.114470 0.067227
Si Si6 0.906070 0.848854 0.712935
Si Si7 0.336121 0.233558 0.360130
Si Si8 0.213598 0.383652 0.303545
O O1 0.105548 0.782877 0.180543
O O2 0.000000 0.692608 0.500000
O O3 0.171906 0.673183 0.976909
O O4 0.087326 0.717846 0.987440
O O5 0.597962 0.000000 0.462507
O O6 0.656530 0.059499 0.524002
O O7 0.500000 0.000000 0.000000
O O8 0.182358 0.108146 0.416246
O O9 0.088073 0.159386 0.488730
O O10 0.128546 0.211971 0.639756
O O11 0.000000 0.133316 0.000000
O O12 0.000000 0.500000 0.500000
O O13 0.845553 0.558058 0.942277
O O14 0.296332 0.122361 0.853634
O O15 0.000000 0.873485 0.500000
O O16 0.821162 0.888053 0.009862
O O17 0.250000 0.250000 0.500000
O O18 0.315266 0.176464 0.525489
#
# Coordination Sequence:
#
# PCOD9199175 Si02
#       8
#     8   4   8   4   8   8   8   8
#     4  11  21  34  56  86 122 154 196 242 300 366
#     4  10  24  44  61  88 116 157 207 248 295 352
#     4  11  22  36  58  88 121 157 196 243 305 365
#     4  10  22  42  65  86 114 156 206 253 299 353
#     4  10  21  39  58  85 118 160 201 246 304 355
#     4  10  20  36  59  87 118 156 196 244 301 362
#     4  12  22  37  59  90 126 158 198 248 300 366
#     4  10  22  39  61  81 119 159 198 250 298 348
#
# _framework density 19.420594999999999
#
# number of rings (size 3 to 8) (size 9 to 14) (size 15 to 20)
#    0.000    1.429    2.857    3.000    0.000    6.286 
#    0.000    0.714    0.000    0.000    0.000    0.000 
#    0.000    0.000    0.000    0.000    0.000    0.000 
#
# Total GULP energy -156333.089623 kJ/mol
# GULP energy per Si atom -5583.324629 kJ/mol
# Density = 1.937639 g / cm^3
# Si number density = 19.420595 Si / 1000 Ang^3
#
#
#
# Elastic Constant Matrix: (Units=GPa)
#
#
# Indices 1 2 3 4 5 6 
#
# 1 69.6073 28.9838 45.0211 0.0000 -20.7086 0.0000
# 2 28.9838 71.4220 54.5608 0.0000 -15.9781 0.0000
# 3 45.0211 54.5608 170.8120 0.0000 -14.6540 0.0000
# 4 0.0000 0.0000 0.0000 20.6188 0.0000 -6.0338
# 5 -20.7086 -15.9781 -14.6540 0.0000 32.8290 0.0000
# 6 0.0000 0.0000 0.0000 -6.0338 0.0000 20.9057
#
#
#
# Elastic Compliance Matrix: (Units=1/GPa)
#
#
# Indices 1 2 3 4 5 6 
#
# 1 0.021151 -0.003631 -0.003558 0.000000 0.009986 0.000000
# 2 -0.003631 0.020643 -0.005169 0.000000 0.005449 0.000000
# 3 -0.003558 -0.005169 0.008355 0.000000 -0.001031 0.000000
# 4 0.000000 0.000000 0.000000 0.052974 0.000000 0.015289
# 5 0.009986 0.005449 -0.001031 0.000000 0.038952 0.000000
# 6 0.000000 0.000000 0.000000 0.015289 0.000000 0.052247
#
#
# Mechanical properties :
#
#
# Convention : Reuss Voigt Hill
#
# Bulk Modulus (GPa) = 39.32104 63.21920 51.27012
# Shear Modulus (GPa) = 21.97664 27.08907 24.53285
#
# Velocity S-wave (km/s) = 3.36760 3.73884 3.55806
# Velocity P-wave (km/s) = 5.95080 7.15974 6.58308
#
# Compressibility (1/GPa) = 0.02543167
#
# Stress axis : x y z
#
# Youngs Moduli (GPa) = 47.28004 48.44337 119.68992
#
# Poissons Ratio (x) = 0.17589 0.42588
# Poissons Ratio (y) = 0.17167 0.61870
# Poissons Ratio (z) = 0.16823 0.25041
#
# Static dielectric constant tensor:
#      x y z
#    x 1.683330 0.000000 -0.019980 
#    y 0.000000 1.650690 0.000000 
#    z -0.019980 0.000000 1.730660 
# 
# From -- ./inp_files/113382.got.cif
#   From: 2010.05.17/outbox.cif.g08.bks.cpg/sg12_57_cif.got.tgz:113382.got - 2010.06.03 13:09:07.
