data_PCOD9199888
_publ_section_title
;
Structure prediction by ZEFSAII (Michael W. Deem and Ramdas Pophale) SiO2 
 PCOD9199888
Probable space group: C 2/M
;
_chemical_formula_sum "Si O2"
_cell_formula_units_Z 64
_cell_length_a 20.818386
_cell_length_b 14.222974
_cell_length_c 28.640260
_cell_angle_alpha 90.000000
_cell_angle_beta 20.615117
_cell_angle_gamma 90.000000
_cell_volume 2985.839106
_symmetry_space_group_name_H-M "C 2/M"
_symmetry_group_IT_number 12
_symmetry_cell_setting 'monoclinic'
loop_
_space_group_symop_operation_xyz
x,y,z
-x,y,-z
-x,-y,-z
x,-y,z
1/2+x,1/2+y,z
1/2-x,1/2+y,-z
1/2-x,1/2-y,-z
1/2+x,1/2-y,z
loop_
_atom_site_type_symbol
_atom_site_label
_atom_site_fract_x
_atom_site_fract_y
_atom_site_fract_z
Si Si1 0.761860 0.893112 0.489844
Si Si2 0.740853 0.216176 0.789855
Si Si3 0.077813 0.105948 0.519026
Si Si4 0.397641 0.710468 0.785411
Si Si5 0.069802 0.607910 0.049633
Si Si6 0.679103 0.797966 0.406640
Si Si7 0.036416 0.607806 0.371669
Si Si8 0.550756 0.781275 0.151694
O O1 0.793545 0.890307 0.523280
O O2 0.551164 0.877794 0.619895
O O3 0.909229 0.824605 0.366307
O O4 0.805008 0.000000 0.445123
O O5 0.776187 0.225416 0.821166
O O6 0.551085 0.178739 0.899670
O O7 0.804490 0.317867 0.727269
O O8 0.884411 0.141158 0.670853
O O9 0.145476 0.187249 0.439112
O O10 0.070498 0.000000 0.505989
O O11 0.435769 0.785807 0.800990
O O12 0.279619 0.631365 0.893700
O O13 0.029061 0.500000 0.066265
O O14 0.021114 0.630841 0.136878
O O15 0.500000 0.828936 0.500000
O O16 0.640505 0.860823 0.478162
O O17 0.890421 0.794949 0.249148
O O18 0.086341 0.500000 0.345462
O O19 0.750000 0.750000 0.000000
#
# Coordination Sequence:
#
# PCOD9199888 Si02
#       8
#     8   8   8   8   8   8   8   8
#     4   9  17  32  56  89 115 142 192 250 305 356
#     4  10  21  35  61  91 125 159 200 255 317 376
#     4   9  19  32  53  85 120 150 186 240 304 371
#     4  10  20  36  62  88 121 164 207 254 308 366
#     4  11  23  40  61  90 130 170 207 251 311 383
#     4  11  22  36  57  83 116 161 209 254 307 374
#     4  10  21  37  59  86 115 149 199 259 310 357
#     4  10  22  39  57  83 123 170 212 256 305 368
#
# _framework density 21.434511000000001
#
# number of rings (size 3 to 8) (size 9 to 14) (size 15 to 20)
#    0.000    2.000    1.250    2.625    1.750    4.500 
#    0.000    0.625    0.000   11.250    0.000    0.000 
#    0.000    0.000    0.000    0.000    0.000    0.000 
#
# Total GULP energy -178249.135285 kJ/mol
# GULP energy per Si atom -5570.285478 kJ/mol
# Density = 2.138573 g / cm^3
# Si number density = 21.434511 Si / 1000 Ang^3
#
#
#
# Elastic Constant Matrix: (Units=GPa)
#
#
# Indices 1 2 3 4 5 6 
#
# 1 90.3080 17.3193 17.8130 0.0033 -6.4907 -0.0012
# 2 17.3193 109.8977 20.8767 -0.0072 -4.6508 0.0009
# 3 17.8130 20.8767 90.0363 -0.0141 -9.6651 0.0121
# 4 0.0033 -0.0072 -0.0141 14.5405 0.0199 -2.7420
# 5 -6.4907 -4.6508 -9.6651 0.0199 31.6697 -0.0013
# 6 -0.0012 0.0009 0.0121 -2.7420 -0.0013 25.3313
#
#
#
# Elastic Compliance Matrix: (Units=1/GPa)
#
#
# Indices 1 2 3 4 5 6 
#
# 1 0.011830 -0.001447 -0.001827 -0.000007 0.001654 0.000001
# 2 -0.001447 0.009713 -0.001907 0.000003 0.000548 0.000001
# 3 -0.001827 -0.001907 0.012241 0.000006 0.003081 -0.000005
# 4 -0.000007 0.000003 0.000006 0.070206 -0.000043 0.007600
# 5 0.001654 0.000548 0.003081 -0.000043 0.032936 -0.000004
# 6 0.000001 0.000001 -0.000005 0.007600 -0.000004 0.040299
#
#
# Mechanical properties :
#
#
# Convention : Reuss Voigt Hill
#
# Bulk Modulus (GPa) = 42.69678 44.69555 43.69617
# Shear Modulus (GPa) = 25.58909 29.92386 27.75647
#
# Velocity S-wave (km/s) = 3.45893 3.74044 3.60244
# Velocity P-wave (km/s) = 5.99292 6.28903 6.14276
#
# Compressibility (1/GPa) = 0.02342097
#
# Stress axis : x y z
#
# Youngs Moduli (GPa) = 84.53006 102.95601 81.69203
#
# Poissons Ratio (x) = 0.14900 0.14928
# Poissons Ratio (y) = 0.12233 0.15579
# Poissons Ratio (z) = 0.15447 0.19634
#
# Static dielectric constant tensor:
#      x y z
#    x 1.939740 0.000000 -0.005920 
#    y 0.000000 1.780650 0.000030 
#    z -0.005920 0.000030 1.815480 
# 
# From -- ./inp_files/381444.got.cif
#   From: 2010.05.17/outbox.cif.g08.bks.cpg/sg12_191_cif.got.tgz:381444.got - 2010.06.03 13:09:07.
