data_PCOD9199920
_publ_section_title
;
Structure prediction by ZEFSAII (Michael W. Deem and Ramdas Pophale) SiO2 
 PCOD9199920
Probable space group: C 2/M
;
_chemical_formula_sum "Si O2"
_cell_formula_units_Z 48
_cell_length_a 14.625380
_cell_length_b 29.774583
_cell_length_c 8.386776
_cell_angle_alpha 90.000000
_cell_angle_beta 36.621908
_cell_angle_gamma 90.000000
_cell_volume 2178.620029
_symmetry_space_group_name_H-M "C 2/M"
_symmetry_group_IT_number 12
_symmetry_cell_setting 'monoclinic'
loop_
_space_group_symop_operation_xyz
x,y,z
-x,y,-z
-x,-y,-z
x,-y,z
1/2+x,1/2+y,z
1/2-x,1/2+y,-z
1/2-x,1/2-y,-z
1/2+x,1/2-y,z
loop_
_atom_site_type_symbol
_atom_site_label
_atom_site_fract_x
_atom_site_fract_y
_atom_site_fract_z
Si Si1 0.179934 0.275137 0.757573
Si Si2 0.364803 0.682897 0.055705
Si Si3 0.060897 0.631856 0.577104
Si Si4 0.760561 0.152340 0.872306
Si Si5 0.677257 0.450386 0.292143
Si Si6 0.134950 0.547388 0.680290
O O1 0.250000 0.250000 0.500000
O O2 0.172700 0.235565 0.897970
O O3 0.276377 0.317306 0.690848
O O4 0.000000 0.288640 0.000000
O O5 0.213058 0.659900 0.337924
O O6 0.500000 0.676857 0.000000
O O7 0.372406 0.664543 0.863215
O O8 0.105001 0.592044 0.629761
O O9 0.000000 0.610202 0.500000
O O10 0.915996 0.661562 0.830782
O O11 0.762899 0.098212 0.848321
O O12 0.500000 0.450467 0.500000
O O13 0.739362 0.500000 0.149246
O O14 0.710352 0.450001 0.434177
O O15 0.133003 0.500000 0.592206
O O16 0.000000 0.545634 0.000000
#
# Coordination Sequence:
#
# PCOD9199920 Si02
#       6
#     8   8   8   8   8   8
#     4  11  25  42  68 102 135 174 221 280 332 403
#     4  10  24  43  62  94 133 171 221 273 332 398
#     4  10  22  39  63  92 127 171 217 272 330 396
#     4  11  23  41  68  94 128 178 216 274 332 394
#     4  10  23  39  61  95 129 164 215 270 329 394
#     4  10  20  36  62  90 122 164 218 275 328 399
#
# _framework density 22.032297
#
# number of rings (size 3 to 8) (size 9 to 14) (size 15 to 20)
#    0.000    1.667    1.667    1.500    7.000    1.667 
#    0.000    8.333    0.000    1.000    0.000    0.000 
#    0.000    0.000    0.000    0.000    0.000    0.000 
#
# Total GULP energy -133709.068123 kJ/mol
# GULP energy per Si atom -5571.211172 kJ/mol
# Density = 2.198215 g / cm^3
# Si number density = 22.032297 Si / 1000 Ang^3
#
#
#
# Elastic Constant Matrix: (Units=GPa)
#
#
# Indices 1 2 3 4 5 6 
#
# 1 139.5908 68.3498 43.1925 0.0000 -15.6497 0.0000
# 2 68.3498 141.6034 17.9630 0.0000 6.8047 0.0000
# 3 43.1925 17.9630 57.5444 0.0000 -17.8788 0.0000
# 4 0.0000 0.0000 0.0000 0.5354 0.0000 -4.4405
# 5 -15.6497 6.8047 -17.8788 0.0000 37.3495 0.0000
# 6 0.0000 0.0000 0.0000 -4.4405 0.0000 58.0973
#
#
#
# Elastic Compliance Matrix: (Units=1/GPa)
#
#
# Indices 1 2 3 4 5 6 
#
# 1 0.012000 -0.005099 -0.006537 0.000000 0.002828 0.000000
# 2 -0.005099 0.009790 -0.000525 0.000000 -0.004171 0.000000
# 3 -0.006537 -0.000525 0.025405 0.000000 0.009518 0.000000
# 4 0.000000 0.000000 0.000000 5.102188 0.000000 0.389968
# 5 0.002828 -0.004171 0.009518 0.000000 0.033275 0.000000
# 6 0.000000 0.000000 0.000000 0.389968 0.000000 0.047018
#
#
# Mechanical properties :
#
#
# Convention : Reuss Voigt Hill
#
# Bulk Modulus (GPa) = 43.71722 66.41660 55.06691
# Shear Modulus (GPa) = 0.95028 33.14532 17.04780
#
# Velocity S-wave (km/s) = 0.65746 3.88286 2.78468
# Velocity P-wave (km/s) = 4.52347 7.09315 5.94872
#
# Compressibility (1/GPa) = 0.02287428
#
# Stress axis : x y z
#
# Youngs Moduli (GPa) = 83.33187 102.14284 39.36157
#
# Poissons Ratio (x) = 0.52082 0.25731
# Poissons Ratio (y) = 0.42491 0.02066
# Poissons Ratio (z) = 0.54474 0.05361
#
# Static dielectric constant tensor:
#      x y z
#    x 1.874330 0.000000 0.022800 
#    y 0.000000 1.888880 0.000000 
#    z 0.022800 0.000000 1.889730 
# 
# From -- ./inp_files/68022.got.cif
#   From: 2010.05.17/outbox.cif.g08.bks.cpg/sg12_35_cif.got.tgz:68022.got - 2010.06.03 13:09:07.
