data_PCOD9199776
_publ_section_title
;
Structure prediction by ZEFSAII (Michael W. Deem and Ramdas Pophale) SiO2 
 PCOD9199776
Probable space group: C 2/M
;
_chemical_formula_sum "Si O2"
_cell_formula_units_Z 64
_cell_length_a 20.307058
_cell_length_b 15.793339
_cell_length_c 11.467014
_cell_angle_alpha 90.000000
_cell_angle_beta 70.318050
_cell_angle_gamma 90.000000
_cell_volume 3462.796817
_symmetry_space_group_name_H-M "C 2/M"
_symmetry_group_IT_number 12
_symmetry_cell_setting 'monoclinic'
loop_
_space_group_symop_operation_xyz
x,y,z
-x,y,-z
-x,-y,-z
x,-y,z
1/2+x,1/2+y,z
1/2-x,1/2+y,-z
1/2-x,1/2-y,-z
1/2+x,1/2-y,z
loop_
_atom_site_type_symbol
_atom_site_label
_atom_site_fract_x
_atom_site_fract_y
_atom_site_fract_z
Si Si1 0.427289 0.261007 0.094314
Si Si2 0.688523 0.186106 0.003391
Si Si3 0.187416 0.190048 0.491776
Si Si4 0.425372 0.175757 0.489903
Si Si5 0.330528 0.598136 0.267946
Si Si6 0.083557 0.404737 0.748411
Si Si7 0.176963 0.399703 0.254270
Si Si8 0.740365 0.904680 0.745239
O O1 0.375135 0.233244 0.022065
O O2 0.386720 0.332952 0.191278
O O3 0.442144 0.175172 0.160154
O O4 0.500000 0.293106 0.000000
O O5 0.720000 0.123193 0.887081
O O6 0.750000 0.250000 0.000000
O O7 0.665013 0.139930 0.134775
O O8 0.250000 0.250000 0.500000
O O9 0.116319 0.242936 0.532503
O O10 0.182060 0.114235 0.587388
O O11 0.207492 0.157960 0.351588
O O12 0.500000 0.196076 0.500000
O O13 0.433712 0.112600 0.375718
O O14 0.375280 0.136809 0.618366
O O15 0.349078 0.500000 0.234777
O O16 0.256902 0.617059 0.247344
O O17 0.060650 0.500000 0.797543
O O18 0.167724 0.402054 0.715716
O O19 0.168038 0.500000 0.253835
O O20 0.767387 0.000000 0.728119
#
# Coordination Sequence:
#
# PCOD9199776 Si02
#       8
#     8   8   8   8   8   8   8   8
#     4  11  24  42  63  90 125 166 209 253 310 368
#     4  11  21  38  60  85 122 163 200 248 303 363
#     4  12  19  38  66  88 119 160 208 251 302 364
#     4  12  25  38  60  92 129 161 196 253 314 366
#     4  11  22  40  67  95 119 158 214 265 306 359
#     4  10  21  40  62  89 123 160 205 249 302 373
#     4  11  23  38  60  91 124 162 205 251 305 366
#     4  10  20  36  61  91 118 154 204 257 298 352
#
# _framework density 18.482171000000001
#
# number of rings (size 3 to 8) (size 9 to 14) (size 15 to 20)
#    0.000    1.000    5.000    2.625    1.750    4.000 
#    0.000    0.000    0.000    3.000    0.000    0.000 
#    0.000    0.000    0.000    0.000    0.000    0.000 
#
# Total GULP energy -178784.113584 kJ/mol
# GULP energy per Si atom -5587.003550 kJ/mol
# Density = 1.844010 g / cm^3
# Si number density = 18.482171 Si / 1000 Ang^3
#
#
#
# Elastic Constant Matrix: (Units=GPa)
#
#
# Indices 1 2 3 4 5 6 
#
# 1 71.1305 35.1272 32.9040 0.0000 4.1195 0.0000
# 2 35.1272 76.6075 19.4935 0.0000 0.7752 0.0000
# 3 32.9040 19.4935 83.9978 0.0000 13.6712 0.0000
# 4 0.0000 0.0000 0.0000 22.8439 0.0000 6.7955
# 5 4.1195 0.7752 13.6712 0.0000 28.4730 0.0000
# 6 0.0000 0.0000 0.0000 6.7955 0.0000 11.8790
#
#
#
# Elastic Compliance Matrix: (Units=1/GPa)
#
#
# Indices 1 2 3 4 5 6 
#
# 1 0.020941 -0.007978 -0.006394 0.000000 0.000257 0.000000
# 2 -0.007978 0.016954 -0.001000 0.000000 0.001173 0.000000
# 3 -0.006394 -0.001000 0.015715 0.000000 -0.006593 0.000000
# 4 0.000000 0.000000 0.000000 0.052753 0.000000 -0.030178
# 5 0.000257 0.001173 -0.006593 0.000000 0.038218 0.000000
# 6 0.000000 0.000000 0.000000 -0.030178 0.000000 0.101446
#
#
# Mechanical properties :
#
#
# Convention : Reuss Voigt Hill
#
# Bulk Modulus (GPa) = 43.73197 45.19836 44.46517
# Shear Modulus (GPa) = 17.58131 22.25324 19.91728
#
# Velocity S-wave (km/s) = 3.08759 3.47369 3.28632
# Velocity P-wave (km/s) = 6.03523 6.37157 6.20568
#
# Compressibility (1/GPa) = 0.02286656
#
# Stress axis : x y z
#
# Youngs Moduli (GPa) = 47.75272 58.98168 63.63415
#
# Poissons Ratio (x) = 0.47055 0.40685
# Poissons Ratio (y) = 0.38097 0.06366
# Poissons Ratio (z) = 0.30531 0.05900
#
# Static dielectric constant tensor:
#      x y z
#    x 1.762850 0.000000 -0.031660 
#    y 0.000000 1.658380 0.000000 
#    z -0.031660 0.000000 1.661380 
# 
# From -- ./inp_files/167231.got.cif
#   From: 2010.05.17/outbox.cif.g08.bks.cpg/sg12_84_cif.got.tgz:167231.got - 2010.06.03 13:09:07.
