data_PCOD9199202
_publ_section_title
;
Structure prediction by ZEFSAII (Michael W. Deem and Ramdas Pophale) SiO2 
 PCOD9199202
Probable space group: C 2/M
;
_chemical_formula_sum "Si O2"
_cell_formula_units_Z 52
_cell_length_a 11.754173
_cell_length_b 26.325816
_cell_length_c 8.692674
_cell_angle_alpha 90.000000
_cell_angle_beta 104.790813
_cell_angle_gamma 90.000000
_cell_volume 2600.715544
_symmetry_space_group_name_H-M "C 2/M"
_symmetry_group_IT_number 12
_symmetry_cell_setting 'monoclinic'
loop_
_space_group_symop_operation_xyz
x,y,z
-x,y,-z
-x,-y,-z
x,-y,z
1/2+x,1/2+y,z
1/2-x,1/2+y,-z
1/2-x,1/2-y,-z
1/2+x,1/2-y,z
loop_
_atom_site_type_symbol
_atom_site_label
_atom_site_fract_x
_atom_site_fract_y
_atom_site_fract_z
Si Si1 0.792075 0.000000 0.901053
Si Si2 0.000000 0.917576 0.500000
Si Si3 0.977835 0.000000 0.234237
Si Si4 0.316775 0.889813 0.181989
Si Si5 0.181694 0.803362 0.979995
Si Si6 0.038231 0.668976 0.335467
Si Si7 0.040587 0.219121 0.241745
Si Si8 0.209243 0.847987 0.468670
O O1 0.716880 0.948295 0.857217
O O2 0.898522 0.000000 0.813964
O O3 0.865994 0.000000 0.084295
O O4 0.884820 0.885493 0.493555
O O5 0.976622 0.951701 0.343508
O O6 0.454654 0.875709 0.244505
O O7 0.258645 0.871436 0.324416
O O8 0.262103 0.852526 0.033279
O O9 0.087658 0.807099 0.808791
O O10 0.250000 0.750000 0.000000
O O11 0.105977 0.797753 0.109722
O O12 0.016584 0.721163 0.238299
O O13 0.177087 0.659628 0.387102
O O14 0.000000 0.677919 0.500000
O O15 0.131974 0.202266 0.404562
#
# Coordination Sequence:
#
# PCOD9199202 Si02
#       8
#     4   4   4   8   8   8   8   8
#     4  11  22  42  69  94 117 170 214 264 314 374
#     4  11  22  42  60  94 126 160 200 269 318 362
#     4  10  24  40  66  89 127 155 213 272 313 359
#     4  10  21  40  63  89 123 158 217 257 309 373
#     4  10  20  36  59  87 123 159 204 258 315 366
#     4  10  21  39  56  86 127 164 203 255 302 381
#     4  10  21  34  57  91 120 163 206 249 311 373
#     4  10  22  36  60  90 123 163 205 255 311 379
#
# _framework density 19.994496000000002
#
# number of rings (size 3 to 8) (size 9 to 14) (size 15 to 20)
#    0.000    1.846    3.077    0.462    3.231    2.462 
#    0.000    5.000    0.000    0.923    0.000    0.000 
#    0.000    0.000    0.000    0.000    0.000    0.000 
#
# Total GULP energy -145137.237729 kJ/mol
# GULP energy per Si atom -5582.201451 kJ/mol
# Density = 1.994899 g / cm^3
# Si number density = 19.994496 Si / 1000 Ang^3
#
#
#
# Elastic Constant Matrix: (Units=GPa)
#
#
# Indices 1 2 3 4 5 6 
#
# 1 116.5897 44.4567 37.5528 0.0000 43.2814 0.0000
# 2 44.4567 121.8219 28.8114 0.0000 29.3475 0.0000
# 3 37.5528 28.8114 56.2650 0.0000 28.4470 0.0000
# 4 0.0000 0.0000 0.0000 -8.6388 0.0000 65.2801
# 5 43.2814 29.3475 28.4470 0.0000 31.6416 0.0000
# 6 0.0000 0.0000 0.0000 65.2801 0.0000 -157.3182
#
#
#
# Elastic Compliance Matrix: (Units=1/GPa)
#
#
# Indices 1 2 3 4 5 6 
#
# 1 0.017507 -0.000820 0.000840 0.000000 -0.023942 0.000000
# 2 -0.000820 0.010630 -0.000877 0.000000 -0.007950 0.000000
# 3 0.000840 -0.000877 0.032690 0.000000 -0.029725 0.000000
# 4 0.000000 0.000000 0.000000 0.054202 0.000000 0.022491
# 5 -0.023942 -0.007950 -0.029725 0.000000 0.098451 0.000000
# 6 0.000000 0.000000 0.000000 0.022491 0.000000 0.002976
#
#
# Mechanical properties :
#
#
# Convention : Reuss Voigt Hill
#
# Bulk Modulus (GPa) = 16.91636 57.36870 37.14253
# Shear Modulus (GPa) = 21.01939 -14.60601 3.20669
#
# Velocity S-wave (km/s) = 3.24583 -2.70571 1.26778
# Velocity P-wave (km/s) = 4.74617 4.35814 4.55628
#
# Compressibility (1/GPa) = 0.05911437
#
# Stress axis : x y z
#
# Youngs Moduli (GPa) = 57.11945 94.06939 30.59015
#
# Poissons Ratio (x) = 0.07712 -0.02569
# Poissons Ratio (y) = 0.04683 0.02683
# Poissons Ratio (z) = -0.04798 0.08249
#
# Static dielectric constant tensor:
#      x y z
#    x 1.711100 0.000000 0.011220 
#    y 0.000000 1.676660 0.000000 
#    z 0.011220 0.000000 1.738770 
# 
# From -- ./inp_files/52670.got.cif
#   From: 2010.05.17/outbox.cif.g08.bks.cpg/sg12_27_cif.got.tgz:52670.got - 2010.06.03 13:09:07.
