data_PCOD9199383
_publ_section_title
;
Structure prediction by ZEFSAII (Michael W. Deem and Ramdas Pophale) SiO2 
 PCOD9199383
Probable space group: C 2/M
;
_chemical_formula_sum "Si O2"
_cell_formula_units_Z 56
_cell_length_a 28.811389
_cell_length_b 13.564983
_cell_length_c 11.461801
_cell_angle_alpha 90.000000
_cell_angle_beta 140.373540
_cell_angle_gamma 90.000000
_cell_volume 2856.978971
_symmetry_space_group_name_H-M "C 2/M"
_symmetry_group_IT_number 12
_symmetry_cell_setting 'monoclinic'
loop_
_space_group_symop_operation_xyz
x,y,z
-x,y,-z
-x,-y,-z
x,-y,z
1/2+x,1/2+y,z
1/2-x,1/2+y,-z
1/2-x,1/2-y,-z
1/2+x,1/2-y,z
loop_
_atom_site_type_symbol
_atom_site_label
_atom_site_fract_x
_atom_site_fract_y
_atom_site_fract_z
Si Si1 0.462958 0.385974 0.807965
Si Si2 0.256089 0.110060 0.972067
Si Si3 0.001610 0.781173 0.371089
Si Si4 0.379202 0.111499 0.412652
Si Si5 0.288598 0.608672 0.490099
Si Si6 0.256270 0.827226 0.348329
Si Si7 0.663739 0.286755 0.968489
O O1 0.486827 0.500000 0.846844
O O2 0.478498 0.339572 0.709848
O O3 0.376093 0.382849 0.658174
O O4 0.500000 0.344403 0.000000
O O5 0.319966 0.112191 0.193434
O O6 0.182781 0.146177 0.893368
O O7 0.248961 0.000000 0.912990
O O8 0.281499 0.194534 0.934968
O O9 0.000000 0.827999 0.500000
O O10 0.057591 0.690088 0.486198
O O11 0.918012 0.751294 0.188487
O O12 0.330921 0.140511 0.431115
O O13 0.407487 0.000000 0.477864
O O14 0.269847 0.500000 0.404237
O O15 0.259597 0.710263 0.379719
O O16 0.258434 0.614921 0.562563
O O17 0.189294 0.846022 0.130875
#
# Coordination Sequence:
#
# PCOD9199383 Si02
#       7
#     8   8   8   8   8   8   8
#     4  10  22  40  62  89 123 165 207 248 307 376
#     4   9  19  36  57  80 110 153 202 245 293 357
#     4  12  23  38  60  92 130 165 201 256 311 366
#     4  10  20  37  60  86 118 160 206 248 303 368
#     4  10  20  36  60  86 113 152 206 256 305 362
#     4  10  20  37  60  86 115 159 202 260 305 359
#     4  10  21  35  55  84 119 153 198 248 304 359
#
# _framework density 19.601126000000001
#
# number of rings (size 3 to 8) (size 9 to 14) (size 15 to 20)
#    0.000    1.857    2.857    1.286    0.000    2.857 
#    0.000    1.429    0.000    0.429    0.000    0.000 
#    0.000    0.000    0.000    0.000    0.000    0.000 
#
# Total GULP energy -156053.643142 kJ/mol
# GULP energy per Si atom -5573.344398 kJ/mol
# Density = 1.955651 g / cm^3
# Si number density = 19.601126 Si / 1000 Ang^3
#
#
#
# Elastic Constant Matrix: (Units=GPa)
#
#
# Indices 1 2 3 4 5 6 
#
# 1 3.5627 -25.0674 105.1253 0.0000 29.1130 0.0000
# 2 -25.0674 60.8766 39.0441 0.0000 4.2363 0.0000
# 3 105.1253 39.0441 22.3506 0.0000 -24.6263 0.0000
# 4 0.0000 0.0000 0.0000 11.5709 0.0000 -5.7866
# 5 29.1130 4.2363 -24.6263 0.0000 19.7232 0.0000
# 6 0.0000 0.0000 0.0000 -5.7866 0.0000 2.3350
#
#
#
# Elastic Compliance Matrix: (Units=1/GPa)
#
#
# Indices 1 2 3 4 5 6 
#
# 1 0.001660 -0.004039 0.006636 0.000000 0.006704 0.000000
# 2 -0.004039 0.013232 0.001804 0.000000 0.005373 0.000000
# 3 0.006636 0.001804 0.002248 0.000000 -0.007376 0.000000
# 4 0.000000 0.000000 0.000000 -0.361119 0.000000 -0.894908
# 5 0.006704 0.005373 -0.007376 0.000000 0.030442 0.000000
# 6 0.000000 0.000000 0.000000 -0.894908 0.000000 -1.789459
#
#
# Mechanical properties :
#
#
# Convention : Reuss Voigt Hill
#
# Bulk Modulus (GPa) = 38.54685 36.11044 37.32864
# Shear Modulus (GPa) = -2.37739 4.57169 1.09715
#
# Velocity S-wave (km/s) = -1.10250 1.52886 0.74897
# Velocity P-wave (km/s) = 4.25296 4.64534 4.45347
#
# Compressibility (1/GPa) = 0.02594246
#
# Stress axis : x y z
#
# Youngs Moduli (GPa) = 602.50295 75.57264 444.81959
#
# Poissons Ratio (x) = 0.30527 -2.95202
# Poissons Ratio (y) = 2.43378 -0.80253
# Poissons Ratio (z) = -3.99847 -0.13635
#
# Static dielectric constant tensor:
#      x y z
#    x 1.694450 0.000000 -0.042280 
#    y 0.000000 1.694330 0.000000 
#    z -0.042280 0.000000 1.688080 
# 
# From -- ./inp_files/189245.got.cif
#   From: 2010.05.17/outbox.cif.g08.bks.cpg/sg12_95_cif.got.tgz:189245.got - 2010.06.03 13:09:07.
