data_PCOD9199444
_publ_section_title
;
Structure prediction by ZEFSAII (Michael W. Deem and Ramdas Pophale) SiO2 
 PCOD9199444
Probable space group: C 2/M
;
_chemical_formula_sum "Si O2"
_cell_formula_units_Z 64
_cell_length_a 9.465140
_cell_length_b 17.570328
_cell_length_c 21.321918
_cell_angle_alpha 90.000000
_cell_angle_beta 56.412810
_cell_angle_gamma 90.000000
_cell_volume 2953.939616
_symmetry_space_group_name_H-M "C 2/M"
_symmetry_group_IT_number 12
_symmetry_cell_setting 'monoclinic'
loop_
_space_group_symop_operation_xyz
x,y,z
-x,y,-z
-x,-y,-z
x,-y,z
1/2+x,1/2+y,z
1/2-x,1/2+y,-z
1/2-x,1/2-y,-z
1/2+x,1/2-y,z
loop_
_atom_site_type_symbol
_atom_site_label
_atom_site_fract_x
_atom_site_fract_y
_atom_site_fract_z
Si Si1 0.139546 0.609918 0.414413
Si Si2 0.881689 0.616862 0.216437
Si Si3 0.942686 0.183096 0.943397
Si Si4 0.091397 0.362320 0.044211
Si Si5 0.504793 0.128711 0.679848
Si Si6 0.157523 0.797568 0.776495
Si Si7 0.990835 0.083557 0.284790
Si Si8 0.682886 0.278267 0.448907
O O1 0.069915 0.586628 0.363139
O O2 0.335522 0.585313 0.373286
O O3 0.148797 0.702093 0.416867
O O4 0.000000 0.586856 0.500000
O O5 0.880317 0.708914 0.221823
O O6 0.684399 0.593312 0.259226
O O7 0.991526 0.599104 0.126513
O O8 0.962321 0.588735 0.261839
O O9 0.900855 0.272151 0.939271
O O10 0.091113 0.168432 0.858320
O O11 0.787737 0.124313 0.979487
O O12 0.000000 0.183050 0.000000
O O13 0.000000 0.371419 0.000000
O O14 0.357980 0.190905 0.726313
O O15 0.678263 0.168554 0.616171
O O16 0.060943 0.847949 0.748476
O O17 0.979771 0.000000 0.256787
O O18 0.500000 0.317143 0.500000
O O19 0.750000 0.250000 0.500000
#
# Coordination Sequence:
#
# PCOD9199444 Si02
#       8
#     8   8   8   8   8   8   8   8
#     4  10  21  38  56  81 114 160 209 247 308 379
#     4  11  21  34  60  91 122 158 208 261 301 361
#     4   9  16  28  50  81 116 148 194 251 305 352
#     4   9  17  29  48  80 120 157 192 245 309 361
#     4  11  20  32  52  85 117 148 200 256 309 350
#     4  10  20  36  60  87 119 161 207 254 300 374
#     4  11  25  42  61  87 127 167 201 255 322 381
#     4  11  20  32  54  88 126 158 194 263 316 355
#
# _framework density 21.665980999999999
#
# number of rings (size 3 to 8) (size 9 to 14) (size 15 to 20)
#    0.000    1.750    2.500    4.500    1.750    4.250 
#    0.000    2.500    0.000    4.500    0.000    0.000 
#    0.000    0.000    0.000    0.000    0.000    0.000 
#
# Total GULP energy -178437.497108 kJ/mol
# GULP energy per Si atom -5576.171785 kJ/mol
# Density = 2.161667 g / cm^3
# Si number density = 21.665981 Si / 1000 Ang^3
#
#
#
# Elastic Constant Matrix: (Units=GPa)
#
#
# Indices 1 2 3 4 5 6 
#
# 1 101.5314 10.5718 58.2822 0.0000 -13.5084 0.0000
# 2 10.5718 66.5633 5.2037 0.0000 0.9107 0.0000
# 3 58.2822 5.2037 160.6825 0.0001 -4.2456 0.0000
# 4 0.0000 0.0000 0.0001 -10.1387 0.0000 2.0047
# 5 -13.5084 0.9107 -4.2456 0.0000 25.1980 0.0000
# 6 0.0000 0.0000 0.0000 2.0047 0.0000 -9.4144
#
#
#
# Elastic Compliance Matrix: (Units=1/GPa)
#
#
# Indices 1 2 3 4 5 6 
#
# 1 0.013622 -0.001886 -0.004706 0.000000 0.006578 0.000000
# 2 -0.001886 0.015332 0.000147 0.000000 -0.001540 0.000000
# 3 -0.004706 0.000147 0.007894 0.000000 -0.001198 0.000000
# 4 0.000000 0.000000 0.000000 -0.102968 0.000000 -0.021926
# 5 0.006578 -0.001540 -0.001198 0.000000 0.043066 0.000000
# 6 0.000000 0.000000 0.000000 -0.021926 0.000000 -0.110889
#
#
# Mechanical properties :
#
#
# Convention : Reuss Voigt Hill
#
# Bulk Modulus (GPa) = 41.73882 52.98807 47.36345
# Shear Modulus (GPa) = -44.22201 18.11027 -13.05587
#
# Velocity S-wave (km/s) = -4.52273 2.89430 -2.45745
# Velocity P-wave (km/s) = 2.82258 5.97321 3.72238
#
# Compressibility (1/GPa) = 0.02395851
#
# Stress axis : x y z
#
# Youngs Moduli (GPa) = 73.41007 65.22147 126.67810
#
# Poissons Ratio (x) = 0.12298 0.59616
# Poissons Ratio (y) = 0.13842 -0.01858
# Poissons Ratio (z) = 0.34547 -0.00957
#
# Static dielectric constant tensor:
#      x y z
#    x 1.792230 0.000000 -0.007630 
#    y 0.000000 1.803850 0.000000 
#    z -0.007630 0.000000 1.864560 
# 
# From -- ./inp_files/301723.got.cif
#   From: 2010.05.17/outbox.cif.g08.bks.cpg/sg12_151_cif.got.tgz:301723.got - 2010.06.03 13:09:07.
