data_PCOD9199884
_publ_section_title
;
Structure prediction by ZEFSAII (Michael W. Deem and Ramdas Pophale) SiO2 
 PCOD9199884
Probable space group: C 2/M
;
_chemical_formula_sum "Si O2"
_cell_formula_units_Z 44
_cell_length_a 16.819768
_cell_length_b 16.965722
_cell_length_c 25.767640
_cell_angle_alpha 90.000000
_cell_angle_beta 160.420486
_cell_angle_gamma 90.000000
_cell_volume 2464.112281
_symmetry_space_group_name_H-M "C 2/M"
_symmetry_group_IT_number 12
_symmetry_cell_setting 'monoclinic'
loop_
_space_group_symop_operation_xyz
x,y,z
-x,y,-z
-x,-y,-z
x,-y,z
1/2+x,1/2+y,z
1/2-x,1/2+y,-z
1/2-x,1/2-y,-z
1/2+x,1/2-y,z
loop_
_atom_site_type_symbol
_atom_site_label
_atom_site_fract_x
_atom_site_fract_y
_atom_site_fract_z
Si Si1 0.044585 0.826986 0.588430
Si Si2 0.571845 0.093469 0.337854
Si Si3 0.820102 0.093800 0.992745
Si Si4 0.039758 0.593921 0.924379
Si Si5 0.785395 0.686626 0.243127
Si Si6 0.000000 0.306551 0.000000
O O1 0.278903 0.877298 0.746434
O O2 0.091203 0.738441 0.636809
O O3 0.000000 0.830252 0.500000
O O4 0.816508 0.862923 0.476516
O O5 0.384658 0.108550 0.175947
O O6 0.454586 0.125574 0.318239
O O7 0.610686 0.000000 0.363980
O O8 0.717513 0.113312 0.986468
O O9 0.872289 0.000000 0.023080
O O10 0.051545 0.143238 0.120538
O O11 0.041203 0.500000 0.932804
O O12 0.094956 0.639602 0.011482
O O13 0.698356 0.750086 0.146661
#
# Coordination Sequence:
#
# PCOD9199884 Si02
#       6
#     8   8   8   8   8   4
#     4  11  23  37  57  84 117 154 190 234 285 341
#     4  11  21  37  60  85 117 150 193 237 280 339
#     4  10  20  36  62  87 112 149 193 241 281 330
#     4  10  21  37  58  83 114 151 192 235 281 338
#     4  11  22  38  57  86 120 149 188 237 287 339
#     4  10  21  34  55  84 118 148 180 234 291 342
#
# _framework density 17.856328999999999
#
# number of rings (size 3 to 8) (size 9 to 14) (size 15 to 20)
#    0.000    1.455    3.636    1.909    0.000    6.545 
#    0.000    0.000    0.000    6.545    0.000    0.000 
#    0.000    0.000    0.000    0.000    0.000    0.000 
#
# Total GULP energy -122889.584140 kJ/mol
# GULP energy per Si atom -5585.890188 kJ/mol
# Density = 1.781569 g / cm^3
# Si number density = 17.856329 Si / 1000 Ang^3
#
#
#
# Elastic Constant Matrix: (Units=GPa)
#
#
# Indices 1 2 3 4 5 6 
#
# 1 108.6816 58.0835 58.7241 0.0260 30.7523 -0.0148
# 2 58.0835 81.3517 52.9524 -0.0081 20.3744 -0.0179
# 3 58.7241 52.9524 87.8375 0.0141 32.7433 0.0196
# 4 0.0260 -0.0081 0.0141 22.8485 0.0097 -5.9986
# 5 30.7523 20.3744 32.7433 0.0097 27.1101 -0.0001
# 6 -0.0148 -0.0179 0.0196 -5.9986 -0.0001 28.5715
#
#
#
# Elastic Compliance Matrix: (Units=1/GPa)
#
#
# Indices 1 2 3 4 5 6 
#
# 1 0.018490 -0.008348 -0.003364 -0.000017 -0.010638 0.000003
# 2 -0.008348 0.024011 -0.010362 0.000029 0.003940 0.000024
# 3 -0.003364 -0.010362 0.028294 -0.000016 -0.022569 -0.000031
# 4 -0.000017 0.000029 -0.000016 0.046320 0.000000 0.009725
# 5 -0.010638 0.003940 -0.022569 0.000000 0.073252 0.000013
# 6 0.000003 0.000024 -0.000031 0.009725 0.000013 0.037042
#
#
# Mechanical properties :
#
#
# Convention : Reuss Voigt Hill
#
# Bulk Modulus (GPa) = 37.52851 68.59899 53.06375
# Shear Modulus (GPa) = 17.82924 22.91341 20.37132
#
# Velocity S-wave (km/s) = 3.16331 3.58608 3.38131
# Velocity P-wave (km/s) = 5.86554 7.45970 6.71013
#
# Compressibility (1/GPa) = 0.02664641
#
# Stress axis : x y z
#
# Youngs Moduli (GPa) = 54.08251 41.64786 35.34364
#
# Poissons Ratio (x) = 0.34768 0.11889
# Poissons Ratio (y) = 0.45148 0.36625
# Poissons Ratio (z) = 0.18192 0.43157
#
# Static dielectric constant tensor:
#      x y z
#    x 1.601180 0.000000 -0.010820 
#    y 0.000000 1.602390 -0.000010 
#    z -0.010820 -0.000010 1.581610 
# 
# From -- ./inp_files/145334.got.cif
#   From: 2010.05.17/outbox.cif.g08.bks.cpg/sg12_73_cif.got.tgz:145334.got - 2010.06.03 13:09:07.
