data_PCOD9199055
_publ_section_title
;
Structure prediction by ZEFSAII (Michael W. Deem and Ramdas Pophale) SiO2 
 PCOD9199055
Probable space group: C 2/M
;
_chemical_formula_sum "Si O2"
_cell_formula_units_Z 48
_cell_length_a 18.442981
_cell_length_b 23.805744
_cell_length_c 7.896921
_cell_angle_alpha 90.000000
_cell_angle_beta 143.641535
_cell_angle_gamma 90.000000
_cell_volume 2055.439445
_symmetry_space_group_name_H-M "C 2/M"
_symmetry_group_IT_number 12
_symmetry_cell_setting 'monoclinic'
loop_
_space_group_symop_operation_xyz
x,y,z
-x,y,-z
-x,-y,-z
x,-y,z
1/2+x,1/2+y,z
1/2-x,1/2+y,-z
1/2-x,1/2-y,-z
1/2+x,1/2-y,z
loop_
_atom_site_type_symbol
_atom_site_label
_atom_site_fract_x
_atom_site_fract_y
_atom_site_fract_z
Si Si1 0.777053 0.566310 0.442368
Si Si2 0.000650 0.223326 0.709318
Si Si3 0.756719 0.721526 0.830098
Si Si4 0.512838 0.935531 0.703593
Si Si5 0.530900 0.406602 0.862158
Si Si6 0.722774 0.594879 0.704570
O O1 0.779994 0.500000 0.497034
O O2 0.911147 0.586601 0.640041
O O3 0.737228 0.601938 0.529459
O O4 0.670315 0.573134 0.100838
O O5 0.026598 0.160390 0.824355
O O6 0.000000 0.222319 0.500000
O O7 0.862716 0.240909 0.498331
O O8 0.108435 0.263040 0.978387
O O9 0.736039 0.655385 0.813282
O O10 0.750000 0.750000 0.000000
O O11 0.500000 0.905461 0.500000
O O12 0.469485 0.000000 0.603382
O O13 0.654301 0.937044 0.015736
O O14 0.414862 0.428372 0.534315
O O15 0.500000 0.422098 0.000000
#
# Coordination Sequence:
#
# PCOD9199055 Si02
#       6
#     8   8   8   8   8   8
#     4  10  21  38  60  86 118 156 198 245 296 350
#     4   9  18  34  54  75 107 146 186 235 288 343
#     4   9  19  34  53  80 109 143 188 235 286 343
#     4  10  22  38  56  84 120 154 194 246 299 353
#     4   9  20  36  54  81 112 145 190 239 287 342
#     4  10  20  36  59  85 113 154 200 240 292 352
#
# _framework density 23.352668999999999
#
# number of rings (size 3 to 8) (size 9 to 14) (size 15 to 20)
#    0.000    2.500    0.000    1.000    0.000   12.333 
#    0.000    9.167    0.000    3.500    0.000    0.000 
#    0.000    0.000    0.000    0.000    0.000    0.000 
#
# Total GULP energy -133733.762760 kJ/mol
# GULP energy per Si atom -5572.240115 kJ/mol
# Density = 2.329952 g / cm^3
# Si number density = 23.352669 Si / 1000 Ang^3
#
#
#
# Elastic Constant Matrix: (Units=GPa)
#
#
# Indices 1 2 3 4 5 6 
#
# 1 26.9432 7.1664 22.8194 0.0000 6.7297 0.0000
# 2 7.1664 49.3039 18.9445 0.0000 2.0972 0.0000
# 3 22.8194 18.9445 150.4101 0.0000 36.1573 0.0000
# 4 0.0000 0.0000 0.0000 35.8445 0.0000 -5.7366
# 5 6.7297 2.0972 36.1573 0.0000 25.0960 0.0000
# 6 0.0000 0.0000 0.0000 -5.7366 0.0000 25.9881
#
#
#
# Elastic Compliance Matrix: (Units=1/GPa)
#
#
# Indices 1 2 3 4 5 6 
#
# 1 0.043562 -0.004191 -0.005136 0.000000 -0.003932 0.000000
# 2 -0.004191 0.021886 -0.002985 0.000000 0.003596 0.000000
# 3 -0.005136 -0.002985 0.011340 0.000000 -0.014712 0.000000
# 4 0.000000 0.000000 0.000000 0.028920 0.000000 0.006384
# 5 -0.003932 0.003596 -0.014712 0.000000 0.061797 0.000000
# 6 0.000000 0.000000 0.000000 0.006384 0.000000 0.039888
#
#
# Mechanical properties :
#
#
# Convention : Reuss Voigt Hill
#
# Bulk Modulus (GPa) = 19.17054 36.05753 27.61403
# Shear Modulus (GPa) = 20.04771 29.23419 24.64095
#
# Velocity S-wave (km/s) = 2.93316 3.54200 3.25186
# Velocity P-wave (km/s) = 4.43826 5.67465 5.09410
#
# Compressibility (1/GPa) = 0.05216338
#
# Stress axis : x y z
#
# Youngs Moduli (GPa) = 22.95588 45.69218 88.18123
#
# Poissons Ratio (x) = 0.19150 0.45289
# Poissons Ratio (y) = 0.09621 0.26323
# Poissons Ratio (z) = 0.11790 0.13639
#
# Static dielectric constant tensor:
#      x y z
#    x 1.996340 0.000000 0.077250 
#    y 0.000000 1.847890 0.000000 
#    z 0.077250 0.000000 1.995710 
# 
# From -- ./inp_files/91277.got.cif
#   From: 2010.05.17/outbox.cif.g08.bks.cpg/sg12_46_cif.got.tgz:91277.got - 2010.06.03 13:09:07.
