data_PCOD9199900
_publ_section_title
;
Structure prediction by ZEFSAII (Michael W. Deem and Ramdas Pophale) SiO2 
 PCOD9199900
Probable space group: C 2/M
;
_chemical_formula_sum "Si O2"
_cell_formula_units_Z 40
_cell_length_a 17.893121
_cell_length_b 12.115266
_cell_length_c 9.422300
_cell_angle_alpha 90.000000
_cell_angle_beta 105.361252
_cell_angle_gamma 90.000000
_cell_volume 1969.594333
_symmetry_space_group_name_H-M "C 2/M"
_symmetry_group_IT_number 12
_symmetry_cell_setting 'monoclinic'
loop_
_space_group_symop_operation_xyz
x,y,z
-x,y,-z
-x,-y,-z
x,-y,z
1/2+x,1/2+y,z
1/2-x,1/2+y,-z
1/2-x,1/2-y,-z
1/2+x,1/2-y,z
loop_
_atom_site_type_symbol
_atom_site_label
_atom_site_fract_x
_atom_site_fract_y
_atom_site_fract_z
Si Si1 0.630723 0.631156 0.198328
Si Si2 0.117132 0.500000 0.059788
Si Si3 0.489141 0.000000 0.744501
Si Si4 0.317887 0.867511 0.324451
Si Si5 0.442880 0.226018 0.589528
Si Si6 0.838757 0.723044 0.035577
O O1 0.615730 0.500000 0.191547
O O2 0.724006 0.645972 0.276210
O O3 0.579690 0.696629 0.288908
O O4 0.617439 0.685151 0.035150
O O5 0.089401 0.500000 0.205161
O O6 0.159851 0.612173 0.054547
O O7 0.051510 0.500000 0.903071
O O8 0.486473 0.887066 0.657354
O O9 0.362061 0.814106 0.478664
O O10 0.332740 0.000000 0.323748
O O11 0.356300 0.808520 0.206178
O O12 0.500000 0.278842 0.500000
O O13 0.750000 0.750000 0.000000
#
# Coordination Sequence:
#
# PCOD9199900 Si02
#       6
#     8   4   4   8   8   8
#     4  10  23  42  60  85 122 172 207 250 297 366
#     4  11  20  38  62  96 124 155 203 258 313 354
#     4  11  23  36  64  92 126 156 196 264 316 366
#     4  10  20  37  63  92 126 149 198 259 316 361
#     4  12  23  38  61  93 123 159 202 255 315 371
#     4  10  20  36  62  89 120 159 199 248 305 360
#
# _framework density 20.30875
#
# number of rings (size 3 to 8) (size 9 to 14) (size 15 to 20)
#    0.000    1.400    4.000    2.100    1.400    0.400 
#    0.000    1.000    0.000    8.400    0.000    0.000 
#    0.000    0.000    0.000    0.000    0.000    0.000 
#
# Total GULP energy -111525.286972 kJ/mol
# GULP energy per Si atom -5576.264349 kJ/mol
# Density = 2.026253 g / cm^3
# Si number density = 20.308750 Si / 1000 Ang^3
#
#
#
# Elastic Constant Matrix: (Units=GPa)
#
#
# Indices 1 2 3 4 5 6 
#
# 1 62.4030 40.0395 25.1655 0.0000 -26.1033 0.0000
# 2 40.0395 129.9554 47.0785 0.0000 -24.1185 0.0000
# 3 25.1655 47.0785 76.9737 0.0000 -34.2840 0.0000
# 4 0.0000 0.0000 0.0000 48.3410 0.0000 -6.4364
# 5 -26.1033 -24.1185 -34.2840 0.0000 37.6405 0.0000
# 6 0.0000 0.0000 0.0000 -6.4364 0.0000 29.5592
#
#
#
# Elastic Compliance Matrix: (Units=1/GPa)
#
#
# Indices 1 2 3 4 5 6 
#
# 1 0.025504 -0.005710 0.002360 0.000000 0.016177 0.000000
# 2 -0.005710 0.011207 -0.005978 0.000000 -0.002224 0.000000
# 3 0.002360 -0.005978 0.025069 0.000000 0.020639 0.000000
# 4 0.000000 0.000000 0.000000 0.021304 0.000000 0.004639
# 5 0.016177 -0.002224 0.020639 0.000000 0.055159 0.000000
# 6 0.000000 0.000000 0.000000 0.004639 0.000000 0.034841
#
#
# Mechanical properties :
#
#
# Convention : Reuss Voigt Hill
#
# Bulk Modulus (GPa) = 23.18978 54.87766 39.03372
# Shear Modulus (GPa) = 24.25811 33.57805 28.91808
#
# Velocity S-wave (km/s) = 3.45985 4.07059 3.77758
# Velocity P-wave (km/s) = 5.23490 7.01236 6.18779
#
# Compressibility (1/GPa) = 0.04312244
#
# Stress axis : x y z
#
# Youngs Moduli (GPa) = 39.20939 89.22774 39.88967
#
# Poissons Ratio (x) = 0.50952 -0.09412
# Poissons Ratio (y) = 0.22390 0.23847
# Poissons Ratio (z) = -0.09252 0.53342
#
# Static dielectric constant tensor:
#      x y z
#    x 1.749330 0.000000 0.015990 
#    y 0.000000 1.674790 0.000000 
#    z 0.015990 0.000000 1.743760 
# 
# From -- ./inp_files/83688.got.cif
#   From: 2010.05.17/outbox.cif.g08.bks.cpg/sg12_42_cif.got.tgz:83688.got - 2010.06.03 13:09:07.
