data_PCOD9199590
_publ_section_title
;
Structure prediction by ZEFSAII (Michael W. Deem and Ramdas Pophale) SiO2 
 PCOD9199590
Probable space group: C 2/M
;
_chemical_formula_sum "Si O2"
_cell_formula_units_Z 40
_cell_length_a 19.614696
_cell_length_b 8.073340
_cell_length_c 25.602123
_cell_angle_alpha 90.000000
_cell_angle_beta 152.677821
_cell_angle_gamma 90.000000
_cell_volume 1860.875594
_symmetry_space_group_name_H-M "C 2/M"
_symmetry_group_IT_number 12
_symmetry_cell_setting 'monoclinic'
loop_
_space_group_symop_operation_xyz
x,y,z
-x,y,-z
-x,-y,-z
x,-y,z
1/2+x,1/2+y,z
1/2-x,1/2+y,-z
1/2-x,1/2-y,-z
1/2+x,1/2-y,z
loop_
_atom_site_type_symbol
_atom_site_label
_atom_site_fract_x
_atom_site_fract_y
_atom_site_fract_z
Si Si1 0.608877 0.797326 0.028677
Si Si2 0.081218 0.300815 0.894904
Si Si3 0.930357 0.804655 0.284573
Si Si4 0.476474 0.806150 0.543002
Si Si5 0.849908 0.696645 0.650367
O O1 0.777498 0.741828 0.154534
O O2 0.612408 0.000000 0.031572
O O3 0.500000 0.742092 0.000000
O O4 0.548295 0.744487 0.931257
O O5 0.073806 0.500000 0.888470
O O6 0.968858 0.240772 0.774293
O O7 0.250000 0.250000 0.000000
O O8 0.930533 0.774793 0.346713
O O9 0.072082 0.725889 0.352265
O O10 0.940589 0.000000 0.282166
O O11 0.500000 0.739828 0.500000
O O12 0.306027 0.782062 0.444441
O O13 0.514033 0.000000 0.567614
O O14 0.825768 0.500000 0.640038
#
# Coordination Sequence:
#
# PCOD9199590 Si02
#       5
#     8   8   8   8   8
#     4   9  19  35  58  89 123 157 194 242 297 350
#     4  10  20  36  60  90 123 156 195 243 293 355
#     4  11  22  39  66  91 121 161 204 250 298 360
#     4  11  26  45  63  86 121 158 199 254 310 362
#     4  11  23  39  64  92 123 160 204 251 295 358
#
# _framework density 21.495256999999999
#
# number of rings (size 3 to 8) (size 9 to 14) (size 15 to 20)
#    0.000    1.600    2.000    2.400    2.800    2.400 
#    0.000    0.000    0.000    3.000    0.000    0.000 
#    0.000    0.000    0.000    0.000    0.000    0.000 
#
# Total GULP energy -111781.668461 kJ/mol
# GULP energy per Si atom -5589.083423 kJ/mol
# Density = 2.144633 g / cm^3
# Si number density = 21.495257 Si / 1000 Ang^3
#
#
#
# Elastic Constant Matrix: (Units=GPa)
#
#
# Indices 1 2 3 4 5 6 
#
# 1 126.0408 -6.3120 10.5372 0.0000 -18.7761 0.0000
# 2 -6.3120 19.4428 -3.5626 -0.0001 -2.9366 0.0000
# 3 10.5372 -3.5626 65.0983 -0.0002 -17.5415 0.0000
# 4 0.0000 -0.0001 -0.0002 14.5877 -0.0001 -2.3172
# 5 -18.7761 -2.9366 -17.5415 -0.0001 39.6743 0.0000
# 6 0.0000 0.0000 0.0000 -2.3172 0.0000 23.7672
#
#
#
# Elastic Compliance Matrix: (Units=1/GPa)
#
#
# Indices 1 2 3 4 5 6 
#
# 1 0.008767 0.003501 -0.000045 0.000000 0.004388 0.000000
# 2 0.003501 0.054552 0.004488 0.000001 0.007679 0.000000
# 3 -0.000045 0.004488 0.017821 0.000000 0.008190 0.000000
# 4 0.000000 0.000001 0.000000 0.069629 0.000000 0.006789
# 5 0.004388 0.007679 0.008190 0.000000 0.031472 0.000000
# 6 0.000000 0.000000 0.000000 0.006789 0.000000 0.042737
#
#
# Mechanical properties :
#
#
# Convention : Reuss Voigt Hill
#
# Bulk Modulus (GPa) = 10.30648 23.54524 16.92586
# Shear Modulus (GPa) = 20.70975 29.60046 25.15511
#
# Velocity S-wave (km/s) = 3.10733 3.71491 3.42462
# Velocity P-wave (km/s) = 4.20466 5.42017 4.85064
#
# Compressibility (1/GPa) = 0.09702636
#
# Stress axis : x y z
#
# Youngs Moduli (GPa) = 114.06809 18.33128 56.11277
#
# Poissons Ratio (x) = -0.06417 0.00253
# Poissons Ratio (y) = -0.39931 -0.25183
# Poissons Ratio (z) = 0.00514 -0.08227
#
# Static dielectric constant tensor:
#      x y z
#    x 1.780480 0.000000 -0.033420 
#    y 0.000000 1.757950 0.000000 
#    z -0.033420 0.000000 1.775710 
# 
# From -- ./inp_files/151660.got.cif
#   From: 2010.05.17/outbox.cif.g08.bks.cpg/sg12_76_cif.got.tgz:151660.got - 2010.06.03 13:09:07.
