data_PCOD9199916
_publ_section_title
;
Structure prediction by ZEFSAII (Michael W. Deem and Ramdas Pophale) SiO2 
 PCOD9199916
Probable space group: C 2/M
;
_chemical_formula_sum "Si O2"
_cell_formula_units_Z 48
_cell_length_a 19.475750
_cell_length_b 8.953915
_cell_length_c 19.927579
_cell_angle_alpha 90.000000
_cell_angle_beta 136.040333
_cell_angle_gamma 90.000000
_cell_volume 2412.215851
_symmetry_space_group_name_H-M "C 2/M"
_symmetry_group_IT_number 12
_symmetry_cell_setting 'monoclinic'
loop_
_space_group_symop_operation_xyz
x,y,z
-x,y,-z
-x,-y,-z
x,-y,z
1/2+x,1/2+y,z
1/2-x,1/2+y,-z
1/2-x,1/2-y,-z
1/2+x,1/2-y,z
loop_
_atom_site_type_symbol
_atom_site_label
_atom_site_fract_x
_atom_site_fract_y
_atom_site_fract_z
Si Si1 0.848869 0.321507 0.599086
Si Si2 0.310153 0.823535 0.721093
Si Si3 0.610375 0.172522 0.597712
Si Si4 0.760519 0.177631 0.080481
Si Si5 0.933419 0.673333 0.278696
Si Si6 0.382653 0.677090 0.909512
O O1 0.837306 0.500000 0.585406
O O2 0.750000 0.250000 0.500000
O O3 0.861423 0.284867 0.686768
O O4 0.951906 0.280095 0.636283
O O5 0.195976 0.777135 0.631047
O O6 0.350221 0.737012 0.813856
O O7 0.319094 0.000000 0.739227
O O8 0.500000 0.216683 0.500000
O O9 0.613361 0.175962 0.680354
O O10 0.625521 0.000000 0.585849
O O11 0.867121 0.225319 0.184719
O O12 0.679539 0.242254 0.075768
O O13 0.751190 0.000000 0.070094
O O14 0.750000 0.250000 0.000000
O O15 0.931392 0.500000 0.253678
O O16 0.362683 0.500000 0.899504
O O17 0.500000 0.701865 0.000000
#
# Coordination Sequence:
#
# PCOD9199916 Si02
#       6
#     8   8   8   8   8   8
#     4  10  23  41  62  92 128 170 215 260 313 372
#     4  11  23  39  61  93 129 165 208 261 318 374
#     4  10  20  36  62  90 120 164 211 256 310 373
#     4  12  26  44  68  97 129 166 211 262 320 381
#     4  10  21  40  63  90 127 168 213 260 311 373
#     4  11  25  45  68  96 128 165 212 262 318 384
#
# _framework density 19.898716
#
# number of rings (size 3 to 8) (size 9 to 14) (size 15 to 20)
#    0.000    1.333    1.667    3.500    2.333    5.000 
#    0.000    0.000    0.000    0.000    0.000    0.000 
#    0.000    0.000    0.000    0.000    0.000    0.000 
#
# Total GULP energy -134186.749874 kJ/mol
# GULP energy per Si atom -5591.114578 kJ/mol
# Density = 1.985343 g / cm^3
# Si number density = 19.898716 Si / 1000 Ang^3
#
#
#
# Elastic Constant Matrix: (Units=GPa)
#
#
# Indices 1 2 3 4 5 6 
#
# 1 77.5445 33.6961 8.2599 0.0000 4.5954 0.0000
# 2 33.6961 84.8687 38.9073 0.0000 2.3392 0.0000
# 3 8.2599 38.9073 84.5852 0.0000 0.7360 0.0000
# 4 0.0000 0.0000 0.0000 33.3256 0.0000 0.4530
# 5 4.5954 2.3392 0.7360 0.0000 29.2821 0.0000
# 6 0.0000 0.0000 0.0000 0.4530 0.0000 25.5915
#
#
#
# Elastic Compliance Matrix: (Units=1/GPa)
#
#
# Indices 1 2 3 4 5 6 
#
# 1 0.015888 -0.007034 0.001701 0.000000 -0.001974 0.000000
# 2 -0.007034 0.018076 -0.007626 0.000000 -0.000148 0.000000
# 3 0.001701 -0.007626 0.015165 0.000000 -0.000039 0.000000
# 4 0.000000 0.000000 0.000000 0.030014 0.000000 -0.000531
# 5 -0.001974 -0.000148 -0.000039 0.000000 0.034473 0.000000
# 6 0.000000 0.000000 0.000000 -0.000531 0.000000 0.039085
#
#
# Mechanical properties :
#
#
# Convention : Reuss Voigt Hill
#
# Bulk Modulus (GPa) = 43.08386 45.41390 44.24888
# Shear Modulus (GPa) = 26.83048 28.71552 27.77300
#
# Velocity S-wave (km/s) = 3.67598 3.80292 3.73998
# Velocity P-wave (km/s) = 6.30203 6.49269 6.39807
#
# Compressibility (1/GPa) = 0.02321055
#
# Stress axis : x y z
#
# Youngs Moduli (GPa) = 62.94066 55.32258 65.94318
#
# Poissons Ratio (x) = 0.38911 -0.11217
# Poissons Ratio (y) = 0.44269 0.50290
# Poissons Ratio (z) = -0.10706 0.42191
#
# Static dielectric constant tensor:
#      x y z
#    x 1.691460 0.000000 -0.002070 
#    y 0.000000 1.672650 0.000000 
#    z -0.002070 0.000000 1.699280 
# 
# From -- ./inp_files/320304.got.cif
#   From: 2010.05.17/outbox.cif.g08.bks.cpg/sg12_161_cif.got.tgz:320304.got - 2010.06.03 13:09:07.
