data_PCOD9199859
_publ_section_title
;
Structure prediction by ZEFSAII (Michael W. Deem and Ramdas Pophale) SiO2 
 PCOD9199859
Probable space group: C 2/M
;
_chemical_formula_sum "Si O2"
_cell_formula_units_Z 64
_cell_length_a 26.688062
_cell_length_b 18.273393
_cell_length_c 11.704727
_cell_angle_alpha 90.000000
_cell_angle_beta 31.660509
_cell_angle_gamma 90.000000
_cell_volume 2996.137712
_symmetry_space_group_name_H-M "C 2/M"
_symmetry_group_IT_number 12
_symmetry_cell_setting 'monoclinic'
loop_
_space_group_symop_operation_xyz
x,y,z
-x,y,-z
-x,-y,-z
x,-y,z
1/2+x,1/2+y,z
1/2-x,1/2+y,-z
1/2-x,1/2-y,-z
1/2+x,1/2-y,z
loop_
_atom_site_type_symbol
_atom_site_label
_atom_site_fract_x
_atom_site_fract_y
_atom_site_fract_z
Si Si1 0.238015 0.691346 0.877221
Si Si2 0.413023 0.711923 0.946400
Si Si3 0.185509 0.086027 0.730146
Si Si4 0.456810 0.126516 0.958531
Si Si5 0.432268 0.736020 0.526490
Si Si6 0.741121 0.582140 0.361918
Si Si7 0.631161 0.883871 0.471176
Si Si8 0.613187 0.078730 0.258680
O O1 0.333174 0.703829 0.765760
O O2 0.279211 0.644860 0.690344
O O3 0.181543 0.761574 0.939300
O O4 0.160665 0.641617 0.092041
O O5 0.440374 0.787353 0.959501
O O6 0.497474 0.692655 0.694449
O O7 0.388371 0.644081 0.074527
O O8 0.197654 0.096940 0.570965
O O9 0.285788 0.104501 0.598680
O O10 0.163571 0.000000 0.792593
O O11 0.531627 0.093205 0.723092
O O12 0.500000 0.121185 0.000000
O O13 0.355623 0.087194 0.151738
O O14 0.500000 0.757309 0.500000
O O15 0.392653 0.802007 0.525505
O O16 0.713442 0.500000 0.379753
O O17 0.655715 0.921190 0.303698
O O18 0.500000 0.086562 0.500000
O O19 0.630357 0.000000 0.169608
#
# Coordination Sequence:
#
# PCOD9199859 Si02
#       8
#     8   8   8   8   8   8   8   8
#     4  11  23  42  67  93 128 170 219 276 324 386
#     4  10  23  40  63  95 126 169 218 271 321 383
#     4  11  23  39  61  92 132 175 213 260 322 391
#     4  10  20  36  61  96 131 164 213 269 323 386
#     4  11  24  41  66  96 126 168 219 275 331 384
#     4  10  22  39  62  92 130 174 215 261 327 395
#     4  11  21  38  59  92 126 162 207 262 331 383
#     4  11  23  39  62  93 130 168 212 266 327 393
#
# _framework density 21.360835000000002
#
# number of rings (size 3 to 8) (size 9 to 14) (size 15 to 20)
#    0.000    1.375    2.500    4.125    1.750    7.250 
#    0.000    1.250    0.000    3.750    0.000    0.000 
#    0.000    0.000    0.000    0.000    0.000    0.000 
#
# Total GULP energy -178762.154817 kJ/mol
# GULP energy per Si atom -5586.317338 kJ/mol
# Density = 2.131222 g / cm^3
# Si number density = 21.360835 Si / 1000 Ang^3
#
#
#
# Elastic Constant Matrix: (Units=GPa)
#
#
# Indices 1 2 3 4 5 6 
#
# 1 63.8792 3.4293 -2.6258 0.0000 4.2547 0.0000
# 2 3.4293 89.5273 44.9568 0.0000 10.3693 0.0000
# 3 -2.6258 44.9568 99.8145 0.0000 11.0051 0.0000
# 4 0.0000 0.0000 0.0000 -11.6536 0.0000 -0.3225
# 5 4.2547 10.3693 11.0051 0.0000 35.9885 0.0000
# 6 0.0000 0.0000 0.0000 -0.3225 0.0000 -3.2120
#
#
#
# Elastic Compliance Matrix: (Units=1/GPa)
#
#
# Indices 1 2 3 4 5 6 
#
# 1 0.015875 -0.000906 0.001039 0.000000 -0.001933 0.000000
# 2 -0.000906 0.014664 -0.006390 0.000000 -0.002164 0.000000
# 3 0.001039 -0.006390 0.013179 0.000000 -0.002312 0.000000
# 4 0.000000 0.000000 0.000000 -0.086050 0.000000 0.008638
# 5 -0.001933 -0.002164 -0.002312 0.000000 0.029346 0.000000
# 6 0.000000 0.000000 0.000000 0.008638 0.000000 -0.312199
#
#
# Mechanical properties :
#
#
# Convention : Reuss Voigt Hill
#
# Bulk Modulus (GPa) = 32.04764 38.30462 35.17613
# Shear Modulus (GPa) = -16.54147 18.05528 0.75691
#
# Velocity S-wave (km/s) = -2.78579 2.91048 0.59591
# Velocity P-wave (km/s) = 2.16519 5.40977 4.12029
#
# Compressibility (1/GPa) = 0.03120354
#
# Stress axis : x y z
#
# Youngs Moduli (GPa) = 62.99347 68.19494 75.87939
#
# Poissons Ratio (x) = 0.06177 -0.07882
# Poissons Ratio (y) = 0.05706 0.48486
# Poissons Ratio (z) = -0.06543 0.43576
#
# Static dielectric constant tensor:
#      x y z
#    x 1.788810 0.000000 -0.003070 
#    y 0.000000 1.827560 0.000000 
#    z -0.003070 0.000000 1.776050 
# 
# From -- ./inp_files/190051.got.cif
#   From: 2010.05.17/outbox.cif.g08.bks.cpg/sg12_96_cif.got.tgz:190051.got - 2010.06.03 13:09:07.
