data_PCOD9199587
_publ_section_title
;
Structure prediction by ZEFSAII (Michael W. Deem and Ramdas Pophale) SiO2 
 PCOD9199587
Probable space group: C 2/M
;
_chemical_formula_sum "Si O2"
_cell_formula_units_Z 56
_cell_length_a 22.102462
_cell_length_b 13.091859
_cell_length_c 28.278230
_cell_angle_alpha 90.000000
_cell_angle_beta 21.468736
_cell_angle_gamma 90.000000
_cell_volume 2994.798066
_symmetry_space_group_name_H-M "C 2/M"
_symmetry_group_IT_number 12
_symmetry_cell_setting 'monoclinic'
loop_
_space_group_symop_operation_xyz
x,y,z
-x,y,-z
-x,-y,-z
x,-y,z
1/2+x,1/2+y,z
1/2-x,1/2+y,-z
1/2-x,1/2-y,-z
1/2+x,1/2-y,z
loop_
_atom_site_type_symbol
_atom_site_label
_atom_site_fract_x
_atom_site_fract_y
_atom_site_fract_z
Si Si1 0.211588 0.879414 0.073013
Si Si2 0.495024 0.738283 0.700831
Si Si3 0.056164 0.881218 0.907742
Si Si4 0.496418 0.727563 0.855420
Si Si5 0.129770 0.764656 0.447486
Si Si6 0.233045 0.118387 0.459430
Si Si7 0.435592 0.118070 0.655406
O O1 0.086822 0.849489 0.121398
O O2 0.141136 0.820950 0.170264
O O3 0.218572 0.000000 0.074812
O O4 0.388608 0.830601 0.931656
O O5 0.606356 0.809210 0.653943
O O6 0.615802 0.656902 0.587367
O O7 0.432596 0.813530 0.704874
O O8 0.255196 0.877815 0.762871
O O9 0.984972 0.819000 0.916090
O O10 0.004033 0.000000 0.941981
O O11 0.000000 0.843210 0.000000
O O12 0.687876 0.744942 0.704853
O O13 0.142302 0.856109 0.476300
O O14 0.000000 0.782869 0.500000
O O15 0.066469 0.668185 0.524474
O O16 0.273121 0.000000 0.434742
O O17 0.474190 0.000000 0.638086
#
# Coordination Sequence:
#
# PCOD9199587 Si02
#       7
#     8   8   8   8   8   8   8
#     4  11  24  42  66  90 121 164 209 257 310 367
#     4  10  20  39  60  92 123 161 207 261 305 361
#     4  10  20  36  60  90 122 160 203 252 312 369
#     4  11  23  42  61  91 124 162 205 258 307 366
#     4  11  22  40  61  91 128 167 206 255 306 368
#     4  10  21  37  60  89 126 167 206 251 306 366
#     4  10  21  35  61  95 126 164 204 252 312 368
#
# _framework density 18.699090000000002
#
# number of rings (size 3 to 8) (size 9 to 14) (size 15 to 20)
#    0.000    1.571    2.857    2.143    0.000    2.286 
#    0.000    1.429    0.000    1.286    0.000    0.000 
#    0.000    0.000    0.000    0.000    0.000    0.000 
#
# Total GULP energy -156410.394481 kJ/mol
# GULP energy per Si atom -5586.085517 kJ/mol
# Density = 1.865653 g / cm^3
# Si number density = 18.699090 Si / 1000 Ang^3
#
#
#
# Elastic Constant Matrix: (Units=GPa)
#
#
# Indices 1 2 3 4 5 6 
#
# 1 117.4272 45.2230 31.7829 -0.0009 -1.2024 -0.0005
# 2 45.2230 125.7468 43.6607 0.0016 3.5756 0.0004
# 3 31.7829 43.6607 106.5546 0.0026 0.6359 0.0013
# 4 -0.0009 0.0016 0.0026 16.4773 0.0006 0.5395
# 5 -1.2024 3.5756 0.6359 0.0006 28.6154 0.0005
# 6 -0.0005 0.0004 0.0013 0.5395 0.0005 13.7719
#
#
#
# Elastic Compliance Matrix: (Units=1/GPa)
#
#
# Indices 1 2 3 4 5 6 
#
# 1 0.010190 -0.003068 -0.001787 0.000001 0.000851 0.000001
# 2 -0.003068 0.010229 -0.003268 -0.000001 -0.001334 0.000000
# 3 -0.001787 -0.003268 0.011257 -0.000002 0.000083 -0.000001
# 4 0.000001 -0.000001 -0.000002 0.060768 -0.000001 -0.002380
# 5 0.000851 -0.001334 0.000083 -0.000001 0.035147 -0.000001
# 6 0.000001 0.000000 -0.000001 -0.002380 -0.000001 0.072705
#
#
# Mechanical properties :
#
#
# Convention : Reuss Voigt Hill
#
# Bulk Modulus (GPa) = 64.81747 65.67353 65.24550
# Shear Modulus (GPa) = 22.55463 27.04374 24.79918
#
# Velocity S-wave (km/s) = 3.47679 3.80710 3.64569
# Velocity P-wave (km/s) = 7.13135 7.38396 7.25875
#
# Compressibility (1/GPa) = 0.01542794
#
# Stress axis : x y z
#
# Youngs Moduli (GPa) = 98.13497 97.76520 88.83737
#
# Poissons Ratio (x) = 0.29998 0.15878
# Poissons Ratio (y) = 0.30111 0.29032
# Poissons Ratio (z) = 0.17540 0.31949
#
# Static dielectric constant tensor:
#      x y z
#    x 1.654520 0.000000 0.005470 
#    y 0.000000 1.609350 0.000000 
#    z 0.005470 0.000000 1.659640 
# 
# From -- ./inp_files/174501.got.cif
#   From: 2010.05.17/outbox.cif.g08.bks.cpg/sg12_88_cif.got.tgz:174501.got - 2010.06.03 13:09:07.
