data_PCOD9199191
_publ_section_title
;
Structure prediction by ZEFSAII (Michael W. Deem and Ramdas Pophale) SiO2 
 PCOD9199191
Probable space group: C 2/M
;
_chemical_formula_sum "Si O2"
_cell_formula_units_Z 40
_cell_length_a 13.985828
_cell_length_b 29.508654
_cell_length_c 7.168983
_cell_angle_alpha 90.000000
_cell_angle_beta 140.234165
_cell_angle_gamma 90.000000
_cell_volume 1892.511522
_symmetry_space_group_name_H-M "C 2/M"
_symmetry_group_IT_number 12
_symmetry_cell_setting 'monoclinic'
loop_
_space_group_symop_operation_xyz
x,y,z
-x,y,-z
-x,-y,-z
x,-y,z
1/2+x,1/2+y,z
1/2-x,1/2+y,-z
1/2-x,1/2-y,-z
1/2+x,1/2-y,z
loop_
_atom_site_type_symbol
_atom_site_label
_atom_site_fract_x
_atom_site_fract_y
_atom_site_fract_z
Si Si1 0.825558 0.372836 0.455660
Si Si2 0.175480 0.222849 0.269136
Si Si3 0.176273 0.224413 0.759669
Si Si4 0.818540 0.448766 0.727262
Si Si5 0.327302 0.871802 0.020576
O O1 0.727832 0.329052 0.354152
O O2 0.777216 0.418211 0.488008
O O3 0.822737 0.380462 0.232320
O O4 0.998498 0.362148 0.768674
O O5 0.201465 0.234662 0.552754
O O6 0.207373 0.230880 0.059913
O O7 0.000000 0.231674 0.000000
O O8 0.000000 0.233123 0.500000
O O9 0.232107 0.172613 0.835612
O O10 0.760784 0.500000 0.643733
O O11 0.776846 0.416540 0.836826
O O12 0.000000 0.451741 0.000000
#
# Coordination Sequence:
#
# PCOD9199191 Si02
#       5
#     8   8   8   8   8
#     4  10  20  36  59  87 120 158 202 253 303 361
#     4  12  24  37  57  87 121 163 204 247 296 359
#     4  12  23  38  59  86 122 164 201 250 298 361
#     4   9  19  36  59  89 120 151 198 259 313 361
#     4  10  20  36  60  87 119 160 203 251 304 362
#
# _framework density 21.135933999999999
#
# number of rings (size 3 to 8) (size 9 to 14) (size 15 to 20)
#    0.000    1.400    2.000    4.800    0.000    2.400 
#    0.000    4.000    0.000    1.200    0.000    0.000 
#    0.000    0.000    0.000    0.000    0.000    0.000 
#
# Total GULP energy -111592.274004 kJ/mol
# GULP energy per Si atom -5579.613700 kJ/mol
# Density = 2.108783 g / cm^3
# Si number density = 21.135934 Si / 1000 Ang^3
#
#
#
# Elastic Constant Matrix: (Units=GPa)
#
#
# Indices 1 2 3 4 5 6 
#
# 1 142.0066 81.0281 48.5619 0.0000 -17.7974 0.0000
# 2 81.0281 207.1295 78.7426 0.0000 -4.7645 0.0000
# 3 48.5619 78.7426 116.3139 0.0000 -17.7419 0.0000
# 4 0.0000 0.0000 0.0000 26.8392 0.0000 -3.3276
# 5 -17.7974 -4.7645 -17.7419 0.0000 41.5374 0.0000
# 6 0.0000 0.0000 0.0000 -3.3276 0.0000 30.2364
#
#
#
# Elastic Compliance Matrix: (Units=1/GPa)
#
#
# Indices 1 2 3 4 5 6 
#
# 1 0.009757 -0.003205 -0.001414 0.000000 0.003209 0.000000
# 2 -0.003205 0.007612 -0.004162 0.000000 -0.002278 0.000000
# 3 -0.001414 -0.004162 0.012666 0.000000 0.004327 0.000000
# 4 0.000000 0.000000 0.000000 0.037774 0.000000 0.004157
# 5 0.003209 -0.002278 0.004327 0.000000 0.027036 0.000000
# 6 0.000000 0.000000 0.000000 0.004157 0.000000 0.033530
#
#
# Mechanical properties :
#
#
# Convention : Reuss Voigt Hill
#
# Bulk Modulus (GPa) = 80.18887 98.01280 89.10084
# Shear Modulus (GPa) = 33.31228 36.86376 35.08802
#
# Velocity S-wave (km/s) = 3.97432 4.18081 4.07887
# Velocity P-wave (km/s) = 7.68649 8.35337 8.02686
#
# Compressibility (1/GPa) = 0.01247056
#
# Stress axis : x y z
#
# Youngs Moduli (GPa) = 102.49482 131.37588 78.95454
#
# Poissons Ratio (x) = 0.42111 0.11164
# Poissons Ratio (y) = 0.32853 0.32863
# Poissons Ratio (z) = 0.14493 0.54682
#
# Static dielectric constant tensor:
#      x y z
#    x 2.590320 0.000000 -0.591260 
#    y 0.000000 1.659650 0.000000 
#    z -0.591260 0.000000 2.120620 
# 
# From -- ./inp_files/66646.got.cif
#   From: 2010.05.17/outbox.cif.g08.bks.cpg/sg12_34_cif.got.tgz:66646.got - 2010.06.03 13:09:07.
