data_PCOD9199328
_publ_section_title
;
Structure prediction by ZEFSAII (Michael W. Deem and Ramdas Pophale) SiO2 
 PCOD9199328
Probable space group: C 2/M
;
_chemical_formula_sum "Si O2"
_cell_formula_units_Z 48
_cell_length_a 24.026647
_cell_length_b 9.309749
_cell_length_c 9.904214
_cell_angle_alpha 90.000000
_cell_angle_beta 83.017882
_cell_angle_gamma 90.000000
_cell_volume 2198.965858
_symmetry_space_group_name_H-M "C 2/M"
_symmetry_group_IT_number 12
_symmetry_cell_setting 'monoclinic'
loop_
_space_group_symop_operation_xyz
x,y,z
-x,y,-z
-x,-y,-z
x,-y,z
1/2+x,1/2+y,z
1/2-x,1/2+y,-z
1/2-x,1/2-y,-z
1/2+x,1/2-y,z
loop_
_atom_site_type_symbol
_atom_site_label
_atom_site_fract_x
_atom_site_fract_y
_atom_site_fract_z
Si Si1 0.583907 0.833442 0.582058
Si Si2 0.710704 0.334341 0.180621
Si Si3 0.936735 0.170283 0.977366
Si Si4 0.461358 0.167000 0.711251
Si Si5 0.167558 0.331872 0.935244
Si Si6 0.192112 0.832670 0.493731
O O1 0.565055 0.826375 0.429972
O O2 0.527167 0.793332 0.677696
O O3 0.638727 0.737778 0.581437
O O4 0.597131 0.000000 0.609368
O O5 0.703817 0.500000 0.134039
O O6 0.777852 0.309971 0.173798
O O7 0.683112 0.321920 0.334410
O O8 0.688235 0.225955 0.075233
O O9 0.932045 0.230494 0.826730
O O10 0.930027 0.000000 0.983813
O O11 0.888688 0.245570 0.079132
O O12 0.000000 0.207935 0.000000
O O13 0.457807 0.000000 0.756737
O O14 0.155021 0.500000 0.943831
O O15 0.250000 0.750000 0.500000
O O16 0.198025 0.000000 0.527397
#
# Coordination Sequence:
#
# PCOD9199328 Si02
#       6
#     8   8   8   8   8   8
#     4   9  19  37  59  84 111 138 176 225 272 320
#     4   9  20  38  58  82 110 140 178 224 271 320
#     4  11  24  38  52  77 114 149 181 222 270 318
#     4   9  19  37  61  84 107 140 180 222 269 322
#     4  10  20  36  60  84 106 139 182 225 270 320
#     4  11  23  37  54  79 112 148 183 221 268 320
#
# _framework density 21.828444000000001
#
# number of rings (size 3 to 8) (size 9 to 14) (size 15 to 20)
#    0.000    2.167    0.000    3.500    0.000    8.667 
#    0.000    6.667    0.000    0.000    0.000    0.000 
#    0.000    0.000    0.000    0.000    0.000    0.000 
#
# Total GULP energy -134191.175477 kJ/mol
# GULP energy per Si atom -5591.298978 kJ/mol
# Density = 2.177876 g / cm^3
# Si number density = 21.828444 Si / 1000 Ang^3
#
#
#
# Elastic Constant Matrix: (Units=GPa)
#
#
# Indices 1 2 3 4 5 6 
#
# 1 128.9764 59.7733 6.8680 0.0000 -28.5639 0.0000
# 2 59.7733 70.6855 15.2518 0.0000 -21.0164 0.0000
# 3 6.8680 15.2518 48.2062 0.0000 -15.4331 0.0000
# 4 0.0000 0.0000 0.0000 15.9943 0.0000 -3.1363
# 5 -28.5639 -21.0164 -15.4331 0.0000 37.1632 0.0000
# 6 0.0000 0.0000 0.0000 -3.1363 0.0000 33.5843
#
#
#
# Elastic Compliance Matrix: (Units=1/GPa)
#
#
# Indices 1 2 3 4 5 6 
#
# 1 0.013830 -0.010627 0.003311 0.000000 0.005995 0.000000
# 2 -0.010627 0.025472 -0.005246 0.000000 0.004059 0.000000
# 3 0.003311 -0.005246 0.025139 0.000000 0.010018 0.000000
# 4 0.000000 0.000000 0.000000 0.063688 0.000000 0.005948
# 5 0.005995 0.004059 0.010018 0.000000 0.037972 0.000000
# 6 0.000000 0.000000 0.000000 0.005948 0.000000 0.030331
#
#
# Mechanical properties :
#
#
# Convention : Reuss Voigt Hill
#
# Bulk Modulus (GPa) = 25.43320 45.73938 35.58629
# Shear Modulus (GPa) = 21.30735 28.41336 24.86036
#
# Velocity S-wave (km/s) = 3.12769 3.61178 3.37842
# Velocity P-wave (km/s) = 4.97192 6.19619 5.61751
#
# Compressibility (1/GPa) = 0.03931869
#
# Stress axis : x y z
#
# Youngs Moduli (GPa) = 72.30894 39.25905 39.77812
#
# Poissons Ratio (x) = 0.41719 -0.13171
# Poissons Ratio (y) = 0.76840 0.20866
# Poissons Ratio (z) = -0.23942 0.20594
#
# Static dielectric constant tensor:
#      x y z
#    x 1.838580 0.000000 0.021360 
#    y 0.000000 1.736710 0.000000 
#    z 0.021360 0.000000 1.786940 
# 
# From -- ./inp_files/172177.got.cif
#   From: 2010.05.17/outbox.cif.g08.bks.cpg/sg12_87_cif.got.tgz:172177.got - 2010.06.03 13:09:07.
