data_PCOD9199439
_publ_section_title
;
Structure prediction by ZEFSAII (Michael W. Deem and Ramdas Pophale) SiO2 
 PCOD9199439
Probable space group: C 2/M
;
_chemical_formula_sum "Si O2"
_cell_formula_units_Z 56
_cell_length_a 27.242772
_cell_length_b 13.582553
_cell_length_c 7.681269
_cell_angle_alpha 90.000000
_cell_angle_beta 63.768012
_cell_angle_gamma 90.000000
_cell_volume 2549.551595
_symmetry_space_group_name_H-M "C 2/M"
_symmetry_group_IT_number 12
_symmetry_cell_setting 'monoclinic'
loop_
_space_group_symop_operation_xyz
x,y,z
-x,y,-z
-x,-y,-z
x,-y,z
1/2+x,1/2+y,z
1/2-x,1/2+y,-z
1/2-x,1/2-y,-z
1/2+x,1/2-y,z
loop_
_atom_site_type_symbol
_atom_site_label
_atom_site_fract_x
_atom_site_fract_y
_atom_site_fract_z
Si Si1 0.063962 0.241837 0.705023
Si Si2 0.564849 0.891488 0.403961
Si Si3 0.285846 0.108984 0.923218
Si Si4 0.794338 0.313447 0.271706
Si Si5 0.830572 0.886936 0.041299
Si Si6 0.674866 0.249920 0.435743
Si Si7 0.938328 0.224638 0.874306
O O1 0.072857 0.342019 0.580373
O O2 0.119013 0.189245 0.548282
O O3 0.066226 0.248552 0.911116
O O4 0.003498 0.202255 0.749063
O O5 0.500000 0.902091 0.500000
O O6 0.576035 0.815961 0.228748
O O7 0.589093 0.000000 0.345739
O O8 0.219389 0.121509 0.019593
O O9 0.314731 0.189775 0.757088
O O10 0.294489 0.000000 0.841057
O O11 0.812612 0.201474 0.196652
O O12 0.728876 0.313901 0.384302
O O13 0.821195 0.331173 0.414441
O O14 0.807320 0.378419 0.084625
O O15 0.893227 0.858134 0.898652
O O16 0.829588 0.000000 0.105847
#
# Coordination Sequence:
#
# PCOD9199439 Si02
#       7
#     8   8   8   8   8   8   8
#     4  10  21  36  59  88 122 161 208 251 299 359
#     4   9  20  37  58  86 118 159 204 245 296 360
#     4  10  23  40  63  96 127 159 200 252 314 376
#     4  10  21  39  64  87 119 164 199 246 317 366
#     4  10  20  39  65  89 118 160 208 256 305 362
#     4  10  20  36  60  87 118 160 206 249 295 359
#     4  10  21  39  61  86 124 169 200 249 311 361
#
# _framework density 21.964648
#
# number of rings (size 3 to 8) (size 9 to 14) (size 15 to 20)
#    0.000    2.143    1.429    1.714    4.000    1.714 
#    0.000    6.429    0.000    7.286    0.000    0.000 
#    0.000    0.000    0.000    0.000    0.000    0.000 
#
# Total GULP energy -155897.756831 kJ/mol
# GULP energy per Si atom -5567.777030 kJ/mol
# Density = 2.191466 g / cm^3
# Si number density = 21.964648 Si / 1000 Ang^3
#
#
#
# Elastic Constant Matrix: (Units=GPa)
#
#
# Indices 1 2 3 4 5 6 
#
# 1 128.1328 8.7503 53.6709 0.0000 -23.7424 0.0000
# 2 8.7503 70.4605 15.9719 0.0000 -7.9338 0.0000
# 3 53.6709 15.9719 84.8341 0.0000 -36.7761 0.0000
# 4 0.0000 0.0000 0.0000 10.9045 0.0000 -7.0975
# 5 -23.7424 -7.9338 -36.7761 0.0000 62.4896 0.0000
# 6 0.0000 0.0000 0.0000 -7.0975 0.0000 5.2514
#
#
#
# Elastic Compliance Matrix: (Units=1/GPa)
#
#
# Indices 1 2 3 4 5 6 
#
# 1 0.010622 0.000215 -0.006711 0.000000 0.000113 0.000000
# 2 0.000215 0.014834 -0.002788 0.000000 0.000324 0.000000
# 3 -0.006711 -0.002788 0.020540 0.000000 0.009184 0.000000
# 4 0.000000 0.000000 0.000000 0.762240 0.000000 1.030203
# 5 0.000113 0.000324 0.009184 0.000000 0.021492 0.000000
# 6 0.000000 0.000000 0.000000 1.030203 0.000000 1.582792
#
#
# Mechanical properties :
#
#
# Convention : Reuss Voigt Hill
#
# Bulk Modulus (GPa) = 36.46101 48.91263 42.68682
# Shear Modulus (GPa) = 2.04899 29.39806 15.72352
#
# Velocity S-wave (km/s) = 0.96689 3.66242 2.67845
# Velocity P-wave (km/s) = 4.22876 6.34047 5.38906
#
# Compressibility (1/GPa) = 0.02742656
#
# Stress axis : x y z
#
# Youngs Moduli (GPa) = 94.14501 67.41176 48.68523
#
# Poissons Ratio (x) = -0.01449 0.32675
# Poissons Ratio (y) = -0.02024 0.13575
# Poissons Ratio (z) = 0.63185 0.18797
#
# Static dielectric constant tensor:
#      x y z
#    x 1.934210 0.000000 -0.055780 
#    y 0.000000 1.784180 0.000000 
#    z -0.055780 0.000000 1.886270 
# 
# From -- ./inp_files/183957.got.cif
#   From: 2010.05.17/outbox.cif.g08.bks.cpg/sg12_92_cif.got.tgz:183957.got - 2010.06.03 13:09:07.
