data_PCOD9199218
_publ_section_title
;
Structure prediction by ZEFSAII (Michael W. Deem and Ramdas Pophale) SiO2 
 PCOD9199218
Probable space group: C 2/M
;
_chemical_formula_sum "Si O2"
_cell_formula_units_Z 56
_cell_length_a 18.242466
_cell_length_b 15.945827
_cell_length_c 29.824232
_cell_angle_alpha 90.000000
_cell_angle_beta 20.083188
_cell_angle_gamma 90.000000
_cell_volume 2979.065675
_symmetry_space_group_name_H-M "C 2/M"
_symmetry_group_IT_number 12
_symmetry_cell_setting 'monoclinic'
loop_
_space_group_symop_operation_xyz
x,y,z
-x,y,-z
-x,-y,-z
x,-y,z
1/2+x,1/2+y,z
1/2-x,1/2+y,-z
1/2-x,1/2-y,-z
1/2+x,1/2-y,z
loop_
_atom_site_type_symbol
_atom_site_label
_atom_site_fract_x
_atom_site_fract_y
_atom_site_fract_z
Si Si1 0.179504 0.089600 0.435079
Si Si2 0.650018 0.242856 0.008702
Si Si3 0.682045 0.100047 0.471229
Si Si4 0.384441 0.738552 0.289775
Si Si5 0.945312 0.405691 0.080540
Si Si6 0.722546 0.201485 0.282116
Si Si7 0.993464 0.138837 0.371851
O O1 0.308342 0.175003 0.355536
O O2 0.000000 0.091577 0.500000
O O3 0.068456 0.093208 0.546955
O O4 0.297141 0.000000 0.362956
O O5 0.546042 0.152429 0.060282
O O6 0.444996 0.305241 0.126350
O O7 0.750000 0.250000 0.000000
O O8 0.857905 0.244117 0.857754
O O9 0.786527 0.158555 0.372294
O O10 0.431668 0.122975 0.620421
O O11 0.799909 0.131382 0.448631
O O12 0.712671 0.000000 0.447070
O O13 0.294717 0.734307 0.290127
O O14 0.028733 0.500000 0.034936
O O15 0.693707 0.403337 0.232326
O O16 0.000000 0.370965 0.000000
O O17 0.576669 0.269807 0.339947
#
# Coordination Sequence:
#
# PCOD9199218 Si02
#       7
#     8   8   8   8   8   8   8
#     4  11  21  35  59  87 114 150 196 252 301 339
#     4   9  21  38  57  79 120 160 195 237 292 354
#     4  12  24  37  62  92 123 159 197 245 302 362
#     4  11  21  40  59  87 120 155 202 245 294 357
#     4  10  20  36  59  88 118 148 189 246 304 353
#     4  10  21  40  59  83 120 162 196 242 296 352
#     4  11  21  39  59  88 119 149 194 251 297 344
#
# _framework density 18.797840999999998
#
# number of rings (size 3 to 8) (size 9 to 14) (size 15 to 20)
#    0.000    1.429    2.857    3.000    0.000    2.857 
#    0.000    2.857    0.000    0.000    0.000    2.000 
#    0.000    0.000    0.000    0.000    0.000    0.000 
#
# Total GULP energy -156044.604494 kJ/mol
# GULP energy per Si atom -5573.021589 kJ/mol
# Density = 1.875506 g / cm^3
# Si number density = 18.797841 Si / 1000 Ang^3
#
#
#
# Elastic Constant Matrix: (Units=GPa)
#
#
# Indices 1 2 3 4 5 6 
#
# 1 73.6866 26.9672 27.6691 0.0267 -1.8020 -0.0009
# 2 26.9672 104.5282 51.3030 -0.0313 0.8210 -0.0431
# 3 27.6691 51.3030 133.2785 -0.0632 -8.0050 -0.1003
# 4 0.0267 -0.0313 -0.0632 3.4057 0.0090 -2.3639
# 5 -1.8020 0.8210 -8.0050 0.0090 21.0283 0.0226
# 6 -0.0009 -0.0431 -0.1003 -2.3639 0.0226 68.1529
#
#
#
# Elastic Compliance Matrix: (Units=1/GPa)
#
#
# Indices 1 2 3 4 5 6 
#
# 1 0.015441 -0.003003 -0.002009 -0.000196 0.000676 -0.000012
# 2 -0.003003 0.012483 -0.004325 0.000068 -0.002391 0.000005
# 3 -0.002009 -0.004325 0.009809 0.000159 0.003731 0.000016
# 4 -0.000196 0.000068 0.000159 0.300872 -0.000099 0.010436
# 5 0.000676 -0.002391 0.003731 -0.000099 0.049126 -0.000016
# 6 -0.000012 0.000005 0.000016 0.010436 -0.000016 0.015035
#
#
# Mechanical properties :
#
#
# Convention : Reuss Voigt Hill
#
# Bulk Modulus (GPa) = 52.46959 58.15244 55.31101
# Shear Modulus (GPa) = 11.68784 32.22097 21.95441
#
# Velocity S-wave (km/s) = 2.49623 4.14463 3.42119
# Velocity P-wave (km/s) = 6.02340 7.34213 6.71521
#
# Compressibility (1/GPa) = 0.01905866
#
# Stress axis : x y z
#
# Youngs Moduli (GPa) = 64.76264 80.10747 101.94350
#
# Poissons Ratio (x) = 0.24055 0.20483
# Poissons Ratio (y) = 0.19447 0.44094
# Poissons Ratio (z) = 0.13012 0.34649
#
# Static dielectric constant tensor:
#      x y z
#    x 1.645340 0.000000 0.010390 
#    y 0.000000 1.670750 0.000010 
#    z 0.010390 0.000010 1.707870 
# 
# From -- ./inp_files/379652.got.cif
#   From: 2010.05.17/outbox.cif.g08.bks.cpg/sg12_190_cif.got.tgz:379652.got - 2010.06.03 13:09:07.
