data_PCOD9199297
_publ_section_title
;
Structure prediction by ZEFSAII (Michael W. Deem and Ramdas Pophale) SiO2 
 PCOD9199297
Probable space group: C 2/M
;
_chemical_formula_sum "Si O2"
_cell_formula_units_Z 52
_cell_length_a 29.208875
_cell_length_b 15.649865
_cell_length_c 8.326840
_cell_angle_alpha 90.000000
_cell_angle_beta 143.397959
_cell_angle_gamma 90.000000
_cell_volume 2269.533340
_symmetry_space_group_name_H-M "C 2/M"
_symmetry_group_IT_number 12
_symmetry_cell_setting 'monoclinic'
loop_
_space_group_symop_operation_xyz
x,y,z
-x,y,-z
-x,-y,-z
x,-y,z
1/2+x,1/2+y,z
1/2-x,1/2+y,-z
1/2-x,1/2-y,-z
1/2+x,1/2-y,z
loop_
_atom_site_type_symbol
_atom_site_label
_atom_site_fract_x
_atom_site_fract_y
_atom_site_fract_z
Si Si1 0.000000 0.854843 0.500000
Si Si2 0.304449 0.335627 0.597214
Si Si3 0.496048 0.500000 0.737705
Si Si4 0.846712 0.597692 0.268978
Si Si5 0.530952 0.099024 0.833290
Si Si6 0.374296 0.500000 0.635949
Si Si7 0.872873 0.266422 0.099259
Si Si8 0.164573 0.653102 0.419068
O O1 0.983350 0.917129 0.306629
O O2 0.071709 0.797595 0.650621
O O3 0.332227 0.415626 0.575365
O O4 0.220361 0.364468 0.424189
O O5 0.325202 0.255180 0.541745
O O6 0.337221 0.294833 0.859260
O O7 0.408312 0.500000 0.552248
O O8 0.552591 0.500000 0.043090
O O9 0.832424 0.500000 0.173385
O O10 0.824324 0.672780 0.081172
O O11 0.810781 0.611497 0.344240
O O12 0.939007 0.607479 0.561982
O O13 0.570189 0.165868 0.824547
O O14 0.547690 0.000000 0.841186
O O15 0.579113 0.121560 0.130671
#
# Coordination Sequence:
#
# PCOD9199297 Si02
#       8
#     4   8   4   8   8   4   8   8
#     4  11  20  40  59  92 120 164 185 258 314 359
#     4  10  24  42  61  85 120 166 211 248 312 362
#     4  10  24  38  64  92 122 144 213 258 309 358
#     4  11  22  36  62  97 125 157 206 255 309 374
#     4  10  20  36  59  92 122 156 197 249 305 369
#     4  11  22  40  64  92 117 158 203 267 298 372
#     4  11  21  37  62  86 123 163 196 250 310 372
#     4  10  23  41  61  85 121 166 204 258 298 374
#
# _framework density 22.912201
#
# number of rings (size 3 to 8) (size 9 to 14) (size 15 to 20)
#    0.000    1.538    3.077    1.385    4.308    3.077 
#    2.769    0.000    0.000    0.000    0.000    0.000 
#    0.000    0.000    0.000    0.000    0.000    0.000 
#
# Total GULP energy -144868.269397 kJ/mol
# GULP energy per Si atom -5571.856515 kJ/mol
# Density = 2.286005 g / cm^3
# Si number density = 22.912201 Si / 1000 Ang^3
#
#
#
# Elastic Constant Matrix: (Units=GPa)
#
#
# Indices 1 2 3 4 5 6 
#
# 1 62.3140 27.2519 -7.0235 0.0000 3.7484 0.0000
# 2 27.2519 135.5904 8.6800 0.0000 6.5367 0.0000
# 3 -7.0235 8.6800 36.7029 0.0000 1.8498 0.0000
# 4 0.0000 0.0000 0.0000 44.3189 0.0000 -28.5041
# 5 3.7484 6.5367 1.8498 0.0000 31.7629 0.0000
# 6 0.0000 0.0000 0.0000 -28.5041 0.0000 79.6864
#
#
#
# Elastic Compliance Matrix: (Units=1/GPa)
#
#
# Indices 1 2 3 4 5 6 
#
# 1 0.018361 -0.003901 0.004518 0.000000 -0.001627 0.000000
# 2 -0.003901 0.008384 -0.002673 0.000000 -0.001109 0.000000
# 3 0.004518 -0.002673 0.028826 0.000000 -0.001662 0.000000
# 4 0.000000 0.000000 0.000000 0.029306 0.000000 0.010483
# 5 -0.001627 -0.001109 -0.001662 0.000000 0.032000 0.000000
# 6 0.000000 0.000000 0.000000 0.010483 0.000000 0.016299
#
#
# Mechanical properties :
#
#
# Convention : Reuss Voigt Hill
#
# Bulk Modulus (GPa) = 19.43310 32.49157 25.96234
# Shear Modulus (GPa) = 32.37465 44.86689 38.62077
#
# Velocity S-wave (km/s) = 3.76305 4.42997 4.11006
# Velocity P-wave (km/s) = 5.23266 6.35436 5.82059
#
# Compressibility (1/GPa) = 0.05145860
#
# Stress axis : x y z
#
# Youngs Moduli (GPa) = 54.46344 119.27703 34.69041
#
# Poissons Ratio (x) = 0.46531 -0.15674
# Poissons Ratio (y) = 0.21247 0.09274
# Poissons Ratio (z) = -0.24607 0.31887
#
# Static dielectric constant tensor:
#      x y z
#    x 1.895490 0.000000 0.012240 
#    y 0.000000 1.814660 0.000000 
#    z 0.012240 0.000000 2.007040 
# 
# From -- ./inp_files/112108.got.cif
#   From: 2010.05.17/outbox.cif.g08.bks.cpg/sg12_57_cif.got.tgz:112108.got - 2010.06.03 13:09:07.
