data_PCOD9199463
_publ_section_title
;
Structure prediction by ZEFSAII (Michael W. Deem and Ramdas Pophale) SiO2 
 PCOD9199463
Probable space group: C 2/M
;
_chemical_formula_sum "Si O2"
_cell_formula_units_Z 44
_cell_length_a 13.550348
_cell_length_b 17.186820
_cell_length_c 9.793832
_cell_angle_alpha 90.000000
_cell_angle_beta 66.827479
_cell_angle_gamma 90.000000
_cell_volume 2096.849714
_symmetry_space_group_name_H-M "C 2/M"
_symmetry_group_IT_number 12
_symmetry_cell_setting 'monoclinic'
loop_
_space_group_symop_operation_xyz
x,y,z
-x,y,-z
-x,-y,-z
x,-y,z
1/2+x,1/2+y,z
1/2-x,1/2+y,-z
1/2-x,1/2-y,-z
1/2+x,1/2-y,z
loop_
_atom_site_type_symbol
_atom_site_label
_atom_site_fract_x
_atom_site_fract_y
_atom_site_fract_z
Si Si1 0.732888 0.711998 0.784452
Si Si2 0.876061 0.589169 0.547997
Si Si3 0.000000 0.644026 0.000000
Si Si4 0.691969 0.122038 0.720186
Si Si5 0.936192 0.910773 0.670926
Si Si6 0.591556 0.283557 0.108323
O O1 0.794622 0.644728 0.672861
O O2 0.695668 0.783332 0.709866
O O3 0.814399 0.755856 0.842120
O O4 0.638582 0.685837 0.938523
O O5 0.869490 0.500000 0.601354
O O6 0.844109 0.591259 0.406365
O O7 0.000000 0.615222 0.500000
O O8 0.896394 0.601216 0.115928
O O9 0.034707 0.702951 0.101354
O O10 0.809563 0.094013 0.702255
O O11 0.964855 0.851464 0.776511
O O12 0.000000 0.888012 0.500000
O O13 0.963088 0.000000 0.690184
#
# Coordination Sequence:
#
# PCOD9199463 Si02
#       6
#     8   8   4   8   8   8
#     4   9  19  36  56  79 110 149 191 232 274 332
#     4  11  23  36  54  86 123 153 185 233 295 351
#     4  10  20  36  60  88 114 140 190 246 292 340
#     4  10  21  39  62  85 112 152 196 238 283 339
#     4  10  22  39  58  83 117 156 196 235 278 336
#     4   9  19  35  56  82 109 144 190 234 280 333
#
# _framework density 20.983858999999999
#
# number of rings (size 3 to 8) (size 9 to 14) (size 15 to 20)
#    0.000    2.182    0.000    3.273    0.000    9.455 
#    0.000    4.091    0.000    0.000    0.000    0.000 
#    0.000    0.000    0.000    0.000    0.000    0.000 
#
# Total GULP energy -122782.344210 kJ/mol
# GULP energy per Si atom -5581.015646 kJ/mol
# Density = 2.093610 g / cm^3
# Si number density = 20.983859 Si / 1000 Ang^3
#
#
#
# Elastic Constant Matrix: (Units=GPa)
#
#
# Indices 1 2 3 4 5 6 
#
# 1 52.9998 -10.2974 12.6646 0.0000 -9.4078 0.0000
# 2 -10.2974 76.0133 51.8739 0.0000 -11.6965 0.0000
# 3 12.6646 51.8739 93.7675 0.0000 -22.4462 0.0000
# 4 0.0000 0.0000 0.0000 36.3580 0.0000 -37.2804
# 5 -9.4078 -11.6965 -22.4462 0.0000 42.4586 0.0000
# 6 0.0000 0.0000 0.0000 -37.2804 0.0000 58.5116
#
#
#
# Elastic Compliance Matrix: (Units=1/GPa)
#
#
# Indices 1 2 3 4 5 6 
#
# 1 0.022751 0.008263 -0.006746 0.000000 0.003751 0.000000
# 2 0.008263 0.024142 -0.014244 0.000000 0.000951 0.000000
# 3 -0.006746 -0.014244 0.020790 0.000000 0.005572 0.000000
# 4 0.000000 0.000000 0.000000 0.079334 0.000000 0.050547
# 5 0.003751 0.000951 0.005572 0.000000 0.027591 0.000000
# 6 0.000000 0.000000 0.000000 0.050547 0.000000 0.049296
#
#
# Mechanical properties :
#
#
# Convention : Reuss Voigt Hill
#
# Bulk Modulus (GPa) = 23.68066 36.80696 30.24381
# Shear Modulus (GPa) = 18.97999 38.70159 28.84079
#
# Velocity S-wave (km/s) = 3.01076 4.29925 3.71135
# Velocity P-wave (km/s) = 4.83693 6.49795 5.72797
#
# Compressibility (1/GPa) = 0.04222856
#
# Stress axis : x y z
#
# Youngs Moduli (GPa) = 43.95348 41.42158 48.10048
#
# Poissons Ratio (x) = -0.34227 0.32450
# Poissons Ratio (y) = -0.36319 0.68515
# Poissons Ratio (z) = 0.29652 0.59002
#
# Static dielectric constant tensor:
#      x y z
#    x 1.829050 0.000000 -0.025700 
#    y 0.000000 1.756060 0.000000 
#    z -0.025700 0.000000 1.742500 
# 
# From -- ./inp_files/60989.got.cif
#   From: 2010.05.17/outbox.cif.g08.bks.cpg/sg12_31_cif.got.tgz:60989.got - 2010.06.03 13:09:07.
