data_PCOD9199247
_publ_section_title
;
Structure prediction by ZEFSAII (Michael W. Deem and Ramdas Pophale) SiO2 
 PCOD9199247
Probable space group: C 2/M
;
_chemical_formula_sum "Si O2"
_cell_formula_units_Z 60
_cell_length_a 22.788593
_cell_length_b 24.508537
_cell_length_c 9.062728
_cell_angle_alpha 90.000000
_cell_angle_beta 142.838293
_cell_angle_gamma 90.000000
_cell_volume 3057.586053
_symmetry_space_group_name_H-M "C 2/M"
_symmetry_group_IT_number 12
_symmetry_cell_setting 'monoclinic'
loop_
_space_group_symop_operation_xyz
x,y,z
-x,y,-z
-x,-y,-z
x,-y,z
1/2+x,1/2+y,z
1/2-x,1/2+y,-z
1/2-x,1/2-y,-z
1/2+x,1/2-y,z
loop_
_atom_site_type_symbol
_atom_site_label
_atom_site_fract_x
_atom_site_fract_y
_atom_site_fract_z
Si Si1 0.859531 0.185836 0.343955
Si Si2 0.214024 0.500000 0.770165
Si Si3 0.732588 0.395771 0.319712
Si Si4 0.610728 0.910655 0.765024
Si Si5 0.055131 0.282541 0.961817
Si Si6 0.367123 0.813319 0.404838
Si Si7 0.204044 0.624608 0.233771
Si Si8 0.414791 0.672394 0.123759
O O1 0.838325 0.250577 0.317279
O O2 0.785989 0.151085 0.293860
O O3 0.862160 0.169939 0.176981
O O4 0.969487 0.173918 0.619086
O O5 0.242646 0.451779 0.709772
O O6 0.179710 0.452313 0.819142
O O7 0.800900 0.347700 0.385615
O O8 0.749909 0.401007 0.528499
O O9 0.625379 0.375159 0.059890
O O10 0.500000 0.925072 0.500000
O O11 0.627078 0.849698 0.731304
O O12 0.637007 0.911182 0.990159
O O13 0.105638 0.230603 0.990841
O O14 0.974611 0.307449 0.690399
O O15 0.134306 0.327726 0.152537
O O16 0.000000 0.265508 0.000000
#
# Coordination Sequence:
#
# PCOD9199247 Si02
#       8
#     8   4   8   8   8   8   8   8
#     4  10  22  39  61  97 126 173 210 252 298 382
#     4  10  25  46  65  84 120 162 220 265 323 364
#     4  11  24  41  61  90 124 165 203 269 313 366
#     4  11  22  40  64  89 119 169 211 264 304 373
#     4  11  21  35  58  98 138 174 198 244 306 386
#     4  10  20  36  59  88 134 168 209 239 304 370
#     4  12  24  37  65  95 131 158 212 255 320 377
#     4  10  23  39  62  87 132 171 214 251 307 368
#
# _framework density 19.623322999999999
#
# number of rings (size 3 to 8) (size 9 to 14) (size 15 to 20)
#    0.000    1.333    2.667    3.400    5.600    3.200 
#    0.000    0.667    0.000    8.000    0.000    0.000 
#    0.000    0.000    0.000    0.000    0.000    0.000 
#
# Total GULP energy -167109.593133 kJ/mol
# GULP energy per Si atom -5570.319771 kJ/mol
# Density = 1.957866 g / cm^3
# Si number density = 19.623323 Si / 1000 Ang^3
#
#
#
# Elastic Constant Matrix: (Units=GPa)
#
#
# Indices 1 2 3 4 5 6 
#
# 1 65.0716 24.1141 32.3741 0.0000 -9.4166 0.0000
# 2 24.1141 76.4999 47.1734 0.0000 -15.5159 0.0000
# 3 32.3741 47.1734 104.5155 0.0000 -28.8091 0.0000
# 4 0.0000 0.0000 0.0000 -0.0651 0.0000 -6.5131
# 5 -9.4166 -15.5159 -28.8091 0.0000 27.0152 0.0000
# 6 0.0000 0.0000 0.0000 -6.5131 0.0000 18.5603
#
#
#
# Elastic Compliance Matrix: (Units=1/GPa)
#
#
# Indices 1 2 3 4 5 6 
#
# 1 0.018724 -0.003220 -0.004330 0.000000 0.000060 0.000000
# 2 -0.003220 0.018776 -0.006818 0.000000 0.002390 0.000000
# 3 -0.004330 -0.006818 0.017692 0.000000 0.013441 0.000000
# 4 0.000000 0.000000 0.000000 -0.425411 0.000000 -0.149284
# 5 0.000060 0.002390 0.013441 0.000000 0.052744 0.000000
# 6 0.000000 0.000000 0.000000 -0.149284 0.000000 0.001492
#
#
# Mechanical properties :
#
#
# Convention : Reuss Voigt Hill
#
# Bulk Modulus (GPa) = 37.80000 50.37893 44.08946
# Shear Modulus (GPa) = -17.95795 18.59709 0.31957
#
# Velocity S-wave (km/s) = -3.02840 3.08182 0.40399
# Velocity P-wave (km/s) = 2.66014 6.19614 4.76805
#
# Compressibility (1/GPa) = 0.02645502
#
# Stress axis : x y z
#
# Youngs Moduli (GPa) = 53.40797 53.25872 56.52378
#
# Poissons Ratio (x) = 0.17149 0.24475
# Poissons Ratio (y) = 0.17197 0.38540
# Poissons Ratio (z) = 0.23126 0.36314
#
# Static dielectric constant tensor:
#      x y z
#    x 1.695260 0.000000 0.009920 
#    y 0.000000 1.639170 0.000000 
#    z 0.009920 0.000000 1.744390 
# 
# From -- ./inp_files/99799.got.cif
#   From: 2010.05.17/outbox.cif.g08.bks.cpg/sg12_50_cif.got.tgz:99799.got - 2010.06.03 13:09:07.
