data_PCOD9199969
_publ_section_title
;
Structure prediction by ZEFSAII (Michael W. Deem and Ramdas Pophale) SiO2 
 PCOD9199969
Probable space group: C 2/M
;
_chemical_formula_sum "Si O2"
_cell_formula_units_Z 24
_cell_length_a 10.000820
_cell_length_b 10.596896
_cell_length_c 10.280397
_cell_angle_alpha 90.000000
_cell_angle_beta 60.690430
_cell_angle_gamma 90.000000
_cell_volume 950.023697
_symmetry_space_group_name_H-M "C 2/M"
_symmetry_group_IT_number 12
_symmetry_cell_setting 'monoclinic'
loop_
_space_group_symop_operation_xyz
x,y,z
-x,y,-z
-x,-y,-z
x,-y,z
1/2+x,1/2+y,z
1/2-x,1/2+y,-z
1/2-x,1/2-y,-z
1/2+x,1/2-y,z
loop_
_atom_site_type_symbol
_atom_site_label
_atom_site_fract_x
_atom_site_fract_y
_atom_site_fract_z
Si Si1 0.134031 0.756650 0.177295
Si Si2 0.814082 0.848397 0.576311
Si Si3 0.939986 0.000000 0.884977
Si Si4 0.076673 0.500000 0.105815
O O1 0.227682 0.793156 0.260652
O O2 0.019333 0.872854 0.207172
O O3 0.050596 0.622870 0.207431
O O4 0.250000 0.750000 0.000000
O O5 0.750000 0.750000 0.500000
O O6 0.000000 0.839236 0.500000
O O7 0.778424 0.000000 0.579656
O O8 0.000000 0.000000 0.000000
O O9 0.756729 0.000000 0.983924
O O10 0.000000 0.500000 0.000000
#
# Coordination Sequence:
#
# PCOD9199969 Si02
#       4
#     8   8   4   4
#     4  10  22  44  68 102 137 179 235 295 349 421
#     4  11  27  50  74 106 147 194 243 297 364 436
#     4  10  20  36  62  92 132 170 215 280 345 400
#     4  10  22  36  60  98 132 168 221 282 347 404
#
# _framework density 25.262528
#
# number of rings (size 3 to 8) (size 9 to 14) (size 15 to 20)
#    0.000    1.667    1.667    1.000    2.333   11.333 
#    0.000    0.000    0.000    0.000    0.000    0.000 
#    0.000    0.000    0.000    0.000    0.000    0.000 
#
# Total GULP energy -67076.114822 kJ/mol
# GULP energy per Si atom -5589.676235 kJ/mol
# Density = 2.520503 g / cm^3
# Si number density = 25.262528 Si / 1000 Ang^3
#
#
#
# Elastic Constant Matrix: (Units=GPa)
#
#
# Indices 1 2 3 4 5 6 
#
# 1 129.8597 65.5658 50.8306 0.0000 34.8767 0.0000
# 2 65.5658 350.0078 92.2158 0.0000 60.3343 0.0000
# 3 50.8306 92.2158 187.9940 0.0000 54.2618 0.0000
# 4 0.0000 0.0000 0.0000 45.9789 0.0000 13.3324
# 5 34.8767 60.3343 54.2618 0.0000 61.6368 0.0000
# 6 0.0000 0.0000 0.0000 13.3324 0.0000 40.2482
#
#
#
# Elastic Compliance Matrix: (Units=1/GPa)
#
#
# Indices 1 2 3 4 5 6 
#
# 1 0.009537 -0.000879 -0.001124 0.000000 -0.003547 0.000000
# 2 -0.000879 0.003652 -0.000892 0.000000 -0.002292 0.000000
# 3 -0.001124 -0.000892 0.007541 0.000000 -0.005130 0.000000
# 4 0.000000 0.000000 0.000000 0.024060 0.000000 -0.007970
# 5 -0.003547 -0.002292 -0.005130 0.000000 0.024991 0.000000
# 6 0.000000 0.000000 0.000000 -0.007970 0.000000 0.027486
#
#
# Mechanical properties :
#
#
# Convention : Reuss Voigt Hill
#
# Bulk Modulus (GPa) = 66.93301 120.56512 93.74906
# Shear Modulus (GPa) = 46.28053 60.18939 53.23496
#
# Velocity S-wave (km/s) = 4.28481 4.88644 4.59548
# Velocity P-wave (km/s) = 7.14367 8.92552 8.08384
#
# Compressibility (1/GPa) = 0.01494031
#
# Stress axis : x y z
#
# Youngs Moduli (GPa) = 104.85661 273.83165 132.60020
#
# Poissons Ratio (x) = 0.24072 0.14901
# Poissons Ratio (y) = 0.09218 0.11830
# Poissons Ratio (z) = 0.11783 0.24429
#
# Static dielectric constant tensor:
#      x y z
#    x 2.084200 0.000000 -0.209010 
#    y 0.000000 2.295990 0.000000 
#    z -0.209010 0.000000 2.241460 
# 
# From -- ./inp_files/43831.got.cif
#   From: 2010.05.17/outbox.cif.g08.bks.cpg/sg12_22_cif.got.tgz:43831.got - 2010.06.03 13:09:07.
