data_PCOD9199434
_publ_section_title
;
Structure prediction by ZEFSAII (Michael W. Deem and Ramdas Pophale) SiO2 
 PCOD9199434
Probable space group: C 2/M
;
_chemical_formula_sum "Si O2"
_cell_formula_units_Z 64
_cell_length_a 20.889317
_cell_length_b 8.531482
_cell_length_c 20.495840
_cell_angle_alpha 90.000000
_cell_angle_beta 68.366646
_cell_angle_gamma 90.000000
_cell_volume 3395.414640
_symmetry_space_group_name_H-M "C 2/M"
_symmetry_group_IT_number 12
_symmetry_cell_setting 'monoclinic'
loop_
_space_group_symop_operation_xyz
x,y,z
-x,y,-z
-x,-y,-z
x,-y,z
1/2+x,1/2+y,z
1/2-x,1/2+y,-z
1/2-x,1/2-y,-z
1/2+x,1/2-y,z
loop_
_atom_site_type_symbol
_atom_site_label
_atom_site_fract_x
_atom_site_fract_y
_atom_site_fract_z
Si Si1 0.061050 0.689635 0.664229
Si Si2 0.465967 0.809267 0.579308
Si Si3 0.686881 0.313603 0.193037
Si Si4 0.713920 0.312109 0.579480
Si Si5 0.956680 0.310249 0.813141
Si Si6 0.189819 0.310232 0.336582
Si Si7 0.056942 0.689649 0.031309
Si Si8 0.209530 0.813291 0.952328
O O1 0.065545 0.500000 0.662362
O O2 0.136105 0.754998 0.619962
O O3 0.009317 0.739072 0.625891
O O4 0.023619 0.737495 0.745768
O O5 0.500000 0.752665 0.500000
O O6 0.386979 0.762768 0.613578
O O7 0.467291 0.000000 0.577998
O O8 0.685864 0.500000 0.187838
O O9 0.613114 0.249459 0.195233
O O10 0.701098 0.262025 0.261572
O O11 0.747001 0.244701 0.125531
O O12 0.715001 0.500000 0.575885
O O13 0.750000 0.250000 0.500000
O O14 0.757670 0.262510 0.626628
O O15 0.953719 0.500000 0.812759
O O16 0.958486 0.260172 0.888174
O O17 0.191874 0.500000 0.330071
O O18 0.058041 0.500000 0.030879
O O19 0.132102 0.749579 0.983340
O O20 0.000000 0.740908 0.000000
O O21 0.208608 0.000000 0.954581
O O22 0.250000 0.750000 0.000000
#
# Coordination Sequence:
#
# PCOD9199434 Si02
#       8
#     8   8   8   8   8   8   8   8
#     4  10  20  36  60  87 117 161 205 245 303 368
#     4   9  16  30  56  85 111 147 197 241 284 351
#     4  12  24  38  62  94 126 160 203 263 319 368
#     4  11  24  41  63  89 124 166 205 255 309 367
#     4  10  20  38  63  87 121 166 204 249 305 372
#     4  10  21  40  62  86 119 161 206 249 301 366
#     4  10  22  40  63  94 130 167 208 254 308 371
#     4  12  24  40  64  93 126 168 215 261 313 372
#
# _framework density 18.848951
#
# number of rings (size 3 to 8) (size 9 to 14) (size 15 to 20)
#    0.000    1.500    2.500    3.375    0.000    4.750 
#    0.000    1.250    0.000    1.500    0.000    0.000 
#    0.000    0.000    0.000    0.000    0.000    0.000 
#
# Total GULP energy -178790.907937 kJ/mol
# GULP energy per Si atom -5587.215873 kJ/mol
# Density = 1.880605 g / cm^3
# Si number density = 18.848951 Si / 1000 Ang^3
#
#
#
# Elastic Constant Matrix: (Units=GPa)
#
#
# Indices 1 2 3 4 5 6 
#
# 1 87.6599 13.0040 22.5397 -0.0006 -11.5889 -0.0011
# 2 13.0040 23.5072 14.9326 -0.0004 -0.0300 -0.0007
# 3 22.5397 14.9326 126.5303 -0.0004 -13.4376 -0.0008
# 4 -0.0006 -0.0004 -0.0004 25.5771 -0.0001 -6.8127
# 5 -11.5889 -0.0300 -13.4376 -0.0001 36.9817 -0.0002
# 6 -0.0011 -0.0007 -0.0008 -6.8127 -0.0002 24.1741
#
#
#
# Elastic Compliance Matrix: (Units=1/GPa)
#
#
# Indices 1 2 3 4 5 6 
#
# 1 0.013168 -0.006528 -0.001183 0.000000 0.003691 0.000000
# 2 -0.006528 0.049369 -0.005072 0.000001 -0.003849 0.000001
# 3 -0.001183 -0.005072 0.009021 0.000000 0.002903 0.000000
# 4 0.000000 0.000001 0.000000 0.042271 0.000000 0.011913
# 5 0.003691 -0.003849 0.002903 0.000000 0.029249 0.000000
# 6 0.000000 0.000001 0.000000 0.011913 0.000000 0.044724
#
#
# Mechanical properties :
#
#
# Convention : Reuss Voigt Hill
#
# Bulk Modulus (GPa) = 21.74359 37.62777 29.68568
# Shear Modulus (GPa) = 21.86285 29.82799 25.84542
#
# Velocity S-wave (km/s) = 3.40942 3.98235 3.70697
# Velocity P-wave (km/s) = 5.20189 6.41495 5.84000
#
# Compressibility (1/GPa) = 0.04599055
#
# Stress axis : x y z
#
# Youngs Moduli (GPa) = 75.93916 20.25583 110.85354
#
# Poissons Ratio (x) = 0.13224 0.13118
# Poissons Ratio (y) = 0.49575 0.56226
# Poissons Ratio (z) = 0.08986 0.10274
#
# Static dielectric constant tensor:
#      x y z
#    x 1.620110 0.000000 0.012340 
#    y 0.000000 1.646740 0.000000 
#    z 0.012340 0.000000 1.628560 
# 
# From -- ./inp_files/319829.got.cif
#   From: 2010.05.17/outbox.cif.g08.bks.cpg/sg12_160_cif.got.tgz:319829.got - 2010.06.03 13:09:07.
