data_PCOD9199291
_publ_section_title
;
Structure prediction by ZEFSAII (Michael W. Deem and Ramdas Pophale) SiO2 
 PCOD9199291
Probable space group: C 2/M
;
_chemical_formula_sum "Si O2"
_cell_formula_units_Z 64
_cell_length_a 13.853304
_cell_length_b 18.121517
_cell_length_c 18.048296
_cell_angle_alpha 90.000000
_cell_angle_beta 41.545870
_cell_angle_gamma 90.000000
_cell_volume 3004.978477
_symmetry_space_group_name_H-M "C 2/M"
_symmetry_group_IT_number 12
_symmetry_cell_setting 'monoclinic'
loop_
_space_group_symop_operation_xyz
x,y,z
-x,y,-z
-x,-y,-z
x,-y,z
1/2+x,1/2+y,z
1/2-x,1/2+y,-z
1/2-x,1/2-y,-z
1/2+x,1/2-y,z
loop_
_atom_site_type_symbol
_atom_site_label
_atom_site_fract_x
_atom_site_fract_y
_atom_site_fract_z
Si Si1 0.765341 0.412897 0.030363
Si Si2 0.207038 0.739106 0.683989
Si Si3 0.910584 0.142358 0.476736
Si Si4 0.138762 0.331655 0.284192
Si Si5 0.343924 0.587346 0.068093
Si Si6 0.412388 0.084222 0.202299
Si Si7 0.112333 0.421111 0.610650
Si Si8 0.572394 0.305638 0.237404
O O1 0.732406 0.500000 0.059448
O O2 0.678205 0.363728 0.138281
O O3 0.713257 0.387399 0.978756
O O4 0.940456 0.406691 0.928924
O O5 0.312004 0.711838 0.558118
O O6 0.295922 0.797380 0.680293
O O7 0.174894 0.662195 0.748351
O O8 0.061188 0.777244 0.737138
O O9 0.784823 0.086897 0.522454
O O10 0.009592 0.161652 0.350310
O O11 0.000000 0.120418 0.500000
O O12 0.233539 0.397967 0.198083
O O13 0.971703 0.356997 0.383416
O O14 0.154835 0.268397 0.213193
O O15 0.360014 0.500000 0.050130
O O16 0.500000 0.620444 0.000000
O O17 0.448123 0.080788 0.270015
O O18 0.351640 0.000000 0.220773
O O19 0.078943 0.500000 0.595660
#
# Coordination Sequence:
#
# PCOD9199291 Si02
#       8
#     8   8   8   8   8   8   8   8
#     4  10  21  39  61  87 130 177 210 264 335 392
#     4  11  23  39  64 101 124 173 218 272 332 384
#     4  11  23  43  68  93 126 169 216 270 334 388
#     4  12  22  37  65  98 127 168 215 274 324 390
#     4  10  20  36  59  91 131 175 216 259 317 391
#     4   9  18  39  65  88 125 170 214 261 321 385
#     4  10  21  41  69  97 125 166 221 268 318 385
#     4  12  24  39  62  92 134 169 217 276 330 394
#
# _framework density 21.297989000000001
#
# number of rings (size 3 to 8) (size 9 to 14) (size 15 to 20)
#    0.000    1.375    5.000    1.500    0.000    3.750 
#    0.000    1.250    0.000    2.250    0.000    0.000 
#    0.000    0.000    0.000    0.000    0.000    0.000 
#
# Total GULP energy -178548.732370 kJ/mol
# GULP energy per Si atom -5579.647887 kJ/mol
# Density = 2.124951 g / cm^3
# Si number density = 21.297989 Si / 1000 Ang^3
#
#
#
# Elastic Constant Matrix: (Units=GPa)
#
#
# Indices 1 2 3 4 5 6 
#
# 1 53.6336 7.1643 2.5248 -0.0002 -11.8301 0.0000
# 2 7.1643 38.4874 30.9209 -0.0004 1.6451 0.0001
# 3 2.5248 30.9209 100.6174 -0.0005 -6.2548 0.0001
# 4 -0.0002 -0.0004 -0.0005 -16.9569 0.0001 7.3648
# 5 -11.8301 1.6451 -6.2548 0.0001 15.0759 0.0001
# 6 0.0000 0.0001 0.0001 7.3648 0.0001 18.9416
#
#
#
# Elastic Compliance Matrix: (Units=1/GPa)
#
#
# Indices 1 2 3 4 5 6 
#
# 1 0.024232 -0.007949 0.003152 0.000000 0.021190 0.000000
# 2 -0.007949 0.038171 -0.012500 0.000000 -0.015589 0.000000
# 3 0.003152 -0.012500 0.014309 0.000000 0.009774 0.000000
# 4 0.000000 0.000000 0.000000 -0.050453 0.000000 0.019617
# 5 0.021190 -0.015589 0.009774 0.000000 0.088715 0.000000
# 6 0.000000 0.000000 0.000000 0.019617 0.000000 0.045167
#
#
# Mechanical properties :
#
#
# Convention : Reuss Voigt Hill
#
# Bulk Modulus (GPa) = 23.74265 30.43980 27.09122
# Shear Modulus (GPa) = 23.94931 13.55401 18.75166
#
# Velocity S-wave (km/s) = 3.35698 2.52543 2.97044
# Velocity P-wave (km/s) = 5.11837 4.77777 4.95100
#
# Compressibility (1/GPa) = 0.04211830
#
# Stress axis : x y z
#
# Youngs Moduli (GPa) = 41.26691 26.19780 69.88828
#
# Poissons Ratio (x) = 0.20824 -0.22029
# Poissons Ratio (y) = 0.32803 0.87361
# Poissons Ratio (z) = -0.13007 0.32747
#
# Static dielectric constant tensor:
#      x y z
#    x 1.804180 0.000000 -0.022650 
#    y 0.000000 1.817290 0.000000 
#    z -0.022650 0.000000 1.767980 
# 
# From -- ./inp_files/271712.got.cif
#   From: 2010.05.17/outbox.cif.g08.bks.cpg/sg12_136_cif.got.tgz:271712.got - 2010.06.03 13:09:07.
