data_PCOD9199208
_publ_section_title
;
Structure prediction by ZEFSAII (Michael W. Deem and Ramdas Pophale) SiO2 
 PCOD9199208
Probable space group: C 2/M
;
_chemical_formula_sum "Si O2"
_cell_formula_units_Z 42
_cell_length_a 14.181589
_cell_length_b 7.616116
_cell_length_c 19.676609
_cell_angle_alpha 90.000000
_cell_angle_beta 123.531361
_cell_angle_gamma 90.000000
_cell_volume 1771.568129
_symmetry_space_group_name_H-M "C 2/M"
_symmetry_group_IT_number 12
_symmetry_cell_setting 'monoclinic'
loop_
_space_group_symop_operation_xyz
x,y,z
-x,y,-z
-x,-y,-z
x,-y,z
1/2+x,1/2+y,z
1/2-x,1/2+y,-z
1/2-x,1/2-y,-z
1/2+x,1/2-y,z
loop_
_atom_site_type_symbol
_atom_site_label
_atom_site_fract_x
_atom_site_fract_y
_atom_site_fract_z
Si Si1 0.373685 0.789987 0.017528
Si Si2 0.520179 0.203775 0.806147
Si Si3 0.347952 0.211165 0.484687
Si Si4 0.000000 0.000000 0.500000
Si Si5 0.740880 0.795837 0.156889
Si Si6 0.283784 0.300889 0.699197
O O1 0.457364 0.720829 0.108977
O O2 0.394888 0.000000 0.024833
O O3 0.250000 0.750000 0.000000
O O4 0.358019 0.728227 0.933602
O O5 0.638832 0.213247 0.814426
O O6 0.414622 0.294578 0.728929
O O7 0.488789 0.000000 0.799308
O O8 0.250000 0.250000 0.500000
O O9 0.452589 0.342266 0.533069
O O10 0.294668 0.273133 0.390841
O O11 0.371777 0.000000 0.494089
O O12 0.719458 0.781818 0.227768
O O13 0.752443 0.000000 0.143853
O O14 0.247171 0.500000 0.694164
#
# Coordination Sequence:
#
# PCOD9199208 Si02
#       6
#     8   8   8   2   8   8
#     4   8  16  31  52  82 118 166 221 270 318 385
#     4  10  20  36  60  87 124 173 218 269 336 384
#     4  11  26  50  78 112 148 188 242 299 361 448
#     4  12  26  48  88 108 148 194 234 286 384 430
#     4  10  20  36  59  87 127 170 221 274 325 390
#     4  11  25  42  62  94 133 165 216 275 327 408
#
# _framework density 23.707809999999998
#
# number of rings (size 3 to 8) (size 9 to 14) (size 15 to 20)
#    0.000    1.905    0.952    2.000    2.667    3.810 
#    0.000    3.810    0.000    0.000    0.000    0.000 
#    0.000    0.000    0.000    0.000    0.000    0.000 
#
# Total GULP energy -116975.862277 kJ/mol
# GULP energy per Si atom -5570.279156 kJ/mol
# Density = 2.365385 g / cm^3
# Si number density = 23.707810 Si / 1000 Ang^3
#
#
#
# Elastic Constant Matrix: (Units=GPa)
#
#
# Indices 1 2 3 4 5 6 
#
# 1 92.6809 13.2325 9.3839 0.0000 -10.4068 0.0000
# 2 13.2325 102.3530 1.4022 0.0000 -10.1199 0.0000
# 3 9.3839 1.4022 85.2721 0.0000 3.9713 0.0000
# 4 0.0000 0.0000 0.0000 -5.2049 0.0000 -24.3032
# 5 -10.4068 -10.1199 3.9713 0.0000 30.4210 0.0000
# 6 0.0000 0.0000 0.0000 -24.3032 0.0000 17.1759
#
#
#
# Elastic Compliance Matrix: (Units=1/GPa)
#
#
# Indices 1 2 3 4 5 6 
#
# 1 0.011513 -0.001097 -0.001424 0.000000 0.003759 0.000000
# 2 -0.001097 0.010216 -0.000189 0.000000 0.003048 0.000000
# 3 -0.001424 -0.000189 0.011985 0.000000 -0.002115 0.000000
# 4 0.000000 0.000000 0.000000 -0.025257 0.000000 -0.035738
# 5 0.003759 0.003048 -0.002115 0.000000 0.035448 0.000000
# 6 0.000000 0.000000 0.000000 -0.035738 0.000000 0.007654
#
#
# Mechanical properties :
#
#
# Convention : Reuss Voigt Hill
#
# Bulk Modulus (GPa) = 35.34401 36.48257 35.91329
# Shear Modulus (GPa) = 75.28921 25.56421 50.42671
#
# Velocity S-wave (km/s) = 5.64146 3.28732 4.61695
# Velocity P-wave (km/s) = 7.57465 5.46172 6.60325
#
# Compressibility (1/GPa) = 0.02829333
#
# Stress axis : x y z
#
# Youngs Moduli (GPa) = 86.86093 97.88666 83.43436
#
# Poissons Ratio (x) = 0.10740 0.11881
# Poissons Ratio (y) = 0.09530 0.01578
# Poissons Ratio (z) = 0.12369 0.01852
#
# Static dielectric constant tensor:
#      x y z
#    x 1.922720 0.000000 0.025260 
#    y 0.000000 1.910110 0.000000 
#    z 0.025260 0.000000 2.009190 
# 
# From -- ./inp_files/267800.got.cif
#   From: 2010.05.17/outbox.cif.g08.bks.cpg/sg12_134_cif.got.tgz:267800.got - 2010.06.03 13:09:07.
