data_PCOD9199493
_publ_section_title
;
Structure prediction by ZEFSAII (Michael W. Deem and Ramdas Pophale) SiO2 
 PCOD9199493
Probable space group: C 2/M
;
_chemical_formula_sum "Si O2"
_cell_formula_units_Z 64
_cell_length_a 16.460734
_cell_length_b 8.988171
_cell_length_c 29.513184
_cell_angle_alpha 90.000000
_cell_angle_beta 139.089982
_cell_angle_gamma 90.000000
_cell_volume 2859.523361
_symmetry_space_group_name_H-M "C 2/M"
_symmetry_group_IT_number 12
_symmetry_cell_setting 'monoclinic'
loop_
_space_group_symop_operation_xyz
x,y,z
-x,y,-z
-x,-y,-z
x,-y,z
1/2+x,1/2+y,z
1/2-x,1/2+y,-z
1/2-x,1/2-y,-z
1/2+x,1/2-y,z
loop_
_atom_site_type_symbol
_atom_site_label
_atom_site_fract_x
_atom_site_fract_y
_atom_site_fract_z
Si Si1 0.973679 0.326648 0.418127
Si Si2 0.124742 0.824350 0.965402
Si Si3 0.378235 0.171062 0.844334
Si Si4 0.633064 0.828202 0.720254
Si Si5 0.202427 0.326972 0.084427
Si Si6 0.195950 0.824625 0.338836
Si Si7 0.780496 0.823558 0.464555
Si Si8 0.453895 0.825832 0.212430
O O1 0.010223 0.500000 0.441350
O O2 0.964314 0.297336 0.360381
O O3 0.833626 0.308518 0.376411
O O4 0.075358 0.220263 0.482498
O O5 0.001669 0.765385 0.889039
O O6 0.132602 0.000000 0.965571
O O7 0.250000 0.750000 0.000000
O O8 0.121716 0.770142 0.016248
O O9 0.172131 0.500000 0.730634
O O10 0.255099 0.228552 0.767991
O O11 0.343781 0.182928 0.883380
O O12 0.577270 0.814269 0.746813
O O13 0.550003 0.000000 0.801695
O O14 0.096879 0.500000 0.155848
O O15 0.342841 0.264861 0.142411
O O16 0.203959 0.749857 0.391589
O O17 0.089429 0.744551 0.264849
O O18 0.167694 0.000000 0.330395
O O19 0.750000 0.750000 0.500000
O O20 0.761331 0.000000 0.457604
O O21 0.197325 0.500000 0.068578
#
# Coordination Sequence:
#
# PCOD9199493 Si02
#       8
#     8   8   8   8   8   8   8   8
#     4  10  22  40  61  87 121 158 194 237 291 347
#     4  12  25  40  59  84 117 154 195 243 297 355
#     4  10  21  38  61  88 118 153 194 240 290 346
#     4   9  19  37  60  85 114 152 197 242 288 340
#     4  10  21  39  62  87 118 155 197 243 292 347
#     4  11  23  39  60  87 122 160 197 240 293 349
#     4  12  25  41  63  88 116 152 197 246 295 350
#     4  10  20  36  60  88 118 155 202 247 287 340
#
# _framework density 22.381353000000001
#
# number of rings (size 3 to 8) (size 9 to 14) (size 15 to 20)
#    0.000    1.500    0.000    5.250    0.000    8.500 
#    0.000    3.750    0.000    0.000    0.000    0.000 
#    0.000    0.000    0.000    0.000    0.000    0.000 
#
# Total GULP energy -179177.233854 kJ/mol
# GULP energy per Si atom -5599.288558 kJ/mol
# Density = 2.233041 g / cm^3
# Si number density = 22.381353 Si / 1000 Ang^3
#
#
#
# Elastic Constant Matrix: (Units=GPa)
#
#
# Indices 1 2 3 4 5 6 
#
# 1 67.8155 28.3448 3.2598 0.0000 10.9049 0.0000
# 2 28.3448 135.1953 29.0727 0.0000 27.5819 0.0000
# 3 3.2598 29.0727 62.6677 0.0000 19.2119 0.0000
# 4 0.0000 0.0000 0.0000 37.3176 0.0000 8.7966
# 5 10.9049 27.5819 19.2119 0.0000 39.8056 0.0000
# 6 0.0000 0.0000 0.0000 8.7966 0.0000 27.3565
#
#
#
# Elastic Compliance Matrix: (Units=1/GPa)
#
#
# Indices 1 2 3 4 5 6 
#
# 1 0.016488 -0.003163 0.001552 0.000000 -0.003074 0.000000
# 2 -0.003163 0.009581 -0.002947 0.000000 -0.004350 0.000000
# 3 0.001552 -0.002947 0.019656 0.000000 -0.007870 0.000000
# 4 0.000000 0.000000 0.000000 0.028995 0.000000 -0.009323
# 5 -0.003074 -0.004350 -0.007870 0.000000 0.032777 0.000000
# 6 0.000000 0.000000 0.000000 -0.009323 0.000000 0.039552
#
#
# Mechanical properties :
#
#
# Convention : Reuss Voigt Hill
#
# Bulk Modulus (GPa) = 27.31524 43.00367 35.15946
# Shear Modulus (GPa) = 29.69683 34.56269 32.12976
#
# Velocity S-wave (km/s) = 3.64655 3.93397 3.79299
# Velocity P-wave (km/s) = 5.47364 6.31590 5.90980
#
# Compressibility (1/GPa) = 0.03660960
#
# Stress axis : x y z
#
# Youngs Moduli (GPa) = 60.65074 104.37222 50.87432
#
# Poissons Ratio (x) = 0.33018 -0.07898
# Poissons Ratio (y) = 0.19187 0.14991
# Poissons Ratio (z) = -0.09415 0.30755
#
# Static dielectric constant tensor:
#      x y z
#    x 1.907620 0.000000 -0.044120 
#    y 0.000000 1.750020 0.000000 
#    z -0.044120 0.000000 1.836510 
# 
# From -- ./inp_files/378449.got.cif
#   From: 2010.05.17/outbox.cif.g08.bks.cpg/sg12_190_cif.got.tgz:378449.got - 2010.06.03 13:09:07.
