data_PCOD9199568
_publ_section_title
;
Structure prediction by ZEFSAII (Michael W. Deem and Ramdas Pophale) SiO2 
 PCOD9199568
Probable space group: C 2/M
;
_chemical_formula_sum "Si O2"
_cell_formula_units_Z 56
_cell_length_a 14.618536
_cell_length_b 8.613005
_cell_length_c 22.331674
_cell_angle_alpha 90.000000
_cell_angle_beta 89.350917
_cell_angle_gamma 90.000000
_cell_volume 2811.590009
_symmetry_space_group_name_H-M "C 2/M"
_symmetry_group_IT_number 12
_symmetry_cell_setting 'monoclinic'
loop_
_space_group_symop_operation_xyz
x,y,z
-x,y,-z
-x,-y,-z
x,-y,z
1/2+x,1/2+y,z
1/2-x,1/2+y,-z
1/2-x,1/2-y,-z
1/2+x,1/2-y,z
loop_
_atom_site_type_symbol
_atom_site_label
_atom_site_fract_x
_atom_site_fract_y
_atom_site_fract_z
Si Si1 0.352604 0.313079 0.990073
Si Si2 0.843102 0.682809 0.575158
Si Si3 0.969468 0.316977 0.785967
Si Si4 0.488918 0.316094 0.656392
Si Si5 0.813372 0.185526 0.861175
Si Si6 0.610122 0.313930 0.881147
Si Si7 0.130120 0.185591 0.552895
O O1 0.352621 0.500000 0.992491
O O2 0.406759 0.263162 0.049230
O O3 0.250000 0.250000 0.000000
O O4 0.371398 0.271472 0.921051
O O5 0.856828 0.500000 0.584762
O O6 0.891826 0.776645 0.627184
O O7 0.884032 0.732523 0.510595
O O8 0.734853 0.713835 0.571518
O O9 0.956503 0.500000 0.789044
O O10 0.998862 0.266752 0.719580
O O11 0.874564 0.234674 0.804975
O O12 0.044823 0.264461 0.833610
O O13 0.499242 0.500000 0.664995
O O14 0.562654 0.264317 0.606071
O O15 0.715397 0.269076 0.865782
O O16 0.798784 0.000000 0.861921
O O17 0.598245 0.500000 0.877902
O O18 0.118512 0.000000 0.543814
#
# Coordination Sequence:
#
# PCOD9199568 Si02
#       7
#     8   8   8   8   8   8   8
#     4   8  16  31  56  85 112 143 183 232 288 346
#     4  10  20  36  60  90 119 146 182 229 279 334
#     4  12  26  41  56  81 115 155 201 242 286 345
#     4  11  23  40  59  80 112 153 193 235 284 338
#     4  10  20  38  61  86 115 149 190 238 291 347
#     4  10  20  38  61  86 116 150 188 237 293 346
#     4   9  20  38  60  86 116 149 184 224 277 336
#
# _framework density 19.917556999999999
#
# number of rings (size 3 to 8) (size 9 to 14) (size 15 to 20)
#    0.000    2.000    0.000    3.429    0.000    6.286 
#    0.000    7.143    0.000    0.000    0.000    0.000 
#    0.000    0.000    0.000    0.000    0.000    0.000 
#
# Total GULP energy -156378.465634 kJ/mol
# GULP energy per Si atom -5584.945201 kJ/mol
# Density = 1.987222 g / cm^3
# Si number density = 19.917557 Si / 1000 Ang^3
#
#
#
# Elastic Constant Matrix: (Units=GPa)
#
#
# Indices 1 2 3 4 5 6 
#
# 1 33.8552 -3.4635 9.6664 0.0000 -0.6908 0.0000
# 2 -3.4635 24.2710 11.9791 0.0000 0.9575 0.0000
# 3 9.6664 11.9791 82.3140 0.0000 2.0357 0.0000
# 4 0.0000 0.0000 0.0000 29.0667 0.0000 5.1912
# 5 -0.6908 0.9575 2.0357 0.0000 20.3394 0.0000
# 6 0.0000 0.0000 0.0000 5.1912 0.0000 26.8484
#
#
#
# Elastic Compliance Matrix: (Units=1/GPa)
#
#
# Indices 1 2 3 4 5 6 
#
# 1 0.031609 0.006798 -0.004732 0.000000 0.001227 0.000000
# 2 0.006798 0.045894 -0.007448 0.000000 -0.001184 0.000000
# 3 -0.004732 -0.007448 0.013818 0.000000 -0.001193 0.000000
# 4 0.000000 0.000000 0.000000 0.035634 0.000000 -0.006890
# 5 0.001227 -0.001184 -0.001193 0.000000 0.049382 0.000000
# 6 0.000000 0.000000 0.000000 -0.006890 0.000000 0.038578
#
#
# Mechanical properties :
#
#
# Convention : Reuss Voigt Hill
#
# Bulk Modulus (GPa) = 12.41357 19.64491 16.02924
# Shear Modulus (GPa) = 19.79947 23.40144 21.60046
#
# Velocity S-wave (km/s) = 3.15631 3.43142 3.29674
# Velocity P-wave (km/s) = 4.41917 5.05807 4.74938
#
# Compressibility (1/GPa) = 0.08055699
#
# Stress axis : x y z
#
# Youngs Moduli (GPa) = 31.63655 21.78925 72.37124
#
# Poissons Ratio (x) = -0.14811 0.34243
# Poissons Ratio (y) = -0.21505 0.53902
# Poissons Ratio (z) = 0.14969 0.16228
#
# Static dielectric constant tensor:
#      x y z
#    x 1.703950 0.000000 -0.005240 
#    y 0.000000 1.667400 0.000000 
#    z -0.005240 0.000000 1.699670 
# 
# From -- ./inp_files/308924.got.cif
#   From: 2010.05.17/outbox.cif.g08.bks.cpg/sg12_155_cif.got.tgz:308924.got - 2010.06.03 13:09:07.
