data_PCOD9199906
_publ_section_title
;
Structure prediction by ZEFSAII (Michael W. Deem and Ramdas Pophale) SiO2 
 PCOD9199906
Probable space group: C 2/M
;
_chemical_formula_sum "Si O2"
_cell_formula_units_Z 64
_cell_length_a 19.710914
_cell_length_b 13.940588
_cell_length_c 19.297670
_cell_angle_alpha 90.000000
_cell_angle_beta 42.522597
_cell_angle_gamma 90.000000
_cell_volume 3583.958108
_symmetry_space_group_name_H-M "C 2/M"
_symmetry_group_IT_number 12
_symmetry_cell_setting 'monoclinic'
loop_
_space_group_symop_operation_xyz
x,y,z
-x,y,-z
-x,-y,-z
x,-y,z
1/2+x,1/2+y,z
1/2-x,1/2+y,-z
1/2-x,1/2-y,-z
1/2+x,1/2-y,z
loop_
_atom_site_type_symbol
_atom_site_label
_atom_site_fract_x
_atom_site_fract_y
_atom_site_fract_z
Si Si1 0.813125 0.111331 0.273078
Si Si2 0.362483 0.891848 0.895820
Si Si3 0.588074 0.107625 0.774850
Si Si4 0.928320 0.244637 0.729056
Si Si5 0.405201 0.891668 0.621328
Si Si6 0.149243 0.242591 0.621222
Si Si7 0.887214 0.262594 0.112198
Si Si8 0.746846 0.387067 0.119485
O O1 0.693938 0.118557 0.350554
O O2 0.842124 0.165691 0.322328
O O3 0.856995 0.162677 0.171203
O O4 0.842110 0.000000 0.254838
O O5 0.467279 0.890548 0.859474
O O6 0.378137 0.811143 0.826722
O O7 0.352654 0.000000 0.873678
O O8 0.274061 0.876797 0.017601
O O9 0.632127 0.157274 0.673875
O O10 0.618409 0.164903 0.819360
O O11 0.623002 0.000000 0.753738
O O12 0.913151 0.307670 0.671537
O O13 0.865405 0.146510 0.778061
O O14 0.045969 0.227834 0.656327
O O15 0.500000 0.887009 0.500000
O O16 0.402431 0.000000 0.654956
O O17 0.250000 0.250000 0.500000
O O18 0.816636 0.310522 0.107529
O O19 0.000000 0.256788 0.000000
O O20 0.765668 0.500000 0.122540
#
# Coordination Sequence:
#
# PCOD9199906 Si02
#       8
#     8   8   8   8   8   8   8   8
#     4  10  22  40  59  86 121 153 193 239 290 357
#     4   9  18  33  54  82 111 143 188 235 283 341
#     4   9  18  32  54  83 108 138 187 242 284 325
#     4  11  21  37  58  82 120 153 189 243 299 348
#     4  10  20  36  62  90 113 147 195 248 297 338
#     4  10  22  38  59  84 113 157 196 239 289 348
#     4  11  20  35  60  83 113 152 192 238 287 345
#     4  11  22  35  55  84 116 154 195 235 292 355
#
# _framework density 17.857351000000001
#
# number of rings (size 3 to 8) (size 9 to 14) (size 15 to 20)
#    0.000    1.875    2.500    1.875    0.000    2.250 
#    0.000    0.000    0.000    0.375    0.000    0.000 
#    0.000    0.000    0.000    0.000    0.000    0.000 
#
# Total GULP energy -178399.888367 kJ/mol
# GULP energy per Si atom -5574.996511 kJ/mol
# Density = 1.781671 g / cm^3
# Si number density = 17.857351 Si / 1000 Ang^3
#
#
#
# Elastic Constant Matrix: (Units=GPa)
#
#
# Indices 1 2 3 4 5 6 
#
# 1 39.5834 12.2793 4.2229 0.0000 -6.6175 0.0000
# 2 12.2793 84.0106 13.9209 0.0000 -3.0118 0.0000
# 3 4.2229 13.9209 75.1260 0.0000 -15.8638 0.0000
# 4 0.0000 0.0000 0.0000 18.3045 0.0000 -2.0354
# 5 -6.6175 -3.0118 -15.8638 0.0000 23.7008 0.0000
# 6 0.0000 0.0000 0.0000 -2.0354 0.0000 17.4982
#
#
#
# Elastic Compliance Matrix: (Units=1/GPa)
#
#
# Indices 1 2 3 4 5 6 
#
# 1 0.027687 -0.003902 0.000809 0.000000 0.007776 0.000000
# 2 -0.003902 0.012830 -0.002380 0.000000 -0.001052 0.000000
# 3 0.000809 -0.002380 0.015944 0.000000 0.010595 0.000000
# 4 0.000000 0.000000 0.000000 0.055347 0.000000 0.006438
# 5 0.007776 -0.001052 0.010595 0.000000 0.051322 0.000000
# 6 0.000000 0.000000 0.000000 0.006438 0.000000 0.057898
#
#
# Mechanical properties :
#
#
# Convention : Reuss Voigt Hill
#
# Bulk Modulus (GPa) = 21.97123 28.84070 25.40597
# Shear Modulus (GPa) = 20.23087 23.12049 21.67568
#
# Velocity S-wave (km/s) = 3.36953 3.60214 3.48778
# Velocity P-wave (km/s) = 5.24107 5.78673 5.52064
#
# Compressibility (1/GPa) = 0.04551406
#
# Stress axis : x y z
#
# Youngs Moduli (GPa) = 36.11766 77.94038 62.71994
#
# Poissons Ratio (x) = 0.30413 -0.05072
# Poissons Ratio (y) = 0.14094 0.14929
# Poissons Ratio (z) = -0.02921 0.18552
#
# Static dielectric constant tensor:
#      x y z
#    x 1.616580 0.000000 -0.014240 
#    y 0.000000 1.622370 0.000000 
#    z -0.014240 0.000000 1.616950 
# 
# From -- ./inp_files/278162.got.cif
#   From: 2010.05.17/outbox.cif.g08.bks.cpg/sg12_140_cif.got.tgz:278162.got - 2010.06.03 13:09:07.
