data_PCOD9199494
_publ_section_title
;
Structure prediction by ZEFSAII (Michael W. Deem and Ramdas Pophale) SiO2 
 PCOD9199494
Probable space group: C 2/M
;
_chemical_formula_sum "Si O2"
_cell_formula_units_Z 64
_cell_length_a 18.921212
_cell_length_b 8.890059
_cell_length_c 28.442339
_cell_angle_alpha 90.000000
_cell_angle_beta 136.715834
_cell_angle_gamma 90.000000
_cell_volume 3280.202153
_symmetry_space_group_name_H-M "C 2/M"
_symmetry_group_IT_number 12
_symmetry_cell_setting 'monoclinic'
loop_
_space_group_symop_operation_xyz
x,y,z
-x,y,-z
-x,-y,-z
x,-y,z
1/2+x,1/2+y,z
1/2-x,1/2+y,-z
1/2-x,1/2-y,-z
1/2+x,1/2-y,z
loop_
_atom_site_type_symbol
_atom_site_label
_atom_site_fract_x
_atom_site_fract_y
_atom_site_fract_z
Si Si1 0.154211 0.179615 0.981413
Si Si2 0.431226 0.826151 0.354832
Si Si3 0.666752 0.821145 0.090246
Si Si4 0.380792 0.825861 0.218956
Si Si5 0.923066 0.179478 0.861170
Si Si6 0.858683 0.825656 0.563333
Si Si7 0.590749 0.325098 0.301316
Si Si8 0.773232 0.679019 0.710872
O O1 0.041659 0.207461 0.904104
O O2 0.167734 0.000000 0.991390
O O3 0.250000 0.250000 0.000000
O O4 0.148799 0.251124 0.030498
O O5 0.401752 0.820437 0.285071
O O6 0.545165 0.758165 0.414115
O O7 0.343472 0.733624 0.338756
O O8 0.429268 0.000000 0.368453
O O9 0.783805 0.777307 0.160346
O O10 0.597098 0.745625 0.096775
O O11 0.651950 0.000000 0.082641
O O12 0.483145 0.762765 0.243964
O O13 0.360487 0.000000 0.196283
O O14 0.842524 0.255587 0.786974
O O15 0.905345 0.000000 0.853444
O O16 0.750000 0.750000 0.500000
O O17 0.879150 0.818957 0.629273
O O18 0.857366 0.000000 0.548614
O O19 0.578410 0.500000 0.281777
O O20 0.677164 0.247531 0.311869
O O21 0.778713 0.500000 0.713696
#
# Coordination Sequence:
#
# PCOD9199494 Si02
#       8
#     8   8   8   8   8   8   8   8
#     4  11  26  45  64  86 119 158 204 257 314 373
#     4  10  20  37  62  90 124 161 201 249 299 355
#     4  12  24  39  63  90 120 156 201 252 308 372
#     4  10  20  36  60  88 118 156 201 248 299 359
#     4  11  24  43  64  87 118 160 205 253 309 369
#     4  10  21  39  65  94 126 165 207 250 297 358
#     4  10  22  39  60  88 126 163 202 249 302 358
#     4  12  24  38  61  92 126 161 202 254 309 364
#
# _framework density 19.510992000000002
#
# number of rings (size 3 to 8) (size 9 to 14) (size 15 to 20)
#    0.000    1.250    1.250    4.875    1.750    6.000 
#    0.000    0.625    0.000    3.750    0.000    0.000 
#    0.000    0.000    0.000    0.000    0.000    0.000 
#
# Total GULP energy -178985.813282 kJ/mol
# GULP energy per Si atom -5593.306665 kJ/mol
# Density = 1.946658 g / cm^3
# Si number density = 19.510992 Si / 1000 Ang^3
#
#
#
# Elastic Constant Matrix: (Units=GPa)
#
#
# Indices 1 2 3 4 5 6 
#
# 1 115.5831 55.0888 16.9742 0.0000 34.9750 0.0000
# 2 55.0888 129.2575 18.9045 0.0000 15.0465 0.0000
# 3 16.9742 18.9045 44.0070 0.0000 28.2755 0.0000
# 4 0.0000 0.0000 0.0000 30.6444 0.0000 4.7558
# 5 34.9750 15.0465 28.2755 0.0000 28.2532 0.0000
# 6 0.0000 0.0000 0.0000 4.7558 0.0000 37.8872
#
#
#
# Elastic Compliance Matrix: (Units=1/GPa)
#
#
# Indices 1 2 3 4 5 6 
#
# 1 0.026520 -0.009011 0.032642 0.000000 -0.060698 0.000000
# 2 -0.009011 0.011374 -0.013126 0.000000 0.018234 0.000000
# 3 0.032642 -0.013126 0.104332 0.000000 -0.137831 0.000000
# 4 0.000000 0.000000 0.000000 0.033281 0.000000 -0.004178
# 5 -0.060698 0.018234 -0.137831 0.000000 0.238762 0.000000
# 6 0.000000 0.000000 0.000000 -0.004178 0.000000 0.026919
#
#
# Mechanical properties :
#
#
# Convention : Reuss Voigt Hill
#
# Bulk Modulus (GPa) = 6.12615 52.30916 29.21766
# Shear Modulus (GPa) = 10.53541 32.54897 21.54219
#
# Velocity S-wave (km/s) = 2.32625 4.08884 3.32641
# Velocity P-wave (km/s) = 3.21900 7.01140 5.45535
#
# Compressibility (1/GPa) = 0.16323469
#
# Stress axis : x y z
#
# Youngs Moduli (GPa) = 37.70764 87.91911 9.58481
#
# Poissons Ratio (x) = 0.79223 -0.31286
# Poissons Ratio (y) = 0.33978 0.12581
# Poissons Ratio (z) = -1.23083 1.15403
#
# Static dielectric constant tensor:
#      x y z
#    x 1.669410 0.000000 -0.000080 
#    y 0.000000 1.650770 0.000000 
#    z -0.000080 0.000000 1.679410 
# 
# From -- ./inp_files/378450.got.cif
#   From: 2010.05.17/outbox.cif.g08.bks.cpg/sg12_190_cif.got.tgz:378450.got - 2010.06.03 13:09:07.
