data_PCOD9199362
_publ_section_title
;
Structure prediction by ZEFSAII (Michael W. Deem and Ramdas Pophale) SiO2 
 PCOD9199362
Probable space group: C 2/M
;
_chemical_formula_sum "Si O2"
_cell_formula_units_Z 56
_cell_length_a 28.596307
_cell_length_b 8.079773
_cell_length_c 12.184625
_cell_angle_alpha 90.000000
_cell_angle_beta 106.476844
_cell_angle_gamma 90.000000
_cell_volume 2699.666982
_symmetry_space_group_name_H-M "C 2/M"
_symmetry_group_IT_number 12
_symmetry_cell_setting 'monoclinic'
loop_
_space_group_symop_operation_xyz
x,y,z
-x,y,-z
-x,-y,-z
x,-y,z
1/2+x,1/2+y,z
1/2-x,1/2+y,-z
1/2-x,1/2-y,-z
1/2+x,1/2-y,z
loop_
_atom_site_type_symbol
_atom_site_label
_atom_site_fract_x
_atom_site_fract_y
_atom_site_fract_z
Si Si1 0.806511 0.300165 0.034602
Si Si2 0.353414 0.202336 0.835439
Si Si3 0.001278 0.690194 0.669614
Si Si4 0.736746 0.801533 0.367529
Si Si5 0.170776 0.696484 0.709148
Si Si6 0.035331 0.702689 0.121410
Si Si7 0.073646 0.186193 0.541160
O O1 0.808728 0.500000 0.035913
O O2 0.829960 0.242793 0.165247
O O3 0.750000 0.250000 0.000000
O O4 0.832304 0.243083 0.939751
O O5 0.316035 0.252793 0.714095
O O6 0.408853 0.257760 0.854817
O O7 0.353809 0.000000 0.836844
O O8 0.018221 0.500000 0.688674
O O9 0.988231 0.755600 0.779916
O O10 0.951969 0.697008 0.564605
O O11 0.041761 0.789394 0.629886
O O12 0.750000 0.750000 0.500000
O O13 0.777278 0.733753 0.310825
O O14 0.738078 0.000000 0.363630
O O15 0.162627 0.500000 0.704488
O O16 0.128832 0.775763 0.607579
O O17 0.036363 0.500000 0.123835
O O18 0.000000 0.753923 0.000000
O O19 0.068174 0.000000 0.496923
#
# Coordination Sequence:
#
# PCOD9199362 Si02
#       7
#     8   8   8   8   8   8   8
#     4  10  20  36  60  85 117 151 193 245 295 354
#     4   9  19  36  57  85 119 157 195 244 299 352
#     4  10  20  37  62  90 118 151 199 250 297 357
#     4  11  23  39  60  87 125 164 203 248 300 361
#     4  11  23  38  61  91 119 152 201 251 299 358
#     4   9  19  34  58  89 120 153 195 244 296 352
#     4  11  23  39  60  85 119 159 197 245 305 359
#
# _framework density 20.743300000000001
#
# number of rings (size 3 to 8) (size 9 to 14) (size 15 to 20)
#    0.000    1.857    1.429    3.429    4.000    0.571 
#    0.000    0.000    0.000    3.429    0.000    0.000 
#    0.000    0.000    0.000    0.000    0.000    0.000 
#
# Total GULP energy -156434.287681 kJ/mol
# GULP energy per Si atom -5586.938846 kJ/mol
# Density = 2.069609 g / cm^3
# Si number density = 20.743300 Si / 1000 Ang^3
#
#
#
# Elastic Constant Matrix: (Units=GPa)
#
#
# Indices 1 2 3 4 5 6 
#
# 1 65.1898 -6.6128 47.3855 0.0000 18.5200 0.0000
# 2 -6.6128 27.2432 -7.7668 0.0000 -2.0547 0.0000
# 3 47.3855 -7.7668 121.5018 0.0000 -10.6473 0.0000
# 4 0.0000 0.0000 0.0000 -23.1650 0.0000 -6.2879
# 5 18.5200 -2.0547 -10.6473 0.0000 34.9209 0.0000
# 6 0.0000 0.0000 0.0000 -6.2879 0.0000 25.3309
#
#
#
# Elastic Compliance Matrix: (Units=1/GPa)
#
#
# Indices 1 2 3 4 5 6 
#
# 1 0.031778 0.002107 -0.014101 0.000000 -0.021028 0.000000
# 2 0.002107 0.037838 0.001740 0.000000 0.001639 0.000000
# 3 -0.014101 0.001740 0.014904 0.000000 0.012125 0.000000
# 4 0.000000 0.000000 0.000000 -0.040444 0.000000 -0.010039
# 5 -0.021028 0.001639 0.012125 0.000000 0.043582 0.000000
# 6 0.000000 0.000000 0.000000 -0.010039 0.000000 0.036985
#
#
# Mechanical properties :
#
#
# Convention : Reuss Voigt Hill
#
# Bulk Modulus (GPa) = 15.62201 31.10516 23.36359
# Shear Modulus (GPa) = 30.03243 19.47930 24.75587
#
# Velocity S-wave (km/s) = 3.80914 3.06774 3.45837
# Velocity P-wave (km/s) = 5.18590 5.25127 5.21869
#
# Compressibility (1/GPa) = 0.06401224
#
# Stress axis : x y z
#
# Youngs Moduli (GPa) = 31.46866 26.42863 67.09796
#
# Poissons Ratio (x) = -0.05570 0.94617
# Poissons Ratio (y) = -0.06632 -0.11678
# Poissons Ratio (z) = 0.44375 -0.04600
#
# Static dielectric constant tensor:
#      x y z
#    x 1.707500 0.000000 0.001440 
#    y 0.000000 1.750830 0.000000 
#    z 0.001440 0.000000 1.735730 
# 
# From -- ./inp_files/181075.got.cif
#   From: 2010.05.17/outbox.cif.g08.bks.cpg/sg12_91_cif.got.tgz:181075.got - 2010.06.03 13:09:07.
