data_PCOD9199719
_publ_section_title
;
Structure prediction by ZEFSAII (Michael W. Deem and Ramdas Pophale) SiO2 
 PCOD9199719
Probable space group: C 2/M
;
_chemical_formula_sum "Si O2"
_cell_formula_units_Z 40
_cell_length_a 17.089214
_cell_length_b 17.636066
_cell_length_c 8.993614
_cell_angle_alpha 90.000000
_cell_angle_beta 52.570673
_cell_angle_gamma 90.000000
_cell_volume 2152.460690
_symmetry_space_group_name_H-M "C 2/M"
_symmetry_group_IT_number 12
_symmetry_cell_setting 'monoclinic'
loop_
_space_group_symop_operation_xyz
x,y,z
-x,y,-z
-x,-y,-z
x,-y,z
1/2+x,1/2+y,z
1/2-x,1/2+y,-z
1/2-x,1/2-y,-z
1/2+x,1/2-y,z
loop_
_atom_site_type_symbol
_atom_site_label
_atom_site_fract_x
_atom_site_fract_y
_atom_site_fract_z
Si Si1 0.793785 0.912969 0.525821
Si Si2 0.776542 0.784588 0.126059
Si Si3 0.596948 0.823132 0.806448
Si Si4 0.408925 0.735528 0.492766
Si Si5 0.891059 0.913904 0.089648
O O1 0.681046 0.884569 0.669806
O O2 0.861119 0.848106 0.525118
O O3 0.829192 0.912199 0.313622
O O4 0.805420 0.000000 0.566023
O O5 0.849924 0.733328 0.138859
O O6 0.676388 0.787128 0.335699
O O7 0.832054 0.863572 0.042532
O O8 0.750000 0.750000 0.000000
O O9 0.569489 0.774037 0.691655
O O10 0.500000 0.854023 0.000000
O O11 0.500000 0.732295 0.500000
O O12 0.903088 0.000000 0.024378
O O13 0.000000 0.883757 0.000000
#
# Coordination Sequence:
#
# PCOD9199719 Si02
#       5
#     8   8   8   8   8
#     4  10  21  39  60  86 122 159 195 246 301 355
#     4  11  21  36  59  88 119 155 199 250 295 351
#     4  11  21  39  61  86 120 158 203 247 293 355
#     4  11  22  37  59  91 119 153 202 248 296 353
#     4  10  20  36  61  88 120 158 195 241 304 364
#
# _framework density 18.583382
#
# number of rings (size 3 to 8) (size 9 to 14) (size 15 to 20)
#    0.000    1.400    4.000    3.000    2.800    0.800 
#    0.000    4.000    0.000    4.800    0.000    0.000 
#    0.000    0.000    0.000    0.000    0.000    0.000 
#
# Total GULP energy -111634.446406 kJ/mol
# GULP energy per Si atom -5581.722320 kJ/mol
# Density = 1.854109 g / cm^3
# Si number density = 18.583382 Si / 1000 Ang^3
#
#
#
# Elastic Constant Matrix: (Units=GPa)
#
#
# Indices 1 2 3 4 5 6 
#
# 1 130.3496 54.3617 41.3379 0.0000 1.4603 0.0000
# 2 54.3617 99.3756 22.5778 0.0000 -5.5532 0.0000
# 3 41.3379 22.5778 103.1865 0.0000 -13.7716 0.0000
# 4 0.0000 0.0000 0.0000 18.4794 0.0000 3.2667
# 5 1.4603 -5.5532 -13.7716 0.0000 39.9777 0.0000
# 6 0.0000 0.0000 0.0000 3.2667 0.0000 20.7473
#
#
#
# Elastic Compliance Matrix: (Units=1/GPa)
#
#
# Indices 1 2 3 4 5 6 
#
# 1 0.011077 -0.005380 -0.003579 0.000000 -0.002385 0.000000
# 2 -0.005380 0.013221 -0.000489 0.000000 0.001865 0.000000
# 3 -0.003579 -0.000489 0.011782 0.000000 0.004121 0.000000
# 4 0.000000 0.000000 0.000000 0.055664 0.000000 -0.008764
# 5 -0.002385 0.001865 0.004121 0.000000 0.026780 0.000000
# 6 0.000000 0.000000 0.000000 -0.008764 0.000000 0.049579
#
#
# Mechanical properties :
#
#
# Convention : Reuss Voigt Hill
#
# Bulk Modulus (GPa) = 58.18895 63.27408 60.73152
# Shear Modulus (GPa) = 25.94371 30.14983 28.04677
#
# Velocity S-wave (km/s) = 3.74046 4.03228 3.88911
# Velocity P-wave (km/s) = 7.07354 7.47006 7.27450
#
# Compressibility (1/GPa) = 0.01718539
#
# Stress axis : x y z
#
# Youngs Moduli (GPa) = 90.27841 75.63780 84.87601
#
# Poissons Ratio (x) = 0.40690 0.30375
# Poissons Ratio (y) = 0.48566 0.04149
# Poissons Ratio (z) = 0.32308 0.03697
#
# Static dielectric constant tensor:
#      x y z
#    x 1.632210 0.000000 -0.006270 
#    y 0.000000 1.671070 0.000000 
#    z -0.006270 0.000000 1.671230 
# 
# From -- ./inp_files/60846.got.cif
#   From: 2010.05.17/outbox.cif.g08.bks.cpg/sg12_31_cif.got.tgz:60846.got - 2010.06.03 13:09:07.
