data_PCOD9199166
_publ_section_title
;
Structure prediction by ZEFSAII (Michael W. Deem and Ramdas Pophale) SiO2 
 PCOD9199166
Probable space group: C 2/M
;
_chemical_formula_sum "Si O2"
_cell_formula_units_Z 40
_cell_length_a 18.103618
_cell_length_b 8.863782
_cell_length_c 18.981841
_cell_angle_alpha 90.000000
_cell_angle_beta 44.619483
_cell_angle_gamma 90.000000
_cell_volume 2139.460474
_symmetry_space_group_name_H-M "C 2/M"
_symmetry_group_IT_number 12
_symmetry_cell_setting 'monoclinic'
loop_
_space_group_symop_operation_xyz
x,y,z
-x,y,-z
-x,-y,-z
x,-y,z
1/2+x,1/2+y,z
1/2-x,1/2+y,-z
1/2-x,1/2-y,-z
1/2+x,1/2-y,z
loop_
_atom_site_type_symbol
_atom_site_label
_atom_site_fract_x
_atom_site_fract_y
_atom_site_fract_z
Si Si1 0.719256 0.320580 0.595791
Si Si2 0.164567 0.180801 0.004345
Si Si3 0.327066 0.179256 0.781242
Si Si4 0.377158 0.322207 0.598618
Si Si5 0.002337 0.320326 0.210304
O O1 0.713241 0.500000 0.593736
O O2 0.750000 0.250000 0.500000
O O3 0.806811 0.272058 0.592584
O O4 0.607867 0.254987 0.696780
O O5 0.055600 0.251667 0.103982
O O6 0.161711 0.000000 0.014159
O O7 0.250000 0.250000 0.000000
O O8 0.214502 0.213925 0.894081
O O9 0.349835 0.272934 0.696329
O O10 0.416855 0.207542 0.779432
O O11 0.329678 0.000000 0.763650
O O12 0.500000 0.295068 0.500000
O O13 0.356297 0.500000 0.602809
O O14 0.991479 0.500000 0.210392
#
# Coordination Sequence:
#
# PCOD9199166 Si02
#       5
#     8   8   8   8   8
#     4  12  25  41  61  84 114 149 187 233 284 339
#     4   9  17  31  53  83 117 152 192 234 280 333
#     4   9  19  35  57  85 116 151 188 231 281 332
#     4  11  24  40  59  84 113 147 189 235 283 337
#     4  10  20  36  59  87 118 151 191 235 282 336
#
# _framework density 18.696303
#
# number of rings (size 3 to 8) (size 9 to 14) (size 15 to 20)
#    0.000    1.800    0.000    6.000    0.000    9.600 
#    0.000    1.000    0.000    6.000    0.000    0.000 
#    0.000    0.000    0.000    0.000    0.000    0.000 
#
# Total GULP energy -111706.275852 kJ/mol
# GULP energy per Si atom -5585.313793 kJ/mol
# Density = 1.865375 g / cm^3
# Si number density = 18.696303 Si / 1000 Ang^3
#
#
#
# Elastic Constant Matrix: (Units=GPa)
#
#
# Indices 1 2 3 4 5 6 
#
# 1 47.3689 52.1452 46.5820 0.0000 1.7275 0.0000
# 2 52.1452 121.1435 94.2827 0.0000 0.2950 0.0000
# 3 46.5820 94.2827 182.4850 0.0000 0.4257 0.0000
# 4 0.0000 0.0000 0.0000 35.4162 0.0000 2.7906
# 5 1.7275 0.2950 0.4257 0.0000 27.5754 0.0000
# 6 0.0000 0.0000 0.0000 2.7906 0.0000 29.1086
#
#
#
# Elastic Compliance Matrix: (Units=1/GPa)
#
#
# Indices 1 2 3 4 5 6 
#
# 1 0.040813 -0.015819 -0.002240 0.000000 -0.002353 0.000000
# 2 -0.015819 0.019937 -0.006265 0.000000 0.000874 0.000000
# 3 -0.002240 -0.006265 0.009288 0.000000 0.000064 0.000000
# 4 0.000000 0.000000 0.000000 0.028451 0.000000 -0.002727
# 5 -0.002353 0.000874 0.000064 0.000000 0.036401 0.000000
# 6 0.000000 0.000000 0.000000 -0.002727 0.000000 0.034616
#
#
# Mechanical properties :
#
#
# Convention : Reuss Voigt Hill
#
# Bulk Modulus (GPa) = 46.74658 81.89080 64.31869
# Shear Modulus (GPa) = 22.19422 28.95252 25.57337
#
# Velocity S-wave (km/s) = 3.44916 3.93946 3.70243
# Velocity P-wave (km/s) = 6.39685 8.03667 7.26318
#
# Compressibility (1/GPa) = 0.02139194
#
# Stress axis : x y z
#
# Youngs Moduli (GPa) = 24.50195 50.15688 107.66213
#
# Poissons Ratio (x) = 0.79342 0.24113
# Poissons Ratio (y) = 0.38759 0.67450
# Poissons Ratio (z) = 0.05488 0.31423
#
# Static dielectric constant tensor:
#      x y z
#    x 1.616790 0.000000 0.005620 
#    y 0.000000 1.630300 0.000000 
#    z 0.005620 0.000000 1.646110 
# 
# From -- ./inp_files/211177.got.cif
#   From: 2010.05.17/outbox.cif.g08.bks.cpg/sg12_106_cif.got.tgz:211177.got - 2010.06.03 13:09:07.
