data_PCOD9199303
_publ_section_title
;
Structure prediction by ZEFSAII (Michael W. Deem and Ramdas Pophale) SiO2 
 PCOD9199303
Probable space group: C 2/M
;
_chemical_formula_sum "Si O2"
_cell_formula_units_Z 36
_cell_length_a 17.465775
_cell_length_b 21.971520
_cell_length_c 8.147197
_cell_angle_alpha 90.000000
_cell_angle_beta 148.308351
_cell_angle_gamma 90.000000
_cell_volume 1642.490874
_symmetry_space_group_name_H-M "C 2/M"
_symmetry_group_IT_number 12
_symmetry_cell_setting 'monoclinic'
loop_
_space_group_symop_operation_xyz
x,y,z
-x,y,-z
-x,-y,-z
x,-y,z
1/2+x,1/2+y,z
1/2-x,1/2+y,-z
1/2-x,1/2-y,-z
1/2+x,1/2-y,z
loop_
_atom_site_type_symbol
_atom_site_label
_atom_site_fract_x
_atom_site_fract_y
_atom_site_fract_z
Si Si1 0.840708 0.147466 0.837010
Si Si2 0.000000 0.742375 0.000000
Si Si3 0.895507 0.717493 0.458855
Si Si4 0.392470 0.362209 0.454905
Si Si5 0.669200 0.072109 0.261740
O O1 0.740038 0.172156 0.800066
O O2 0.758571 0.098831 0.578988
O O3 0.867346 0.211043 0.790179
O O4 0.995648 0.127773 0.188738
O O5 0.968463 0.708715 0.772247
O O6 0.861389 0.789708 0.386357
O O7 0.000000 0.704143 0.500000
O O8 0.500000 0.380058 0.500000
O O9 0.244408 0.396270 0.238913
O O10 0.687877 0.000000 0.278783
O O11 0.500000 0.083377 0.000000
#
# Coordination Sequence:
#
# PCOD9199303 Si02
#       5
#     8   4   8   8   8
#     4  11  21  40  63  92 125 167 211 252 315 380
#     4  10  20  36  59  96 123 174 204 252 308 396
#     4  10  22  36  60  99 136 164 208 254 320 381
#     4  10  23  42  65  95 129 165 210 260 317 383
#     4  11  25  43  65  91 121 165 217 267 321 377
#
# _framework density 21.917929999999998
#
# number of rings (size 3 to 8) (size 9 to 14) (size 15 to 20)
#    0.000    1.556    4.444    0.667    1.556   13.778 
#    0.000    0.000    0.000    3.333    0.000    0.000 
#    0.000    0.000    0.000    0.000    0.000    0.000 
#
# Total GULP energy -100496.461438 kJ/mol
# GULP energy per Si atom -5583.136747 kJ/mol
# Density = 2.186804 g / cm^3
# Si number density = 21.917930 Si / 1000 Ang^3
#
#
#
# Elastic Constant Matrix: (Units=GPa)
#
#
# Indices 1 2 3 4 5 6 
#
# 1 159.0472 50.4622 37.3136 0.0000 35.9858 0.0000
# 2 50.4622 86.5326 25.7572 0.0000 29.3493 0.0000
# 3 37.3136 25.7572 84.3222 0.0000 16.8985 0.0000
# 4 0.0000 0.0000 0.0000 20.7715 0.0000 8.3656
# 5 35.9858 29.3493 16.8985 0.0000 50.7027 0.0000
# 6 0.0000 0.0000 0.0000 8.3656 0.0000 30.4337
#
#
#
# Elastic Compliance Matrix: (Units=1/GPa)
#
#
# Indices 1 2 3 4 5 6 
#
# 1 0.008598 -0.003176 -0.002122 0.000000 -0.003557 0.000000
# 2 -0.003176 0.016256 -0.002278 0.000000 -0.006396 0.000000
# 3 -0.002122 -0.002278 0.013853 0.000000 -0.001792 0.000000
# 4 0.000000 0.000000 0.000000 0.054136 0.000000 -0.014881
# 5 -0.003557 -0.006396 -0.001792 0.000000 0.026547 0.000000
# 6 0.000000 0.000000 0.000000 -0.014881 0.000000 0.036949
#
#
# Mechanical properties :
#
#
# Convention : Reuss Voigt Hill
#
# Bulk Modulus (GPa) = 42.45380 61.88533 52.16956
# Shear Modulus (GPa) = 27.87968 34.80619 31.34294
#
# Velocity S-wave (km/s) = 3.57038 3.98932 3.78565
# Velocity P-wave (km/s) = 6.03393 7.03676 6.55455
#
# Compressibility (1/GPa) = 0.02355502
#
# Stress axis : x y z
#
# Youngs Moduli (GPa) = 116.31225 61.51559 72.18498
#
# Poissons Ratio (x) = 0.19537 0.15315
# Poissons Ratio (y) = 0.36940 0.16446
# Poissons Ratio (z) = 0.24677 0.14015
#
# Static dielectric constant tensor:
#      x y z
#    x 1.943250 0.000000 0.012750 
#    y 0.000000 1.747450 0.000000 
#    z 0.012750 0.000000 1.883600 
# 
# From -- ./inp_files/78149.got.cif
#   From: 2010.05.17/outbox.cif.g08.bks.cpg/sg12_40_cif.got.tgz:78149.got - 2010.06.03 13:09:07.
