data_PCOD9199443
_publ_section_title
;
Structure prediction by ZEFSAII (Michael W. Deem and Ramdas Pophale) SiO2 
 PCOD9199443
Probable space group: C 2/M
;
_chemical_formula_sum "Si O2"
_cell_formula_units_Z 48
_cell_length_a 30.130625
_cell_length_b 8.650849
_cell_length_c 15.294937
_cell_angle_alpha 90.000000
_cell_angle_beta 39.655211
_cell_angle_gamma 90.000000
_cell_volume 2544.182979
_symmetry_space_group_name_H-M "C 2/M"
_symmetry_group_IT_number 12
_symmetry_cell_setting 'monoclinic'
loop_
_space_group_symop_operation_xyz
x,y,z
-x,y,-z
-x,-y,-z
x,-y,z
1/2+x,1/2+y,z
1/2-x,1/2+y,-z
1/2-x,1/2-y,-z
1/2+x,1/2-y,z
loop_
_atom_site_type_symbol
_atom_site_label
_atom_site_fract_x
_atom_site_fract_y
_atom_site_fract_z
Si Si1 0.386688 0.683097 0.826658
Si Si2 0.537856 0.185053 0.639761
Si Si3 0.711870 0.184085 0.877875
Si Si4 0.445524 0.315806 0.201755
Si Si5 0.638112 0.183339 0.326145
Si Si6 0.593982 0.815133 0.916450
O O1 0.380932 0.500000 0.847310
O O2 0.461833 0.741499 0.744347
O O3 0.378275 0.727875 0.738326
O O4 0.328003 0.766006 0.973594
O O5 0.571591 0.250230 0.677037
O O6 0.583795 0.221528 0.485122
O O7 0.530757 0.000000 0.657498
O O8 0.784581 0.271440 0.761746
O O9 0.659954 0.220955 0.876605
O O10 0.723768 0.000000 0.861113
O O11 0.440967 0.500000 0.206877
O O12 0.400937 0.243527 0.190537
O O13 0.525015 0.264141 0.060589
O O14 0.633481 0.000000 0.316059
O O15 0.583199 0.000000 0.933954
#
# Coordination Sequence:
#
# PCOD9199443 Si02
#       6
#     8   8   8   8   8   8
#     4  12  24  39  63  90 119 155 201 250 294 351
#     4  11  23  41  62  87 120 159 200 244 299 355
#     4  11  23  40  63  89 121 158 199 245 295 353
#     4  11  21  34  59  91 120 151 194 248 294 349
#     4  11  25  42  61  85 121 161 199 246 298 355
#     4  10  20  36  60  87 119 156 194 242 295 353
#
# _framework density 18.866568999999998
#
# number of rings (size 3 to 8) (size 9 to 14) (size 15 to 20)
#    0.000    1.000    1.667    7.000    0.000    6.667 
#    0.000    0.833    0.000    0.000    0.000    0.000 
#    0.000    0.000    0.000    0.000    0.000    0.000 
#
# Total GULP energy -134260.268529 kJ/mol
# GULP energy per Si atom -5594.177855 kJ/mol
# Density = 1.882363 g / cm^3
# Si number density = 18.866569 Si / 1000 Ang^3
#
#
#
# Elastic Constant Matrix: (Units=GPa)
#
#
# Indices 1 2 3 4 5 6 
#
# 1 63.5538 4.6005 -9.4302 -0.0001 23.2516 0.0000
# 2 4.6005 29.2096 -26.6673 -0.0008 -8.2699 0.0002
# 3 -9.4302 -26.6673 -20.6780 -0.0005 -32.4787 0.0001
# 4 -0.0001 -0.0008 -0.0005 14.3550 -0.0002 -0.1710
# 5 23.2516 -8.2699 -32.4787 -0.0002 3.1720 0.0001
# 6 0.0000 0.0002 0.0001 -0.1710 0.0001 34.9571
#
#
#
# Elastic Compliance Matrix: (Units=1/GPa)
#
#
# Indices 1 2 3 4 5 6 
#
# 1 0.024989 0.004006 0.014913 0.000001 -0.020039 0.000000
# 2 0.004006 0.024036 -0.004984 0.000001 -0.017725 0.000000
# 3 0.014913 -0.004984 0.008393 0.000000 -0.036371 0.000000
# 4 0.000001 0.000001 0.000000 0.069666 -0.000002 0.000341
# 5 -0.020039 -0.017725 -0.036371 -0.000002 0.043528 0.000000
# 6 0.000000 0.000000 0.000000 0.000341 0.000000 0.028608
#
#
# Mechanical properties :
#
#
# Convention : Reuss Voigt Hill
#
# Bulk Modulus (GPa) = 11.72519 1.01014 6.36766
# Shear Modulus (GPa) = 25.02753 17.40232 21.21492
#
# Velocity S-wave (km/s) = 3.64614 3.04038 3.35695
# Velocity P-wave (km/s) = 4.89429 3.58633 4.29045
#
# Compressibility (1/GPa) = 0.08528650
#
# Stress axis : x y z
#
# Youngs Moduli (GPa) = 40.01794 41.60422 119.14871
#
# Poissons Ratio (x) = -0.16665 -1.77682
# Poissons Ratio (y) = -0.16029 0.59381
# Poissons Ratio (z) = -0.59677 0.20734
#
# Static dielectric constant tensor:
#      x y z
#    x 1.658520 0.000000 0.017070 
#    y 0.000000 1.626710 0.000000 
#    z 0.017070 0.000000 1.626790 
# 
# From -- ./inp_files/248819.got.cif
#   From: 2010.05.17/outbox.cif.g08.bks.cpg/sg12_125_cif.got.tgz:248819.got - 2010.06.03 13:09:07.
