data_PCOD9199578
_publ_section_title
;
Structure prediction by ZEFSAII (Michael W. Deem and Ramdas Pophale) SiO2 
 PCOD9199578
Probable space group: C 2/M
;
_chemical_formula_sum "Si O2"
_cell_formula_units_Z 48
_cell_length_a 15.243784
_cell_length_b 8.700432
_cell_length_c 27.321064
_cell_angle_alpha 90.000000
_cell_angle_beta 44.526485
_cell_angle_gamma 90.000000
_cell_volume 2540.956355
_symmetry_space_group_name_H-M "C 2/M"
_symmetry_group_IT_number 12
_symmetry_cell_setting 'monoclinic'
loop_
_space_group_symop_operation_xyz
x,y,z
-x,y,-z
-x,-y,-z
x,-y,z
1/2+x,1/2+y,z
1/2-x,1/2+y,-z
1/2-x,1/2-y,-z
1/2+x,1/2-y,z
loop_
_atom_site_type_symbol
_atom_site_label
_atom_site_fract_x
_atom_site_fract_y
_atom_site_fract_z
Si Si1 0.733707 0.816744 0.323547
Si Si2 0.226473 0.317540 0.588694
Si Si3 0.179358 0.183410 0.075618
Si Si4 0.633506 0.316565 0.920943
Si Si5 0.905274 0.316953 0.171047
Si Si6 0.941281 0.315712 0.437686
O O1 0.788364 0.768729 0.354344
O O2 0.806409 0.733044 0.251312
O O3 0.586589 0.774852 0.381992
O O4 0.743285 0.000000 0.313047
O O5 0.225374 0.500000 0.597411
O O6 0.120422 0.280253 0.590513
O O7 0.356942 0.267451 0.511709
O O8 0.259461 0.233653 0.090596
O O9 0.041203 0.253397 0.131914
O O10 0.172326 0.000000 0.074434
O O11 0.250000 0.250000 0.000000
O O12 0.653110 0.500000 0.914235
O O13 0.628308 0.257187 0.867785
O O14 0.500000 0.284842 0.000000
O O15 0.910179 0.500000 0.164382
O O16 0.929805 0.500000 0.450009
#
# Coordination Sequence:
#
# PCOD9199578 Si02
#       6
#     8   8   8   8   8   8
#     4  11  23  40  60  84 122 164 204 250 307 371
#     4  10  20  36  60  90 121 156 203 254 302 360
#     4  12  24  41  66  94 123 158 202 252 307 366
#     4  11  23  41  67  94 123 159 201 252 308 367
#     4  12  26  43  63  91 126 164 208 258 313 373
#     4   9  20  38  60  86 119 161 202 246 302 363
#
# _framework density 18.890525
#
# number of rings (size 3 to 8) (size 9 to 14) (size 15 to 20)
#    0.000    1.167    1.667    5.000    0.000    6.000 
#    0.000    5.000    0.000    0.000    0.000    0.000 
#    0.000    0.000    0.000    0.000    0.000    0.000 
#
# Total GULP energy -134265.854486 kJ/mol
# GULP energy per Si atom -5594.410604 kJ/mol
# Density = 1.884753 g / cm^3
# Si number density = 18.890525 Si / 1000 Ang^3
#
#
#
# Elastic Constant Matrix: (Units=GPa)
#
#
# Indices 1 2 3 4 5 6 
#
# 1 63.2705 -0.8273 17.8036 0.0000 10.5493 0.0003
# 2 -0.8273 49.3841 14.3346 0.0000 4.7714 0.0002
# 3 17.8036 14.3346 51.5581 0.0000 19.5301 0.0001
# 4 0.0000 0.0000 0.0000 35.0969 0.0000 4.3279
# 5 10.5493 4.7714 19.5301 0.0000 25.9171 0.0000
# 6 0.0003 0.0002 0.0001 4.3279 0.0000 34.3291
#
#
#
# Elastic Compliance Matrix: (Units=1/GPa)
#
#
# Indices 1 2 3 4 5 6 
#
# 1 0.017973 0.002235 -0.005459 0.000000 -0.003614 0.000000
# 2 0.002235 0.022316 -0.007103 0.000000 0.000334 0.000000
# 3 -0.005459 -0.007103 0.030674 0.000000 -0.019585 0.000000
# 4 0.000000 0.000000 0.000000 0.028942 0.000000 -0.003649
# 5 -0.003614 0.000334 -0.019585 0.000000 0.054753 0.000000
# 6 0.000000 0.000000 0.000000 -0.003649 0.000000 0.029590
#
#
# Mechanical properties :
#
#
# Convention : Reuss Voigt Hill
#
# Bulk Modulus (GPa) = 19.87691 25.20384 22.54037
# Shear Modulus (GPa) = 22.55584 27.92874 25.24229
#
# Velocity S-wave (km/s) = 3.45922 3.84924 3.65943
# Velocity P-wave (km/s) = 5.14781 5.75556 5.46015
#
# Compressibility (1/GPa) = 0.05030963
#
# Stress axis : x y z
#
# Youngs Moduli (GPa) = 55.63927 44.81024 32.60064
#
# Poissons Ratio (x) = -0.10014 0.17796
# Poissons Ratio (y) = -0.12434 0.23156
# Poissons Ratio (z) = 0.30372 0.31828
#
# Static dielectric constant tensor:
#      x y z
#    x 1.642110 0.000000 -0.002420 
#    y 0.000000 1.630880 0.000000 
#    z -0.002420 0.000000 1.616860 
# 
# From -- ./inp_files/360257.got.cif
#   From: 2010.05.17/outbox.cif.g08.bks.cpg/sg12_181_cif.got.tgz:360257.got - 2010.06.03 13:09:07.
