data_PCOD9199739
_publ_section_title
;
Structure prediction by ZEFSAII (Michael W. Deem and Ramdas Pophale) SiO2 
 PCOD9199739
Probable space group: C 2/M
;
_chemical_formula_sum "Si O2"
_cell_formula_units_Z 42
_cell_length_a 5.284576
_cell_length_b 15.432077
_cell_length_c 22.571582
_cell_angle_alpha 90.000000
_cell_angle_beta 115.056436
_cell_angle_gamma 90.000000
_cell_volume 1667.525591
_symmetry_space_group_name_H-M "C 2/M"
_symmetry_group_IT_number 12
_symmetry_cell_setting 'monoclinic'
loop_
_space_group_symop_operation_xyz
x,y,z
-x,y,-z
-x,-y,-z
x,-y,z
1/2+x,1/2+y,z
1/2-x,1/2+y,-z
1/2-x,1/2-y,-z
1/2+x,1/2-y,z
loop_
_atom_site_type_symbol
_atom_site_label
_atom_site_fract_x
_atom_site_fract_y
_atom_site_fract_z
Si Si1 0.301513 0.151860 0.028427
Si Si2 0.114966 0.604431 0.175629
Si Si3 0.363085 0.593410 0.633689
Si Si4 0.000000 0.500000 0.500000
Si Si5 0.268375 0.895975 0.253491
Si Si6 0.621694 0.691506 0.570108
O O1 0.448260 0.149523 0.106214
O O2 0.500000 0.108751 0.000000
O O3 0.250000 0.250000 0.000000
O O4 0.000000 0.109162 0.000000
O O5 0.070337 0.500000 0.167047
O O6 0.984834 0.636603 0.225400
O O7 0.446430 0.618987 0.202140
O O8 0.456090 0.500000 0.665833
O O9 0.242835 0.639524 0.679608
O O10 0.633192 0.627055 0.625631
O O11 0.128869 0.573469 0.559878
O O12 0.321247 0.000000 0.261096
O O13 0.500000 0.643189 0.500000
O O14 0.376686 0.753298 0.571737
#
# Coordination Sequence:
#
# PCOD9199739 Si02
#       6
#     8   8   8   2   8   8
#     4  10  21  37  60  87 121 158 195 248 309 360
#     4  10  20  36  61  89 120 160 206 244 304 369
#     4   9  20  39  64  94 126 165 219 274 326 380
#     4   8  20  36  66 104 122 160 220 288 318 376
#     4   9  19  37  59  88 123 165 201 253 309 373
#     4  10  23  39  60  83 120 162 202 260 329 383
#
# _framework density 25.187023
#
# number of rings (size 3 to 8) (size 9 to 14) (size 15 to 20)
#    0.571    1.905    0.000    1.143    4.000    2.667 
#    0.000    2.857   25.143    0.571    0.000    0.000 
#    0.000    0.000    0.000    0.000    0.000    0.000 
#
# Total GULP energy -116989.132108 kJ/mol
# GULP energy per Si atom -5570.911053 kJ/mol
# Density = 2.512970 g / cm^3
# Si number density = 25.187023 Si / 1000 Ang^3
#
#
#
# Elastic Constant Matrix: (Units=GPa)
#
#
# Indices 1 2 3 4 5 6 
#
# 1 139.5294 6.9856 26.8056 0.0000 -19.2700 0.0000
# 2 6.9856 31.8915 8.9691 0.0000 -7.1369 0.0000
# 3 26.8056 8.9691 161.3684 0.0000 -10.6784 0.0000
# 4 0.0000 0.0000 0.0000 25.7257 0.0000 -13.1256
# 5 -19.2700 -7.1369 -10.6784 0.0000 43.7066 0.0000
# 6 0.0000 0.0000 0.0000 -13.1256 0.0000 -3.3139
#
#
#
# Elastic Compliance Matrix: (Units=1/GPa)
#
#
# Indices 1 2 3 4 5 6 
#
# 1 0.007831 -0.000730 -0.001057 0.000000 0.003075 0.000000
# 2 -0.000730 0.032966 -0.001399 0.000000 0.004719 0.000000
# 3 -0.001057 -0.001399 0.006510 0.000000 0.000896 0.000000
# 4 0.000000 0.000000 0.000000 0.012868 0.000000 -0.050966
# 5 0.003075 0.004719 0.000896 0.000000 0.025225 0.000000
# 6 0.000000 0.000000 0.000000 -0.050966 0.000000 -0.099892
#
#
# Mechanical properties :
#
#
# Convention : Reuss Voigt Hill
#
# Bulk Modulus (GPa) = 24.42856 46.47886 35.45371
# Shear Modulus (GPa) = 905.18977 32.55896 468.87437
#
# Velocity S-wave (km/s) = 18.97808 3.59930 13.65874
# Velocity P-wave (km/s) = 22.13466 5.98054 16.21281
#
# Compressibility (1/GPa) = 0.04093568
#
# Stress axis : x y z
#
# Youngs Moduli (GPa) = 127.69357 30.33450 153.61942
#
# Poissons Ratio (x) = 0.02214 0.16235
# Poissons Ratio (y) = 0.09321 0.21487
# Poissons Ratio (z) = 0.13495 0.04243
#
# Static dielectric constant tensor:
#      x y z
#    x 2.086530 0.000000 0.019450 
#    y 0.000000 2.174830 0.000000 
#    z 0.019450 0.000000 2.009450 
# 
# From -- ./inp_files/252951.got.cif
#   From: 2010.05.17/outbox.cif.g08.bks.cpg/sg12_127_cif.got.tgz:252951.got - 2010.06.03 13:09:07.
