data_PCOD9199591
_publ_section_title
;
Structure prediction by ZEFSAII (Michael W. Deem and Ramdas Pophale) SiO2 
 PCOD9199591
Probable space group: C 2/M
;
_chemical_formula_sum "Si O2"
_cell_formula_units_Z 64
_cell_length_a 16.060613
_cell_length_b 8.503507
_cell_length_c 24.653834
_cell_angle_alpha 90.000000
_cell_angle_beta 79.723745
_cell_angle_gamma 90.000000
_cell_volume 3313.001898
_symmetry_space_group_name_H-M "C 2/M"
_symmetry_group_IT_number 12
_symmetry_cell_setting 'monoclinic'
loop_
_space_group_symop_operation_xyz
x,y,z
-x,y,-z
-x,-y,-z
x,-y,z
1/2+x,1/2+y,z
1/2-x,1/2+y,-z
1/2-x,1/2-y,-z
1/2+x,1/2-y,z
loop_
_atom_site_type_symbol
_atom_site_label
_atom_site_fract_x
_atom_site_fract_y
_atom_site_fract_z
Si Si1 0.293416 0.311943 0.940647
Si Si2 0.583113 0.309610 0.822901
Si Si3 0.539799 0.688208 0.366259
Si Si4 0.486197 0.309065 0.940340
Si Si5 0.635808 0.309673 0.557202
Si Si6 0.057631 0.311682 0.242719
Si Si7 0.322048 0.187956 0.566815
Si Si8 0.235460 0.689370 0.173108
O O1 0.287133 0.500000 0.939739
O O2 0.392236 0.267527 0.932099
O O3 0.256325 0.240729 0.890157
O O4 0.250000 0.250000 0.000000
O O5 0.579944 0.500000 0.822114
O O6 0.550824 0.257369 0.886302
O O7 0.519034 0.247974 0.785447
O O8 0.680330 0.259291 0.805009
O O9 0.537649 0.500000 0.363360
O O10 0.450965 0.740082 0.403963
O O11 0.547875 0.756594 0.305344
O O12 0.618770 0.738897 0.394173
O O13 0.491474 0.500000 0.941933
O O14 0.500000 0.250707 0.000000
O O15 0.635225 0.500000 0.552677
O O16 0.643474 0.239905 0.496079
O O17 0.722501 0.265480 0.578617
O O18 0.058840 0.500000 0.240841
O O19 0.147040 0.251993 0.207815
O O20 0.326054 0.000000 0.570965
O O21 0.233595 0.500000 0.174692
#
# Coordination Sequence:
#
# PCOD9199591 Si02
#       8
#     8   8   8   8   8   8   8   8
#     4  11  21  34  56  85 117 150 186 232 284 346
#     4  10  20  39  63  83 109 151 194 231 284 355
#     4  11  23  39  60  84 116 160 205 241 286 353
#     4   9  17  31  54  82 110 142 184 227 271 337
#     4   9  20  38  59  86 122 161 198 239 291 353
#     4  11  24  41  59  85 119 151 192 251 300 341
#     4  10  20  36  60  90 123 156 195 247 299 342
#     4  10  22  40  62  84 113 150 188 235 294 351
#
# _framework density 19.317827000000001
#
# number of rings (size 3 to 8) (size 9 to 14) (size 15 to 20)
#    0.000    1.875    1.250    2.625    0.000    7.000 
#    0.000    5.000    0.000    1.875    0.000    0.000 
#    0.000    0.000    0.000    0.000    0.000    0.000 
#
# Total GULP energy -178731.726230 kJ/mol
# GULP energy per Si atom -5585.366445 kJ/mol
# Density = 1.927386 g / cm^3
# Si number density = 19.317827 Si / 1000 Ang^3
#
#
#
# Elastic Constant Matrix: (Units=GPa)
#
#
# Indices 1 2 3 4 5 6 
#
# 1 149.9597 28.4873 72.8902 0.0000 27.2499 0.0000
# 2 28.4873 11.8546 12.4097 0.0000 3.2126 0.0000
# 3 72.8902 12.4097 108.8677 0.0000 22.6343 0.0000
# 4 0.0000 0.0000 0.0000 31.9733 0.0000 5.3496
# 5 27.2499 3.2126 22.6343 0.0000 21.7814 0.0000
# 6 0.0000 0.0000 0.0000 5.3496 0.0000 25.8899
#
#
#
# Elastic Compliance Matrix: (Units=1/GPa)
#
#
# Indices 1 2 3 4 5 6 
#
# 1 0.018110 -0.034304 -0.005812 0.000000 -0.011558 0.000000
# 2 -0.034304 0.160977 0.000805 0.000000 0.018336 0.000000
# 3 -0.005812 0.000805 0.014667 0.000000 -0.008088 0.000000
# 4 0.000000 0.000000 0.000000 0.032396 0.000000 -0.006694
# 5 -0.011558 0.018336 -0.008088 0.000000 0.066071 0.000000
# 6 0.000000 0.000000 0.000000 -0.006694 0.000000 0.040008
#
#
# Mechanical properties :
#
#
# Convention : Reuss Voigt Hill
#
# Bulk Modulus (GPa) = 8.68559 55.36182 32.02371
# Shear Modulus (GPa) = 11.13021 26.38858 18.75939
#
# Velocity S-wave (km/s) = 2.40294 3.69998 3.11962
# Velocity P-wave (km/s) = 3.49353 6.85374 5.43960
#
# Compressibility (1/GPa) = 0.11513316
#
# Stress axis : x y z
#
# Youngs Moduli (GPa) = 55.21706 6.21207 68.18143
#
# Poissons Ratio (x) = 0.21310 0.39629
# Poissons Ratio (y) = 1.89415 -0.05492
# Poissons Ratio (z) = 0.32093 -0.00500
#
# Static dielectric constant tensor:
#      x y z
#    x 1.705010 0.000000 -0.014820 
#    y 0.000000 1.660020 0.000000 
#    z -0.014820 0.000000 1.638700 
# 
# From -- ./inp_files/338723.got.cif
#   From: 2010.05.17/outbox.cif.g08.bks.cpg/sg12_170_cif.got.tgz:338723.got - 2010.06.03 13:09:07.
