data_PCOD9199308
_publ_section_title
;
Structure prediction by ZEFSAII (Michael W. Deem and Ramdas Pophale) SiO2 
 PCOD9199308
Probable space group: C 2/M
;
_chemical_formula_sum "Si O2"
_cell_formula_units_Z 60
_cell_length_a 19.537179
_cell_length_b 21.955920
_cell_length_c 18.051464
_cell_angle_alpha 90.000000
_cell_angle_beta 155.975320
_cell_angle_gamma 90.000000
_cell_volume 3152.529434
_symmetry_space_group_name_H-M "C 2/M"
_symmetry_group_IT_number 12
_symmetry_cell_setting 'monoclinic'
loop_
_space_group_symop_operation_xyz
x,y,z
-x,y,-z
-x,-y,-z
x,-y,z
1/2+x,1/2+y,z
1/2-x,1/2+y,-z
1/2-x,1/2-y,-z
1/2+x,1/2-y,z
loop_
_atom_site_type_symbol
_atom_site_label
_atom_site_fract_x
_atom_site_fract_y
_atom_site_fract_z
Si Si1 0.473598 0.335835 0.347606
Si Si2 0.059633 0.429017 0.249863
Si Si3 0.304649 0.153962 0.741433
Si Si4 0.500000 0.257026 0.000000
Si Si5 0.261377 0.069764 0.839674
Si Si6 0.766409 0.282957 0.155459
Si Si7 0.910919 0.671533 0.603993
Si Si8 0.547022 0.292108 0.260015
O O1 0.621415 0.317575 0.549197
O O2 0.416092 0.403144 0.311564
O O3 0.320793 0.288136 0.205426
O O4 0.533040 0.329929 0.322318
O O5 0.103869 0.500000 0.300362
O O6 0.174336 0.391326 0.306341
O O7 0.065049 0.393112 0.332371
O O8 0.881963 0.425412 0.030277
O O9 0.316826 0.112930 0.826919
O O10 0.432979 0.210049 0.871217
O O11 0.659997 0.292056 0.125486
O O12 0.259532 0.000000 0.813331
O O13 0.941351 0.316769 0.309569
O O14 0.626745 0.298099 0.955462
O O15 0.718267 0.685402 0.389493
O O16 0.937031 0.722847 0.694320
#
# Coordination Sequence:
#
# PCOD9199308 Si02
#       8
#     8   8   8   4   8   8   8   8
#     4  11  21  36  54  78 109 156 198 250 284 326
#     4  11  21  37  58  81 114 155 200 243 279 329
#     4  12  21  35  53  76 121 159 204 232 276 329
#     4  12  24  36  57  84 117 154 190 238 288 348
#     4  11  22  34  50  75 114 170 211 235 269 318
#     4  11  23  37  58  81 111 144 186 245 297 348
#     4  10  20  37  57  82 106 144 194 240 293 340
#     4  10  20  36  60  78 107 146 193 241 296 339
#
# _framework density 19.032336000000001
#
# number of rings (size 3 to 8) (size 9 to 14) (size 15 to 20)
#    0.000    1.067    4.000    4.800    3.733    2.667 
#    0.000    0.000    0.000    0.000    0.000    0.467 
#    0.000    1.067    0.000    0.000    0.000    0.000 
#
# Total GULP energy -167436.712426 kJ/mol
# GULP energy per Si atom -5581.223748 kJ/mol
# Density = 1.898902 g / cm^3
# Si number density = 19.032336 Si / 1000 Ang^3
#
#
#
# Elastic Constant Matrix: (Units=GPa)
#
#
# Indices 1 2 3 4 5 6 
#
# 1 69.1334 36.4348 24.6524 0.0000 28.8877 0.0000
# 2 36.4348 54.2352 9.6449 0.0000 3.9837 0.0000
# 3 24.6524 9.6449 103.9685 -0.0003 19.8633 -0.0001
# 4 0.0000 0.0000 -0.0003 17.2591 -0.0001 -3.1306
# 5 28.8877 3.9837 19.8633 -0.0001 32.4493 0.0000
# 6 0.0000 0.0000 -0.0001 -3.1306 0.0000 26.5777
#
#
#
# Elastic Compliance Matrix: (Units=1/GPa)
#
#
# Indices 1 2 3 4 5 6 
#
# 1 0.043068 -0.026191 -0.001213 0.000000 -0.034383 0.000000
# 2 -0.026191 0.034732 -0.000738 0.000000 0.019504 0.000000
# 3 -0.001213 -0.000738 0.011042 0.000000 -0.005588 0.000000
# 4 0.000000 0.000000 0.000000 0.059205 0.000000 0.006974
# 5 -0.034383 0.019504 -0.005588 0.000000 0.062453 0.000000
# 6 0.000000 0.000000 0.000000 0.006974 0.000000 0.038447
#
#
# Mechanical properties :
#
#
# Convention : Reuss Voigt Hill
#
# Bulk Modulus (GPa) = 30.71602 40.97793 35.84697
# Shear Modulus (GPa) = 15.81856 25.69755 20.75806
#
# Velocity S-wave (km/s) = 2.88608 3.67850 3.30612
# Velocity P-wave (km/s) = 5.22301 6.29438 5.78356
#
# Compressibility (1/GPa) = 0.03255630
#
# Stress axis : x y z
#
# Youngs Moduli (GPa) = 23.21920 28.79199 90.56201
#
# Poissons Ratio (x) = 0.75410 0.10989
# Poissons Ratio (y) = 0.60814 0.06684
# Poissons Ratio (z) = 0.02818 0.02125
#
# Static dielectric constant tensor:
#      x y z
#    x 1.719900 0.000000 0.031710 
#    y 0.000000 1.632250 0.000000 
#    z 0.031710 0.000000 1.751090 
# 
# From -- ./inp_files/322989.got.cif
#   From: 2010.05.17/outbox.cif.g08.bks.cpg/sg12_162_cif.got.tgz:322989.got - 2010.06.03 13:09:07.
