data_PCOD9199941
_publ_section_title
;
Structure prediction by ZEFSAII (Michael W. Deem and Ramdas Pophale) SiO2 
 PCOD9199941
Probable space group: C 2/M
;
_chemical_formula_sum "Si O2"
_cell_formula_units_Z 34
_cell_length_a 18.702428
_cell_length_b 11.237598
_cell_length_c 8.178893
_cell_angle_alpha 90.000000
_cell_angle_beta 82.900387
_cell_angle_gamma 90.000000
_cell_volume 1705.781283
_symmetry_space_group_name_H-M "C 2/M"
_symmetry_group_IT_number 12
_symmetry_cell_setting 'monoclinic'
loop_
_space_group_symop_operation_xyz
x,y,z
-x,y,-z
-x,-y,-z
x,-y,z
1/2+x,1/2+y,z
1/2-x,1/2+y,-z
1/2-x,1/2-y,-z
1/2+x,1/2-y,z
loop_
_atom_site_type_symbol
_atom_site_label
_atom_site_fract_x
_atom_site_fract_y
_atom_site_fract_z
Si Si1 0.525184 0.637529 0.671894
Si Si2 0.758205 0.132388 0.607970
Si Si3 0.130881 0.133414 0.135217
Si Si4 0.000000 0.500000 0.000000
Si Si5 0.621790 0.191462 0.853386
O O1 0.500000 0.679542 0.500000
O O2 0.548453 0.500000 0.649342
O O3 0.454281 0.640865 0.805110
O O4 0.585684 0.717556 0.735057
O O5 0.750000 0.250000 0.500000
O O6 0.827355 0.146852 0.705878
O O7 0.688613 0.131344 0.744920
O O8 0.762980 0.000000 0.526330
O O9 0.146832 0.000000 0.068696
O O10 0.149927 0.232808 0.999339
O O11 0.059609 0.602840 0.930538
#
# Coordination Sequence:
#
# PCOD9199941 Si02
#       5
#     8   8   8   2   8
#     4  10  20  36  62  91 121 157 205 261 313 371
#     4  11  25  44  64  93 129 167 213 263 318 380
#     4  10  21  39  63  91 120 161 214 262 311 371
#     4  12  24  40  64  92 132 164 210 260 310 384
#     4  12  22  42  63  92 126 168 206 259 317 378
#
# _framework density 19.932213999999998
#
# number of rings (size 3 to 8) (size 9 to 14) (size 15 to 20)
#    0.000    1.176    3.529    2.824    0.000    5.647 
#    2.118    0.588    0.000    0.000    0.000    0.000 
#    0.000    0.000    0.000    0.000    0.000    0.000 
#
# Total GULP energy -94717.949498 kJ/mol
# GULP energy per Si atom -5571.644088 kJ/mol
# Density = 1.988685 g / cm^3
# Si number density = 19.932214 Si / 1000 Ang^3
#
#
#
# Elastic Constant Matrix: (Units=GPa)
#
#
# Indices 1 2 3 4 5 6 
#
# 1 56.7466 7.4713 -8.4046 0.0000 -4.2595 0.0000
# 2 7.4713 133.5502 47.5962 0.0000 13.4277 0.0000
# 3 -8.4046 47.5962 47.9977 0.0000 3.5550 0.0000
# 4 0.0000 0.0000 0.0000 -5.4528 0.0000 -25.6199
# 5 -4.2595 13.4277 3.5550 0.0000 35.9107 0.0000
# 6 0.0000 0.0000 0.0000 -25.6199 0.0000 3.1984
#
#
#
# Elastic Compliance Matrix: (Units=1/GPa)
#
#
# Indices 1 2 3 4 5 6 
#
# 1 0.019409 -0.003904 0.007043 0.000000 0.003065 0.000000
# 2 -0.003904 0.012747 -0.013032 0.000000 -0.003939 0.000000
# 3 0.007043 -0.013032 0.034823 0.000000 0.002261 0.000000
# 4 0.000000 0.000000 0.000000 -0.004747 0.000000 -0.038022
# 5 0.003065 -0.003939 0.002261 0.000000 0.029460 0.000000
# 6 0.000000 0.000000 0.000000 -0.038022 0.000000 0.008092
#
#
# Mechanical properties :
#
#
# Convention : Reuss Voigt Hill
#
# Bulk Modulus (GPa) = 21.18948 36.84670 29.01809
# Shear Modulus (GPa) = 36.95449 19.50671 28.23060
#
# Velocity S-wave (km/s) = 4.31049 3.13174 3.76750
# Velocity P-wave (km/s) = 5.95211 5.62167 5.78925
#
# Compressibility (1/GPa) = 0.04719324
#
# Stress axis : x y z
#
# Youngs Moduli (GPa) = 51.52147 78.45112 28.71658
#
# Poissons Ratio (x) = 0.30628 -0.20225
# Poissons Ratio (y) = 0.20114 0.37423
# Poissons Ratio (z) = -0.36287 1.02237
#
# Static dielectric constant tensor:
#      x y z
#    x 1.682690 0.000000 -0.016040 
#    y 0.000000 1.700730 0.000000 
#    z -0.016040 0.000000 1.702430 
# 
# From -- ./inp_files/70849.got.cif
#   From: 2010.05.17/outbox.cif.g08.bks.cpg/sg12_36_cif.got.tgz:70849.got - 2010.06.03 13:09:07.
