data_PCOD9199479
_publ_section_title
;
Structure prediction by ZEFSAII (Michael W. Deem and Ramdas Pophale) SiO2 
 PCOD9199479
Probable space group: C 2/M
;
_chemical_formula_sum "Si O2"
_cell_formula_units_Z 56
_cell_length_a 14.691672
_cell_length_b 9.296442
_cell_length_c 21.999108
_cell_angle_alpha 90.000000
_cell_angle_beta 120.923413
_cell_angle_gamma 90.000000
_cell_volume 2577.549050
_symmetry_space_group_name_H-M "C 2/M"
_symmetry_group_IT_number 12
_symmetry_cell_setting 'monoclinic'
loop_
_space_group_symop_operation_xyz
x,y,z
-x,y,-z
-x,-y,-z
x,-y,z
1/2+x,1/2+y,z
1/2-x,1/2+y,-z
1/2-x,1/2-y,-z
1/2+x,1/2-y,z
loop_
_atom_site_type_symbol
_atom_site_label
_atom_site_fract_x
_atom_site_fract_y
_atom_site_fract_z
Si Si1 0.352323 0.330976 0.009103
Si Si2 0.750948 0.331136 0.598626
Si Si3 0.860649 0.667306 0.339644
Si Si4 0.171796 0.665173 0.118974
Si Si5 0.402184 0.166642 0.543780
Si Si6 0.089857 0.166241 0.765901
Si Si7 0.952533 0.169270 0.829994
O O1 0.330206 0.500000 0.993871
O O2 0.449289 0.316666 0.089064
O O3 0.250000 0.250000 0.000000
O O4 0.373816 0.259732 0.951285
O O5 0.738966 0.500000 0.606405
O O6 0.730823 0.243869 0.653106
O O7 0.661083 0.274563 0.520867
O O8 0.859294 0.308718 0.597899
O O9 0.836634 0.500000 0.323623
O O10 0.887893 0.739654 0.285166
O O11 0.971737 0.680049 0.414792
O O12 0.136145 0.500000 0.102712
O O13 0.299376 0.666906 0.158975
O O14 0.137878 0.734235 0.171298
O O15 0.373895 0.000000 0.518487
O O16 0.997118 0.213892 0.779608
O O17 0.069529 0.000000 0.741175
O O18 0.923581 0.000000 0.817860
#
# Coordination Sequence:
#
# PCOD9199479 Si02
#       7
#     8   8   8   8   8   8   8
#     4  11  21  37  62  89 120 152 189 239 295 348
#     4  10  20  36  60  88 117 150 188 231 285 340
#     4  11  23  38  58  84 115 152 195 236 283 338
#     4  11  23  40  61  88 117 151 194 240 293 350
#     4   9  20  38  58  84 119 151 185 234 284 335
#     4  10  23  43  59  78 116 156 193 239 288 340
#     4  10  22  41  61  85 117 153 191 239 295 346
#
# _framework density 21.726067
#
# number of rings (size 3 to 8) (size 9 to 14) (size 15 to 20)
#    0.000    1.714    1.429    2.571    0.000    9.143 
#    0.000    4.286    0.000    0.000    0.000    0.000 
#    0.000    0.000    0.000    0.000    0.000    0.000 
#
# Total GULP energy -156613.481194 kJ/mol
# GULP energy per Si atom -5593.338614 kJ/mol
# Density = 2.167662 g / cm^3
# Si number density = 21.726067 Si / 1000 Ang^3
#
#
#
# Elastic Constant Matrix: (Units=GPa)
#
#
# Indices 1 2 3 4 5 6 
#
# 1 118.8656 46.2558 14.3073 0.0000 -31.3555 0.0000
# 2 46.2558 89.0940 28.4946 0.0000 -29.1042 0.0000
# 3 14.3073 28.4946 60.5205 0.0000 -25.8369 0.0000
# 4 0.0000 0.0000 0.0000 30.2809 0.0000 -10.8374
# 5 -31.3555 -29.1042 -25.8369 0.0000 46.7135 0.0000
# 6 0.0000 0.0000 0.0000 -10.8374 0.0000 33.3629
#
#
#
# Elastic Compliance Matrix: (Units=1/GPa)
#
#
# Indices 1 2 3 4 5 6 
#
# 1 0.011573 -0.004711 0.002023 0.000000 0.005952 0.000000
# 2 -0.004711 0.016703 -0.004788 0.000000 0.004596 0.000000
# 3 0.002023 -0.004788 0.023048 0.000000 0.011122 0.000000
# 4 0.000000 0.000000 0.000000 0.037368 0.000000 0.012139
# 5 0.005952 0.004596 0.011122 0.000000 0.034417 0.000000
# 6 0.000000 0.000000 0.000000 0.012139 0.000000 0.033916
#
#
# Mechanical properties :
#
#
# Convention : Reuss Voigt Hill
#
# Bulk Modulus (GPa) = 27.49488 49.62172 38.55830
# Shear Modulus (GPa) = 27.15900 34.03295 30.59597
#
# Velocity S-wave (km/s) = 3.53946 3.96214 3.75675
# Velocity P-wave (km/s) = 5.42093 6.61972 6.05009
#
# Compressibility (1/GPa) = 0.03637041
#
# Stress axis : x y z
#
# Youngs Moduli (GPa) = 86.41076 59.87044 43.38828
#
# Poissons Ratio (x) = 0.28206 -0.08778
# Poissons Ratio (y) = 0.40709 0.20776
# Poissons Ratio (z) = -0.17482 0.28668
#
# Static dielectric constant tensor:
#      x y z
#    x 1.801290 0.000000 -0.004360 
#    y 0.000000 1.728200 0.000000 
#    z -0.004360 0.000000 1.815300 
# 
# From -- ./inp_files/314455.got.cif
#   From: 2010.05.17/outbox.cif.g08.bks.cpg/sg12_158_cif.got.tgz:314455.got - 2010.06.03 13:09:07.
