data_PCOD9199532
_publ_section_title
;
Structure prediction by ZEFSAII (Michael W. Deem and Ramdas Pophale) SiO2 
 PCOD9199532
Probable space group: C 2/M
;
_chemical_formula_sum "Si O2"
_cell_formula_units_Z 64
_cell_length_a 32.707638
_cell_length_b 12.659633
_cell_length_c 19.731457
_cell_angle_alpha 90.000000
_cell_angle_beta 153.938885
_cell_angle_gamma 90.000000
_cell_volume 3589.383992
_symmetry_space_group_name_H-M "C 2/M"
_symmetry_group_IT_number 12
_symmetry_cell_setting 'monoclinic'
loop_
_space_group_symop_operation_xyz
x,y,z
-x,y,-z
-x,-y,-z
x,-y,z
1/2+x,1/2+y,z
1/2-x,1/2+y,-z
1/2-x,1/2-y,-z
1/2+x,1/2-y,z
loop_
_atom_site_type_symbol
_atom_site_label
_atom_site_fract_x
_atom_site_fract_y
_atom_site_fract_z
Si Si1 0.987071 0.375242 0.154853
Si Si2 0.684106 0.231326 0.173222
Si Si3 0.289403 0.374894 0.918541
Si Si4 0.890282 0.884148 0.825097
Si Si5 0.633161 0.375143 0.500550
Si Si6 0.555574 0.246359 0.771664
Si Si7 0.650320 0.709035 0.374658
Si Si8 0.085103 0.625449 0.676322
O O1 0.004183 0.500000 0.177203
O O2 0.961596 0.337823 0.193227
O O3 0.076494 0.305160 0.267863
O O4 0.901361 0.341795 0.978655
O O5 0.697090 0.317359 0.133166
O O6 0.658505 0.293493 0.203809
O O7 0.778571 0.167006 0.325939
O O8 0.306383 0.500000 0.938075
O O9 0.184313 0.358002 0.787955
O O10 0.362755 0.322496 0.079480
O O11 0.878441 0.869410 0.727727
O O12 0.855783 0.000000 0.795190
O O13 0.000000 0.877943 0.000000
O O14 0.621885 0.500000 0.492113
O O15 0.538908 0.313115 0.378580
O O16 0.651451 0.346644 0.448997
O O17 0.580694 0.188917 0.739584
O O18 0.750000 0.750000 0.500000
O O19 0.075867 0.500000 0.676542
O O20 0.000000 0.655441 0.500000
#
# Coordination Sequence:
#
# PCOD9199532 Si02
#       8
#     8   8   8   8   8   8   8   8
#     4  10  22  38  58  81 111 149 189 232 282 335
#     4  11  21  39  58  83 115 147 191 236 281 338
#     4  10  21  37  61  88 115 151 190 232 285 337
#     4  11  22  38  59  81 111 149 191 236 283 334
#     4  11  23  38  59  83 115 152 188 234 287 340
#     4  10  21  38  59  84 119 149 189 231 281 337
#     4  11  22  40  55  82 115 145 191 237 286 338
#     4  10  20  36  60  89 118 150 190 233 282 336
#
# _framework density 17.830358
#
# number of rings (size 3 to 8) (size 9 to 14) (size 15 to 20)
#    0.000    1.500    2.500    3.000    0.000    1.000 
#    0.000    1.875    0.000    9.000    0.000    0.000 
#    0.000    0.000    0.000    0.000    0.000    0.000 
#
# Total GULP energy -178724.715076 kJ/mol
# GULP energy per Si atom -5585.147346 kJ/mol
# Density = 1.778978 g / cm^3
# Si number density = 17.830358 Si / 1000 Ang^3
#
#
#
# Elastic Constant Matrix: (Units=GPa)
#
#
# Indices 1 2 3 4 5 6 
#
# 1 68.7983 25.6745 22.0049 0.0000 -4.6279 0.0000
# 2 25.6745 94.8769 34.5020 0.0000 -0.2027 0.0000
# 3 22.0049 34.5020 114.8002 0.0000 0.4856 0.0000
# 4 0.0000 0.0000 0.0000 20.4927 0.0000 2.1360
# 5 -4.6279 -0.2027 0.4856 0.0000 26.8187 0.0000
# 6 0.0000 0.0000 0.0000 2.1360 0.0000 21.3206
#
#
#
# Elastic Compliance Matrix: (Units=1/GPa)
#
#
# Indices 1 2 3 4 5 6 
#
# 1 0.016813 -0.003780 -0.002099 0.000000 0.002911 0.000000
# 2 -0.003780 0.012684 -0.003085 0.000000 -0.000501 0.000000
# 3 -0.002099 -0.003085 0.010043 0.000000 -0.000567 0.000000
# 4 0.000000 0.000000 0.000000 0.049313 0.000000 -0.004940
# 5 0.002911 -0.000501 -0.000567 0.000000 0.037796 0.000000
# 6 0.000000 0.000000 0.000000 -0.004940 0.000000 0.047398
#
#
# Mechanical properties :
#
#
# Convention : Reuss Voigt Hill
#
# Bulk Modulus (GPa) = 46.27326 49.20424 47.73875
# Shear Modulus (GPa) = 25.10302 26.81267 25.95785
#
# Velocity S-wave (km/s) = 3.75624 3.88205 3.81966
# Velocity P-wave (km/s) = 6.69483 6.91009 6.80332
#
# Compressibility (1/GPa) = 0.02161075
#
# Stress axis : x y z
#
# Youngs Moduli (GPa) = 59.47740 78.84050 99.57433
#
# Poissons Ratio (x) = 0.29804 0.20900
# Poissons Ratio (y) = 0.22484 0.30721
# Poissons Ratio (z) = 0.12484 0.24324
#
# Static dielectric constant tensor:
#      x y z
#    x 1.572030 0.000000 0.008370 
#    y 0.000000 1.581760 0.000000 
#    z 0.008370 0.000000 1.578980 
# 
# From -- ./inp_files/296515.got.cif
#   From: 2010.05.17/outbox.cif.g08.bks.cpg/sg12_149_cif.got.tgz:296515.got - 2010.06.03 13:09:07.
