data_PCOD9199541
_publ_section_title
;
Structure prediction by ZEFSAII (Michael W. Deem and Ramdas Pophale) SiO2 
 PCOD9199541
Probable space group: C 2/M
;
_chemical_formula_sum "Si O2"
_cell_formula_units_Z 64
_cell_length_a 15.440044
_cell_length_b 8.622995
_cell_length_c 31.477617
_cell_angle_alpha 90.000000
_cell_angle_beta 127.286285
_cell_angle_gamma 90.000000
_cell_volume 3334.366974
_symmetry_space_group_name_H-M "C 2/M"
_symmetry_group_IT_number 12
_symmetry_cell_setting 'monoclinic'
loop_
_space_group_symop_operation_xyz
x,y,z
-x,y,-z
-x,-y,-z
x,-y,z
1/2+x,1/2+y,z
1/2-x,1/2+y,-z
1/2-x,1/2-y,-z
1/2+x,1/2-y,z
loop_
_atom_site_type_symbol
_atom_site_label
_atom_site_fract_x
_atom_site_fract_y
_atom_site_fract_z
Si Si1 0.263730 0.686464 0.329888
Si Si2 0.594823 0.181568 0.558530
Si Si3 0.842896 0.185509 0.866551
Si Si4 0.277159 0.814129 0.554290
Si Si5 0.682172 0.685194 0.748466
Si Si6 0.441911 0.184833 0.672817
Si Si7 0.795409 0.187352 0.948773
Si Si8 0.579268 0.814655 0.934429
O O1 0.264227 0.500000 0.331377
O O2 0.371176 0.742292 0.387091
O O3 0.270895 0.738505 0.283396
O O4 0.153749 0.734568 0.322497
O O5 0.500000 0.246871 0.500000
O O6 0.699959 0.214242 0.561474
O O7 0.572926 0.000000 0.558948
O O8 0.752117 0.244081 0.807182
O O9 0.817332 0.237877 0.907236
O O10 0.961984 0.245961 0.889284
O O11 0.843740 0.000000 0.866876
O O12 0.250000 0.750000 0.500000
O O13 0.395112 0.792269 0.610991
O O14 0.254465 0.000000 0.549968
O O15 0.691311 0.500000 0.752695
O O16 0.555909 0.732446 0.713482
O O17 0.456838 0.000000 0.682913
O O18 0.675345 0.231301 0.930239
O O19 0.803523 0.000000 0.953035
O O20 0.880991 0.255986 0.007682
O O21 0.572771 0.000000 0.932711
#
# Coordination Sequence:
#
# PCOD9199541 Si02
#       8
#     8   8   8   8   8   8   8   8
#     4   9  21  41  60  80 110 150 188 231 289 350
#     4  10  21  35  54  83 113 142 181 229 282 342
#     4  11  23  39  58  83 117 157 197 236 287 346
#     4  10  21  36  56  82 113 146 182 227 285 348
#     4  11  24  40  60  86 113 148 197 244 290 341
#     4   9  20  40  60  79 109 147 186 229 285 347
#     4   9  20  38  59  85 120 160 195 231 287 351
#     4  10  20  36  60  89 120 154 194 243 290 333
#
# _framework density 19.194047000000001
#
# number of rings (size 3 to 8) (size 9 to 14) (size 15 to 20)
#    0.000    2.125    0.000    3.000    1.750    8.500 
#    0.000    5.000    0.000    0.000    0.000    0.000 
#    0.000    0.000    0.000    0.000    0.000    0.000 
#
# Total GULP energy -178539.418164 kJ/mol
# GULP energy per Si atom -5579.356818 kJ/mol
# Density = 1.915036 g / cm^3
# Si number density = 19.194047 Si / 1000 Ang^3
#
#
#
# Elastic Constant Matrix: (Units=GPa)
#
#
# Indices 1 2 3 4 5 6 
#
# 1 59.7520 11.4494 34.4253 0.0000 12.1535 0.0000
# 2 11.4494 15.5790 19.1948 0.0000 4.4543 0.0000
# 3 34.4253 19.1948 93.4760 0.0000 22.5156 0.0000
# 4 0.0000 0.0000 0.0000 30.5367 0.0000 4.2346
# 5 12.1535 4.4543 22.5156 0.0000 26.4559 0.0000
# 6 0.0000 0.0000 0.0000 4.2346 0.0000 24.2477
#
#
#
# Elastic Compliance Matrix: (Units=1/GPa)
#
#
# Indices 1 2 3 4 5 6 
#
# 1 0.022375 -0.008483 -0.005492 0.000000 -0.004176 0.000000
# 2 -0.008483 0.089156 -0.015731 0.000000 0.002274 0.000000
# 3 -0.005492 -0.015731 0.018497 0.000000 -0.010570 0.000000
# 4 0.000000 0.000000 0.000000 0.033560 0.000000 -0.005861
# 5 -0.004176 0.002274 -0.010570 0.000000 0.048330 0.000000
# 6 0.000000 0.000000 0.000000 -0.005861 0.000000 0.042265
#
#
# Mechanical properties :
#
#
# Convention : Reuss Voigt Hill
#
# Bulk Modulus (GPa) = 14.16136 33.21620 23.68878
# Shear Modulus (GPa) = 14.83087 23.16389 18.99738
#
# Velocity S-wave (km/s) = 2.78273 3.47771 3.14945
# Velocity P-wave (km/s) = 4.20937 5.78524 5.05904
#
# Compressibility (1/GPa) = 0.07061466
#
# Stress axis : x y z
#
# Youngs Moduli (GPa) = 44.69252 11.21634 54.06231
#
# Poissons Ratio (x) = 0.09514 0.29694
# Poissons Ratio (y) = 0.37911 0.85048
# Poissons Ratio (z) = 0.24547 0.17645
#
# Static dielectric constant tensor:
#      x y z
#    x 1.577000 0.000000 -0.001560 
#    y 0.000000 1.655300 0.000000 
#    z -0.001560 0.000000 1.670280 
# 
# From -- ./inp_files/375546.got.cif
#   From: 2010.05.17/outbox.cif.g08.bks.cpg/sg12_188_cif.got.tgz:375546.got - 2010.06.03 13:09:07.
