data_PCOD9199500
_publ_section_title
;
Structure prediction by ZEFSAII (Michael W. Deem and Ramdas Pophale) SiO2 
 PCOD9199500
Probable space group: C 2/M
;
_chemical_formula_sum "Si O2"
_cell_formula_units_Z 48
_cell_length_a 23.206399
_cell_length_b 11.205642
_cell_length_c 9.604932
_cell_angle_alpha 90.000000
_cell_angle_beta 100.932430
_cell_angle_gamma 90.000000
_cell_volume 2452.362193
_symmetry_space_group_name_H-M "C 2/M"
_symmetry_group_IT_number 12
_symmetry_cell_setting 'monoclinic'
loop_
_space_group_symop_operation_xyz
x,y,z
-x,y,-z
-x,-y,-z
x,-y,z
1/2+x,1/2+y,z
1/2-x,1/2+y,-z
1/2-x,1/2-y,-z
1/2+x,1/2-y,z
loop_
_atom_site_type_symbol
_atom_site_label
_atom_site_fract_x
_atom_site_fract_y
_atom_site_fract_z
Si Si1 0.024327 0.788830 0.366325
Si Si2 0.162628 0.866811 0.693519
Si Si3 0.427283 0.638633 0.113803
Si Si4 0.380972 0.636631 0.803995
Si Si5 0.382021 0.869879 0.491789
Si Si6 0.284565 0.197955 0.648985
O O1 0.078156 0.854106 0.313540
O O2 0.053625 0.663253 0.422122
O O3 0.000000 0.842968 0.500000
O O4 0.972216 0.789778 0.231118
O O5 0.134598 0.861762 0.833468
O O6 0.137217 0.748477 0.604460
O O7 0.232971 0.860044 0.715015
O O8 0.145644 0.000000 0.628618
O O9 0.448772 0.500000 0.119285
O O10 0.417370 0.683890 0.953419
O O11 0.368674 0.500000 0.830024
O O12 0.320228 0.703127 0.749938
O O13 0.336776 0.874867 0.600284
O O14 0.380354 0.000000 0.420586
O O15 0.250000 0.250000 0.500000
#
# Coordination Sequence:
#
# PCOD9199500 Si02
#       6
#     8   8   8   8   8   8
#     4  11  21  36  57  89 115 157 200 253 295 350
#     4  10  20  36  60  88 119 156 200 248 294 350
#     4  10  21  37  57  87 124 159 199 247 298 354
#     4  10  22  38  59  87 123 161 198 246 303 358
#     4  10  21  37  58  88 123 158 198 248 301 352
#     4   9  20  35  57  86 116 150 196 246 295 348
#
# _framework density 19.572965
#
# number of rings (size 3 to 8) (size 9 to 14) (size 15 to 20)
#    0.000    2.000    1.667    1.500    0.000   13.000 
#    0.000    0.000    0.000   14.000    0.000    0.000 
#    0.000    0.000    0.000    0.000    0.000    0.000 
#
# Total GULP energy -133620.151896 kJ/mol
# GULP energy per Si atom -5567.506329 kJ/mol
# Density = 1.952842 g / cm^3
# Si number density = 19.572965 Si / 1000 Ang^3
#
#
#
# Elastic Constant Matrix: (Units=GPa)
#
#
# Indices 1 2 3 4 5 6 
#
# 1 106.3304 26.3571 41.0101 0.0000 -3.1334 0.0000
# 2 26.3571 104.0186 35.1780 0.0000 7.8954 0.0000
# 3 41.0101 35.1780 103.0857 0.0000 9.7590 0.0000
# 4 0.0000 0.0000 0.0000 17.9391 0.0000 4.8162
# 5 -3.1334 7.8954 9.7590 0.0000 33.1724 0.0000
# 6 0.0000 0.0000 0.0000 4.8162 0.0000 5.5361
#
#
#
# Elastic Compliance Matrix: (Units=1/GPa)
#
#
# Indices 1 2 3 4 5 6 
#
# 1 0.011556 -0.001689 -0.004281 0.000000 0.002753 0.000000
# 2 -0.001689 0.011192 -0.002962 0.000000 -0.001952 0.000000
# 3 -0.004281 -0.002962 0.012741 0.000000 -0.003448 0.000000
# 4 0.000000 0.000000 0.000000 0.072732 0.000000 -0.063274
# 5 0.002753 -0.001952 -0.003448 0.000000 0.031884 0.000000
# 6 0.000000 0.000000 0.000000 -0.063274 0.000000 0.235681
#
#
# Mechanical properties :
#
#
# Convention : Reuss Voigt Hill
#
# Bulk Modulus (GPa) = 56.74473 57.61390 57.17931
# Shear Modulus (GPa) = 12.51484 25.38883 18.95183
#
# Velocity S-wave (km/s) = 2.53137 3.60549 3.11507
# Velocity P-wave (km/s) = 6.13173 6.84340 6.49731
#
# Compressibility (1/GPa) = 0.01762278
#
# Stress axis : x y z
#
# Youngs Moduli (GPa) = 86.53704 89.35218 78.48543
#
# Poissons Ratio (x) = 0.15093 0.33603
# Poissons Ratio (y) = 0.14617 0.23251
# Poissons Ratio (z) = 0.37050 0.26470
#
# Static dielectric constant tensor:
#      x y z
#    x 1.729690 0.000000 -0.000770 
#    y 0.000000 1.719520 0.000000 
#    z -0.000770 0.000000 1.732640 
# 
# From -- ./inp_files/94502.got.cif
#   From: 2010.05.17/outbox.cif.g08.bks.cpg/sg12_48_cif.got.tgz:94502.got - 2010.06.03 13:09:07.
