data_PCOD9199911
_publ_section_title
;
Structure prediction by ZEFSAII (Michael W. Deem and Ramdas Pophale) SiO2 
 PCOD9199911
Probable space group: C 2/M
;
_chemical_formula_sum "Si O2"
_cell_formula_units_Z 40
_cell_length_a 9.152253
_cell_length_b 22.891720
_cell_length_c 10.355937
_cell_angle_alpha 90.000000
_cell_angle_beta 122.475846
_cell_angle_gamma 90.000000
_cell_volume 1830.381497
_symmetry_space_group_name_H-M "C 2/M"
_symmetry_group_IT_number 12
_symmetry_cell_setting 'monoclinic'
loop_
_space_group_symop_operation_xyz
x,y,z
-x,y,-z
-x,-y,-z
x,-y,z
1/2+x,1/2+y,z
1/2-x,1/2+y,-z
1/2-x,1/2-y,-z
1/2+x,1/2-y,z
loop_
_atom_site_type_symbol
_atom_site_label
_atom_site_fract_x
_atom_site_fract_y
_atom_site_fract_z
Si Si1 0.523792 0.933665 0.861909
Si Si2 0.305124 0.216962 0.858179
Si Si3 0.811337 0.936245 0.478735
Si Si4 0.806260 0.810191 0.462963
Si Si5 0.804704 0.158692 0.938718
O O1 0.342701 0.936381 0.699695
O O2 0.592477 0.000000 0.898493
O O3 0.500000 0.915123 0.000000
O O4 0.663811 0.891662 0.863639
O O5 0.303429 0.186396 0.720623
O O6 0.195442 0.183411 0.913939
O O7 0.249497 0.284807 0.827789
O O8 0.500000 0.219727 0.000000
O O9 0.794526 0.871642 0.534515
O O10 0.000000 0.935392 0.500000
O O11 0.799130 0.000000 0.542192
O O12 0.750000 0.750000 0.500000
O O13 0.000000 0.803983 0.500000
O O14 0.000000 0.140414 0.000000
#
# Coordination Sequence:
#
# PCOD9199911 Si02
#       5
#     8   8   8   8   8
#     4  10  20  36  62  90 117 158 209 259 302 361
#     4  10  22  40  61  86 121 168 204 247 313 379
#     4   9  19  38  61  85 118 161 204 249 305 371
#     4  11  25  38  60  94 126 154 201 263 311 360
#     4  10  21  34  61  88 125 162 204 249 311 372
#
# _framework density 21.853368
#
# number of rings (size 3 to 8) (size 9 to 14) (size 15 to 20)
#    0.000    2.000    0.000    3.000   11.200    1.200 
#    0.000    0.000    0.000    1.800    0.000    0.000 
#    0.000    0.000    0.000    0.000    0.000    0.000 
#
# Total GULP energy -111630.880677 kJ/mol
# GULP energy per Si atom -5581.544034 kJ/mol
# Density = 2.180363 g / cm^3
# Si number density = 21.853368 Si / 1000 Ang^3
#
#
#
# Elastic Constant Matrix: (Units=GPa)
#
#
# Indices 1 2 3 4 5 6 
#
# 1 83.4888 48.7997 25.4972 0.0000 29.2473 0.0000
# 2 48.7997 214.4469 9.0901 0.0000 12.4338 0.0000
# 3 25.4972 9.0901 47.2529 0.0000 27.1887 0.0000
# 4 0.0000 0.0000 0.0000 21.4761 0.0000 6.2127
# 5 29.2473 12.4338 27.1887 0.0000 31.1372 0.0000
# 6 0.0000 0.0000 0.0000 6.2127 0.0000 31.3937
#
#
#
# Elastic Compliance Matrix: (Units=1/GPa)
#
#
# Indices 1 2 3 4 5 6 
#
# 1 0.020228 -0.003586 -0.000234 0.000000 -0.017364 0.000000
# 2 -0.003586 0.005413 0.000400 0.000000 0.000858 0.000000
# 3 -0.000234 0.000400 0.042561 0.000000 -0.037104 0.000000
# 4 0.000000 0.000000 0.000000 0.049391 0.000000 -0.009774
# 5 -0.017364 0.000858 -0.037104 0.000000 0.080482 0.000000
# 6 0.000000 0.000000 0.000000 -0.009774 0.000000 0.033788
#
#
# Mechanical properties :
#
#
# Convention : Reuss Voigt Hill
#
# Bulk Modulus (GPa) = 16.29674 56.88472 36.59073
# Shear Modulus (GPa) = 19.29329 34.25483 26.77406
#
# Velocity S-wave (km/s) = 2.97451 3.96344 3.50404
# Velocity P-wave (km/s) = 4.38981 6.85798 5.75770
#
# Compressibility (1/GPa) = 0.06136195
#
# Stress axis : x y z
#
# Youngs Moduli (GPa) = 49.43576 184.75441 23.49559
#
# Poissons Ratio (x) = 0.66262 0.00550
# Poissons Ratio (y) = 0.17730 -0.00941
# Poissons Ratio (z) = 0.01157 -0.07399
#
# Static dielectric constant tensor:
#      x y z
#    x 1.853260 0.000000 -0.121880 
#    y 0.000000 1.918710 0.000000 
#    z -0.121880 0.000000 1.810800 
# 
# From -- ./inp_files/198103.got.cif
#   From: 2010.05.17/outbox.cif.g08.bks.cpg/sg12_100_cif.got.tgz:198103.got - 2010.06.03 13:09:07.
