data_PCOD9199076
_publ_section_title
;
Structure prediction by ZEFSAII (Michael W. Deem and Ramdas Pophale) SiO2 
 PCOD9199076
Probable space group: C 2/M
;
_chemical_formula_sum "Si O2"
_cell_formula_units_Z 64
_cell_length_a 30.808192
_cell_length_b 17.141603
_cell_length_c 12.332765
_cell_angle_alpha 90.000000
_cell_angle_beta 28.038226
_cell_angle_gamma 90.000000
_cell_volume 3061.483270
_symmetry_space_group_name_H-M "C 2/M"
_symmetry_group_IT_number 12
_symmetry_cell_setting 'monoclinic'
loop_
_space_group_symop_operation_xyz
x,y,z
-x,y,-z
-x,-y,-z
x,-y,z
1/2+x,1/2+y,z
1/2-x,1/2+y,-z
1/2-x,1/2-y,-z
1/2+x,1/2-y,z
loop_
_atom_site_type_symbol
_atom_site_label
_atom_site_fract_x
_atom_site_fract_y
_atom_site_fract_z
Si Si1 0.456484 0.795032 0.873425
Si Si2 0.228856 0.914366 0.010116
Si Si3 0.711987 0.714664 0.878388
Si Si4 0.204460 0.088308 0.722655
Si Si5 0.998534 0.867178 0.131570
Si Si6 0.682442 0.087428 0.740653
Si Si7 0.949166 0.589553 0.498596
Si Si8 0.308607 0.623811 0.663438
O O1 0.500365 0.724925 0.843624
O O2 0.521472 0.849788 0.658177
O O3 0.381729 0.755139 0.957147
O O4 0.397820 0.849669 0.082639
O O5 0.193061 0.839318 0.023968
O O6 0.339806 0.908568 0.758588
O O7 0.201190 0.000000 0.026564
O O8 0.200303 0.910516 0.197841
O O9 0.743345 0.652996 0.717761
O O10 0.785987 0.783735 0.727448
O O11 0.242707 0.103639 0.517772
O O12 0.230361 0.000000 0.695352
O O13 0.093764 0.097285 0.966645
O O14 0.906370 0.895751 0.393611
O O15 0.000000 0.881418 0.000000
O O16 0.731759 0.093530 0.748650
O O17 0.647363 0.000000 0.802097
O O18 0.975352 0.500000 0.411435
O O19 0.000000 0.607900 0.500000
#
# Coordination Sequence:
#
# PCOD9199076 Si02
#       8
#     8   8   8   8   8   8   8   8
#     4  10  22  36  59  86 118 153 192 239 288 352
#     4  11  23  40  62  87 119 155 195 240 288 346
#     4  10  22  38  61  86 118 159 191 236 289 353
#     4  10  22  39  59  83 115 157 197 238 291 345
#     4  11  23  38  58  86 116 152 192 244 294 340
#     4  10  20  36  59  85 115 152 196 241 287 340
#     4  10  20  37  61  88 118 152 193 240 291 340
#     4  11  22  37  61  88 116 150 196 243 288 339
#
# _framework density 20.904900000000001
#
# number of rings (size 3 to 8) (size 9 to 14) (size 15 to 20)
#    0.000    1.625    1.250    3.750    1.750    4.750 
#    0.000    1.875    0.000    4.500    0.000    0.000 
#    0.000    0.000    0.000    0.000    0.000    0.000 
#
# Total GULP energy -178840.812114 kJ/mol
# GULP energy per Si atom -5588.775379 kJ/mol
# Density = 2.085732 g / cm^3
# Si number density = 20.904900 Si / 1000 Ang^3
#
#
#
# Elastic Constant Matrix: (Units=GPa)
#
#
# Indices 1 2 3 4 5 6 
#
# 1 32.5376 10.3263 3.4762 0.0000 22.7956 0.0000
# 2 10.3263 102.1466 25.2747 0.0000 12.7921 0.0000
# 3 3.4762 25.2747 87.8695 0.0000 19.4534 0.0000
# 4 0.0000 0.0000 0.0000 5.4886 0.0000 13.9549
# 5 22.7956 12.7921 19.4534 0.0000 30.2746 0.0000
# 6 0.0000 0.0000 0.0000 13.9549 0.0000 20.4807
#
#
#
# Elastic Compliance Matrix: (Units=1/GPa)
#
#
# Indices 1 2 3 4 5 6 
#
# 1 0.073499 -0.002550 0.011471 0.000000 -0.061635 0.000000
# 2 -0.002550 0.010855 -0.002834 0.000000 -0.000845 0.000000
# 3 0.011471 -0.002834 0.015610 0.000000 -0.017470 0.000000
# 4 0.000000 0.000000 0.000000 -0.248768 0.000000 0.169502
# 5 -0.061635 -0.000845 -0.017470 0.000000 0.091023 0.000000
# 6 0.000000 0.000000 0.000000 0.169502 0.000000 -0.066667
#
#
# Mechanical properties :
#
#
# Convention : Reuss Voigt Hill
#
# Bulk Modulus (GPa) = 8.91765 33.41199 21.16482
# Shear Modulus (GPa) = -50.38052 23.48056 -13.44998
#
# Velocity S-wave (km/s) = -4.91449 3.35507 -2.53926
# Velocity P-wave (km/s) = 5.28468 5.57011 1.24466
#
# Compressibility (1/GPa) = 0.11213718
#
# Stress axis : x y z
#
# Youngs Moduli (GPa) = 13.60570 92.12530 64.06316
#
# Poissons Ratio (x) = 0.23490 -0.73488
# Poissons Ratio (y) = 0.03469 0.18157
# Poissons Ratio (z) = -0.15607 0.26110
#
# Static dielectric constant tensor:
#      x y z
#    x 1.732070 0.000000 -0.004750 
#    y 0.000000 1.774560 0.000000 
#    z -0.004750 0.000000 1.717960 
# 
# From -- ./inp_files/190010.got.cif
#   From: 2010.05.17/outbox.cif.g08.bks.cpg/sg12_96_cif.got.tgz:190010.got - 2010.06.03 13:09:07.
