data_PCOD9199351
_publ_section_title
;
Structure prediction by ZEFSAII (Michael W. Deem and Ramdas Pophale) SiO2 
 PCOD9199351
Probable space group: C 2/M
;
_chemical_formula_sum "Si O2"
_cell_formula_units_Z 48
_cell_length_a 30.232522
_cell_length_b 7.531780
_cell_length_c 9.830523
_cell_angle_alpha 90.000000
_cell_angle_beta 79.921983
_cell_angle_gamma 90.000000
_cell_volume 2203.917830
_symmetry_space_group_name_H-M "C 2/M"
_symmetry_group_IT_number 12
_symmetry_cell_setting 'monoclinic'
loop_
_space_group_symop_operation_xyz
x,y,z
-x,y,-z
-x,-y,-z
x,-y,z
1/2+x,1/2+y,z
1/2-x,1/2+y,-z
1/2-x,1/2-y,-z
1/2+x,1/2-y,z
loop_
_atom_site_type_symbol
_atom_site_label
_atom_site_fract_x
_atom_site_fract_y
_atom_site_fract_z
Si Si1 0.037496 0.794359 0.579315
Si Si2 0.707544 0.213126 0.618047
Si Si3 0.634893 0.797387 0.450960
Si Si4 0.020109 0.715073 0.133069
Si Si5 0.878309 0.717691 0.848001
Si Si6 0.793259 0.712956 0.070764
O O1 0.084605 0.701578 0.534587
O O2 0.000000 0.716610 0.500000
O O3 0.014957 0.781465 0.737003
O O4 0.045030 0.000000 0.537711
O O5 0.750000 0.250000 0.500000
O O6 0.666001 0.284232 0.550893
O O7 0.711396 0.280479 0.771226
O O8 0.702553 0.000000 0.633983
O O9 0.633308 0.720887 0.299298
O O10 0.651025 0.000000 0.423703
O O11 0.020513 0.500000 0.137854
O O12 0.071261 0.773422 0.136957
O O13 0.000000 0.770088 0.000000
O O14 0.878968 0.500000 0.846102
O O15 0.839015 0.775107 0.972031
O O16 0.796729 0.500000 0.075896
O O17 0.750000 0.750000 0.000000
#
# Coordination Sequence:
#
# PCOD9199351 Si02
#       6
#     8   8   8   8   8   8
#     4  11  23  38  56  83 120 157 190 234 286 340
#     4  10  22  38  61  89 117 147 187 239 288 340
#     4  10  20  36  60  85 111 150 197 241 281 334
#     4  10  21  36  60  87 112 149 194 239 280 333
#     4   9  18  34  56  83 112 144 186 235 281 326
#     4  10  21  38  59  85 116 148 185 231 284 340
#
# _framework density 21.779396999999999
#
# number of rings (size 3 to 8) (size 9 to 14) (size 15 to 20)
#    0.000    2.000    1.667    1.500    2.333    3.667 
#    0.000    1.667    0.000    0.000    0.000    0.000 
#    0.000    0.000    0.000    0.000    0.000    0.000 
#
# Total GULP energy -134031.970900 kJ/mol
# GULP energy per Si atom -5584.665454 kJ/mol
# Density = 2.172983 g / cm^3
# Si number density = 21.779397 Si / 1000 Ang^3
#
#
#
# Elastic Constant Matrix: (Units=GPa)
#
#
# Indices 1 2 3 4 5 6 
#
# 1 145.3064 -1.5998 102.0159 0.0000 6.9373 0.0000
# 2 -1.5998 56.6211 4.4089 0.0000 5.8991 0.0000
# 3 102.0159 4.4089 218.7283 0.0000 7.9936 0.0000
# 4 0.0000 0.0000 0.0000 13.0743 0.0000 -4.1311
# 5 6.9373 5.8991 7.9936 0.0000 44.5619 0.0000
# 6 0.0000 0.0000 0.0000 -4.1311 0.0000 4.3889
#
#
#
# Elastic Compliance Matrix: (Units=1/GPa)
#
#
# Indices 1 2 3 4 5 6 
#
# 1 0.010289 0.000751 -0.004783 0.000000 -0.000843 0.000000
# 2 0.000751 0.017980 -0.000626 0.000000 -0.002385 0.000000
# 3 -0.004783 -0.000626 0.006830 0.000000 -0.000398 0.000000
# 4 0.000000 0.000000 0.000000 0.108864 0.000000 0.102469
# 5 -0.000843 -0.002385 -0.000398 0.000000 0.022959 0.000000
# 6 0.000000 0.000000 0.000000 0.102469 0.000000 0.324299
#
#
# Mechanical properties :
#
#
# Convention : Reuss Voigt Hill
#
# Bulk Modulus (GPa) = 38.78522 70.03399 54.40961
# Shear Modulus (GPa) = 9.82070 33.46039 21.64055
#
# Velocity S-wave (km/s) = 2.12578 3.92386 3.15560
# Velocity P-wave (km/s) = 4.88591 7.26325 6.18979
#
# Compressibility (1/GPa) = 0.02578302
#
# Stress axis : x y z
#
# Youngs Moduli (GPa) = 97.19581 55.61841 146.41694
#
# Poissons Ratio (x) = -0.04177 0.70030
# Poissons Ratio (y) = -0.07299 0.09159
# Poissons Ratio (z) = 0.46488 0.03479
#
# Static dielectric constant tensor:
#      x y z
#    x 1.757420 0.000000 0.049330 
#    y 0.000000 1.851520 0.000000 
#    z 0.049330 0.000000 1.802040 
# 
# From -- ./inp_files/108620.got.cif
#   From: 2010.05.17/outbox.cif.g08.bks.cpg/sg12_55_cif.got.tgz:108620.got - 2010.06.03 13:09:07.
