data_PCOD9199083
_publ_section_title
;
Structure prediction by ZEFSAII (Michael W. Deem and Ramdas Pophale) SiO2 
 PCOD9199083
Probable space group: C 2/M
;
_chemical_formula_sum "Si O2"
_cell_formula_units_Z 48
_cell_length_a 14.894615
_cell_length_b 8.462032
_cell_length_c 18.324059
_cell_angle_alpha 90.000000
_cell_angle_beta 92.183028
_cell_angle_gamma 90.000000
_cell_volume 2307.864572
_symmetry_space_group_name_H-M "C 2/M"
_symmetry_group_IT_number 12
_symmetry_cell_setting 'monoclinic'
loop_
_space_group_symop_operation_xyz
x,y,z
-x,y,-z
-x,-y,-z
x,-y,z
1/2+x,1/2+y,z
1/2-x,1/2+y,-z
1/2-x,1/2-y,-z
1/2+x,1/2-y,z
loop_
_atom_site_type_symbol
_atom_site_label
_atom_site_fract_x
_atom_site_fract_y
_atom_site_fract_z
Si Si1 0.190985 0.684238 0.064399
Si Si2 0.525553 0.688051 0.136816
Si Si3 0.338831 0.186664 0.169300
Si Si4 0.965019 0.809743 0.420666
Si Si5 0.399756 0.692700 0.701883
Si Si6 0.696044 0.189446 0.668365
O O1 0.175044 0.500000 0.053728
O O2 0.096643 0.768969 0.076636
O O3 0.254958 0.718310 0.135446
O O4 0.250000 0.750000 0.000000
O O5 0.511566 0.500000 0.138046
O O6 0.429357 0.771492 0.129308
O O7 0.569190 0.739353 0.216003
O O8 0.349586 0.227022 0.254873
O O9 0.318563 0.000000 0.162934
O O10 0.864351 0.760290 0.397123
O O11 0.000000 0.752512 0.500000
O O12 0.030571 0.753839 0.357704
O O13 0.968908 0.000000 0.421317
O O14 0.398770 0.500000 0.702512
O O15 0.299031 0.743921 0.678297
O O16 0.696710 0.000000 0.660584
#
# Coordination Sequence:
#
# PCOD9199083 Si02
#       6
#     8   8   8   8   8   8
#     4  12  26  44  65  93 127 163 202 252 308 366
#     4  11  21  39  65  92 123 162 204 254 310 365
#     4  11  22  39  63  94 124 159 207 256 304 367
#     4  10  21  37  57  85 121 159 201 250 304 363
#     4   9  18  35  58  84 117 157 197 245 304 360
#     4  10  20  36  59  85 116 156 201 248 301 361
#
# _framework density 20.798448
#
# number of rings (size 3 to 8) (size 9 to 14) (size 15 to 20)
#    0.000    1.500    3.333    2.500    0.000    2.333 
#    0.000    4.167    0.000    0.000    0.000    0.000 
#    0.000    0.000    0.000    0.000    0.000    0.000 
#
# Total GULP energy -134151.441515 kJ/mol
# GULP energy per Si atom -5589.643396 kJ/mol
# Density = 2.075111 g / cm^3
# Si number density = 20.798448 Si / 1000 Ang^3
#
#
#
# Elastic Constant Matrix: (Units=GPa)
#
#
# Indices 1 2 3 4 5 6 
#
# 1 74.8066 -8.9560 -22.4511 0.0000 -13.0035 0.0000
# 2 -8.9560 22.6640 4.6476 0.0000 -3.0357 0.0000
# 3 -22.4511 4.6476 30.2825 0.0000 -7.4539 0.0000
# 4 0.0000 0.0000 0.0000 20.4452 0.0000 4.6449
# 5 -13.0035 -3.0357 -7.4539 0.0000 26.0731 0.0000
# 6 0.0000 0.0000 0.0000 4.6449 0.0000 30.2339
#
#
#
# Elastic Compliance Matrix: (Units=1/GPa)
#
#
# Indices 1 2 3 4 5 6 
#
# 1 0.023937 0.007637 0.021225 0.000000 0.018895 0.000000
# 2 0.007637 0.048302 0.000614 0.000000 0.009609 0.000000
# 3 0.021225 0.000614 0.055170 0.000000 0.026430 0.000000
# 4 0.000000 0.000000 0.000000 0.050680 0.000000 -0.007786
# 5 0.018895 0.009609 0.026430 0.000000 0.056452 0.000000
# 6 0.000000 0.000000 0.000000 -0.007786 0.000000 0.034272
#
#
# Mechanical properties :
#
#
# Convention : Reuss Voigt Hill
#
# Bulk Modulus (GPa) = 5.36587 8.24823 6.80705
# Shear Modulus (GPa) = 18.38375 25.65127 22.01751
#
# Velocity S-wave (km/s) = 2.97627 3.51568 3.25716
# Velocity P-wave (km/s) = 3.79427 4.52266 4.17438
#
# Compressibility (1/GPa) = 0.18636303
#
# Stress axis : x y z
#
# Youngs Moduli (GPa) = 41.77644 20.70312 18.12583
#
# Poissons Ratio (x) = -0.15812 -0.38473
# Poissons Ratio (y) = -0.31906 -0.01113
# Poissons Ratio (z) = -0.88672 -0.01272
#
# Static dielectric constant tensor:
#      x y z
#    x 1.738260 0.000000 -0.000440 
#    y 0.000000 1.701900 0.000000 
#    z -0.000440 0.000000 1.769280 
# 
# From -- ./inp_files/267652.got.cif
#   From: 2010.05.17/outbox.cif.g08.bks.cpg/sg12_134_cif.got.tgz:267652.got - 2010.06.03 13:09:07.
