data_PCOD9199400
_publ_section_title
;
Structure prediction by ZEFSAII (Michael W. Deem and Ramdas Pophale) SiO2 
 PCOD9199400
Probable space group: C 2/M
;
_chemical_formula_sum "Si O2"
_cell_formula_units_Z 48
_cell_length_a 29.413646
_cell_length_b 8.853683
_cell_length_c 15.061467
_cell_angle_alpha 90.000000
_cell_angle_beta 38.222288
_cell_angle_gamma 90.000000
_cell_volume 2426.778170
_symmetry_space_group_name_H-M "C 2/M"
_symmetry_group_IT_number 12
_symmetry_cell_setting 'monoclinic'
loop_
_space_group_symop_operation_xyz
x,y,z
-x,y,-z
-x,-y,-z
x,-y,z
1/2+x,1/2+y,z
1/2-x,1/2+y,-z
1/2-x,1/2-y,-z
1/2+x,1/2-y,z
loop_
_atom_site_type_symbol
_atom_site_label
_atom_site_fract_x
_atom_site_fract_y
_atom_site_fract_z
Si Si1 0.093352 0.172931 0.105671
Si Si2 0.497074 0.819235 0.606534
Si Si3 0.075217 0.182912 0.936491
Si Si4 0.840740 0.683381 0.597185
Si Si5 0.772604 0.318494 0.370316
Si Si6 0.239167 0.328563 0.109630
O O1 0.067615 0.257820 0.232971
O O2 0.067881 0.000000 0.153468
O O3 0.066523 0.233995 0.052263
O O4 0.181412 0.171951 0.965737
O O5 0.500000 0.763705 0.500000
O O6 0.573107 0.782903 0.540756
O O7 0.491085 0.000000 0.610999
O O8 0.147381 0.257416 0.782749
O O9 0.086178 0.000000 0.920523
O O10 0.000000 0.215278 0.000000
O O11 0.830636 0.500000 0.608077
O O12 0.788424 0.760987 0.606232
O O13 0.816740 0.735275 0.732695
O O14 0.773498 0.500000 0.372458
O O15 0.750000 0.250000 0.500000
O O16 0.215960 0.500000 0.127292
O O17 0.250000 0.250000 0.000000
#
# Coordination Sequence:
#
# PCOD9199400 Si02
#       6
#     8   8   8   8   8   8
#     4  10  21  38  60  88 123 159 197 249 306 361
#     4  10  22  39  61  89 124 166 207 252 304 358
#     4  10  22  43  68  93 125 161 199 250 314 375
#     4  10  21  41  63  87 124 164 204 254 307 363
#     4  12  26  43  66  94 125 162 207 256 310 373
#     4  10  20  36  60  86 118 157 200 248 301 359
#
# _framework density 19.779312000000001
#
# number of rings (size 3 to 8) (size 9 to 14) (size 15 to 20)
#    0.000    1.667    1.667    2.500    2.333    4.667 
#    0.000    0.000    0.000    0.000    0.000    0.000 
#    0.000    0.000    0.000    0.000    0.000    0.000 
#
# Total GULP energy -134023.082544 kJ/mol
# GULP energy per Si atom -5584.295106 kJ/mol
# Density = 1.973429 g / cm^3
# Si number density = 19.779312 Si / 1000 Ang^3
#
#
#
# Elastic Constant Matrix: (Units=GPa)
#
#
# Indices 1 2 3 4 5 6 
#
# 1 82.7820 20.9187 4.7366 0.0000 8.7406 0.0000
# 2 20.9187 41.1128 15.4040 -0.0001 -2.1323 0.0001
# 3 4.7366 15.4040 79.6736 0.0000 3.6437 0.0000
# 4 0.0000 -0.0001 0.0000 27.7276 0.0000 3.8746
# 5 8.7406 -2.1323 3.6437 0.0000 36.0175 0.0000
# 6 0.0000 0.0001 0.0000 3.8746 0.0000 26.1751
#
#
#
# Elastic Compliance Matrix: (Units=1/GPa)
#
#
# Indices 1 2 3 4 5 6 
#
# 1 0.014452 -0.007882 0.000851 0.000000 -0.004060 0.000000
# 2 -0.007882 0.030678 -0.005659 0.000000 0.004302 0.000000
# 3 0.000851 -0.005659 0.013683 0.000000 -0.001926 0.000000
# 4 0.000000 0.000000 0.000000 0.036827 0.000000 -0.005451
# 5 -0.004060 0.004302 -0.001926 0.000000 0.029199 0.000000
# 6 0.000000 0.000000 0.000000 -0.005451 0.000000 0.039011
#
#
# Mechanical properties :
#
#
# Convention : Reuss Voigt Hill
#
# Bulk Modulus (GPa) = 29.91353 31.74300 30.82827
# Shear Modulus (GPa) = 24.95322 28.81799 26.88560
#
# Velocity S-wave (km/s) = 3.55573 3.82118 3.69084
# Velocity P-wave (km/s) = 5.65810 5.96255 5.81232
#
# Compressibility (1/GPa) = 0.03342969
#
# Stress axis : x y z
#
# Youngs Moduli (GPa) = 69.19560 32.59713 73.08408
#
# Poissons Ratio (x) = 0.25695 -0.06216
# Poissons Ratio (y) = 0.54543 0.41360
# Poissons Ratio (z) = -0.05885 0.18448
#
# Static dielectric constant tensor:
#      x y z
#    x 1.708890 0.000000 0.000800 
#    y 0.000000 1.700550 0.000000 
#    z 0.000800 0.000000 1.665110 
# 
# From -- ./inp_files/244678.got.cif
#   From: 2010.05.17/outbox.cif.g08.bks.cpg/sg12_123_cif.got.tgz:244678.got - 2010.06.03 13:09:07.
