data_PCOD9199843
_publ_section_title
;
Structure prediction by ZEFSAII (Michael W. Deem and Ramdas Pophale) SiO2 
 PCOD9199843
Probable space group: C 2/M
;
_chemical_formula_sum "Si O2"
_cell_formula_units_Z 56
_cell_length_a 14.103651
_cell_length_b 27.372678
_cell_length_c 8.837707
_cell_angle_alpha 90.000000
_cell_angle_beta 54.639888
_cell_angle_gamma 90.000000
_cell_volume 2782.459494
_symmetry_space_group_name_H-M "C 2/M"
_symmetry_group_IT_number 12
_symmetry_cell_setting 'monoclinic'
loop_
_space_group_symop_operation_xyz
x,y,z
-x,y,-z
-x,-y,-z
x,-y,z
1/2+x,1/2+y,z
1/2-x,1/2+y,-z
1/2-x,1/2-y,-z
1/2+x,1/2-y,z
loop_
_atom_site_type_symbol
_atom_site_label
_atom_site_fract_x
_atom_site_fract_y
_atom_site_fract_z
Si Si1 0.814885 0.443511 0.406227
Si Si2 0.738057 0.443846 0.827711
Si Si3 0.422585 0.218338 0.921498
Si Si4 0.447217 0.369045 0.906941
Si Si5 0.841273 0.202512 0.786392
Si Si6 0.037904 0.617409 0.290637
Si Si7 0.889745 0.881995 0.515819
O O1 0.828011 0.500000 0.348445
O O2 0.760872 0.443037 0.626046
O O3 0.726181 0.413703 0.381801
O O4 0.936943 0.415844 0.310593
O O5 0.739211 0.500000 0.876147
O O6 0.844353 0.413951 0.803274
O O7 0.617316 0.417715 0.979551
O O8 0.427422 0.256472 0.775341
O O9 0.446143 0.165517 0.825282
O O10 0.500000 0.225425 0.000000
O O11 0.288932 0.222022 0.100947
O O12 0.351367 0.338513 0.906967
O O13 0.557048 0.376232 0.698331
O O14 0.500000 0.341154 0.000000
O O15 0.870064 0.171046 0.610611
O O16 0.000000 0.629410 0.500000
O O17 0.000000 0.905751 0.500000
#
# Coordination Sequence:
#
# PCOD9199843 Si02
#       7
#     8   8   8   8   8   8   8
#     4  10  20  37  62  94 130 167 210 259 314 371
#     4  10  20  36  61  94 125 164 212 258 308 370
#     4  11  22  41  68  92 123 162 210 258 319 380
#     4  11  20  37  63  89 125 163 208 256 310 365
#     4  10  23  41  61  92 124 163 204 262 317 378
#     4  10  21  38  64  94 127 162 207 265 317 371
#     4  10  22  38  60  87 128 166 205 260 311 367
#
# _framework density 20.126079000000001
#
# number of rings (size 3 to 8) (size 9 to 14) (size 15 to 20)
#    0.000    1.714    2.857    1.714    0.000    4.571 
#    0.000    2.143    0.000   18.000    0.000    0.000 
#    0.000    0.000    0.000    0.000    0.000    0.000 
#
# Total GULP energy -156130.772622 kJ/mol
# GULP energy per Si atom -5576.099022 kJ/mol
# Density = 2.008027 g / cm^3
# Si number density = 20.126079 Si / 1000 Ang^3
#
#
#
# Elastic Constant Matrix: (Units=GPa)
#
#
# Indices 1 2 3 4 5 6 
#
# 1 127.9492 48.1874 26.4142 0.0000 -5.8946 0.0000
# 2 48.1874 141.5530 37.0543 0.0000 -1.2503 0.0000
# 3 26.4142 37.0543 53.7961 0.0000 -2.0557 0.0000
# 4 0.0000 0.0000 0.0000 42.5332 0.0000 14.1966
# 5 -5.8946 -1.2503 -2.0557 0.0000 17.9231 0.0000
# 6 0.0000 0.0000 0.0000 14.1966 0.0000 33.9454
#
#
#
# Elastic Compliance Matrix: (Units=1/GPa)
#
#
# Indices 1 2 3 4 5 6 
#
# 1 0.009446 -0.002445 -0.002854 0.000000 0.002609 0.000000
# 2 -0.002445 0.009252 -0.005201 0.000000 -0.000755 0.000000
# 3 -0.002854 -0.005201 0.023626 0.000000 0.001408 0.000000
# 4 0.000000 0.000000 0.000000 0.027325 0.000000 -0.011428
# 5 0.002609 -0.000755 0.001408 0.000000 0.056761 0.000000
# 6 0.000000 0.000000 0.000000 -0.011428 0.000000 0.034239
#
#
# Mechanical properties :
#
#
# Convention : Reuss Voigt Hill
#
# Bulk Modulus (GPa) = 46.89640 60.73447 53.81543
# Shear Modulus (GPa) = 26.48923 32.98983 29.73953
#
# Velocity S-wave (km/s) = 3.63183 4.05304 3.84821
# Velocity P-wave (km/s) = 6.39835 7.22118 6.82218
#
# Compressibility (1/GPa) = 0.02132360
#
# Stress axis : x y z
#
# Youngs Moduli (GPa) = 105.86547 108.08870 42.32635
#
# Poissons Ratio (x) = 0.26433 0.12080
# Poissons Ratio (y) = 0.25889 0.22012
# Poissons Ratio (z) = 0.30213 0.56212
#
# Static dielectric constant tensor:
#      x y z
#    x 1.664730 0.000000 -0.094630 
#    y 0.000000 1.716540 0.000000 
#    z -0.094630 0.000000 1.460910 
# 
# From -- ./inp_files/65785.got.cif
#   From: 2010.05.17/outbox.cif.g08.bks.cpg/sg12_33_cif.got.tgz:65785.got - 2010.06.03 13:09:07.
