data_PCOD9199013
_publ_section_title
;
Structure prediction by ZEFSAII (Michael W. Deem and Ramdas Pophale) SiO2 
 PCOD9199013
Probable space group: C 2/M
;
_chemical_formula_sum "Si O2"
_cell_formula_units_Z 40
_cell_length_a 15.156897
_cell_length_b 9.658103
_cell_length_c 13.843191
_cell_angle_alpha 90.000000
_cell_angle_beta 120.993925
_cell_angle_gamma 90.000000
_cell_volume 1737.127131
_symmetry_space_group_name_H-M "C 2/M"
_symmetry_group_IT_number 12
_symmetry_cell_setting 'monoclinic'
loop_
_space_group_symop_operation_xyz
x,y,z
-x,y,-z
-x,-y,-z
x,-y,z
1/2+x,1/2+y,z
1/2-x,1/2+y,-z
1/2-x,1/2-y,-z
1/2+x,1/2-y,z
loop_
_atom_site_type_symbol
_atom_site_label
_atom_site_fract_x
_atom_site_fract_y
_atom_site_fract_z
Si Si1 0.457952 0.659938 0.078279
Si Si2 0.488944 0.232624 0.389742
Si Si3 0.853645 0.156733 0.662624
Si Si4 0.774557 0.844361 0.276604
Si Si5 0.333513 0.844371 0.147577
O O1 0.425247 0.500000 0.046703
O O2 0.552780 0.656021 0.207064
O O3 0.370505 0.752126 0.078951
O O4 0.500000 0.713323 0.000000
O O5 0.500000 0.163554 0.500000
O O6 0.592824 0.295370 0.405860
O O7 0.398763 0.346401 0.354425
O O8 0.434740 0.145864 0.274513
O O9 0.773775 0.266271 0.659819
O O10 0.812078 0.000000 0.632757
O O11 0.757806 0.743130 0.174707
O O12 0.735480 0.000000 0.242151
O O13 0.301651 0.000000 0.105915
#
# Coordination Sequence:
#
# PCOD9199013 Si02
#       5
#     8   8   8   8   8
#     4   9  18  35  60  86 113 148 186 226 281 341
#     4   9  21  38  59  82 112 154 189 231 280 339
#     4  10  20  36  59  84 113 148 186 232 281 333
#     4  10  21  37  57  82 114 151 190 232 281 336
#     4   9  19  35  55  80 112 145 184 232 277 324
#
# _framework density 23.026526
#
# number of rings (size 3 to 8) (size 9 to 14) (size 15 to 20)
#    1.200    1.400    0.000    1.800    0.000    6.400 
#    0.000    1.000    0.000    0.000    0.000    0.000 
#    0.000    0.000    0.000    0.000    0.000    0.000 
#
# Total GULP energy -111566.430872 kJ/mol
# GULP energy per Si atom -5578.321544 kJ/mol
# Density = 2.297412 g / cm^3
# Si number density = 23.026526 Si / 1000 Ang^3
#
#
#
# Elastic Constant Matrix: (Units=GPa)
#
#
# Indices 1 2 3 4 5 6 
#
# 1 132.5988 73.1016 35.7417 0.0000 -42.7756 0.0000
# 2 73.1016 168.1814 6.7073 0.0000 -34.5227 0.0000
# 3 35.7417 6.7073 97.5892 0.0000 -28.8745 0.0000
# 4 0.0000 0.0000 0.0000 -18.2549 0.0000 26.3414
# 5 -42.7756 -34.5227 -28.8745 0.0000 47.3473 0.0000
# 6 0.0000 0.0000 0.0000 26.3414 0.0000 -20.5608
#
#
#
# Elastic Compliance Matrix: (Units=1/GPa)
#
#
# Indices 1 2 3 4 5 6 
#
# 1 0.012622 -0.003923 -0.002227 0.000000 0.007185 0.000000
# 2 -0.003923 0.008340 0.001969 0.000000 0.003738 0.000000
# 3 -0.002227 0.001969 0.013125 0.000000 0.007428 0.000000
# 4 0.000000 0.000000 0.000000 0.064548 0.000000 0.082695
# 5 0.007185 0.003738 0.007428 0.000000 0.034867 0.000000
# 6 0.000000 0.000000 0.000000 0.082695 0.000000 0.057308
#
#
# Mechanical properties :
#
#
# Convention : Reuss Voigt Hill
#
# Bulk Modulus (GPa) = 38.87114 69.94121 54.40617
# Shear Modulus (GPa) = 24.06768 20.56091 22.31430
#
# Velocity S-wave (km/s) = 3.23649 2.99142 3.11636
# Velocity P-wave (km/s) = 5.55735 6.50935 6.05210
#
# Compressibility (1/GPa) = 0.02572603
#
# Stress axis : x y z
#
# Youngs Moduli (GPa) = 79.22434 119.90761 76.18901
#
# Poissons Ratio (x) = 0.47037 0.16970
# Poissons Ratio (y) = 0.31078 -0.15005
# Poissons Ratio (z) = 0.17647 -0.23615
#
# Static dielectric constant tensor:
#      x y z
#    x 1.868990 0.000000 0.057790 
#    y 0.000000 1.821790 0.000000 
#    z 0.057790 0.000000 1.914330 
# 
# From -- ./inp_files/220276.got.cif
#   From: 2010.05.17/outbox.cif.g08.bks.cpg/sg12_111_cif.got.tgz:220276.got - 2010.06.03 13:09:07.
