data_PCOD9199996
_publ_section_title
;
Structure prediction by ZEFSAII (Michael W. Deem and Ramdas Pophale) SiO2 
 PCOD9199996
Probable space group: C 2/M
;
_chemical_formula_sum "Si O2"
_cell_formula_units_Z 64
_cell_length_a 16.801787
_cell_length_b 14.329421
_cell_length_c 16.052267
_cell_angle_alpha 90.000000
_cell_angle_beta 131.187749
_cell_angle_gamma 90.000000
_cell_volume 2908.433649
_symmetry_space_group_name_H-M "C 2/M"
_symmetry_group_IT_number 12
_symmetry_cell_setting 'monoclinic'
loop_
_space_group_symop_operation_xyz
x,y,z
-x,y,-z
-x,-y,-z
x,-y,z
1/2+x,1/2+y,z
1/2-x,1/2+y,-z
1/2-x,1/2-y,-z
1/2+x,1/2-y,z
loop_
_atom_site_type_symbol
_atom_site_label
_atom_site_fract_x
_atom_site_fract_y
_atom_site_fract_z
Si Si1 0.124195 0.107794 0.778055
Si Si2 0.261045 0.894180 0.704035
Si Si3 0.052477 0.393381 0.393452
Si Si4 0.988005 0.693684 0.894584
Si Si5 0.299089 0.107522 0.221965
Si Si6 0.795067 0.612862 0.030402
Si Si7 0.928625 0.213514 0.696990
Si Si8 0.717442 0.802180 0.618086
O O1 0.191745 0.111464 0.740582
O O2 0.016523 0.165290 0.701796
O O3 0.097423 0.000000 0.776093
O O4 0.199623 0.141501 0.904763
O O5 0.215652 0.810184 0.616399
O O6 0.253433 0.000000 0.666413
O O7 0.382793 0.870265 0.811463
O O8 0.083892 0.500000 0.398215
O O9 0.079821 0.320030 0.340257
O O10 0.113101 0.353334 0.515200
O O11 0.926475 0.392151 0.315999
O O12 0.094007 0.646311 0.931474
O O13 0.968333 0.780689 0.819642
O O14 0.000000 0.715710 0.000000
O O15 0.275903 0.142426 0.112716
O O16 0.258252 0.168290 0.270340
O O17 0.263205 0.000000 0.205800
O O18 0.799679 0.500000 0.035046
O O19 0.813123 0.169432 0.622899
#
# Coordination Sequence:
#
# PCOD9199996 Si02
#       8
#     8   8   8   8   8   8   8   8
#     4  10  22  40  61  88 129 177 210 240 298 378
#     4  10  22  38  60  91 128 165 208 258 308 367
#     4  11  23  44  71  94 118 157 208 269 326 366
#     4  11  21  36  62  96 127 161 207 264 315 363
#     4  10  21  39  66  96 123 157 208 268 318 363
#     4  10  20  36  62  95 128 165 208 254 312 369
#     4  11  25  41  61  93 132 165 209 252 308 375
#     4  11  24  41  63  92 126 162 209 262 313 370
#
# _framework density 22.00497
#
# number of rings (size 3 to 8) (size 9 to 14) (size 15 to 20)
#    0.000    1.500    2.500    2.250    0.000    7.000 
#    0.000    0.625    0.000    5.625    0.000    0.000 
#    0.000    0.000    0.000    0.000    0.000    0.000 
#
# Total GULP energy -178908.398475 kJ/mol
# GULP energy per Si atom -5590.887452 kJ/mol
# Density = 2.195489 g / cm^3
# Si number density = 22.004970 Si / 1000 Ang^3
#
#
#
# Elastic Constant Matrix: (Units=GPa)
#
#
# Indices 1 2 3 4 5 6 
#
# 1 84.2649 19.9798 1.5690 0.0000 -8.6651 0.0000
# 2 19.9798 88.0675 3.8012 0.0000 4.5155 0.0000
# 3 1.5690 3.8012 37.1226 0.0000 -9.5831 0.0000
# 4 0.0000 0.0000 0.0000 22.5405 0.0000 -5.3894
# 5 -8.6651 4.5155 -9.5831 0.0000 28.1909 0.0000
# 6 0.0000 0.0000 0.0000 -5.3894 0.0000 6.4777
#
#
#
# Elastic Compliance Matrix: (Units=1/GPa)
#
#
# Indices 1 2 3 4 5 6 
#
# 1 0.013130 -0.003276 0.001050 0.000000 0.004918 0.000000
# 2 -0.003276 0.012378 -0.002084 0.000000 -0.003698 0.000000
# 3 0.001050 -0.002084 0.029900 0.000000 0.010821 0.000000
# 4 0.000000 0.000000 0.000000 0.055382 0.000000 0.046077
# 5 0.004918 -0.003698 0.010821 0.000000 0.041255 0.000000
# 6 0.000000 0.000000 0.000000 0.046077 0.000000 0.192712
#
#
# Mechanical properties :
#
#
# Convention : Reuss Voigt Hill
#
# Bulk Modulus (GPa) = 21.37288 28.90611 25.13949
# Shear Modulus (GPa) = 13.55117 23.71549 18.63333
#
# Velocity S-wave (km/s) = 2.48427 3.28645 2.91310
# Velocity P-wave (km/s) = 4.23823 5.25030 4.77118
#
# Compressibility (1/GPa) = 0.04678828
#
# Stress axis : x y z
#
# Youngs Moduli (GPa) = 76.15957 80.79002 33.44482
#
# Poissons Ratio (x) = 0.26470 -0.03512
# Poissons Ratio (y) = 0.24952 0.06968
# Poissons Ratio (z) = -0.07997 0.16833
#
# Static dielectric constant tensor:
#      x y z
#    x 1.786560 0.000000 -0.014770 
#    y 0.000000 1.811780 0.000000 
#    z -0.014770 0.000000 1.843680 
# 
# From -- ./inp_files/225752.got.cif
#   From: 2010.05.17/outbox.cif.g08.bks.cpg/sg12_113_cif.got.tgz:225752.got - 2010.06.03 13:09:07.
