data_PCOD9199704
_publ_section_title
;
Structure prediction by ZEFSAII (Michael W. Deem and Ramdas Pophale) SiO2 
 PCOD9199704
Probable space group: C 2/M
;
_chemical_formula_sum "Si O2"
_cell_formula_units_Z 48
_cell_length_a 22.972043
_cell_length_b 13.342488
_cell_length_c 10.448631
_cell_angle_alpha 90.000000
_cell_angle_beta 48.079460
_cell_angle_gamma 90.000000
_cell_volume 2382.927592
_symmetry_space_group_name_H-M "C 2/M"
_symmetry_group_IT_number 12
_symmetry_cell_setting 'monoclinic'
loop_
_space_group_symop_operation_xyz
x,y,z
-x,y,-z
-x,-y,-z
x,-y,z
1/2+x,1/2+y,z
1/2-x,1/2+y,-z
1/2-x,1/2-y,-z
1/2+x,1/2-y,z
loop_
_atom_site_type_symbol
_atom_site_label
_atom_site_fract_x
_atom_site_fract_y
_atom_site_fract_z
Si Si1 0.298313 0.619167 0.607099
Si Si2 0.922868 0.255464 0.314412
Si Si3 0.164865 0.776627 0.177548
Si Si4 0.472593 0.615265 0.685126
Si Si5 0.543993 0.116071 0.257792
Si Si6 0.111271 0.613212 0.871693
O O1 0.320621 0.500000 0.566794
O O2 0.341305 0.695827 0.448350
O O3 0.323988 0.669620 0.703026
O O4 0.205043 0.622362 0.733933
O O5 0.922452 0.308097 0.178743
O O6 0.983809 0.169853 0.264213
O O7 0.956102 0.339657 0.366747
O O8 0.118414 0.860346 0.165772
O O9 0.103328 0.683562 0.255852
O O10 0.250000 0.750000 0.000000
O O11 0.500000 0.648305 0.500000
O O12 0.489995 0.500000 0.664328
O O13 0.543168 0.000000 0.297112
O O14 0.580855 0.123930 0.060680
O O15 0.091649 0.500000 0.856729
#
# Coordination Sequence:
#
# PCOD9199704 Si02
#       6
#     8   8   8   8   8   8
#     4  11  22  39  64  88 117 157 199 243 294 352
#     4  11  21  35  61  94 117 153 199 244 287 351
#     4  11  21  36  62  92 116 151 201 249 291 350
#     4  10  20  36  61  88 114 150 196 240 289 346
#     4  10  22  39  61  89 119 158 199 242 296 349
#     4  10  21  39  63  88 118 159 200 239 289 351
#
# _framework density 20.14329
#
# number of rings (size 3 to 8) (size 9 to 14) (size 15 to 20)
#    0.000    1.500    3.333    2.500    0.000    2.000 
#    0.000    2.500    0.000   23.000    0.000    0.000 
#    0.000    0.000    0.000    0.000    0.000    0.000 
#
# Total GULP energy -133718.277885 kJ/mol
# GULP energy per Si atom -5571.594912 kJ/mol
# Density = 2.009744 g / cm^3
# Si number density = 20.143290 Si / 1000 Ang^3
#
#
#
# Elastic Constant Matrix: (Units=GPa)
#
#
# Indices 1 2 3 4 5 6 
#
# 1 106.9799 58.5563 37.3546 0.0000 -8.7322 0.0000
# 2 58.5563 149.8034 45.2236 0.0000 12.3624 0.0000
# 3 37.3546 45.2236 83.5752 0.0000 -2.5659 0.0000
# 4 0.0000 0.0000 0.0000 21.8860 0.0000 16.3518
# 5 -8.7322 12.3624 -2.5659 0.0000 30.3159 0.0000
# 6 0.0000 0.0000 0.0000 16.3518 0.0000 26.0465
#
#
#
# Elastic Compliance Matrix: (Units=1/GPa)
#
#
# Indices 1 2 3 4 5 6 
#
# 1 0.013566 -0.004761 -0.003316 0.000000 0.005568 0.000000
# 2 -0.004761 0.010069 -0.003498 0.000000 -0.005773 0.000000
# 3 -0.003316 -0.003498 0.015394 0.000000 0.001774 0.000000
# 4 0.000000 0.000000 0.000000 0.086055 0.000000 -0.054024
# 5 0.005568 -0.005773 0.001774 0.000000 0.037094 0.000000
# 6 0.000000 0.000000 0.000000 -0.054024 0.000000 0.072309
#
#
# Mechanical properties :
#
#
# Convention : Reuss Voigt Hill
#
# Bulk Modulus (GPa) = 62.97415 69.18084 66.07749
# Shear Modulus (GPa) = 19.01644 28.93129 23.97386
#
# Velocity S-wave (km/s) = 3.07589 3.79393 3.45362
# Velocity P-wave (km/s) = 6.62916 7.32194 6.98414
#
# Compressibility (1/GPa) = 0.01587953
#
# Stress axis : x y z
#
# Youngs Moduli (GPa) = 73.71321 99.31632 64.95832
#
# Poissons Ratio (x) = 0.47287 0.21541
# Poissons Ratio (y) = 0.35097 0.22719
# Poissons Ratio (z) = 0.24444 0.34736
#
# Static dielectric constant tensor:
#      x y z
#    x 1.724080 0.000000 -0.038780 
#    y 0.000000 1.738430 0.000000 
#    z -0.038780 0.000000 1.780510 
# 
# From -- ./inp_files/174412.got.cif
#   From: 2010.05.17/outbox.cif.g08.bks.cpg/sg12_88_cif.got.tgz:174412.got - 2010.06.03 13:09:07.
