data_PCOD9199324
_publ_section_title
;
Structure prediction by ZEFSAII (Michael W. Deem and Ramdas Pophale) SiO2 
 PCOD9199324
Probable space group: C 2/M
;
_chemical_formula_sum "Si O2"
_cell_formula_units_Z 64
_cell_length_a 25.102666
_cell_length_b 20.694637
_cell_length_c 7.143386
_cell_angle_alpha 90.000000
_cell_angle_beta 130.273658
_cell_angle_gamma 90.000000
_cell_volume 2831.305574
_symmetry_space_group_name_H-M "C 2/M"
_symmetry_group_IT_number 12
_symmetry_cell_setting 'monoclinic'
loop_
_space_group_symop_operation_xyz
x,y,z
-x,y,-z
-x,-y,-z
x,-y,z
1/2+x,1/2+y,z
1/2-x,1/2+y,-z
1/2-x,1/2-y,-z
1/2+x,1/2-y,z
loop_
_atom_site_type_symbol
_atom_site_label
_atom_site_fract_x
_atom_site_fract_y
_atom_site_fract_z
Si Si1 0.593016 0.667982 0.444438
Si Si2 0.595709 0.192150 0.028324
Si Si3 0.030020 0.926328 0.778844
Si Si4 0.656728 0.070595 0.663525
Si Si5 0.780364 0.390584 0.573958
Si Si6 0.059023 0.310954 0.392090
Si Si7 0.705849 0.570406 0.771595
Si Si8 0.352797 0.670130 0.852310
O O1 0.526090 0.622678 0.260439
O O2 0.573314 0.737022 0.484851
O O3 0.651627 0.627395 0.685757
O O4 0.626044 0.677424 0.316587
O O5 0.661253 0.144868 0.169769
O O6 0.576488 0.191999 0.207646
O O7 0.621342 0.261526 0.011749
O O8 0.522660 0.174195 0.768201
O O9 0.000000 0.929050 0.500000
O O10 0.032341 0.000000 0.855886
O O11 0.104189 0.890769 0.970877
O O12 0.680569 0.071081 0.500051
O O13 0.607476 0.132388 0.581166
O O14 0.624418 0.000000 0.631790
O O15 0.726552 0.075689 0.945377
O O16 0.731495 0.426271 0.613422
O O17 0.729839 0.341869 0.343562
O O18 0.672157 0.500000 0.727788
#
# Coordination Sequence:
#
# PCOD9199324 Si02
#       8
#     8   8   8   8   8   8   8   8
#     4  10  20  38  61  84 113 155 197 245 291 342
#     4   9  17  36  60  86 117 148 189 250 296 336
#     4  11  24  37  52  84 124 160 196 237 288 353
#     4  10  22  40  61  85 119 158 194 245 303 348
#     4  10  21  37  61  88 115 155 197 241 293 353
#     4   9  18  36  62  87 115 150 198 242 292 359
#     4  10  22  39  59  86 120 154 198 245 291 355
#     4  10  20  36  60  83 113 152 197 240 290 349
#
# _framework density 22.604412
#
# number of rings (size 3 to 8) (size 9 to 14) (size 15 to 20)
#    0.000    2.125    1.250    1.500    1.750    5.000 
#    2.250    6.250    0.000    1.500    0.000    0.000 
#    0.000    0.000    0.000    0.000    0.000    0.000 
#
# Total GULP energy -178727.181315 kJ/mol
# GULP energy per Si atom -5585.224416 kJ/mol
# Density = 2.255296 g / cm^3
# Si number density = 22.604412 Si / 1000 Ang^3
#
#
#
# Elastic Constant Matrix: (Units=GPa)
#
#
# Indices 1 2 3 4 5 6 
#
# 1 41.2366 25.5051 12.6185 0.0000 14.4538 0.0000
# 2 25.5051 105.5611 57.4758 0.0000 12.6439 0.0000
# 3 12.6185 57.4758 114.5102 0.0000 16.4123 0.0000
# 4 0.0000 0.0000 0.0000 196.2731 0.0000 354.5174
# 5 14.4538 12.6439 16.4123 0.0000 29.7555 0.0000
# 6 0.0000 0.0000 0.0000 354.5174 0.0000 681.3330
#
#
#
# Elastic Compliance Matrix: (Units=1/GPa)
#
#
# Indices 1 2 3 4 5 6 
#
# 1 0.033171 -0.007480 0.002121 0.000000 -0.014104 0.000000
# 2 -0.007480 0.014844 -0.006779 0.000000 0.001065 0.000000
# 3 0.002121 -0.006779 0.012635 0.000000 -0.005119 0.000000
# 4 0.000000 0.000000 0.000000 0.084692 0.000000 -0.044068
# 5 -0.014104 0.001065 -0.005119 0.000000 0.042829 0.000000
# 6 0.000000 0.000000 0.000000 -0.044068 0.000000 0.024397
#
#
# Mechanical properties :
#
#
# Convention : Reuss Voigt Hill
#
# Bulk Modulus (GPa) = 27.49210 50.27852 38.88531
# Shear Modulus (GPa) = 20.08267 192.51956 106.30112
#
# Velocity S-wave (km/s) = 2.98391 9.23872 6.86504
# Velocity P-wave (km/s) = 4.90513 11.66603 8.94865
#
# Compressibility (1/GPa) = 0.03637409
#
# Stress axis : x y z
#
# Youngs Moduli (GPa) = 30.14647 67.36797 79.14300
#
# Poissons Ratio (x) = 0.50390 -0.16782
# Poissons Ratio (y) = 0.22549 0.53650
# Poissons Ratio (z) = -0.06393 0.45668
#
# Static dielectric constant tensor:
#      x y z
#    x 1.872830 0.000000 -0.044670 
#    y 0.000000 1.849260 0.000000 
#    z -0.044670 0.000000 1.838260 
# 
# From -- ./inp_files/112863.got.cif
#   From: 2010.05.17/outbox.cif.g08.bks.cpg/sg12_57_cif.got.tgz:112863.got - 2010.06.03 13:09:07.
