data_PCOD9199399
_publ_section_title
;
Structure prediction by ZEFSAII (Michael W. Deem and Ramdas Pophale) SiO2 
 PCOD9199399
Probable space group: C 2/M
;
_chemical_formula_sum "Si O2"
_cell_formula_units_Z 48
_cell_length_a 19.960521
_cell_length_b 19.854273
_cell_length_c 23.703381
_cell_angle_alpha 90.000000
_cell_angle_beta 163.370664
_cell_angle_gamma 90.000000
_cell_volume 2688.276415
_symmetry_space_group_name_H-M "C 2/M"
_symmetry_group_IT_number 12
_symmetry_cell_setting 'monoclinic'
loop_
_space_group_symop_operation_xyz
x,y,z
-x,y,-z
-x,-y,-z
x,-y,z
1/2+x,1/2+y,z
1/2-x,1/2+y,-z
1/2-x,1/2-y,-z
1/2+x,1/2-y,z
loop_
_atom_site_type_symbol
_atom_site_label
_atom_site_fract_x
_atom_site_fract_y
_atom_site_fract_z
Si Si1 0.860110 0.197624 0.045805
Si Si2 0.181370 0.896563 0.596469
Si Si3 0.342400 0.577452 0.220012
Si Si4 0.631936 0.239011 0.550705
Si Si5 0.712526 0.229989 0.131333
Si Si6 0.705880 0.073738 0.988818
O O1 0.139719 0.196438 0.278535
O O2 0.750000 0.250000 0.000000
O O3 0.810218 0.229493 0.944738
O O4 0.744531 0.128069 0.971651
O O5 0.209373 0.816064 0.626400
O O6 0.446192 0.922719 0.807453
O O7 0.000000 0.918218 0.500000
O O8 0.057658 0.915191 0.437370
O O9 0.247924 0.500000 0.152902
O O10 0.205215 0.648040 0.120250
O O11 0.380294 0.582230 0.183113
O O12 0.500000 0.213649 0.500000
O O13 0.451781 0.248361 0.354553
O O14 0.500000 0.249416 0.000000
O O15 0.737377 0.000000 0.990119
#
# Coordination Sequence:
#
# PCOD9199399 Si02
#       6
#     8   8   8   8   8   8
#     4  12  22  39  61  89 117 153 200 246 292 345
#     4  10  21  36  55  84 123 162 197 228 279 354
#     4  10  22  34  51  82 122 159 191 224 281 350
#     4  10  20  36  60  86 118 152 192 244 291 341
#     4  11  22  37  60  87 118 155 199 242 292 348
#     4  11  24  40  57  83 122 158 193 242 293 345
#
# _framework density 17.855307
#
# number of rings (size 3 to 8) (size 9 to 14) (size 15 to 20)
#    0.000    1.333    5.000    0.500    4.667    3.667 
#    0.000    0.000    0.000    1.000    0.000    0.000 
#    0.000    0.000    0.000    0.000    0.000    0.000 
#
# Total GULP energy -133738.101098 kJ/mol
# GULP energy per Si atom -5572.420879 kJ/mol
# Density = 1.781467 g / cm^3
# Si number density = 17.855307 Si / 1000 Ang^3
#
#
#
# Elastic Constant Matrix: (Units=GPa)
#
#
# Indices 1 2 3 4 5 6 
#
# 1 106.8410 47.3000 43.4428 0.1635 -2.9521 0.2201
# 2 47.3000 87.6285 31.0838 0.0860 0.9861 0.3948
# 3 43.4428 31.0838 76.8326 0.0694 -3.9076 0.2388
# 4 0.1635 0.0860 0.0694 -1.2228 -0.1160 5.0359
# 5 -2.9521 0.9861 -3.9076 -0.1160 30.4314 0.0520
# 6 0.2201 0.3948 0.2388 5.0359 0.0520 2.9278
#
#
#
# Elastic Compliance Matrix: (Units=1/GPa)
#
#
# Indices 1 2 3 4 5 6 
#
# 1 0.014204 -0.005653 -0.005701 0.000210 0.000830 -0.000216
# 2 -0.005653 0.015614 -0.003194 -0.000673 -0.001467 -0.000236
# 3 -0.005701 -0.003194 0.017624 -0.000331 0.001812 -0.000042
# 4 0.000210 -0.000673 -0.000331 -0.101105 -0.000683 0.174018
# 5 0.000830 -0.001467 0.001812 -0.000683 0.033218 0.000573
# 6 -0.000216 -0.000236 -0.000042 0.174018 0.000573 0.042281
#
#
# Mechanical properties :
#
#
# Convention : Reuss Voigt Hill
#
# Bulk Modulus (GPa) = 54.51030 57.21726 55.86378
# Shear Modulus (GPa) = 87.64642 16.39230 52.01936
#
# Velocity S-wave (km/s) = 7.01382 3.03324 5.40343
# Velocity P-wave (km/s) = 9.80748 6.66198 8.38357
#
# Compressibility (1/GPa) = 0.01834516
#
# Stress axis : x y z
#
# Youngs Moduli (GPa) = 70.40438 64.04353 56.74168
#
# Poissons Ratio (x) = 0.36204 0.32350
# Poissons Ratio (y) = 0.39800 0.18123
# Poissons Ratio (z) = 0.40140 0.20455
#
# Static dielectric constant tensor:
#      x y z
#    x 1.599630 -0.000140 -0.012720 
#    y -0.000140 1.632080 -0.000130 
#    z -0.012720 -0.000130 1.639870 
# 
# From -- ./inp_files/317931.got.cif
#   From: 2010.05.17/outbox.cif.g08.bks.cpg/sg12_159_cif.got.tgz:317931.got - 2010.06.03 13:09:07.
