data_PCOD9199701
_publ_section_title
;
Structure prediction by ZEFSAII (Michael W. Deem and Ramdas Pophale) SiO2 
 PCOD9199701
Probable space group: C 2/M
;
_chemical_formula_sum "Si O2"
_cell_formula_units_Z 64
_cell_length_a 23.531867
_cell_length_b 13.492687
_cell_length_c 8.052934
_cell_angle_alpha 90.000000
_cell_angle_beta 92.327333
_cell_angle_gamma 90.000000
_cell_volume 2554.762832
_symmetry_space_group_name_H-M "C 2/M"
_symmetry_group_IT_number 12
_symmetry_cell_setting 'monoclinic'
loop_
_space_group_symop_operation_xyz
x,y,z
-x,y,-z
-x,-y,-z
x,-y,z
1/2+x,1/2+y,z
1/2-x,1/2+y,-z
1/2-x,1/2-y,-z
1/2+x,1/2-y,z
loop_
_atom_site_type_symbol
_atom_site_label
_atom_site_fract_x
_atom_site_fract_y
_atom_site_fract_z
Si Si1 0.361273 0.380245 0.351490
Si Si2 0.198147 0.618977 0.561632
Si Si3 0.139673 0.294474 0.067630
Si Si4 0.087413 0.618593 0.731752
Si Si5 0.011600 0.113045 0.698617
Si Si6 0.319495 0.381858 0.719553
Si Si7 0.755037 0.381239 0.790609
Si Si8 0.026380 0.314254 0.183567
O O1 0.359541 0.500000 0.348869
O O2 0.422507 0.356316 0.287457
O O3 0.348517 0.358323 0.543730
O O4 0.309163 0.344504 0.232473
O O5 0.197136 0.500000 0.557263
O O6 0.134731 0.649900 0.602924
O O7 0.252108 0.640948 0.687058
O O8 0.216074 0.650131 0.380107
O O9 0.152349 0.184248 0.134883
O O10 0.201417 0.344160 0.069176
O O11 0.092738 0.341739 0.191316
O O12 0.109207 0.321475 0.894101
O O13 0.092410 0.500000 0.759698
O O14 0.020733 0.641923 0.696985
O O15 0.976386 0.195657 0.790222
O O16 0.000000 0.114272 0.500000
O O17 0.002470 0.000000 0.755524
O O18 0.325543 0.500000 0.750275
O O19 0.753286 0.500000 0.799343
O O20 0.000000 0.340867 0.000000
#
# Coordination Sequence:
#
# PCOD9199701 Si02
#       8
#     8   8   8   8   8   8   8   8
#     4   8  16  32  55  84 115 147 176 212 274 330
#     4   8  17  35  57  80 109 147 177 209 274 335
#     4  11  22  34  56  84 103 141 192 226 274 322
#     4  10  22  41  59  76 106 144 184 232 279 325
#     4  10  20  36  61  88 114 146 183 225 267 313
#     4   9  18  34  54  80 116 145 172 215 266 331
#     4   9  18  34  56  84 115 139 175 228 269 322
#     4  10  24  40  54  78 108 147 192 226 272 330
#
# _framework density 25.051248000000001
#
# number of rings (size 3 to 8) (size 9 to 14) (size 15 to 20)
#    0.000    2.625    0.000    2.625    0.000   10.000 
#    0.000    3.125    0.000    8.625    0.000    0.875 
#    0.000    0.000    0.000    0.000    0.000    0.000 
#
# Total GULP energy -178902.635223 kJ/mol
# GULP energy per Si atom -5590.707351 kJ/mol
# Density = 2.499423 g / cm^3
# Si number density = 25.051248 Si / 1000 Ang^3
#
#
#
# Elastic Constant Matrix: (Units=GPa)
#
#
# Indices 1 2 3 4 5 6 
#
# 1 76.8504 10.5831 12.8980 0.0000 0.8887 0.0000
# 2 10.5831 101.9979 9.3400 0.0000 7.5556 0.0000
# 3 12.8980 9.3400 50.4383 0.0000 8.1306 0.0000
# 4 0.0000 0.0000 0.0000 10.7552 0.0000 16.0839
# 5 0.8887 7.5556 8.1306 0.0000 29.6250 0.0000
# 6 0.0000 0.0000 0.0000 16.0839 0.0000 -4.6137
#
#
#
# Elastic Compliance Matrix: (Units=1/GPa)
#
#
# Indices 1 2 3 4 5 6 
#
# 1 0.013740 -0.001173 -0.003430 0.000000 0.000828 0.000000
# 2 -0.001173 0.010204 -0.001230 0.000000 -0.002230 0.000000
# 3 -0.003430 -0.001230 0.021830 0.000000 -0.005575 0.000000
# 4 0.000000 0.000000 0.000000 0.014964 0.000000 0.052167
# 5 0.000828 -0.002230 -0.005575 0.000000 0.035829 0.000000
# 6 0.000000 0.000000 0.000000 0.052167 0.000000 -0.034884
#
#
# Mechanical properties :
#
#
# Convention : Reuss Voigt Hill
#
# Bulk Modulus (GPa) = 29.31918 32.76986 31.04452
# Shear Modulus (GPa) = 59.01968 20.25100 39.63534
#
# Velocity S-wave (km/s) = 4.85909 2.84629 3.98197
# Velocity P-wave (km/s) = 6.57344 4.88992 5.79316
#
# Compressibility (1/GPa) = 0.03410736
#
# Stress axis : x y z
#
# Youngs Moduli (GPa) = 72.78088 98.00440 45.80923
#
# Poissons Ratio (x) = 0.11495 0.15712
# Poissons Ratio (y) = 0.08536 0.05635
# Poissons Ratio (z) = 0.24963 0.12056
#
# Static dielectric constant tensor:
#      x y z
#    x 2.025870 0.000000 -0.027380 
#    y 0.000000 1.994320 0.000000 
#    z -0.027380 0.000000 2.000440 
# 
# From -- ./inp_files/96873.got.cif
#   From: 2010.05.17/outbox.cif.g08.bks.cpg/sg12_49_cif.got.tgz:96873.got - 2010.06.03 13:09:07.
