data_PCOD9199627
_publ_section_title
;
Structure prediction by ZEFSAII (Michael W. Deem and Ramdas Pophale) SiO2 
 PCOD9199627
Probable space group: C 2/M
;
_chemical_formula_sum "Si O2"
_cell_formula_units_Z 48
_cell_length_a 16.739356
_cell_length_b 21.632722
_cell_length_c 8.176677
_cell_angle_alpha 90.000000
_cell_angle_beta 128.433331
_cell_angle_gamma 90.000000
_cell_volume 2319.383776
_symmetry_space_group_name_H-M "C 2/M"
_symmetry_group_IT_number 12
_symmetry_cell_setting 'monoclinic'
loop_
_space_group_symop_operation_xyz
x,y,z
-x,y,-z
-x,-y,-z
x,-y,z
1/2+x,1/2+y,z
1/2-x,1/2+y,-z
1/2-x,1/2-y,-z
1/2+x,1/2-y,z
loop_
_atom_site_type_symbol
_atom_site_label
_atom_site_fract_x
_atom_site_fract_y
_atom_site_fract_z
Si Si1 0.928019 0.242895 0.061129
Si Si2 0.287491 0.720035 0.340030
Si Si3 0.415096 0.634321 0.265016
Si Si4 0.038872 0.369477 0.734818
Si Si5 0.766995 0.428675 0.137826
Si Si6 0.327028 0.153760 0.523828
O O1 0.961412 0.178506 0.183773
O O2 0.927163 0.300160 0.183777
O O3 0.812086 0.243376 0.849582
O O4 0.000000 0.257078 0.000000
O O5 0.344638 0.682758 0.274356
O O6 0.353729 0.776201 0.496971
O O7 0.248301 0.670173 0.423745
O O8 0.500000 0.610972 0.500000
O O9 0.339654 0.585721 0.086356
O O10 0.139586 0.411240 0.866226
O O11 0.000000 0.375393 0.500000
O O12 0.934859 0.378727 0.706285
O O13 0.775401 0.500000 0.194570
O O14 0.779525 0.385861 0.315327
#
# Coordination Sequence:
#
# PCOD9199627 Si02
#       6
#     8   8   8   8   8   8
#     4  12  21  36  64 100 130 161 195 256 323 388
#     4  11  21  38  63  96 132 160 192 258 328 387
#     4  12  25  39  61  91 128 166 212 257 315 371
#     4  10  20  36  60  92 125 158 200 252 314 376
#     4  11  24  43  63  86 123 174 223 259 301 359
#     4  10  21  37  62  96 125 159 200 256 319 382
#
# _framework density 20.695152
#
# number of rings (size 3 to 8) (size 9 to 14) (size 15 to 20)
#    0.000    1.000    5.000    4.000    2.333    3.333 
#    0.000    0.833    0.000    5.000    0.000    0.000 
#    0.000    0.000    0.000    0.000    0.000    0.000 
#
# Total GULP energy -133985.200405 kJ/mol
# GULP energy per Si atom -5582.716684 kJ/mol
# Density = 2.064805 g / cm^3
# Si number density = 20.695152 Si / 1000 Ang^3
#
#
#
# Elastic Constant Matrix: (Units=GPa)
#
#
# Indices 1 2 3 4 5 6 
#
# 1 50.5548 25.3904 11.8778 0.0000 -2.0696 0.0000
# 2 25.3904 82.6067 22.7491 0.0000 6.9033 0.0000
# 3 11.8778 22.7491 96.5726 0.0000 24.7795 0.0000
# 4 0.0000 0.0000 0.0000 18.4801 0.0000 -4.5615
# 5 -2.0696 6.9033 24.7795 0.0000 27.2088 0.0000
# 6 0.0000 0.0000 0.0000 -4.5615 0.0000 12.6192
#
#
#
# Elastic Compliance Matrix: (Units=1/GPa)
#
#
# Indices 1 2 3 4 5 6 
#
# 1 0.024348 -0.007208 -0.002924 0.000000 0.006344 0.000000
# 2 -0.007208 0.015089 -0.002016 0.000000 -0.002541 0.000000
# 3 -0.002924 -0.002016 0.014505 0.000000 -0.012921 0.000000
# 4 0.000000 0.000000 0.000000 0.059413 0.000000 0.021476
# 5 0.006344 -0.002541 -0.012921 0.000000 0.049647 0.000000
# 6 0.000000 0.000000 0.000000 0.021476 0.000000 0.087007
#
#
# Mechanical properties :
#
#
# Convention : Reuss Voigt Hill
#
# Bulk Modulus (GPa) = 33.73402 38.86320 36.29861
# Shear Modulus (GPa) = 17.59407 22.97609 20.28508
#
# Velocity S-wave (km/s) = 2.91890 3.33561 3.13419
# Velocity P-wave (km/s) = 5.26268 5.80126 5.53852
#
# Compressibility (1/GPa) = 0.02964367
#
# Stress axis : x y z
#
# Youngs Moduli (GPa) = 41.07178 66.27505 68.94294
#
# Poissons Ratio (x) = 0.47774 0.20162
# Poissons Ratio (y) = 0.29606 0.13898
# Poissons Ratio (z) = 0.12011 0.13360
#
# Static dielectric constant tensor:
#      x y z
#    x 1.792270 0.000000 0.033240 
#    y 0.000000 1.678130 0.000000 
#    z 0.033240 0.000000 1.813450 
# 
# From -- ./inp_files/77697.got.cif
#   From: 2010.05.17/outbox.cif.g08.bks.cpg/sg12_39_cif.got.tgz:77697.got - 2010.06.03 13:09:07.
