data_PCOD9199331
_publ_section_title
;
Structure prediction by ZEFSAII (Michael W. Deem and Ramdas Pophale) SiO2 
 PCOD9199331
Probable space group: C 2/M
;
_chemical_formula_sum "Si O2"
_cell_formula_units_Z 40
_cell_length_a 14.945428
_cell_length_b 17.653921
_cell_length_c 9.655973
_cell_angle_alpha 90.000000
_cell_angle_beta 43.957980
_cell_angle_gamma 90.000000
_cell_volume 1768.425573
_symmetry_space_group_name_H-M "C 2/M"
_symmetry_group_IT_number 12
_symmetry_cell_setting 'monoclinic'
loop_
_space_group_symop_operation_xyz
x,y,z
-x,y,-z
-x,-y,-z
x,-y,z
1/2+x,1/2+y,z
1/2-x,1/2+y,-z
1/2-x,1/2-y,-z
1/2+x,1/2-y,z
loop_
_atom_site_type_symbol
_atom_site_label
_atom_site_fract_x
_atom_site_fract_y
_atom_site_fract_z
Si Si1 0.225113 0.264415 0.310819
Si Si2 0.378189 0.126844 0.060535
Si Si3 0.602480 0.413666 0.276814
Si Si4 0.469240 0.199381 0.679815
Si Si5 0.363561 0.586955 0.076136
O O1 0.150271 0.251691 0.245979
O O2 0.279740 0.349200 0.245711
O O3 0.105871 0.258648 0.550679
O O4 0.336558 0.202812 0.190756
O O5 0.426265 0.151172 0.855491
O O6 0.500000 0.090124 0.000000
O O7 0.242961 0.085253 0.190835
O O8 0.500000 0.380255 0.500000
O O9 0.557036 0.500000 0.303431
O O10 0.616004 0.384777 0.104594
O O11 0.500000 0.155139 0.500000
O O12 0.311163 0.500000 0.132559
O O13 0.500000 0.584334 0.000000
#
# Coordination Sequence:
#
# PCOD9199331 Si02
#       5
#     8   8   8   8   8
#     4   9  20  37  57  81 119 143 189 234 282 335
#     4  12  23  36  60  88 114 154 191 232 285 335
#     4  10  23  41  59  83 116 153 189 233 286 339
#     4   8  20  36  56  80 112 151 187 229 287 331
#     4  10  20  36  60  84 109 147 192 236 283 336
#
# _framework density 22.618988999999999
#
# number of rings (size 3 to 8) (size 9 to 14) (size 15 to 20)
#    1.200    0.800    2.000    1.200    2.800    2.800 
#    0.000    3.000    0.000    0.000    0.000    0.000 
#    0.000    0.000    0.000    0.000    0.000    0.000 
#
# Total GULP energy -111412.378504 kJ/mol
# GULP energy per Si atom -5570.618925 kJ/mol
# Density = 2.256751 g / cm^3
# Si number density = 22.618989 Si / 1000 Ang^3
#
#
#
# Elastic Constant Matrix: (Units=GPa)
#
#
# Indices 1 2 3 4 5 6 
#
# 1 96.6392 1.6892 24.2384 0.0000 -13.4720 0.0000
# 2 1.6892 84.8124 14.6915 0.0000 -7.7590 0.0000
# 3 24.2384 14.6915 90.4838 0.0000 -18.4570 0.0000
# 4 0.0000 0.0000 0.0000 -13.9517 0.0000 38.1089
# 5 -13.4720 -7.7590 -18.4570 0.0000 33.9242 0.0000
# 6 0.0000 0.0000 0.0000 38.1089 0.0000 -53.2676
#
#
#
# Elastic Compliance Matrix: (Units=1/GPa)
#
#
# Indices 1 2 3 4 5 6 
#
# 1 0.011419 0.000502 -0.002466 0.000000 0.003308 0.000000
# 2 0.000502 0.012266 -0.001702 0.000000 0.002079 0.000000
# 3 -0.002466 -0.001702 0.013171 0.000000 0.005798 0.000000
# 4 0.000000 0.000000 0.000000 0.075118 0.000000 0.053741
# 5 0.003308 0.002079 0.005798 0.000000 0.034421 0.000000
# 6 0.000000 0.000000 0.000000 0.053741 0.000000 0.019675
#
#
# Mechanical properties :
#
#
# Convention : Reuss Voigt Hill
#
# Bulk Modulus (GPa) = 33.86984 39.24153 36.55569
# Shear Modulus (GPa) = 27.28644 8.76208 18.02426
#
# Velocity S-wave (km/s) = 3.47702 1.97033 2.82594
# Velocity P-wave (km/s) = 5.57908 4.75004 5.18117
#
# Compressibility (1/GPa) = 0.02952479
#
# Stress axis : x y z
#
# Youngs Moduli (GPa) = 87.57693 81.52794 75.92383
#
# Poissons Ratio (x) = -0.04095 0.18719
# Poissons Ratio (y) = -0.04399 0.12923
# Poissons Ratio (z) = 0.21592 0.13876
#
# Static dielectric constant tensor:
#      x y z
#    x 1.883960 0.000000 -0.026520 
#    y 0.000000 1.931970 0.000000 
#    z -0.026520 0.000000 1.871510 
# 
# From -- ./inp_files/146868.got.cif
#   From: 2010.05.17/outbox.cif.g08.bks.cpg/sg12_74_cif.got.tgz:146868.got - 2010.06.03 13:09:07.
