data_PCOD9199912
_publ_section_title
;
Structure prediction by ZEFSAII (Michael W. Deem and Ramdas Pophale) SiO2 
 PCOD9199912
Probable space group: C 2/M
;
_chemical_formula_sum "Si O2"
_cell_formula_units_Z 50
_cell_length_a 25.954403
_cell_length_b 7.707745
_cell_length_c 11.718822
_cell_angle_alpha 90.000000
_cell_angle_beta 97.916499
_cell_angle_gamma 90.000000
_cell_volume 2322.007386
_symmetry_space_group_name_H-M "C 2/M"
_symmetry_group_IT_number 12
_symmetry_cell_setting 'monoclinic'
loop_
_space_group_symop_operation_xyz
x,y,z
-x,y,-z
-x,-y,-z
x,-y,z
1/2+x,1/2+y,z
1/2-x,1/2+y,-z
1/2-x,1/2-y,-z
1/2+x,1/2-y,z
loop_
_atom_site_type_symbol
_atom_site_label
_atom_site_fract_x
_atom_site_fract_y
_atom_site_fract_z
Si Si1 0.500000 0.500000 0.500000
Si Si2 0.022796 0.199120 0.123897
Si Si3 0.069163 0.697379 0.747896
Si Si4 0.217503 0.210041 0.152937
Si Si5 0.673578 0.297219 0.895243
Si Si6 0.625780 0.710417 0.286184
Si Si7 0.072431 0.701520 0.486907
O O1 0.530491 0.345117 0.438167
O O2 0.975304 0.201945 0.198449
O O3 0.075242 0.272117 0.197556
O O4 0.036745 0.000000 0.099170
O O5 0.000000 0.280179 0.000000
O O6 0.050360 0.500000 0.735951
O O7 0.122646 0.706442 0.833159
O O8 0.081702 0.753731 0.621936
O O9 0.276487 0.275232 0.171055
O O10 0.178849 0.264979 0.241028
O O11 0.219705 0.000000 0.151677
O O12 0.192011 0.267147 0.024840
O O13 0.660701 0.500000 0.901728
O O14 0.625048 0.500000 0.287570
O O15 0.619156 0.776172 0.412836
O O16 0.056326 0.500000 0.477640
#
# Coordination Sequence:
#
# PCOD9199912 Si02
#       7
#     2   8   8   8   8   8   8
#     4  12  22  40  64  82 118 168 202 252 304 362
#     4  10  21  36  57  86 118 154 194 238 297 367
#     4  11  24  39  57  85 121 157 200 254 303 358
#     4   9  19  37  61  91 122 156 202 252 306 368
#     4  10  20  36  62  90 118 159 204 250 307 368
#     4  10  20  37  61  86 120 164 202 247 310 367
#     4  11  25  40  60  91 121 160 215 257 301 364
#
# _framework density 21.533093000000001
#
# number of rings (size 3 to 8) (size 9 to 14) (size 15 to 20)
#    0.000    1.760    0.800    3.120    4.480    6.080 
#    0.000    2.400    0.000    0.000    0.000    0.000 
#    0.000    0.000    0.000    0.000    0.000    0.000 
#
# Total GULP energy -139382.535712 kJ/mol
# GULP energy per Si atom -5575.301428 kJ/mol
# Density = 2.148408 g / cm^3
# Si number density = 21.533093 Si / 1000 Ang^3
#
#
#
# Elastic Constant Matrix: (Units=GPa)
#
#
# Indices 1 2 3 4 5 6 
#
# 1 71.8723 4.1383 -4.1964 0.0000 -24.9236 0.0000
# 2 4.1383 69.3594 6.9844 0.0000 -6.1229 0.0000
# 3 -4.1964 6.9844 46.6832 0.0000 -15.6206 0.0000
# 4 0.0000 0.0000 0.0000 25.0285 0.0000 -10.6163
# 5 -24.9236 -6.1229 -15.6206 0.0000 40.2185 0.0000
# 6 0.0000 0.0000 0.0000 -10.6163 0.0000 10.9363
#
#
#
# Elastic Compliance Matrix: (Units=1/GPa)
#
#
# Indices 1 2 3 4 5 6 
#
# 1 0.019368 -0.000547 0.006679 0.000000 0.014513 0.000000
# 2 -0.000547 0.014742 -0.001859 0.000000 0.001183 0.000000
# 3 0.006679 -0.001859 0.027113 0.000000 0.014387 0.000000
# 4 0.000000 0.000000 0.000000 0.067922 0.000000 0.065935
# 5 0.014513 0.001183 0.014387 0.000000 0.039626 0.000000
# 6 0.000000 0.000000 0.000000 0.065935 0.000000 0.155444
#
#
# Mechanical properties :
#
#
# Convention : Reuss Voigt Hill
#
# Bulk Modulus (GPa) = 14.33283 22.41862 18.37573
# Shear Modulus (GPa) = 14.75251 27.30256 21.02754
#
# Velocity S-wave (km/s) = 2.62030 3.56467 3.12833
# Velocity P-wave (km/s) = 3.97810 5.23224 4.64767
#
# Compressibility (1/GPa) = 0.06976989
#
# Stress axis : x y z
#
# Youngs Moduli (GPa) = 51.63191 67.83371 36.88213
#
# Poissons Ratio (x) = 0.03710 -0.24634
# Poissons Ratio (y) = 0.02824 0.06856
# Poissons Ratio (z) = -0.34485 0.12609
#
# Static dielectric constant tensor:
#      x y z
#    x 1.788940 0.000000 -0.008320 
#    y 0.000000 1.813580 0.000000 
#    z -0.008320 0.000000 1.834590 
# 
# From -- ./inp_files/180135.got.cif
#   From: 2010.05.17/outbox.cif.g08.bks.cpg/sg12_91_cif.got.tgz:180135.got - 2010.06.03 13:09:07.
