data_PCOD9199505
_publ_section_title
;
Structure prediction by ZEFSAII (Michael W. Deem and Ramdas Pophale) SiO2 
 PCOD9199505
Probable space group: C 2/M
;
_chemical_formula_sum "Si O2"
_cell_formula_units_Z 64
_cell_length_a 8.805005
_cell_length_b 19.051377
_cell_length_c 28.172405
_cell_angle_alpha 90.000000
_cell_angle_beta 44.897942
_cell_angle_gamma 90.000000
_cell_volume 3335.722678
_symmetry_space_group_name_H-M "C 2/M"
_symmetry_group_IT_number 12
_symmetry_cell_setting 'monoclinic'
loop_
_space_group_symop_operation_xyz
x,y,z
-x,y,-z
-x,-y,-z
x,-y,z
1/2+x,1/2+y,z
1/2-x,1/2+y,-z
1/2-x,1/2-y,-z
1/2+x,1/2-y,z
loop_
_atom_site_type_symbol
_atom_site_label
_atom_site_fract_x
_atom_site_fract_y
_atom_site_fract_z
Si Si1 0.243772 0.919957 0.788956
Si Si2 0.732371 0.416592 0.972923
Si Si3 0.858011 0.660230 0.674177
Si Si4 0.857812 0.170154 0.914155
Si Si5 0.725206 0.582398 0.426348
Si Si6 0.758924 0.579996 0.305575
Si Si7 0.916771 0.314846 0.120500
Si Si8 0.928558 0.200011 0.718699
O O1 0.266530 0.901261 0.728421
O O2 0.483323 0.912162 0.756661
O O3 0.075272 0.867960 0.849150
O O4 0.173289 0.000000 0.811395
O O5 0.759078 0.500000 0.971860
O O6 0.931529 0.381284 0.901245
O O7 0.500000 0.403671 0.000000
O O8 0.732097 0.376705 0.023296
O O9 0.911282 0.724927 0.697232
O O10 0.670504 0.685848 0.681638
O O11 0.074070 0.630257 0.602992
O O12 0.700177 0.175451 0.904102
O O13 0.927280 0.247513 0.915072
O O14 0.500000 0.602112 0.500000
O O15 0.766856 0.500000 0.427790
O O16 0.712028 0.588354 0.372062
O O17 0.700987 0.500000 0.304855
O O18 0.643564 0.638971 0.300969
O O19 0.733071 0.302691 0.200604
#
# Coordination Sequence:
#
# PCOD9199505 Si02
#       8
#     8   8   8   8   8   8   8   8
#     4  10  20  36  60  88 120 157 199 249 304 361
#     4  11  27  47  65  88 122 160 205 260 314 376
#     4  11  21  38  60  92 126 161 207 251 302 358
#     4  12  24  42  64  92 118 160 206 255 313 371
#     4   9  19  40  67  92 125 169 208 246 301 367
#     4   9  21  37  59  89 125 163 202 252 305 359
#     4  12  25  42  65  89 122 165 207 252 314 375
#     4  12  23  39  61  93 128 165 204 259 307 362
#
# _framework density 19.186247000000002
#
# number of rings (size 3 to 8) (size 9 to 14) (size 15 to 20)
#    0.000    1.250    2.500    4.500    3.500    3.000 
#    0.000    3.125    0.000    2.250    0.000    0.000 
#    0.000    0.000    0.000    0.000    0.000    0.000 
#
# Total GULP energy -178903.198159 kJ/mol
# GULP energy per Si atom -5590.724942 kJ/mol
# Density = 1.914258 g / cm^3
# Si number density = 19.186247 Si / 1000 Ang^3
#
#
#
# Elastic Constant Matrix: (Units=GPa)
#
#
# Indices 1 2 3 4 5 6 
#
# 1 92.3647 57.7447 32.0647 -0.0021 -14.7217 0.0018
# 2 57.7447 110.9335 42.4480 -0.0022 -15.7430 0.0012
# 3 32.0647 42.4480 93.6100 -0.0022 -25.2975 0.0021
# 4 -0.0021 -0.0022 -0.0022 33.5399 -0.0040 -2.8832
# 5 -14.7217 -15.7430 -25.2975 -0.0040 17.3817 -0.0020
# 6 0.0018 0.0012 0.0021 -2.8832 -0.0020 31.8481
#
#
#
# Elastic Compliance Matrix: (Units=1/GPa)
#
#
# Indices 1 2 3 4 5 6 
#
# 1 0.016823 -0.007621 -0.000530 0.000001 0.006575 0.000000
# 2 -0.007621 0.014569 -0.003584 0.000000 0.001525 0.000000
# 3 -0.000530 -0.003584 0.018940 0.000004 0.023871 0.000001
# 4 0.000001 0.000000 0.000004 0.030049 0.000014 0.002720
# 5 0.006575 0.001525 0.023871 0.000014 0.099224 0.000006
# 6 0.000000 0.000000 0.000001 0.002720 0.000006 0.031645
#
#
# Mechanical properties :
#
#
# Convention : Reuss Voigt Hill
#
# Bulk Modulus (GPa) = 37.22633 62.38034 49.80333
# Shear Modulus (GPa) = 20.51911 27.53065 24.02488
#
# Velocity S-wave (km/s) = 3.27382 3.79214 3.54247
# Velocity P-wave (km/s) = 5.80821 7.19426 6.53807
#
# Compressibility (1/GPa) = 0.02686271
#
# Stress axis : x y z
#
# Youngs Moduli (GPa) = 59.44177 68.63760 52.79752
#
# Poissons Ratio (x) = 0.52310 0.02797
# Poissons Ratio (y) = 0.45302 0.18922
# Poissons Ratio (z) = 0.03149 0.24599
#
# Static dielectric constant tensor:
#      x y z
#    x 1.652860 0.000000 -0.003630 
#    y 0.000000 1.668960 0.000000 
#    z -0.003630 0.000000 1.683540 
# 
# From -- ./inp_files/372941.got.cif
#   From: 2010.05.17/outbox.cif.g08.bks.cpg/sg12_187_cif.got.tgz:372941.got - 2010.06.03 13:09:07.
