data_PCOD9199798
_publ_section_title
;
Structure prediction by ZEFSAII (Michael W. Deem and Ramdas Pophale) SiO2 
 PCOD9199798
Probable space group: C 2/M
;
_chemical_formula_sum "Si O2"
_cell_formula_units_Z 34
_cell_length_a 20.127747
_cell_length_b 7.807650
_cell_length_c 17.552258
_cell_angle_alpha 90.000000
_cell_angle_beta 28.236408
_cell_angle_gamma 90.000000
_cell_volume 1305.002223
_symmetry_space_group_name_H-M "C 2/M"
_symmetry_group_IT_number 12
_symmetry_cell_setting 'monoclinic'
loop_
_space_group_symop_operation_xyz
x,y,z
-x,y,-z
-x,-y,-z
x,-y,z
1/2+x,1/2+y,z
1/2-x,1/2+y,-z
1/2-x,1/2-y,-z
1/2+x,1/2-y,z
loop_
_atom_site_type_symbol
_atom_site_label
_atom_site_fract_x
_atom_site_fract_y
_atom_site_fract_z
Si Si1 0.264315 0.689925 0.898919
Si Si2 0.452369 0.195067 0.349709
Si Si3 0.366730 0.298411 0.278422
Si Si4 0.758146 0.301419 0.746487
Si Si5 0.500000 0.500000 0.500000
O O1 0.211302 0.500000 0.943430
O O2 0.434858 0.689785 0.722073
O O3 0.209733 0.798749 0.883562
O O4 0.250000 0.750000 0.000000
O O5 0.456409 0.210666 0.253825
O O6 0.295667 0.237743 0.533700
O O7 0.485201 0.000000 0.337405
O O8 0.391739 0.500000 0.264139
O O9 0.362816 0.260488 0.193181
O O10 0.804186 0.500000 0.683074
O O11 0.875923 0.153991 0.620638
#
# Coordination Sequence:
#
# PCOD9199798 Si02
#       5
#     8   8   8   8   2
#     4  12  25  43  64  89 126 172 223 265 317 383
#     4  10  20  36  61  91 126 166 207 259 320 381
#     4   9  20  37  60  91 130 163 200 262 326 376
#     4  11  23  40  62  95 132 166 213 268 322 383
#     4  12  22  36  64  98 126 168 208 264 332 372
#
# _framework density 26.053598000000001
#
# number of rings (size 3 to 8) (size 9 to 14) (size 15 to 20)
#    0.000    1.412    1.176    4.588    1.647    2.824 
#    0.000    1.176    0.000    7.059    0.000    0.000 
#    0.000    0.000    0.000    0.000    0.000    0.000 
#
# Total GULP energy -94851.379169 kJ/mol
# GULP energy per Si atom -5579.492892 kJ/mol
# Density = 2.599430 g / cm^3
# Si number density = 26.053598 Si / 1000 Ang^3
#
#
#
# Elastic Constant Matrix: (Units=GPa)
#
#
# Indices 1 2 3 4 5 6 
#
# 1 183.0631 52.8279 30.3292 0.0000 29.9299 -0.0001
# 2 52.8279 103.3188 21.6317 -0.0009 0.1226 0.0004
# 3 30.3292 21.6317 60.5351 -0.0002 14.1217 0.0001
# 4 0.0000 -0.0009 -0.0002 27.3970 0.0001 -1.3958
# 5 29.9299 0.1226 14.1217 0.0001 47.1065 0.0000
# 6 -0.0001 0.0004 0.0001 -1.3958 0.0000 28.9679
#
#
#
# Elastic Compliance Matrix: (Units=1/GPa)
#
#
# Indices 1 2 3 4 5 6 
#
# 1 0.007404 -0.003472 -0.001477 0.000000 -0.004253 0.000000
# 2 -0.003472 0.012150 -0.003343 0.000000 0.003176 0.000000
# 3 -0.001477 -0.003343 0.019604 0.000000 -0.004930 0.000000
# 4 0.000000 0.000000 0.000000 0.036590 0.000000 0.001763
# 5 -0.004253 0.003176 -0.004930 0.000000 0.025400 0.000000
# 6 0.000000 0.000000 0.000000 0.001763 0.000000 0.034606
#
#
# Mechanical properties :
#
#
# Convention : Reuss Voigt Hill
#
# Bulk Modulus (GPa) = 44.29797 61.83273 53.06535
# Shear Modulus (GPa) = 31.27657 36.83615 34.05636
#
# Velocity S-wave (km/s) = 3.46854 3.76421 3.61940
# Velocity P-wave (km/s) = 5.75157 6.53275 6.15457
#
# Compressibility (1/GPa) = 0.02257440
#
# Stress axis : x y z
#
# Youngs Moduli (GPa) = 135.05381 82.30386 51.00958
#
# Poissons Ratio (x) = 0.28573 0.07535
# Poissons Ratio (y) = 0.46886 0.17054
# Poissons Ratio (z) = 0.19949 0.27517
#
# Static dielectric constant tensor:
#      x y z
#    x 2.049100 0.000000 0.088600 
#    y 0.000000 1.923190 0.000000 
#    z 0.088600 0.000000 2.232280 
# 
# From -- ./inp_files/281962.got.cif
#   From: 2010.05.17/outbox.cif.g08.bks.cpg/sg12_141_cif.got.tgz:281962.got - 2010.06.03 13:09:07.
