data_PCOD9199648
_publ_section_title
;
Structure prediction by ZEFSAII (Michael W. Deem and Ramdas Pophale) SiO2 
 PCOD9199648
Probable space group: C 2/M
;
_chemical_formula_sum "Si O2"
_cell_formula_units_Z 40
_cell_length_a 21.843484
_cell_length_b 7.859588
_cell_length_c 23.868275
_cell_angle_alpha 90.000000
_cell_angle_beta 26.102297
_cell_angle_gamma 90.000000
_cell_volume 1802.896900
_symmetry_space_group_name_H-M "C 2/M"
_symmetry_group_IT_number 12
_symmetry_cell_setting 'monoclinic'
loop_
_space_group_symop_operation_xyz
x,y,z
-x,y,-z
-x,-y,-z
x,-y,z
1/2+x,1/2+y,z
1/2-x,1/2+y,-z
1/2-x,1/2-y,-z
1/2+x,1/2-y,z
loop_
_atom_site_type_symbol
_atom_site_label
_atom_site_fract_x
_atom_site_fract_y
_atom_site_fract_z
Si Si1 0.312673 0.500000 0.706800
Si Si2 0.847204 0.692080 0.471003
Si Si3 0.399708 0.298832 0.806386
Si Si4 0.416533 0.705718 0.921084
Si Si5 0.621996 0.500000 0.477536
Si Si6 0.116242 0.192476 0.856592
O O1 0.455622 0.500000 0.622442
O O2 0.347505 0.500000 0.612511
O O3 0.226760 0.328878 0.786620
O O4 0.815262 0.500000 0.514517
O O5 0.750000 0.750000 0.500000
O O6 0.003466 0.705562 0.317840
O O7 0.824448 0.828945 0.537968
O O8 0.430641 0.500000 0.777909
O O9 0.435100 0.240179 0.841101
O O10 0.234776 0.270899 0.934969
O O11 0.409843 0.500000 0.927130
O O12 0.538331 0.753733 0.863911
O O13 0.171524 0.000000 0.802380
O O14 0.000000 0.182679 0.000000
#
# Coordination Sequence:
#
# PCOD9199648 Si02
#       6
#     4   8   8   8   4   8
#     4  11  27  48  72  92 139 189 232 283 336 394
#     4  12  25  43  70  98 133 174 220 282 343 402
#     4  10  20  36  60  93 134 170 212 266 339 405
#     4   9  20  36  57  94 133 170 211 268 333 406
#     4  11  28  50  66 104 132 179 245 282 329 407
#     4  10  23  41  68 101 132 173 228 277 337 410
#
# _framework density 22.186516999999998
#
# number of rings (size 3 to 8) (size 9 to 14) (size 15 to 20)
#    0.000    1.600    2.000    0.900    7.000    2.400 
#    0.000    2.000    0.000    0.000    0.000    0.000 
#    0.000    0.000    0.000    0.000    0.000    0.000 
#
# Total GULP energy -111936.229760 kJ/mol
# GULP energy per Si atom -5596.811488 kJ/mol
# Density = 2.213602 g / cm^3
# Si number density = 22.186517 Si / 1000 Ang^3
#
#
#
# Elastic Constant Matrix: (Units=GPa)
#
#
# Indices 1 2 3 4 5 6 
#
# 1 62.2603 24.2809 -8.1896 0.0002 -0.4543 0.0002
# 2 24.2809 126.3911 11.3840 -0.0009 -7.8754 0.0006
# 3 -8.1896 11.3840 40.9188 0.0007 3.4376 0.0006
# 4 0.0002 -0.0009 0.0007 -96.2604 0.0000 32.3981
# 5 -0.4543 -7.8754 3.4376 0.0000 29.1237 -0.0002
# 6 0.0002 0.0006 0.0006 32.3981 -0.0002 14.9462
#
#
#
# Elastic Compliance Matrix: (Units=1/GPa)
#
#
# Indices 1 2 3 4 5 6 
#
# 1 0.018270 -0.004037 0.004896 0.000000 -0.001385 0.000000
# 2 -0.004037 0.009190 -0.003604 0.000000 0.002847 0.000000
# 3 0.004896 -0.003604 0.026762 0.000000 -0.004057 -0.000001
# 4 0.000000 0.000000 0.000000 -0.006006 0.000000 0.013020
# 5 -0.001385 0.002847 -0.004057 0.000000 0.035564 0.000000
# 6 0.000000 0.000000 -0.000001 0.013020 0.000000 0.038684
#
#
# Mechanical properties :
#
#
# Convention : Reuss Voigt Hill
#
# Bulk Modulus (GPa) = 20.52045 31.61341 26.06693
# Shear Modulus (GPa) = 34.67494 3.03490 18.85492
#
# Velocity S-wave (km/s) = 3.95762 1.17084 2.91836
# Velocity P-wave (km/s) = 5.49116 4.01344 4.80939
#
# Compressibility (1/GPa) = 0.04873188
#
# Stress axis : x y z
#
# Youngs Moduli (GPa) = 54.73466 108.81953 37.36636
#
# Poissons Ratio (x) = 0.43931 -0.18295
# Poissons Ratio (y) = 0.22097 0.13466
# Poissons Ratio (z) = -0.26799 0.39217
#
# Static dielectric constant tensor:
#      x y z
#    x 1.810830 0.000000 -0.008710 
#    y 0.000000 1.801520 0.000000 
#    z -0.008710 0.000000 1.831790 
# 
# From -- ./inp_files/345822.got.cif
#   From: 2010.05.17/outbox.cif.g08.bks.cpg/sg12_173_cif.got.tgz:345822.got - 2010.06.03 13:09:07.
