data_PCOD9199786
_publ_section_title
;
Structure prediction by ZEFSAII (Michael W. Deem and Ramdas Pophale) SiO2 
 PCOD9199786
Probable space group: C 2/M
;
_chemical_formula_sum "Si O2"
_cell_formula_units_Z 56
_cell_length_a 9.419273
_cell_length_b 16.846694
_cell_length_c 27.491840
_cell_angle_alpha 90.000000
_cell_angle_beta 139.346947
_cell_angle_gamma 90.000000
_cell_volume 2842.071224
_symmetry_space_group_name_H-M "C 2/M"
_symmetry_group_IT_number 12
_symmetry_cell_setting 'monoclinic'
loop_
_space_group_symop_operation_xyz
x,y,z
-x,y,-z
-x,-y,-z
x,-y,z
1/2+x,1/2+y,z
1/2-x,1/2+y,-z
1/2-x,1/2-y,-z
1/2+x,1/2-y,z
loop_
_atom_site_type_symbol
_atom_site_label
_atom_site_fract_x
_atom_site_fract_y
_atom_site_fract_z
Si Si1 0.003231 0.094917 0.713170
Si Si2 0.242468 0.407146 0.555715
Si Si3 0.030762 0.329557 0.158814
Si Si4 0.279655 0.325351 0.471695
Si Si5 0.209511 0.160355 0.167200
Si Si6 0.159356 0.166913 0.996397
Si Si7 0.620404 0.095013 0.688256
O O1 0.902942 0.128874 0.637037
O O2 0.834681 0.116383 0.712077
O O3 0.247944 0.122632 0.780529
O O4 0.006290 0.000000 0.712869
O O5 0.229686 0.500000 0.563614
O O6 0.310891 0.395874 0.518571
O O7 0.000000 0.374414 0.500000
O O8 0.113065 0.242383 0.163778
O O9 0.891469 0.325700 0.172558
O O10 0.872332 0.369463 0.077079
O O11 0.500000 0.313972 0.500000
O O12 0.250000 0.250000 0.500000
O O13 0.078065 0.351891 0.384868
O O14 0.318143 0.112960 0.239822
O O15 0.994674 0.125008 0.083588
O O16 0.250000 0.250000 0.000000
O O17 0.000000 0.185206 0.000000
O O18 0.575523 0.000000 0.670219
#
# Coordination Sequence:
#
# PCOD9199786 Si02
#       7
#     8   8   8   8   8   8   8
#     4  10  22  39  62  86 117 158 200 245 297 358
#     4  10  20  41  66  86 116 159 198 238 296 355
#     4  10  20  36  61  91 123 158 203 248 297 356
#     4  12  28  43  64  91 121 155 198 248 298 355
#     4  10  21  36  61  89 123 159 198 252 301 354
#     4   8  16  33  55  85 119 158 198 241 298 354
#     4  11  25  44  63  88 122 158 200 250 303 355
#
# _framework density 19.703939999999999
#
# number of rings (size 3 to 8) (size 9 to 14) (size 15 to 20)
#    0.000    1.857    1.429    1.714    4.000    2.857 
#    0.000    0.714    0.000    4.286    0.000    0.000 
#    0.000    0.000    0.000    0.000    0.000    0.000 
#
# Total GULP energy -156001.609003 kJ/mol
# GULP energy per Si atom -5571.486036 kJ/mol
# Density = 1.965909 g / cm^3
# Si number density = 19.703940 Si / 1000 Ang^3
#
#
#
# Elastic Constant Matrix: (Units=GPa)
#
#
# Indices 1 2 3 4 5 6 
#
# 1 122.1728 23.0476 95.2502 0.0005 12.8997 -0.0002
# 2 23.0476 36.7611 45.6143 -0.0002 7.0881 0.0001
# 3 95.2502 45.6143 206.2287 -0.0012 8.1292 0.0006
# 4 0.0005 -0.0002 -0.0012 -62.8042 0.0002 38.1147
# 5 12.8997 7.0881 8.1292 0.0002 37.3518 -0.0001
# 6 -0.0002 0.0001 0.0006 38.1147 -0.0001 8.8703
#
#
#
# Elastic Compliance Matrix: (Units=1/GPa)
#
#
# Indices 1 2 3 4 5 6 
#
# 1 0.013175 -0.000342 -0.005883 0.000000 -0.003205 0.000000
# 2 -0.000342 0.038595 -0.008164 0.000000 -0.005429 0.000000
# 3 -0.005883 -0.008164 0.009311 0.000000 0.001555 0.000000
# 4 0.000000 0.000000 0.000000 -0.004413 0.000000 0.018964
# 5 -0.003205 -0.005429 0.001555 0.000000 0.028571 0.000000
# 6 0.000000 0.000000 0.000000 0.018964 0.000000 0.031249
#
#
# Mechanical properties :
#
#
# Convention : Reuss Voigt Hill
#
# Bulk Modulus (GPa) = 30.95908 76.99853 53.97881
# Shear Modulus (GPa) = 32.04468 10.10027 21.07247
#
# Velocity S-wave (km/s) = 4.03713 2.26653 3.27380
# Velocity P-wave (km/s) = 6.12188 6.78322 6.46102
#
# Compressibility (1/GPa) = 0.03230070
#
# Stress axis : x y z
#
# Youngs Moduli (GPa) = 75.90390 25.91030 107.40436
#
# Poissons Ratio (x) = 0.00887 0.63184
# Poissons Ratio (y) = 0.02599 0.87689
# Poissons Ratio (z) = 0.44653 0.21154
#
# Static dielectric constant tensor:
#      x y z
#    x 1.636760 0.000000 -0.002230 
#    y 0.000000 1.732750 0.000000 
#    z -0.002230 0.000000 1.766380 
# 
# From -- ./inp_files/356750.got.cif
#   From: 2010.05.17/outbox.cif.g08.bks.cpg/sg12_179_cif.got.tgz:356750.got - 2010.06.03 13:09:07.
