data_PCOD9199034
_publ_section_title
;
Structure prediction by ZEFSAII (Michael W. Deem and Ramdas Pophale) SiO2 
 PCOD9199034
Probable space group: C 2/M
;
_chemical_formula_sum "Si O2"
_cell_formula_units_Z 40
_cell_length_a 16.462644
_cell_length_b 10.185598
_cell_length_c 21.044367
_cell_angle_alpha 90.000000
_cell_angle_beta 32.390774
_cell_angle_gamma 90.000000
_cell_volume 1890.323783
_symmetry_space_group_name_H-M "C 2/M"
_symmetry_group_IT_number 12
_symmetry_cell_setting 'monoclinic'
loop_
_space_group_symop_operation_xyz
x,y,z
-x,y,-z
-x,-y,-z
x,-y,z
1/2+x,1/2+y,z
1/2-x,1/2+y,-z
1/2-x,1/2-y,-z
1/2+x,1/2-y,z
loop_
_atom_site_type_symbol
_atom_site_label
_atom_site_fract_x
_atom_site_fract_y
_atom_site_fract_z
Si Si1 0.583312 0.348752 0.055384
Si Si2 0.534905 0.643426 0.349354
Si Si3 0.723314 0.145164 0.621343
Si Si4 0.098083 0.732505 0.184835
Si Si5 0.747109 0.843044 0.281253
O O1 0.587744 0.500000 0.071995
O O2 0.593072 0.266161 0.113688
O O3 0.415180 0.325961 0.139300
O O4 0.733738 0.323586 0.915190
O O5 0.582380 0.500000 0.343179
O O6 0.357017 0.656110 0.481806
O O7 0.572722 0.649794 0.250136
O O8 0.622284 0.764000 0.324151
O O9 0.554334 0.149089 0.704403
O O10 0.743987 0.264676 0.657444
O O11 0.740776 0.000000 0.640340
O O12 0.718572 0.000000 0.306544
#
# Coordination Sequence:
#
# PCOD9199034 Si02
#       5
#     8   8   8   8   8
#     4   9  19  37  58  80 110 147 187 233 283 336
#     4  11  23  38  57  85 119 151 188 235 282 332
#     4  10  21  38  60  85 115 151 189 231 282 339
#     4  10  20  36  59  85 111 146 189 233 283 338
#     4  10  22  39  59  84 115 152 191 232 281 336
#
# _framework density 21.160395999999999
#
# number of rings (size 3 to 8) (size 9 to 14) (size 15 to 20)
#    0.000    2.000    0.000    3.000    0.000    6.400 
#    0.000    6.000    0.000    0.000    0.000    0.000 
#    0.000    0.000    0.000    0.000    0.000    0.000 
#
# Total GULP energy -111419.339851 kJ/mol
# GULP energy per Si atom -5570.966993 kJ/mol
# Density = 2.111223 g / cm^3
# Si number density = 21.160396 Si / 1000 Ang^3
#
#
#
# Elastic Constant Matrix: (Units=GPa)
#
#
# Indices 1 2 3 4 5 6 
#
# 1 20.2690 15.0828 8.8273 0.0001 -9.8906 0.0005
# 2 15.0828 123.2115 16.4590 0.0001 -21.9615 0.0009
# 3 8.8273 16.4590 83.0367 0.0003 -37.2795 0.0023
# 4 0.0001 0.0001 0.0003 20.6696 -0.0001 28.3524
# 5 -9.8906 -21.9615 -37.2795 -0.0001 19.2638 -0.0007
# 6 0.0005 0.0009 0.0023 28.3524 -0.0007 226.2061
#
#
#
# Elastic Compliance Matrix: (Units=1/GPa)
#
#
# Indices 1 2 3 4 5 6 
#
# 1 -0.149830 -0.086966 -0.349764 0.000002 -0.852939 0.000001
# 2 -0.086966 -0.022637 -0.136456 0.000001 -0.334529 0.000000
# 3 -0.349764 -0.136456 -0.565565 0.000004 -1.429632 0.000002
# 4 0.000002 0.000001 0.000004 0.058425 0.000009 -0.007323
# 5 -0.852939 -0.334529 -1.429632 0.000009 -3.534032 0.000005
# 6 0.000001 0.000000 0.000002 -0.007323 0.000005 0.005339
#
#
# Mechanical properties :
#
#
# Convention : Reuss Voigt Hill
#
# Bulk Modulus (GPa) = -0.53067 34.13946 16.80440
# Shear Modulus (GPa) = -1.35499 65.63776 32.14139
#
# Velocity S-wave (km/s) = -0.80108 5.57553 3.90159
# Velocity P-wave (km/s) = 1.05213 7.59061 5.31556
#
# Compressibility (1/GPa) = -1.88440292
#
# Stress axis : x y z
#
# Youngs Moduli (GPa) = -6.67423 -44.17517 -1.76814
#
# Poissons Ratio (x) = -3.84175 -0.61843
# Poissons Ratio (y) = -0.58043 -0.24127
# Poissons Ratio (z) = -2.33440 -6.02795
#
# Static dielectric constant tensor:
#      x y z
#    x 1.791860 0.000000 -0.017650 
#    y 0.000000 1.765740 0.000000 
#    z -0.017650 0.000000 1.780570 
# 
# From -- ./inp_files/71340.got.cif
#   From: 2010.05.17/outbox.cif.g08.bks.cpg/sg12_36_cif.got.tgz:71340.got - 2010.06.03 13:09:07.
