data_PCOD9199192
_publ_section_title
;
Structure prediction by ZEFSAII (Michael W. Deem and Ramdas Pophale) SiO2 
 PCOD9199192
Probable space group: C 2/M
;
_chemical_formula_sum "Si O2"
_cell_formula_units_Z 64
_cell_length_a 29.151536
_cell_length_b 8.806461
_cell_length_c 18.468601
_cell_angle_alpha 90.000000
_cell_angle_beta 43.087911
_cell_angle_gamma 90.000000
_cell_volume 3238.871121
_symmetry_space_group_name_H-M "C 2/M"
_symmetry_group_IT_number 12
_symmetry_cell_setting 'monoclinic'
loop_
_space_group_symop_operation_xyz
x,y,z
-x,y,-z
-x,-y,-z
x,-y,z
1/2+x,1/2+y,z
1/2-x,1/2+y,-z
1/2-x,1/2-y,-z
1/2+x,1/2-y,z
loop_
_atom_site_type_symbol
_atom_site_label
_atom_site_fract_x
_atom_site_fract_y
_atom_site_fract_z
Si Si1 0.822067 0.319034 0.896336
Si Si2 0.944829 0.318895 0.345518
Si Si3 0.787884 0.681267 0.524590
Si Si4 0.785116 0.317573 0.252083
Si Si5 0.678727 0.320953 0.258812
Si Si6 0.562941 0.175099 0.480453
Si Si7 0.568418 0.183532 0.961992
Si Si8 0.432703 0.319846 0.876690
O O1 0.820874 0.500000 0.903843
O O2 0.835071 0.270537 0.798405
O O3 0.878047 0.253699 0.885862
O O4 0.750000 0.250000 0.000000
O O5 0.953736 0.500000 0.321944
O O6 0.866598 0.280331 0.427580
O O7 0.960443 0.288143 0.411758
O O8 0.994457 0.227038 0.237690
O O9 0.782744 0.500000 0.530274
O O10 0.750000 0.750000 0.500000
O O11 0.755098 0.742775 0.636004
O O12 0.780406 0.500000 0.265602
O O13 0.748545 0.279678 0.218156
O O14 0.863430 0.275265 0.159330
O O15 0.679526 0.500000 0.241323
O O16 0.621022 0.281861 0.383249
O O17 0.500000 0.182313 0.500000
O O18 0.588478 0.000000 0.452726
O O19 0.573289 0.254589 0.035742
O O20 0.567601 0.000000 0.969930
O O21 0.500000 0.229106 0.000000
O O22 0.424169 0.500000 0.886662
#
# Coordination Sequence:
#
# PCOD9199192 Si02
#       8
#     8   8   8   8   8   8   8   8
#     4  12  25  43  67  94 129 171 218 267 319 384
#     4  10  22  41  63  91 130 175 216 260 321 389
#     4  11  24  41  65  94 128 170 215 265 324 385
#     4  10  22  41  65  95 129 166 210 264 321 385
#     4  11  22  37  61  93 128 164 207 259 319 381
#     4  10  20  36  59  87 120 163 210 254 309 374
#     4  10  23  44  69  94 126 172 219 266 325 391
#     4  12  26  43  66  98 134 171 216 273 328 383
#
# _framework density 19.759972000000001
#
# number of rings (size 3 to 8) (size 9 to 14) (size 15 to 20)
#    0.000    1.250    1.250    4.500    1.750    5.000 
#    0.000    0.000    0.000    0.000    0.000    0.000 
#    0.000    0.000    0.000    0.000    0.000    0.000 
#
# Total GULP energy -178989.140916 kJ/mol
# GULP energy per Si atom -5593.410654 kJ/mol
# Density = 1.971500 g / cm^3
# Si number density = 19.759972 Si / 1000 Ang^3
#
#
#
# Elastic Constant Matrix: (Units=GPa)
#
#
# Indices 1 2 3 4 5 6 
#
# 1 124.9822 49.7966 46.2507 0.0017 -3.5853 0.0003
# 2 49.7966 66.6557 42.6440 0.0220 -5.0590 -0.0094
# 3 46.2507 42.6440 100.9015 0.0106 -10.0980 -0.0042
# 4 0.0017 0.0220 0.0106 36.7180 -0.0051 3.2300
# 5 -3.5853 -5.0590 -10.0980 -0.0051 31.5109 0.0024
# 6 0.0003 -0.0094 -0.0042 3.2300 0.0024 28.6448
#
#
#
# Elastic Compliance Matrix: (Units=1/GPa)
#
#
# Indices 1 2 3 4 5 6 
#
# 1 0.011780 -0.007337 -0.002358 0.000005 -0.000593 -0.000003
# 2 -0.007337 0.025140 -0.007172 -0.000013 0.000903 0.000009
# 3 -0.002358 -0.007172 0.014340 0.000001 0.003176 -0.000001
# 4 0.000005 -0.000013 0.000001 0.027507 0.000003 -0.003102
# 5 -0.000593 0.000903 0.003176 0.000003 0.032830 -0.000002
# 6 -0.000003 0.000009 -0.000001 -0.003102 -0.000002 0.035260
#
#
# Mechanical properties :
#
#
# Convention : Reuss Voigt Hill
#
# Bulk Modulus (GPa) = 57.05395 63.32466 60.18931
# Shear Modulus (GPa) = 26.81907 29.63128 28.22517
#
# Velocity S-wave (km/s) = 3.68807 3.87662 3.78352
# Velocity P-wave (km/s) = 6.86091 7.22178 7.04365
#
# Compressibility (1/GPa) = 0.01752727
#
# Stress axis : x y z
#
# Youngs Moduli (GPa) = 84.88944 39.77673 69.73307
#
# Poissons Ratio (x) = 0.29183 0.16445
# Poissons Ratio (y) = 0.62282 0.50010
# Poissons Ratio (z) = 0.20019 0.28526
#
# Static dielectric constant tensor:
#      x y z
#    x 1.679550 0.000000 -0.010770 
#    y 0.000000 1.669020 0.000000 
#    z -0.010770 0.000000 1.681820 
# 
# From -- ./inp_files/295559.got.cif
#   From: 2010.05.17/outbox.cif.g08.bks.cpg/sg12_148_cif.got.tgz:295559.got - 2010.06.03 13:09:07.
