data_PCOD9199874
_publ_section_title
;
Structure prediction by ZEFSAII (Michael W. Deem and Ramdas Pophale) SiO2 
 PCOD9199874
Probable space group: C 2/M
;
_chemical_formula_sum "Si O2"
_cell_formula_units_Z 60
_cell_length_a 5.542299
_cell_length_b 25.520635
_cell_length_c 19.170397
_cell_angle_alpha 90.000000
_cell_angle_beta 103.343592
_cell_angle_gamma 90.000000
_cell_volume 2638.316938
_symmetry_space_group_name_H-M "C 2/M"
_symmetry_group_IT_number 12
_symmetry_cell_setting 'monoclinic'
loop_
_space_group_symop_operation_xyz
x,y,z
-x,y,-z
-x,-y,-z
x,-y,z
1/2+x,1/2+y,z
1/2-x,1/2+y,-z
1/2-x,1/2-y,-z
1/2+x,1/2-y,z
loop_
_atom_site_type_symbol
_atom_site_label
_atom_site_fract_x
_atom_site_fract_y
_atom_site_fract_z
Si Si1 0.447690 0.890587 0.386344
Si Si2 0.065752 0.379399 0.239833
Si Si3 0.274799 0.563091 0.035398
Si Si4 0.310825 0.278781 0.289223
Si Si5 0.497755 0.443583 0.683100
Si Si6 0.843027 0.941775 0.830175
Si Si7 0.208368 0.500000 0.452527
Si Si8 0.225608 0.800777 0.548966
O O1 0.448979 0.867204 0.307573
O O2 0.546273 0.840347 0.432851
O O3 0.161915 0.906514 0.376867
O O4 0.618887 0.943463 0.409384
O O5 0.248553 0.331228 0.241664
O O6 0.235990 0.428096 0.271835
O O7 0.863156 0.397719 0.171289
O O8 0.259349 0.500000 0.027008
O O9 0.391168 0.572303 0.119767
O O10 0.500000 0.580762 0.000000
O O11 0.000000 0.583595 0.000000
O O12 0.557597 0.254615 0.272967
O O13 0.346515 0.287549 0.375351
O O14 0.504515 0.500000 0.649970
O O15 0.353938 0.446536 0.747484
O O16 0.773689 0.000000 0.853226
O O17 0.500000 0.500000 0.500000
O O18 0.000000 0.500000 0.500000
O O19 0.250000 0.750000 0.500000
O O20 0.000000 0.831969 0.500000
#
# Coordination Sequence:
#
# PCOD9199874 Si02
#       8
#     8   8   8   8   8   8   4   8
#     4  10  24  41  58  86 111 152 194 249 306 364
#     4  10  23  36  63  85 118 155 199 255 299 357
#     4   9  18  31  50  78 125 174 206 240 280 330
#     4  11  25  43  63  88 117 148 190 246 312 368
#     4  10  20  36  62  85 116 159 202 250 295 351
#     4   9  19  34  53  89 122 165 215 240 289 345
#     4  12  28  46  62  84 114 152 194 246 302 372
#     4  11  22  40  62  84 110 145 192 245 305 379
#
# _framework density 22.741771
#
# number of rings (size 3 to 8) (size 9 to 14) (size 15 to 20)
#    0.000    1.867    2.000    0.800   11.200    0.533 
#    0.000    0.000    0.000    0.000    0.000    0.000 
#    0.000    3.200    0.000    0.000    0.000    0.000 
#
# Total GULP energy -167224.299517 kJ/mol
# GULP energy per Si atom -5574.143317 kJ/mol
# Density = 2.269001 g / cm^3
# Si number density = 22.741771 Si / 1000 Ang^3
#
#
#
# Elastic Constant Matrix: (Units=GPa)
#
#
# Indices 1 2 3 4 5 6 
#
# 1 80.6169 8.5988 38.4356 0.0000 36.9271 0.0000
# 2 8.5988 65.8990 39.5259 0.0000 15.3097 0.0000
# 3 38.4356 39.5259 96.9547 0.0000 38.5812 0.0000
# 4 0.0000 0.0000 0.0000 12.4370 0.0000 10.2912
# 5 36.9271 15.3097 38.5812 0.0000 42.6777 0.0000
# 6 0.0000 0.0000 0.0000 10.2912 0.0000 31.2675
#
#
#
# Elastic Compliance Matrix: (Units=1/GPa)
#
#
# Indices 1 2 3 4 5 6 
#
# 1 0.021123 0.002860 -0.002903 0.000000 -0.016678 0.000000
# 2 0.002860 0.020476 -0.008705 0.000000 -0.001950 0.000000
# 3 -0.002903 -0.008705 0.019947 0.000000 -0.012398 0.000000
# 4 0.000000 0.000000 0.000000 0.110499 0.000000 -0.036369
# 5 -0.016678 -0.001950 -0.012398 0.000000 0.049770 0.000000
# 6 0.000000 0.000000 0.000000 -0.036369 0.000000 0.043952
#
#
# Mechanical properties :
#
#
# Convention : Reuss Voigt Hill
#
# Bulk Modulus (GPa) = 22.70166 46.28789 34.49477
# Shear Modulus (GPa) = 16.78148 27.73713 22.25931
#
# Velocity S-wave (km/s) = 2.71940 3.49615 3.13195
# Velocity P-wave (km/s) = 4.45693 6.05766 5.31787
#
# Compressibility (1/GPa) = 0.04404965
#
# Stress axis : x y z
#
# Youngs Moduli (GPa) = 47.34202 48.83785 50.13203
#
# Poissons Ratio (x) = -0.13965 0.14551
# Poissons Ratio (y) = -0.13538 0.43641
# Poissons Ratio (z) = 0.13741 0.42514
#
# Static dielectric constant tensor:
#      x y z
#    x 2.040070 0.000000 -0.035100 
#    y 0.000000 1.937870 0.000000 
#    z -0.035100 0.000000 1.903270 
# 
# From -- ./inp_files/331588.got.cif
#   From: 2010.05.17/outbox.cif.g08.bks.cpg/sg12_166_cif.got.tgz:331588.got - 2010.06.03 13:09:07.
