data_PCOD9199265
_publ_section_title
;
Structure prediction by ZEFSAII (Michael W. Deem and Ramdas Pophale) SiO2 
 PCOD9199265
Probable space group: C 2/M
;
_chemical_formula_sum "Si O2"
_cell_formula_units_Z 56
_cell_length_a 14.028280
_cell_length_b 18.466491
_cell_length_c 11.713414
_cell_angle_alpha 90.000000
_cell_angle_beta 59.868936
_cell_angle_gamma 90.000000
_cell_volume 2624.386806
_symmetry_space_group_name_H-M "C 2/M"
_symmetry_group_IT_number 12
_symmetry_cell_setting 'monoclinic'
loop_
_space_group_symop_operation_xyz
x,y,z
-x,y,-z
-x,-y,-z
x,-y,z
1/2+x,1/2+y,z
1/2-x,1/2+y,-z
1/2-x,1/2-y,-z
1/2+x,1/2-y,z
loop_
_atom_site_type_symbol
_atom_site_label
_atom_site_fract_x
_atom_site_fract_y
_atom_site_fract_z
Si Si1 0.766431 0.085274 0.619361
Si Si2 0.422171 0.806689 0.228343
Si Si3 0.602382 0.719221 0.524196
Si Si4 0.662293 0.415276 0.162718
Si Si5 0.048216 0.085610 0.842834
Si Si6 0.673797 0.180836 0.070574
Si Si7 0.259372 0.304925 0.262745
O O1 0.644030 0.119664 0.702603
O O2 0.838498 0.140967 0.501124
O O3 0.819045 0.093658 0.714378
O O4 0.768556 0.000000 0.587258
O O5 0.426018 0.756980 0.339881
O O6 0.546455 0.816387 0.113980
O O7 0.345081 0.761297 0.187901
O O8 0.500000 0.711738 0.500000
O O9 0.687368 0.773323 0.408905
O O10 0.658227 0.500000 0.140579
O O11 0.546220 0.385427 0.186111
O O12 0.762533 0.382552 0.032026
O O13 0.161936 0.127455 0.762671
O O14 0.064740 0.000000 0.815422
O O15 0.000000 0.096174 0.000000
O O16 0.682794 0.175540 0.202365
O O17 0.750000 0.250000 0.000000
#
# Coordination Sequence:
#
# PCOD9199265 Si02
#       7
#     8   8   8   8   8   8   8
#     4  10  23  44  68  95 126 166 212 259 320 383
#     4  11  25  42  63  92 127 167 208 267 318 371
#     4  11  23  44  67  90 127 164 212 270 319 366
#     4  10  22  39  61  94 129 163 208 259 310 374
#     4  10  20  36  59  89 127 164 202 252 311 370
#     4  12  23  36  60  92 124 162 210 254 308 378
#     4  11  22  37  61  88 120 165 209 252 316 375
#
# _framework density 21.338318000000001
#
# number of rings (size 3 to 8) (size 9 to 14) (size 15 to 20)
#    0.000    1.286    2.857    4.286    2.000    2.571 
#    0.000    4.286    0.000    0.857    0.000    0.000 
#    0.000    0.000    0.000    0.000    0.000    0.000 
#
# Total GULP energy -156625.175026 kJ/mol
# GULP energy per Si atom -5593.756251 kJ/mol
# Density = 2.128975 g / cm^3
# Si number density = 21.338318 Si / 1000 Ang^3
#
#
#
# Elastic Constant Matrix: (Units=GPa)
#
#
# Indices 1 2 3 4 5 6 
#
# 1 103.3729 35.8325 18.3166 0.0000 -25.2545 0.0000
# 2 35.8325 113.2884 41.4347 0.0000 -8.5286 0.0000
# 3 18.3166 41.4347 62.3916 0.0000 -9.1537 0.0000
# 4 0.0000 0.0000 0.0000 29.4628 0.0000 -1.9058
# 5 -25.2545 -8.5286 -9.1537 0.0000 37.7162 0.0000
# 6 0.0000 0.0000 0.0000 -1.9058 0.0000 30.0585
#
#
#
# Elastic Compliance Matrix: (Units=1/GPa)
#
#
# Indices 1 2 3 4 5 6 
#
# 1 0.012777 -0.003306 -0.000425 0.000000 0.007705 0.000000
# 2 -0.003306 0.012537 -0.007532 0.000000 -0.001207 0.000000
# 3 -0.000425 -0.007532 0.021633 0.000000 0.003262 0.000000
# 4 0.000000 0.000000 0.000000 0.034081 0.000000 0.002161
# 5 0.007705 -0.001207 0.003262 0.000000 0.032192 0.000000
# 6 0.000000 0.000000 0.000000 0.002161 0.000000 0.033405
#
#
# Mechanical properties :
#
#
# Convention : Reuss Voigt Hill
#
# Bulk Modulus (GPa) = 40.94863 52.24671 46.59767
# Shear Modulus (GPa) = 28.20199 31.67879 29.94039
#
# Velocity S-wave (km/s) = 3.63941 3.85723 3.74990
# Velocity P-wave (km/s) = 6.07390 6.66151 6.37448
#
# Compressibility (1/GPa) = 0.02442084
#
# Stress axis : x y z
#
# Youngs Moduli (GPa) = 78.26382 79.76604 46.22463
#
# Poissons Ratio (x) = 0.26369 0.01966
# Poissons Ratio (y) = 0.25873 0.34817
# Poissons Ratio (z) = 0.03328 0.60082
#
# Static dielectric constant tensor:
#      x y z
#    x 1.810220 0.000000 0.042590 
#    y 0.000000 1.780930 0.000000 
#    z 0.042590 0.000000 1.785380 
# 
# From -- ./inp_files/146030.got.cif
#   From: 2010.05.17/outbox.cif.g08.bks.cpg/sg12_74_cif.got.tgz:146030.got - 2010.06.03 13:09:07.
