data_PCOD9199263
_publ_section_title
;
Structure prediction by ZEFSAII (Michael W. Deem and Ramdas Pophale) SiO2 
 PCOD9199263
Probable space group: C 2/M
;
_chemical_formula_sum "Si O2"
_cell_formula_units_Z 48
_cell_length_a 27.194705
_cell_length_b 13.575535
_cell_length_c 11.134671
_cell_angle_alpha 90.000000
_cell_angle_beta 146.916394
_cell_angle_gamma 90.000000
_cell_volume 2243.890968
_symmetry_space_group_name_H-M "C 2/M"
_symmetry_group_IT_number 12
_symmetry_cell_setting 'monoclinic'
loop_
_space_group_symop_operation_xyz
x,y,z
-x,y,-z
-x,-y,-z
x,-y,z
1/2+x,1/2+y,z
1/2-x,1/2+y,-z
1/2-x,1/2-y,-z
1/2+x,1/2-y,z
loop_
_atom_site_type_symbol
_atom_site_label
_atom_site_fract_x
_atom_site_fract_y
_atom_site_fract_z
Si Si1 0.543543 0.307662 0.922477
Si Si2 0.191597 0.614414 0.683015
Si Si3 0.548676 0.248150 0.482606
Si Si4 0.628283 0.610460 0.310702
Si Si5 0.280455 0.612931 0.129100
Si Si6 0.709951 0.200879 0.225248
O O1 0.522413 0.312941 0.738726
O O2 0.444462 0.316802 0.777031
O O3 0.600344 0.386779 0.114412
O O4 0.608740 0.213369 0.064824
O O5 0.193620 0.500000 0.650082
O O6 0.091602 0.660533 0.491618
O O7 0.248580 0.690735 0.719148
O O8 0.232157 0.620894 0.901762
O O9 0.500000 0.208696 0.500000
O O10 0.632363 0.317860 0.687001
O O11 0.615359 0.500000 0.331114
O O12 0.725839 0.648209 0.547273
O O13 0.307270 0.500000 0.201733
O O14 0.218616 0.645224 0.115349
#
# Coordination Sequence:
#
# PCOD9199263 Si02
#       6
#     8   8   8   8   8   8
#     4  11  22  38  65  93 124 160 205 256 313 366
#     4  10  21  37  56  84 125 169 206 250 308 375
#     4  11  21  37  60  90 126 160 204 258 313 367
#     4  11  24  43  67  94 126 162 212 263 309 372
#     4  10  20  36  59  89 126 164 206 254 309 371
#     4  11  21  40  64  89 126 164 206 257 320 365
#
# _framework density 21.391414000000001
#
# number of rings (size 3 to 8) (size 9 to 14) (size 15 to 20)
#    0.000    1.333    3.333    6.000    0.000    2.667 
#    0.000    1.667    0.000    2.000    0.000    0.000 
#    0.000    0.000    0.000    0.000    0.000    0.000 
#
# Total GULP energy -133862.947028 kJ/mol
# GULP energy per Si atom -5577.622793 kJ/mol
# Density = 2.134273 g / cm^3
# Si number density = 21.391414 Si / 1000 Ang^3
#
#
#
# Elastic Constant Matrix: (Units=GPa)
#
#
# Indices 1 2 3 4 5 6 
#
# 1 40.1573 2.8132 15.9690 0.0000 10.3847 0.0000
# 2 2.8132 88.8994 20.4844 0.0000 1.5249 0.0000
# 3 15.9690 20.4844 92.4461 0.0000 3.4617 0.0000
# 4 0.0000 0.0000 0.0000 15.9925 0.0000 -13.6629
# 5 10.3847 1.5249 3.4617 0.0000 33.9942 0.0000
# 6 0.0000 0.0000 0.0000 -13.6629 0.0000 6.9128
#
#
#
# Elastic Compliance Matrix: (Units=1/GPa)
#
#
# Indices 1 2 3 4 5 6 
#
# 1 0.028935 0.000324 -0.004757 0.000000 -0.008369 0.000000
# 2 0.000324 0.011860 -0.002670 0.000000 -0.000359 0.000000
# 3 -0.004757 -0.002670 0.012218 0.000000 0.000329 0.000000
# 4 0.000000 0.000000 0.000000 -0.090810 0.000000 -0.179484
# 5 -0.008369 -0.000359 0.000329 0.000000 0.031956 0.000000
# 6 0.000000 0.000000 0.000000 -0.179484 0.000000 -0.210086
#
#
# Mechanical properties :
#
#
# Convention : Reuss Voigt Hill
#
# Bulk Modulus (GPa) = 25.76848 33.33733 29.55291
# Shear Modulus (GPa) = -26.48525 23.52898 -1.47814
#
# Velocity S-wave (km/s) = -3.52252 3.32011 -0.83216
# Velocity P-wave (km/s) = 2.11467 5.50598 3.59471
#
# Compressibility (1/GPa) = 0.03880710
#
# Stress axis : x y z
#
# Youngs Moduli (GPa) = 34.55992 84.31768 81.84525
#
# Poissons Ratio (x) = -0.02731 0.38931
# Poissons Ratio (y) = -0.01120 0.21856
# Poissons Ratio (z) = 0.16439 0.22517
#
# Static dielectric constant tensor:
#      x y z
#    x 1.831820 0.000000 -0.023100 
#    y 0.000000 1.758380 0.000000 
#    z -0.023100 0.000000 1.802410 
# 
# From -- ./inp_files/189542.got.cif
#   From: 2010.05.17/outbox.cif.g08.bks.cpg/sg12_95_cif.got.tgz:189542.got - 2010.06.03 13:09:07.
