data_PCOD9199228
_publ_section_title
;
Structure prediction by ZEFSAII (Michael W. Deem and Ramdas Pophale) SiO2 
 PCOD9199228
Probable space group: C 2/M
;
_chemical_formula_sum "Si O2"
_cell_formula_units_Z 56
_cell_length_a 18.652478
_cell_length_b 21.682138
_cell_length_c 10.200372
_cell_angle_alpha 90.000000
_cell_angle_beta 45.493093
_cell_angle_gamma 90.000000
_cell_volume 2942.017491
_symmetry_space_group_name_H-M "C 2/M"
_symmetry_group_IT_number 12
_symmetry_cell_setting 'monoclinic'
loop_
_space_group_symop_operation_xyz
x,y,z
-x,y,-z
-x,-y,-z
x,-y,z
1/2+x,1/2+y,z
1/2-x,1/2+y,-z
1/2-x,1/2-y,-z
1/2+x,1/2-y,z
loop_
_atom_site_type_symbol
_atom_site_label
_atom_site_fract_x
_atom_site_fract_y
_atom_site_fract_z
Si Si1 0.736870 0.426987 0.427221
Si Si2 0.585693 0.656628 0.493341
Si Si3 0.054604 0.213440 0.811599
Si Si4 0.007291 0.679640 0.252993
Si Si5 0.820792 0.268245 0.788754
Si Si6 0.232489 0.670764 0.388630
Si Si7 0.088548 0.569464 0.991419
O O1 0.745130 0.500000 0.436147
O O2 0.639383 0.404736 0.474624
O O3 0.744515 0.390323 0.554910
O O4 0.822298 0.406112 0.214593
O O5 0.500000 0.643593 0.500000
O O6 0.543923 0.684587 0.681833
O O7 0.656348 0.708994 0.333996
O O8 0.174823 0.215332 0.684383
O O9 0.989676 0.275604 0.876651
O O10 0.000000 0.178150 0.000000
O O11 0.075193 0.706534 0.282727
O O12 0.052668 0.614322 0.152063
O O13 0.887352 0.680174 0.433006
O O14 0.767363 0.320539 0.768362
O O15 0.750000 0.250000 0.000000
O O16 0.112903 0.500000 0.007104
O O17 0.000000 0.564796 0.000000
#
# Coordination Sequence:
#
# PCOD9199228 Si02
#       7
#     8   8   8   8   8   8   8
#     4  10  23  41  64  91 123 166 219 261 308 373
#     4  11  22  41  63  93 128 159 210 267 320 379
#     4  11  23  37  59  90 123 163 207 254 320 379
#     4  12  21  36  58  89 127 161 202 255 316 375
#     4  12  24  38  59  95 132 168 201 258 324 392
#     4  11  23  37  59  86 124 162 207 259 313 372
#     4  10  20  36  59  88 120 162 212 257 300 368
#
# _framework density 19.034557
#
# number of rings (size 3 to 8) (size 9 to 14) (size 15 to 20)
#    0.000    1.000    4.286    3.000    2.000    0.286 
#    0.000    0.714    0.000    9.429    0.000    0.000 
#    0.000    0.000    0.000    0.000    0.000    0.000 
#
# Total GULP energy -155930.907502 kJ/mol
# GULP energy per Si atom -5568.960982 kJ/mol
# Density = 1.899123 g / cm^3
# Si number density = 19.034557 Si / 1000 Ang^3
#
#
#
# Elastic Constant Matrix: (Units=GPa)
#
#
# Indices 1 2 3 4 5 6 
#
# 1 152.0241 30.3395 35.9846 0.0000 13.1853 0.0000
# 2 30.3395 55.0095 28.3085 0.0000 3.2982 0.0000
# 3 35.9846 28.3085 112.6734 0.0000 17.0262 0.0000
# 4 0.0000 0.0000 0.0000 23.2325 0.0000 0.0420
# 5 13.1853 3.2982 17.0262 0.0000 27.2964 0.0000
# 6 0.0000 0.0000 0.0000 0.0420 0.0000 19.8137
#
#
#
# Elastic Compliance Matrix: (Units=1/GPa)
#
#
# Indices 1 2 3 4 5 6 
#
# 1 0.007791 -0.003517 -0.001215 0.000000 -0.002581 0.000000
# 2 -0.003517 0.022483 -0.004827 0.000000 0.001993 0.000000
# 3 -0.001215 -0.004827 0.011371 0.000000 -0.005923 0.000000
# 4 0.000000 0.000000 0.000000 0.043043 0.000000 -0.000091
# 5 -0.002581 0.001993 -0.005923 0.000000 0.041335 0.000000
# 6 0.000000 0.000000 0.000000 -0.000091 0.000000 0.050470
#
#
# Mechanical properties :
#
#
# Convention : Reuss Voigt Hill
#
# Bulk Modulus (GPa) = 44.38925 56.55246 50.47086
# Shear Modulus (GPa) = 24.61606 29.07349 26.84478
#
# Velocity S-wave (km/s) = 3.60005 3.91244 3.75949
# Velocity P-wave (km/s) = 6.37585 7.08410 6.73929
#
# Compressibility (1/GPa) = 0.02252797
#
# Stress axis : x y z
#
# Youngs Moduli (GPa) = 128.35003 44.47829 87.94520
#
# Poissons Ratio (x) = 0.15644 0.10682
# Poissons Ratio (y) = 0.45145 0.42447
# Poissons Ratio (z) = 0.15589 0.21468
#
# Static dielectric constant tensor:
#      x y z
#    x 1.624330 0.000000 0.010760 
#    y 0.000000 1.713470 0.000000 
#    z 0.010760 0.000000 1.708860 
# 
# From -- ./inp_files/79052.got.cif
#   From: 2010.05.17/outbox.cif.g08.bks.cpg/sg12_40_cif.got.tgz:79052.got - 2010.06.03 13:09:07.
