data_PCOD9199216
_publ_section_title
;
Structure prediction by ZEFSAII (Michael W. Deem and Ramdas Pophale) SiO2 
 PCOD9199216
Probable space group: C 2/M
;
_chemical_formula_sum "Si O2"
_cell_formula_units_Z 44
_cell_length_a 28.955955
_cell_length_b 10.030562
_cell_length_c 14.799201
_cell_angle_alpha 90.000000
_cell_angle_beta 29.870421
_cell_angle_gamma 90.000000
_cell_volume 2140.749111
_symmetry_space_group_name_H-M "C 2/M"
_symmetry_group_IT_number 12
_symmetry_cell_setting 'monoclinic'
loop_
_space_group_symop_operation_xyz
x,y,z
-x,y,-z
-x,-y,-z
x,-y,z
1/2+x,1/2+y,z
1/2-x,1/2+y,-z
1/2-x,1/2-y,-z
1/2+x,1/2-y,z
loop_
_atom_site_type_symbol
_atom_site_label
_atom_site_fract_x
_atom_site_fract_y
_atom_site_fract_z
Si Si1 0.000000 0.789448 0.500000
Si Si2 0.848143 0.153850 0.236137
Si Si3 0.871816 0.654230 0.354063
Si Si4 0.667315 0.846686 0.906734
Si Si5 0.290627 0.352798 0.859467
Si Si6 0.018229 0.347535 0.661579
O O1 0.901051 0.859221 0.679310
O O2 0.013890 0.711761 0.570047
O O3 0.895355 0.243799 0.233836
O O4 0.739026 0.147141 0.447741
O O5 0.850989 0.239230 0.139469
O O6 0.880823 0.000000 0.173371
O O7 0.905186 0.500000 0.282034
O O8 0.913642 0.708430 0.377020
O O9 0.757860 0.817126 0.813662
O O10 0.673427 0.000000 0.860853
O O11 0.582642 0.842056 0.121073
O O12 0.251017 0.500000 0.944868
O O13 0.250000 0.250000 0.000000
O O14 0.047781 0.500000 0.600781
#
# Coordination Sequence:
#
# PCOD9199216 Si02
#       6
#     4   8   8   8   8   8
#     4  12  22  40  66  96 129 164 213 272 321 362
#     4  10  20  36  59  88 117 154 199 254 317 368
#     4   9  19  37  59  85 116 155 205 252 303 374
#     4  10  21  39  59  86 122 162 204 251 308 374
#     4  11  24  42  63  92 128 167 211 259 315 376
#     4  10  21  37  61  90 120 163 214 256 308 377
#
# _framework density 20.553553000000001
#
# number of rings (size 3 to 8) (size 9 to 14) (size 15 to 20)
#    0.000    1.818    1.818    2.182    0.000    2.909 
#    0.000    6.364    0.000    0.000    0.000    0.000 
#    0.000    0.000    0.000    0.000    0.000    0.000 
#
# Total GULP energy -122744.728599 kJ/mol
# GULP energy per Si atom -5579.305845 kJ/mol
# Density = 2.050677 g / cm^3
# Si number density = 20.553553 Si / 1000 Ang^3
#
#
#
# Elastic Constant Matrix: (Units=GPa)
#
#
# Indices 1 2 3 4 5 6 
#
# 1 188.1728 105.1102 21.4185 0.0000 8.9670 0.0000
# 2 105.1102 138.5739 26.3503 0.0000 30.4465 0.0000
# 3 21.4185 26.3503 45.8380 0.0000 0.8379 0.0000
# 4 0.0000 0.0000 0.0000 2.5588 0.0000 -4.9121
# 5 8.9670 30.4465 0.8379 0.0000 34.6679 0.0000
# 6 0.0000 0.0000 0.0000 -4.9121 0.0000 28.2765
#
#
#
# Elastic Compliance Matrix: (Units=1/GPa)
#
#
# Indices 1 2 3 4 5 6 
#
# 1 0.009873 -0.008645 0.000264 0.000000 0.005032 0.000000
# 2 -0.008645 0.017824 -0.005964 0.000000 -0.013274 0.000000
# 3 0.000264 -0.005964 0.025038 0.000000 0.004565 0.000000
# 4 0.000000 0.000000 0.000000 0.586355 0.000000 0.101860
# 5 0.005032 -0.013274 0.004565 0.000000 0.039090 0.000000
# 6 0.000000 0.000000 0.000000 0.101860 0.000000 0.053060
#
#
# Mechanical properties :
#
#
# Convention : Reuss Voigt Hill
#
# Bulk Modulus (GPa) = 41.58845 75.37141 58.47993
# Shear Modulus (GPa) = 6.51088 27.74769 17.12928
#
# Velocity S-wave (km/s) = 1.78175 3.67825 2.88999
# Velocity P-wave (km/s) = 4.95086 7.40201 6.29685
#
# Compressibility (1/GPa) = 0.02404513
#
# Stress axis : x y z
#
# Youngs Moduli (GPa) = 101.28356 56.10387 39.93977
#
# Poissons Ratio (x) = 0.48501 -0.01055
# Poissons Ratio (y) = 0.87558 0.23821
# Poissons Ratio (z) = -0.02675 0.33462
#
# Static dielectric constant tensor:
#      x y z
#    x 1.759110 0.000000 -0.038000 
#    y 0.000000 1.735580 0.000000 
#    z -0.038000 0.000000 1.750560 
# 
# From -- ./inp_files/295004.got.cif
#   From: 2010.05.17/outbox.cif.g08.bks.cpg/sg12_148_cif.got.tgz:295004.got - 2010.06.03 13:09:07.
