data_PCOD9199164
_publ_section_title
;
Structure prediction by ZEFSAII (Michael W. Deem and Ramdas Pophale) SiO2 
 PCOD9199164
Probable space group: C 2/M
;
_chemical_formula_sum "Si O2"
_cell_formula_units_Z 36
_cell_length_a 17.811318
_cell_length_b 10.191968
_cell_length_c 7.367019
_cell_angle_alpha 90.000000
_cell_angle_beta 111.859699
_cell_angle_gamma 90.000000
_cell_volume 1241.194701
_symmetry_space_group_name_H-M "C 2/M"
_symmetry_group_IT_number 12
_symmetry_cell_setting 'monoclinic'
loop_
_space_group_symop_operation_xyz
x,y,z
-x,y,-z
-x,-y,-z
x,-y,z
1/2+x,1/2+y,z
1/2-x,1/2+y,-z
1/2-x,1/2-y,-z
1/2+x,1/2-y,z
loop_
_atom_site_type_symbol
_atom_site_label
_atom_site_fract_x
_atom_site_fract_y
_atom_site_fract_z
Si Si1 0.870166 0.347370 0.677842
Si Si2 0.552212 0.500000 0.777500
Si Si3 0.882255 0.000000 0.755128
Si Si4 0.037368 0.288008 0.724645
Si Si5 0.252332 0.299908 0.746557
Si Si6 0.826029 0.500000 0.068805
O O1 0.892871 0.500000 0.697499
O O2 0.827534 0.318517 0.445471
O O3 0.796231 0.339693 0.759699
O O4 0.956491 0.276195 0.775695
O O5 0.454061 0.500000 0.676476
O O6 0.576205 0.643604 0.729973
O O7 0.579380 0.500000 0.010799
O O8 0.822508 0.123155 0.695500
O O9 0.101203 0.386257 0.865163
O O10 0.000000 0.334933 0.500000
O O11 0.238690 0.384001 0.912620
#
# Coordination Sequence:
#
# PCOD9199164 Si02
#       6
#     8   4   4   8   8   4
#     4  11  19  33  61  93 122 155 205 254 309 358
#     4  11  25  38  59  90 118 175 201 250 289 377
#     4  10  20  42  62  76 124 166 214 231 303 366
#     4  12  21  38  61  95 129 152 201 257 317 365
#     4  10  20  36  59  87 117 167 200 247 301 365
#     4  11  21  38  61  89 124 159 189 251 333 358
#
# _framework density 29.004314000000001
#
# number of rings (size 3 to 8) (size 9 to 14) (size 15 to 20)
#    0.000    1.111    7.778    0.667    0.000    0.000 
#    2.000    4.444    2.444    2.667    0.000    0.000 
#    0.000    0.000    0.000    0.000    0.000    0.000 
#
# Total GULP energy -100261.370152 kJ/mol
# GULP energy per Si atom -5570.076120 kJ/mol
# Density = 2.893830 g / cm^3
# Si number density = 29.004314 Si / 1000 Ang^3
#
#
#
# Elastic Constant Matrix: (Units=GPa)
#
#
# Indices 1 2 3 4 5 6 
#
# 1 142.8048 19.6520 5.1283 0.0000 22.1450 0.0000
# 2 19.6520 95.5779 -20.3433 0.0000 16.4687 0.0000
# 3 5.1283 -20.3433 115.9881 0.0000 8.8411 0.0000
# 4 0.0000 0.0000 0.0000 -97.5221 0.0000 6.3015
# 5 22.1450 16.4687 8.8411 0.0000 55.8861 0.0000
# 6 0.0000 0.0000 0.0000 6.3015 0.0000 62.8534
#
#
#
# Elastic Compliance Matrix: (Units=1/GPa)
#
#
# Indices 1 2 3 4 5 6 
#
# 1 0.007581 -0.001184 -0.000345 0.000000 -0.002601 0.000000
# 2 -0.001184 0.011795 0.002379 0.000000 -0.003383 0.000000
# 3 -0.000345 0.002379 0.009208 0.000000 -0.002021 0.000000
# 4 0.000000 0.000000 0.000000 -0.010188 0.000000 0.001021
# 5 -0.002601 -0.003383 -0.002021 0.000000 0.020241 0.000000
# 6 0.000000 0.000000 0.000000 0.001021 0.000000 0.015808
#
#
# Mechanical properties :
#
#
# Convention : Reuss Voigt Hill
#
# Bulk Modulus (GPa) = 33.01916 40.36056 36.68986
# Shear Modulus (GPa) = 79.56791 27.57240 53.57015
#
# Velocity S-wave (km/s) = 5.24335 3.08658 4.30230
# Velocity P-wave (km/s) = 6.93295 5.16219 6.11204
#
# Compressibility (1/GPa) = 0.03028544
#
# Stress axis : x y z
#
# Youngs Moduli (GPa) = 131.90585 84.77875 108.59959
#
# Poissons Ratio (x) = 0.10038 0.03743
# Poissons Ratio (y) = 0.15618 -0.25836
# Poissons Ratio (z) = 0.04546 -0.20169
#
# Static dielectric constant tensor:
#      x y z
#    x 2.384760 0.000000 -0.149200 
#    y 0.000000 1.358410 0.000000 
#    z -0.149200 0.000000 2.292530 
# 
# From -- ./inp_files/162861.got.cif
#   From: 2010.05.17/outbox.cif.g08.bks.cpg/sg12_82_cif.got.tgz:162861.got - 2010.06.03 13:09:07.
