data_PCOD9199807
_publ_section_title
;
Structure prediction by ZEFSAII (Michael W. Deem and Ramdas Pophale) SiO2 
 PCOD9199807
Probable space group: C 2/M
;
_chemical_formula_sum "Si O2"
_cell_formula_units_Z 64
_cell_length_a 20.082083
_cell_length_b 8.695394
_cell_length_c 32.133959
_cell_angle_alpha 90.000000
_cell_angle_beta 143.781022
_cell_angle_gamma 90.000000
_cell_volume 3315.555845
_symmetry_space_group_name_H-M "C 2/M"
_symmetry_group_IT_number 12
_symmetry_cell_setting 'monoclinic'
loop_
_space_group_symop_operation_xyz
x,y,z
-x,y,-z
-x,-y,-z
x,-y,z
1/2+x,1/2+y,z
1/2-x,1/2+y,-z
1/2-x,1/2-y,-z
1/2+x,1/2-y,z
loop_
_atom_site_type_symbol
_atom_site_label
_atom_site_fract_x
_atom_site_fract_y
_atom_site_fract_z
Si Si1 0.026546 0.182293 0.218036
Si Si2 0.226991 0.814605 0.765290
Si Si3 0.094414 0.185222 0.013825
Si Si4 0.486891 0.816285 0.878160
Si Si5 0.188181 0.813717 0.509458
Si Si6 0.745157 0.314089 0.630246
Si Si7 0.831581 0.683769 0.175252
Si Si8 0.569345 0.686696 0.608269
O O1 0.987372 0.244816 0.153561
O O2 0.147797 0.251852 0.290997
O O3 0.937455 0.236581 0.207382
O O4 0.034361 0.000000 0.220775
O O5 0.357496 0.773226 0.823819
O O6 0.183165 0.736119 0.784838
O O7 0.151273 0.770411 0.687586
O O8 0.221047 0.000000 0.766649
O O9 0.065093 0.257221 0.954722
O O10 0.088711 0.000000 0.007506
O O11 0.216999 0.226926 0.093033
O O12 0.000000 0.233535 0.000000
O O13 0.493201 0.000000 0.878412
O O14 0.250000 0.750000 0.500000
O O15 0.245518 0.767564 0.582132
O O16 0.057861 0.761587 0.447583
O O17 0.189389 0.000000 0.507885
O O18 0.748910 0.500000 0.633456
O O19 0.630963 0.265462 0.596668
O O20 0.844387 0.500000 0.179506
O O21 0.564576 0.500000 0.604530
#
# Coordination Sequence:
#
# PCOD9199807 Si02
#       8
#     8   8   8   8   8   8   8   8
#     4  12  26  42  62  89 124 162 204 255 310 364
#     4  10  20  36  61  92 123 157 202 253 300 360
#     4  10  21  39  62  90 123 161 203 252 306 362
#     4  11  22  39  65  93 123 159 203 253 305 365
#     4  10  22  38  61  91 125 162 200 246 300 357
#     4  10  20  40  65  89 118 160 209 250 297 360
#     4  11  24  41  62  88 124 162 202 252 307 366
#     4   9  18  37  63  89 119 158 204 247 293 355
#
# _framework density 19.302948000000001
#
# number of rings (size 3 to 8) (size 9 to 14) (size 15 to 20)
#    0.000    1.625    2.500    2.250    1.750    4.250 
#    0.000    0.625    0.000    1.500    0.000    0.000 
#    0.000    0.000    0.000    0.000    0.000    0.000 
#
# Total GULP energy -178832.033786 kJ/mol
# GULP energy per Si atom -5588.501056 kJ/mol
# Density = 1.925901 g / cm^3
# Si number density = 19.302948 Si / 1000 Ang^3
#
#
#
# Elastic Constant Matrix: (Units=GPa)
#
#
# Indices 1 2 3 4 5 6 
#
# 1 113.9481 27.7590 27.2508 0.0000 -13.9724 -0.0001
# 2 27.7590 19.9789 16.5425 0.0001 -6.1568 -0.0002
# 3 27.2508 16.5425 66.2710 0.0000 -15.6370 -0.0001
# 4 0.0000 0.0001 0.0000 18.3983 0.0000 -9.0927
# 5 -13.9724 -6.1568 -15.6370 0.0000 37.8300 0.0000
# 6 -0.0001 -0.0002 -0.0001 -9.0927 0.0000 28.7369
#
#
#
# Elastic Compliance Matrix: (Units=1/GPa)
#
#
# Indices 1 2 3 4 5 6 
#
# 1 0.013438 -0.017510 -0.000727 0.000000 0.001813 0.000000
# 2 -0.017510 0.086507 -0.013959 0.000000 0.001842 0.000001
# 3 -0.000727 -0.013959 0.020248 0.000000 0.005829 0.000000
# 4 0.000000 0.000000 0.000000 0.064428 0.000000 0.020386
# 5 0.001813 0.001842 0.005829 0.000000 0.029813 0.000000
# 6 0.000000 0.000001 0.000000 0.020386 0.000000 0.041249
#
#
# Mechanical properties :
#
#
# Convention : Reuss Voigt Hill
#
# Bulk Modulus (GPa) = 17.92078 38.14472 28.03275
# Shear Modulus (GPa) = 14.76342 25.56943 20.16643
#
# Velocity S-wave (km/s) = 2.76855 3.64351 3.23574
# Velocity P-wave (km/s) = 4.41859 6.12407 5.33986
#
# Compressibility (1/GPa) = 0.05580115
#
# Stress axis : x y z
#
# Youngs Moduli (GPa) = 74.41748 11.55976 49.38661
#
# Poissons Ratio (x) = 0.20241 0.03591
# Poissons Ratio (y) = 1.30304 0.68939
# Poissons Ratio (z) = 0.05411 0.16136
#
# Static dielectric constant tensor:
#      x y z
#    x 1.650860 0.000000 0.007050 
#    y 0.000000 1.652050 0.000000 
#    z 0.007050 0.000000 1.654480 
# 
# From -- ./inp_files/378398.got.cif
#   From: 2010.05.17/outbox.cif.g08.bks.cpg/sg12_190_cif.got.tgz:378398.got - 2010.06.03 13:09:07.
