data_PCOD9199745
_publ_section_title
;
Structure prediction by ZEFSAII (Michael W. Deem and Ramdas Pophale) SiO2 
 PCOD9199745
Probable space group: C 2/M
;
_chemical_formula_sum "Si O2"
_cell_formula_units_Z 60
_cell_length_a 11.486328
_cell_length_b 18.366110
_cell_length_c 13.625386
_cell_angle_alpha 90.000000
_cell_angle_beta 77.962855
_cell_angle_gamma 90.000000
_cell_volume 2811.199466
_symmetry_space_group_name_H-M "C 2/M"
_symmetry_group_IT_number 12
_symmetry_cell_setting 'monoclinic'
loop_
_space_group_symop_operation_xyz
x,y,z
-x,y,-z
-x,-y,-z
x,-y,z
1/2+x,1/2+y,z
1/2-x,1/2+y,-z
1/2-x,1/2-y,-z
1/2+x,1/2-y,z
loop_
_atom_site_type_symbol
_atom_site_label
_atom_site_fract_x
_atom_site_fract_y
_atom_site_fract_z
Si Si1 0.389992 0.309266 0.688141
Si Si2 0.325450 0.085985 0.246390
Si Si3 0.000000 0.708453 0.500000
Si Si4 0.366115 0.171254 0.053734
Si Si5 0.771085 0.295370 0.857555
Si Si6 0.341819 0.918282 0.518085
Si Si7 0.063687 0.082066 0.594516
Si Si8 0.903956 0.418833 0.734683
O O1 0.276053 0.362247 0.688044
O O2 0.427256 0.256110 0.591855
O O3 0.360699 0.262611 0.789863
O O4 0.503578 0.361327 0.677644
O O5 0.321230 0.107747 0.132512
O O6 0.462065 0.102266 0.255275
O O7 0.301802 0.000000 0.265840
O O8 0.096101 0.654176 0.533192
O O9 0.348730 0.247414 0.116394
O O10 0.500000 0.157835 0.000000
O O11 0.297429 0.180946 0.963941
O O12 0.799252 0.366196 0.789230
O O13 0.202132 0.906916 0.551858
O O14 0.392818 0.921900 0.619531
O O15 0.361956 0.000000 0.470578
O O16 0.000000 0.089110 0.500000
O O17 0.045438 0.000000 0.633256
O O18 0.885086 0.500000 0.777487
#
# Coordination Sequence:
#
# PCOD9199745 Si02
#       8
#     8   8   4   8   8   8   8   8
#     4  11  23  40  61  91 124 166 209 257 312 371
#     4  10  22  39  64  93 127 162 205 262 314 375
#     4  12  23  40  63  90 124 166 212 262 303 376
#     4  10  20  36  61  89 123 159 200 249 315 373
#     4  10  21  37  57  90 124 159 198 253 309 371
#     4  10  23  41  60  86 122 165 213 259 306 365
#     4  10  22  42  63  85 118 163 214 263 310 366
#     4  10  20  38  62  90 123 162 204 255 312 368
#
# _framework density 21.343205000000001
#
# number of rings (size 3 to 8) (size 9 to 14) (size 15 to 20)
#    0.000    1.733    3.333    0.600    0.000    4.533 
#    0.000    4.000    0.000    0.400    0.000    0.000 
#    0.000    0.000    0.000    0.000    0.000    0.000 
#
# Total GULP energy -167375.215811 kJ/mol
# GULP energy per Si atom -5579.173860 kJ/mol
# Density = 2.129463 g / cm^3
# Si number density = 21.343205 Si / 1000 Ang^3
#
#
#
# Elastic Constant Matrix: (Units=GPa)
#
#
# Indices 1 2 3 4 5 6 
#
# 1 75.3276 26.8762 15.8729 0.0000 -8.7811 0.0000
# 2 26.8762 120.1594 48.8845 0.0000 -17.4536 0.0000
# 3 15.8729 48.8845 110.1626 0.0000 -7.9958 0.0000
# 4 0.0000 0.0000 0.0000 21.4063 0.0000 -17.5536
# 5 -8.7811 -17.4536 -7.9958 0.0000 29.7728 0.0000
# 6 0.0000 0.0000 0.0000 -17.5536 0.0000 23.5280
#
#
#
# Elastic Compliance Matrix: (Units=1/GPa)
#
#
# Indices 1 2 3 4 5 6 
#
# 1 0.014665 -0.002586 -0.000777 0.000000 0.002600 0.000000
# 2 -0.002586 0.011344 -0.004318 0.000000 0.004728 0.000000
# 3 -0.000777 -0.004318 0.011122 0.000000 0.000226 0.000000
# 4 0.000000 0.000000 0.000000 0.120336 0.000000 0.089779
# 5 0.002600 0.004728 0.000226 0.000000 0.037187 0.000000
# 6 0.000000 0.000000 0.000000 0.089779 0.000000 0.109484
#
#
# Mechanical properties :
#
#
# Convention : Reuss Voigt Hill
#
# Bulk Modulus (GPa) = 45.93717 54.32408 50.13063
# Shear Modulus (GPa) = 15.30193 29.20916 22.25554
#
# Velocity S-wave (km/s) = 2.68049 3.70340 3.23266
# Velocity P-wave (km/s) = 5.58120 6.61776 6.12146
#
# Compressibility (1/GPa) = 0.02176886
#
# Stress axis : x y z
#
# Youngs Moduli (GPa) = 68.18980 88.15004 89.91186
#
# Poissons Ratio (x) = 0.22800 0.06982
# Poissons Ratio (y) = 0.17637 0.38826
# Poissons Ratio (z) = 0.05295 0.38065
#
# Static dielectric constant tensor:
#      x y z
#    x 1.776860 0.000000 -0.001190 
#    y 0.000000 1.834130 0.000000 
#    z -0.001190 0.000000 1.813020 
# 
# From -- ./inp_files/206645.got.cif
#   From: 2010.05.17/outbox.cif.g08.bks.cpg/sg12_104_cif.got.tgz:206645.got - 2010.06.03 13:09:07.
