data_PCOD9199008
_publ_section_title
;
Structure prediction by ZEFSAII (Michael W. Deem and Ramdas Pophale) SiO2 
 PCOD9199008
Probable space group: C 2/M
;
_chemical_formula_sum "Si O2"
_cell_formula_units_Z 56
_cell_length_a 19.517233
_cell_length_b 9.858595
_cell_length_c 14.888133
_cell_angle_alpha 90.000000
_cell_angle_beta 113.327098
_cell_angle_gamma 90.000000
_cell_volume 2630.503011
_symmetry_space_group_name_H-M "C 2/M"
_symmetry_group_IT_number 12
_symmetry_cell_setting 'monoclinic'
loop_
_space_group_symop_operation_xyz
x,y,z
-x,y,-z
-x,-y,-z
x,-y,z
1/2+x,1/2+y,z
1/2-x,1/2+y,-z
1/2-x,1/2-y,-z
1/2+x,1/2-y,z
loop_
_atom_site_type_symbol
_atom_site_label
_atom_site_fract_x
_atom_site_fract_y
_atom_site_fract_z
Si Si1 0.234901 0.644784 0.369250
Si Si2 0.912522 0.339217 0.056218
Si Si3 0.819229 0.249129 0.837707
Si Si4 0.071675 0.343066 0.366629
Si Si5 0.654109 0.841699 0.789279
Si Si6 0.371373 0.836566 0.419754
Si Si7 0.962678 0.844451 0.815792
O O1 0.271133 0.500000 0.410014
O O2 0.206523 0.645824 0.251795
O O3 0.159910 0.657648 0.387742
O O4 0.293546 0.765395 0.406364
O O5 0.930690 0.500000 0.068881
O O6 0.872710 0.291342 0.128197
O O7 0.985552 0.246229 0.093172
O O8 0.859058 0.312395 0.944483
O O9 0.742898 0.176385 0.826004
O O10 0.880139 0.159411 0.816419
O O11 0.045489 0.500000 0.339493
O O12 0.069547 0.307725 0.470777
O O13 0.037598 0.237363 0.278777
O O14 0.616275 0.789807 0.677022
O O15 0.637033 0.000000 0.782214
O O16 0.362852 0.000000 0.414643
O O17 0.987126 0.000000 0.819675
#
# Coordination Sequence:
#
# PCOD9199008 Si02
#       7
#     8   8   8   8   8   8   8
#     4   9  17  28  46  78 113 141 178 227 279 333
#     4  11  23  39  59  82 114 154 190 228 277 333
#     4  10  20  36  59  84 112 146 187 232 278 330
#     4   9  18  33  53  77 108 146 185 228 277 330
#     4   9  19  36  58  86 115 146 188 233 276 327
#     4   9  17  31  52  78 109 145 185 228 275 327
#     4  11  24  39  58  85 114 146 187 235 283 332
#
# _framework density 21.288703999999999
#
# number of rings (size 3 to 8) (size 9 to 14) (size 15 to 20)
#    0.000    2.286    0.000    2.571    0.000    8.000 
#    0.000    4.286    0.000    4.286    0.000    0.000 
#    0.000    0.000    0.000    0.000    0.000    0.000 
#
# Total GULP energy -156200.561265 kJ/mol
# GULP energy per Si atom -5578.591474 kJ/mol
# Density = 2.124025 g / cm^3
# Si number density = 21.288704 Si / 1000 Ang^3
#
#
#
# Elastic Constant Matrix: (Units=GPa)
#
#
# Indices 1 2 3 4 5 6 
#
# 1 70.7346 7.7735 36.6311 0.0000 -8.2822 0.0000
# 2 7.7735 79.6994 63.0886 0.0000 1.4668 0.0000
# 3 36.6311 63.0886 167.8380 0.0000 -4.6670 0.0000
# 4 0.0000 0.0000 0.0000 13.8334 0.0000 3.1509
# 5 -8.2822 1.4668 -4.6670 0.0000 24.0988 0.0000
# 6 0.0000 0.0000 0.0000 3.1509 0.0000 10.8711
#
#
#
# Elastic Compliance Matrix: (Units=1/GPa)
#
#
# Indices 1 2 3 4 5 6 
#
# 1 0.016643 0.001504 -0.004063 0.000000 0.004841 0.000000
# 2 0.001504 0.018137 -0.007201 0.000000 -0.001982 0.000000
# 3 -0.004063 -0.007201 0.009577 0.000000 0.000897 0.000000
# 4 0.000000 0.000000 0.000000 0.077399 0.000000 -0.022434
# 5 0.004841 -0.001982 0.000897 0.000000 0.043454 0.000000
# 6 0.000000 0.000000 0.000000 -0.022434 0.000000 0.098489
#
#
# Mechanical properties :
#
#
# Convention : Reuss Voigt Hill
#
# Bulk Modulus (GPa) = 40.26324 59.25092 49.75708
# Shear Modulus (GPa) = 17.15280 23.81259 20.48270
#
# Velocity S-wave (km/s) = 2.84161 3.34811 3.10520
# Velocity P-wave (km/s) = 5.45163 6.54515 6.02326
#
# Compressibility (1/GPa) = 0.02483655
#
# Stress axis : x y z
#
# Youngs Moduli (GPa) = 60.08501 55.13595 104.42185
#
# Poissons Ratio (x) = -0.08292 0.42427
# Poissons Ratio (y) = -0.09036 0.75192
# Poissons Ratio (z) = 0.24413 0.39702
#
# Static dielectric constant tensor:
#      x y z
#    x 1.808180 0.000000 -0.030610 
#    y 0.000000 1.742890 0.000000 
#    z -0.030610 0.000000 1.810620 
# 
# From -- ./inp_files/239034.got.cif
#   From: 2010.05.17/outbox.cif.g08.bks.cpg/sg12_120_cif.got.tgz:239034.got - 2010.06.03 13:09:07.
