data_PCOD9199573
_publ_section_title
;
Structure prediction by ZEFSAII (Michael W. Deem and Ramdas Pophale) SiO2 
 PCOD9199573
Probable space group: C 2/M
;
_chemical_formula_sum "Si O2"
_cell_formula_units_Z 64
_cell_length_a 29.772294
_cell_length_b 8.584624
_cell_length_c 12.797098
_cell_angle_alpha 90.000000
_cell_angle_beta 91.226393
_cell_angle_gamma 90.000000
_cell_volume 3269.983625
_symmetry_space_group_name_H-M "C 2/M"
_symmetry_group_IT_number 12
_symmetry_cell_setting 'monoclinic'
loop_
_space_group_symop_operation_xyz
x,y,z
-x,y,-z
-x,-y,-z
x,-y,z
1/2+x,1/2+y,z
1/2-x,1/2+y,-z
1/2-x,1/2-y,-z
1/2+x,1/2-y,z
loop_
_atom_site_type_symbol
_atom_site_label
_atom_site_fract_x
_atom_site_fract_y
_atom_site_fract_z
Si Si1 0.763132 0.811112 0.615923
Si Si2 0.023634 0.678649 0.612696
Si Si3 0.113261 0.182269 0.545184
Si Si4 0.586318 0.814523 0.111562
Si Si5 0.495536 0.314947 0.179814
Si Si6 0.864637 0.187368 0.682218
Si Si7 0.824536 0.684575 0.282625
Si Si8 0.896804 0.688244 0.117849
O O1 0.750000 0.750000 0.500000
O O2 0.813063 0.766862 0.655362
O O3 0.725840 0.757102 0.698554
O O4 0.762110 0.000000 0.610307
O O5 0.036673 0.500000 0.637570
O O6 0.067254 0.785045 0.602511
O O7 0.000000 0.680065 0.500000
O O8 0.994263 0.746083 0.704657
O O9 0.109484 0.228052 0.423902
O O10 0.150259 0.280925 0.607466
O O11 0.125419 0.000000 0.550067
O O12 0.536472 0.741174 0.110248
O O13 0.613855 0.760466 0.214072
O O14 0.581049 0.000000 0.114397
O O15 0.610420 0.771873 0.003979
O O16 0.494533 0.500000 0.181724
O O17 0.446152 0.251266 0.149694
O O18 0.866493 0.000000 0.694355
O O19 0.821399 0.500000 0.265170
O O20 0.857214 0.746785 0.192700
O O21 0.898626 0.500000 0.127284
#
# Coordination Sequence:
#
# PCOD9199573 Si02
#       8
#     8   8   8   8   8   8   8   8
#     4  10  20  36  60  90 120 155 194 238 295 357
#     4  11  23  37  54  80 116 157 198 236 286 351
#     4  11  21  34  55  84 118 152 189 238 294 345
#     4  11  24  41  61  84 115 157 204 248 293 349
#     4  12  24  38  60  88 117 152 197 246 298 351
#     4  10  22  39  58  86 125 157 192 246 300 351
#     4  10  20  36  61  87 115 152 192 236 291 351
#     4  10  22  41  62  86 117 155 202 250 290 342
#
# _framework density 19.571961999999999
#
# number of rings (size 3 to 8) (size 9 to 14) (size 15 to 20)
#    0.000    1.375    2.500    3.375    0.000    7.000 
#    0.000    0.625    0.000    0.000    0.000    0.000 
#    0.000    0.000    0.000    0.000    0.000    0.000 
#
# Total GULP energy -178719.677132 kJ/mol
# GULP energy per Si atom -5584.989910 kJ/mol
# Density = 1.952742 g / cm^3
# Si number density = 19.571962 Si / 1000 Ang^3
#
#
#
# Elastic Constant Matrix: (Units=GPa)
#
#
# Indices 1 2 3 4 5 6 
#
# 1 86.3165 9.6258 39.7756 0.0000 -18.7665 0.0000
# 2 9.6258 26.1107 25.9773 0.0000 -8.9572 0.0000
# 3 39.7756 25.9773 121.2658 0.0000 -18.9979 0.0000
# 4 0.0000 0.0000 0.0000 21.3905 0.0000 -0.7723
# 5 -18.7665 -8.9572 -18.9979 0.0000 28.5638 0.0000
# 6 0.0000 0.0000 0.0000 -0.7723 0.0000 14.3110
#
#
#
# Elastic Compliance Matrix: (Units=1/GPa)
#
#
# Indices 1 2 3 4 5 6 
#
# 1 0.014915 0.000980 -0.003928 0.000000 0.007494 0.000000
# 2 0.000980 0.051053 -0.009655 0.000000 0.010232 0.000000
# 3 -0.003928 -0.009655 0.011972 0.000000 0.002354 0.000000
# 4 0.000000 0.000000 0.000000 0.046841 0.000000 0.002528
# 5 0.007494 0.010232 0.002354 0.000000 0.044707 0.000000
# 6 0.000000 0.000000 0.000000 0.002528 0.000000 0.070013
#
#
# Mechanical properties :
#
#
# Convention : Reuss Voigt Hill
#
# Bulk Modulus (GPa) = 18.96295 42.71671 30.83983
# Shear Modulus (GPa) = 17.71258 23.40735 20.55997
#
# Velocity S-wave (km/s) = 3.01158 3.46202 3.24463
# Velocity P-wave (km/s) = 4.66934 6.15253 5.46152
#
# Compressibility (1/GPa) = 0.05273442
#
# Stress axis : x y z
#
# Youngs Moduli (GPa) = 67.04443 19.58758 83.52885
#
# Poissons Ratio (x) = -0.01920 0.32813
# Poissons Ratio (y) = -0.06573 0.80647
# Poissons Ratio (z) = 0.26337 0.18912
#
# Static dielectric constant tensor:
#      x y z
#    x 1.699680 0.000000 -0.017620 
#    y 0.000000 1.667250 0.000000 
#    z -0.017620 0.000000 1.700130 
# 
# From -- ./inp_files/187531.got.cif
#   From: 2010.05.17/outbox.cif.g08.bks.cpg/sg12_94_cif.got.tgz:187531.got - 2010.06.03 13:09:07.
