data_PCOD9199811
_publ_section_title
;
Structure prediction by ZEFSAII (Michael W. Deem and Ramdas Pophale) SiO2 
 PCOD9199811
Probable space group: C 2/M
;
_chemical_formula_sum "Si O2"
_cell_formula_units_Z 48
_cell_length_a 15.257103
_cell_length_b 10.841707
_cell_length_c 27.592515
_cell_angle_alpha 90.000000
_cell_angle_beta 147.941939
_cell_angle_gamma 90.000000
_cell_volume 2422.558343
_symmetry_space_group_name_H-M "C 2/M"
_symmetry_group_IT_number 12
_symmetry_cell_setting 'monoclinic'
loop_
_space_group_symop_operation_xyz
x,y,z
-x,y,-z
-x,-y,-z
x,-y,z
1/2+x,1/2+y,z
1/2-x,1/2+y,-z
1/2-x,1/2-y,-z
1/2+x,1/2-y,z
loop_
_atom_site_type_symbol
_atom_site_label
_atom_site_fract_x
_atom_site_fract_y
_atom_site_fract_z
Si Si1 0.778680 0.635649 0.477992
Si Si2 0.193074 0.646123 0.775134
Si Si3 0.346324 0.146095 0.355097
Si Si4 0.934712 0.856720 0.041044
Si Si5 0.196812 0.134211 0.911048
Si Si6 0.435070 0.703622 0.710524
O O1 0.779435 0.500000 0.502728
O O2 0.750000 0.750000 0.500000
O O3 0.642590 0.636550 0.372278
O O4 0.961432 0.651789 0.541336
O O5 0.197249 0.500000 0.775361
O O6 0.166771 0.686175 0.707135
O O7 0.376007 0.682854 0.878144
O O8 0.043471 0.687620 0.738567
O O9 0.223379 0.226201 0.329801
O O10 0.297105 0.000000 0.336306
O O11 0.898898 0.856959 0.082253
O O12 0.908912 0.000000 0.012607
O O13 0.813700 0.753541 0.962924
O O14 0.064967 0.136380 0.806198
O O15 0.283470 0.000000 0.951679
#
# Coordination Sequence:
#
# PCOD9199811 Si02
#       6
#     8   8   8   8   8   8
#     4  11  23  40  64  94 126 164 208 258 310 371
#     4  10  21  39  64  91 125 165 207 257 311 372
#     4  10  20  40  64  88 121 164 208 252 307 371
#     4   9  19  39  64  88 121 167 210 251 306 375
#     4  10  20  36  61  92 125 159 205 261 313 363
#     4  12  22  36  65  96 120 159 215 261 303 368
#
# _framework density 19.813765
#
# number of rings (size 3 to 8) (size 9 to 14) (size 15 to 20)
#    0.000    1.667    3.333    2.000    0.000    2.667 
#    0.000    5.833    0.000    2.000    0.000    0.000 
#    0.000    0.000    0.000    0.000    0.000    0.000 
#
# Total GULP energy -133868.965030 kJ/mol
# GULP energy per Si atom -5577.873543 kJ/mol
# Density = 1.976867 g / cm^3
# Si number density = 19.813765 Si / 1000 Ang^3
#
#
#
# Elastic Constant Matrix: (Units=GPa)
#
#
# Indices 1 2 3 4 5 6 
#
# 1 98.8242 40.5928 37.1087 0.0000 5.2349 0.0000
# 2 40.5928 74.5935 60.7219 0.0000 2.5153 0.0000
# 3 37.1087 60.7219 121.5603 0.0000 7.1626 0.0000
# 4 0.0000 0.0000 0.0000 23.2417 0.0000 8.2136
# 5 5.2349 2.5153 7.1626 0.0000 36.1811 0.0000
# 6 0.0000 0.0000 0.0000 8.2136 0.0000 18.6001
#
#
#
# Elastic Compliance Matrix: (Units=1/GPa)
#
#
# Indices 1 2 3 4 5 6 
#
# 1 0.013133 -0.006576 -0.000647 0.000000 -0.001315 0.000000
# 2 -0.006576 0.025902 -0.011009 0.000000 0.001330 0.000000
# 3 -0.000647 -0.011009 0.014036 0.000000 -0.001920 0.000000
# 4 0.000000 0.000000 0.000000 0.050982 0.000000 -0.022513
# 5 -0.001315 0.001330 -0.001920 0.000000 0.028117 0.000000
# 6 0.000000 0.000000 0.000000 -0.022513 0.000000 0.063705
#
#
# Mechanical properties :
#
#
# Convention : Reuss Voigt Hill
#
# Bulk Modulus (GPa) = 60.21666 63.53610 61.87638
# Shear Modulus (GPa) = 21.01955 26.04154 23.53054
#
# Velocity S-wave (km/s) = 3.26061 3.62928 3.44988
# Velocity P-wave (km/s) = 6.68078 7.04972 6.86772
#
# Compressibility (1/GPa) = 0.01660670
#
# Stress axis : x y z
#
# Youngs Moduli (GPa) = 76.14684 38.60769 71.24361
#
# Poissons Ratio (x) = 0.25387 0.04608
# Poissons Ratio (y) = 0.50072 0.78435
# Poissons Ratio (z) = 0.04925 0.42505
#
# Static dielectric constant tensor:
#      x y z
#    x 1.711180 0.000000 -0.022470 
#    y 0.000000 1.695040 0.000000 
#    z -0.022470 0.000000 1.730800 
# 
# From -- ./inp_files/212929.got.cif
#   From: 2010.05.17/outbox.cif.g08.bks.cpg/sg12_107_cif.got.tgz:212929.got - 2010.06.03 13:09:07.
