data_PCOD9199828
_publ_section_title
;
Structure prediction by ZEFSAII (Michael W. Deem and Ramdas Pophale) SiO2 
 PCOD9199828
Probable space group: C 2/M
;
_chemical_formula_sum "Si O2"
_cell_formula_units_Z 44
_cell_length_a 13.859856
_cell_length_b 11.216559
_cell_length_c 17.565106
_cell_angle_alpha 90.000000
_cell_angle_beta 136.094932
_cell_angle_gamma 90.000000
_cell_volume 1893.625250
_symmetry_space_group_name_H-M "C 2/M"
_symmetry_group_IT_number 12
_symmetry_cell_setting 'monoclinic'
loop_
_space_group_symop_operation_xyz
x,y,z
-x,y,-z
-x,-y,-z
x,-y,z
1/2+x,1/2+y,z
1/2-x,1/2+y,-z
1/2-x,1/2-y,-z
1/2+x,1/2-y,z
loop_
_atom_site_type_symbol
_atom_site_label
_atom_site_fract_x
_atom_site_fract_y
_atom_site_fract_z
Si Si1 0.731681 0.760930 0.862152
Si Si2 0.750304 0.500000 0.214326
Si Si3 0.765730 0.137681 0.285027
Si Si4 0.925370 0.500000 0.612676
Si Si5 0.432309 0.138438 0.089941
Si Si6 0.826023 0.000000 0.654206
Si Si7 0.174001 0.259149 0.377229
O O1 0.784387 0.883865 0.854820
O O2 0.669677 0.690491 0.754663
O O3 0.627222 0.789694 0.871765
O O4 0.854891 0.687418 0.971701
O O5 0.688084 0.500000 0.262807
O O6 0.916353 0.500000 0.323077
O O7 0.598227 0.147196 0.177931
O O8 0.783320 0.216142 0.370723
O O9 0.803978 0.000000 0.318742
O O10 0.815321 0.500000 0.479642
O O11 0.905605 0.384134 0.655091
O O12 0.395622 0.000000 0.079457
O O13 0.892039 0.129069 0.673818
O O14 0.250000 0.250000 0.500000
#
# Coordination Sequence:
#
# PCOD9199828 Si02
#       7
#     8   4   8   4   8   4   8
#     4  11  22  36  61  89 122 149 202 260 300 349
#     4  12  21  38  60  87 117 159 203 246 303 367
#     4  11  21  39  66  88 116 165 210 245 302 377
#     4  10  21  38  66  85 118 166 205 238 300 379
#     4  10  22  41  63  85 116 161 209 250 303 370
#     4  10  21  38  61  93 122 150 199 262 304 347
#     4  10  20  36  61  93 121 155 198 250 303 358
#
# _framework density 23.235854
#
# number of rings (size 3 to 8) (size 9 to 14) (size 15 to 20)
#    0.000    1.455    3.636    2.455    0.000    1.455 
#    0.000    2.727   16.000    0.000    0.000   12.727 
#    0.000    0.000    0.000    0.000    0.000    0.000 
#
# Total GULP energy -122966.120677 kJ/mol
# GULP energy per Si atom -5589.369122 kJ/mol
# Density = 2.318297 g / cm^3
# Si number density = 23.235854 Si / 1000 Ang^3
#
#
#
# Elastic Constant Matrix: (Units=GPa)
#
#
# Indices 1 2 3 4 5 6 
#
# 1 85.9763 38.6613 32.0152 0.0000 -34.4600 0.0000
# 2 38.6613 172.7863 22.9770 0.0000 -15.8572 0.0000
# 3 32.0152 22.9770 92.8721 0.0000 -40.2958 0.0000
# 4 0.0000 0.0000 0.0000 39.0451 0.0000 -15.3277
# 5 -34.4600 -15.8572 -40.2958 0.0000 42.7408 0.0000
# 6 0.0000 0.0000 0.0000 -15.3277 0.0000 22.7832
#
#
#
# Elastic Compliance Matrix: (Units=1/GPa)
#
#
# Indices 1 2 3 4 5 6 
#
# 1 0.018475 -0.002892 0.000582 0.000000 0.014372 0.000000
# 2 -0.002892 0.006487 -0.000974 0.000000 -0.000843 0.000000
# 3 0.000582 -0.000974 0.018369 0.000000 0.017426 0.000000
# 4 0.000000 0.000000 0.000000 0.034803 0.000000 0.023414
# 5 0.014372 -0.000843 0.017426 0.000000 0.051100 0.000000
# 6 0.000000 0.000000 0.000000 0.023414 0.000000 0.059644
#
#
# Mechanical properties :
#
#
# Convention : Reuss Voigt Hill
#
# Bulk Modulus (GPa) = 27.20114 59.88241 43.54177
# Shear Modulus (GPa) = 24.07322 38.11257 31.09289
#
# Velocity S-wave (km/s) = 3.22225 4.05439 3.66203
# Velocity P-wave (km/s) = 5.05725 6.90977 6.05478
#
# Compressibility (1/GPa) = 0.03676317
#
# Stress axis : x y z
#
# Youngs Moduli (GPa) = 54.12689 154.16040 54.44083
#
# Poissons Ratio (x) = 0.44589 -0.03171
# Poissons Ratio (y) = 0.15655 0.05301
# Poissons Ratio (z) = -0.03152 0.15011
#
# Static dielectric constant tensor:
#      x y z
#    x 1.868780 0.000000 0.002830 
#    y 0.000000 1.885630 0.000000 
#    z 0.002830 0.000000 1.910120 
# 
# From -- ./inp_files/275899.got.cif
#   From: 2010.05.17/outbox.cif.g08.bks.cpg/sg12_138_cif.got.tgz:275899.got - 2010.06.03 13:09:07.
