data_PCOD9199172
_publ_section_title
;
Structure prediction by ZEFSAII (Michael W. Deem and Ramdas Pophale) SiO2 
 PCOD9199172
Probable space group: C 2/M
;
_chemical_formula_sum "Si O2"
_cell_formula_units_Z 56
_cell_length_a 20.802450
_cell_length_b 8.744262
_cell_length_c 28.145655
_cell_angle_alpha 90.000000
_cell_angle_beta 144.955703
_cell_angle_gamma 90.000000
_cell_volume 2939.811188
_symmetry_space_group_name_H-M "C 2/M"
_symmetry_group_IT_number 12
_symmetry_cell_setting 'monoclinic'
loop_
_space_group_symop_operation_xyz
x,y,z
-x,y,-z
-x,-y,-z
x,-y,z
1/2+x,1/2+y,z
1/2-x,1/2+y,-z
1/2-x,1/2-y,-z
1/2+x,1/2-y,z
loop_
_atom_site_type_symbol
_atom_site_label
_atom_site_fract_x
_atom_site_fract_y
_atom_site_fract_z
Si Si1 0.699293 0.816088 0.343217
Si Si2 0.936592 0.684117 0.509702
Si Si3 0.667336 0.183361 0.213707
Si Si4 0.890454 0.684364 0.303901
Si Si5 0.960336 0.315750 0.238931
Si Si6 0.962906 0.183358 0.031141
Si Si7 0.241119 0.182039 0.941952
O O1 0.811885 0.748275 0.433179
O O2 0.685998 0.769774 0.279895
O O3 0.587176 0.771447 0.303322
O O4 0.707673 0.000000 0.349255
O O5 0.930737 0.500000 0.505608
O O6 0.000000 0.734236 0.500000
O O7 0.012222 0.729522 0.600274
O O8 0.775156 0.237223 0.249337
O O9 0.557025 0.257517 0.124430
O O10 0.656586 0.000000 0.205640
O O11 0.875677 0.500000 0.298250
O O12 0.926396 0.721576 0.272222
O O13 0.951470 0.500000 0.227711
O O14 0.873925 0.236859 0.151257
O O15 0.954695 0.000000 0.028907
O O16 0.000000 0.224443 0.000000
O O17 0.844259 0.255070 0.973218
O O18 0.246393 0.000000 0.947295
O O19 0.250000 0.250000 0.000000
#
# Coordination Sequence:
#
# PCOD9199172 Si02
#       7
#     8   8   8   8   8   8   8
#     4  10  22  38  58  85 116 151 192 243 296 351
#     4  10  20  36  59  87 118 154 198 243 292 353
#     4  11  22  36  58  87 117 152 198 249 299 354
#     4  10  21  38  60  85 118 160 199 244 301 359
#     4  10  22  41  61  85 120 158 198 244 301 360
#     4  11  24  41  62  89 122 160 201 249 306 363
#     4  12  25  42  65  91 122 161 205 251 303 362
#
# _framework density 19.048842
#
# number of rings (size 3 to 8) (size 9 to 14) (size 15 to 20)
#    0.000    1.429    1.429    3.857    0.000    8.857 
#    0.000    0.000    0.000    0.000    0.000    0.000 
#    0.000    0.000    0.000    0.000    0.000    0.000 
#
# Total GULP energy -156589.298960 kJ/mol
# GULP energy per Si atom -5592.474963 kJ/mol
# Density = 1.900549 g / cm^3
# Si number density = 19.048842 Si / 1000 Ang^3
#
#
#
# Elastic Constant Matrix: (Units=GPa)
#
#
# Indices 1 2 3 4 5 6 
#
# 1 77.0419 23.7592 -1.3941 0.0000 14.4085 0.0000
# 2 23.7592 32.1428 17.8004 0.0000 2.8587 0.0003
# 3 -1.3941 17.8004 86.6070 0.0000 14.9547 0.0000
# 4 0.0000 0.0000 0.0000 38.7570 0.0000 8.0084
# 5 14.4085 2.8587 14.9547 0.0000 40.4218 0.0000
# 6 0.0000 0.0003 0.0000 8.0084 0.0000 20.0605
#
#
#
# Elastic Compliance Matrix: (Units=1/GPa)
#
#
# Indices 1 2 3 4 5 6 
#
# 1 0.019643 -0.016641 0.005066 0.000000 -0.007699 0.000000
# 2 -0.016641 0.049205 -0.011542 0.000000 0.006722 -0.000001
# 3 0.005066 -0.011542 0.015138 0.000000 -0.006590 0.000000
# 4 0.000000 0.000000 0.000000 0.028122 0.000000 -0.011226
# 5 -0.007699 0.006722 -0.006590 0.000000 0.029446 0.000000
# 6 0.000000 -0.000001 0.000000 -0.011226 0.000000 0.054331
#
#
# Mechanical properties :
#
#
# Convention : Reuss Voigt Hill
#
# Bulk Modulus (GPa) = 26.48742 30.68031 28.58386
# Shear Modulus (GPa) = 19.63068 30.22293 24.92681
#
# Velocity S-wave (km/s) = 3.21369 3.98754 3.62135
# Velocity P-wave (km/s) = 5.26361 6.11079 5.70295
#
# Compressibility (1/GPa) = 0.03775377
#
# Stress axis : x y z
#
# Youngs Moduli (GPa) = 50.90765 20.32298 66.05857
#
# Poissons Ratio (x) = 0.33819 -0.33464
# Poissons Ratio (y) = 0.84713 0.76243
# Poissons Ratio (z) = -0.25789 0.23456
#
# Static dielectric constant tensor:
#      x y z
#    x 1.644900 0.000000 -0.006460 
#    y 0.000000 1.645010 0.000000 
#    z -0.006460 0.000000 1.617680 
# 
# From -- ./inp_files/380808.got.cif
#   From: 2010.05.17/outbox.cif.g08.bks.cpg/sg12_191_cif.got.tgz:380808.got - 2010.06.03 13:09:07.
