data_PCOD9199182
_publ_section_title
;
Structure prediction by ZEFSAII (Michael W. Deem and Ramdas Pophale) SiO2 
 PCOD9199182
Probable space group: C 2/M
;
_chemical_formula_sum "Si O2"
_cell_formula_units_Z 56
_cell_length_a 16.857075
_cell_length_b 8.953860
_cell_length_c 19.757749
_cell_angle_alpha 90.000000
_cell_angle_beta 60.787622
_cell_angle_gamma 90.000000
_cell_volume 2602.873192
_symmetry_space_group_name_H-M "C 2/M"
_symmetry_group_IT_number 12
_symmetry_cell_setting 'monoclinic'
loop_
_space_group_symop_operation_xyz
x,y,z
-x,y,-z
-x,-y,-z
x,-y,z
1/2+x,1/2+y,z
1/2-x,1/2+y,-z
1/2-x,1/2-y,-z
1/2+x,1/2-y,z
loop_
_atom_site_type_symbol
_atom_site_label
_atom_site_fract_x
_atom_site_fract_y
_atom_site_fract_z
Si Si1 0.303965 0.322359 0.539585
Si Si2 0.849251 0.175209 0.894418
Si Si3 0.039934 0.825085 0.749820
Si Si4 0.511262 0.324004 0.609555
Si Si5 0.317114 0.822854 0.676062
Si Si6 0.657462 0.324873 0.951074
Si Si7 0.842674 0.675933 0.184207
O O1 0.286726 0.500000 0.550741
O O2 0.250000 0.250000 0.500000
O O3 0.411104 0.301270 0.478444
O O4 0.282502 0.242634 0.618925
O O5 0.763234 0.277552 0.914795
O O6 0.932960 0.194453 0.809380
O O7 0.820492 0.000000 0.904392
O O8 0.882093 0.205478 0.957758
O O9 0.055200 0.792402 0.664754
O O10 0.094390 0.726504 0.780031
O O11 0.062343 0.000000 0.752848
O O12 0.485368 0.500000 0.619660
O O13 0.421316 0.227630 0.639050
O O14 0.254788 0.751387 0.760060
O O15 0.308739 0.000000 0.680719
O O16 0.648464 0.500000 0.940910
O O17 0.620409 0.235006 0.902746
O O18 0.832010 0.500000 0.186734
#
# Coordination Sequence:
#
# PCOD9199182 Si02
#       7
#     8   8   8   8   8   8   8
#     4  11  23  40  63  92 127 162 197 240 291 345
#     4   9  19  36  60  88 119 156 195 240 292 346
#     4  10  21  39  61  86 118 154 195 242 295 352
#     4  10  22  40  63  90 121 157 195 240 293 348
#     4  12  25  41  63  89 118 155 200 247 294 350
#     4  10  20  36  59  87 119 155 197 242 290 349
#     4  12  25  40  59  84 117 155 197 247 301 354
#
# _framework density 21.514688
#
# number of rings (size 3 to 8) (size 9 to 14) (size 15 to 20)
#    0.000    1.429    0.000    5.571    0.000    7.429 
#    0.000    2.857    0.000    0.000    0.000    0.000 
#    0.000    0.000    0.000    0.000    0.000    0.000 
#
# Total GULP energy -156712.466204 kJ/mol
# GULP energy per Si atom -5596.873793 kJ/mol
# Density = 2.146572 g / cm^3
# Si number density = 21.514688 Si / 1000 Ang^3
#
#
#
# Elastic Constant Matrix: (Units=GPa)
#
#
# Indices 1 2 3 4 5 6 
#
# 1 48.2795 20.8065 -11.1264 0.0000 9.8545 0.0000
# 2 20.8065 83.5009 13.4351 0.0000 14.6147 0.0000
# 3 -11.1264 13.4351 70.8388 0.0000 18.8792 0.0000
# 4 0.0000 0.0000 0.0000 24.6798 0.0000 5.0801
# 5 9.8545 14.6147 18.8792 0.0000 30.0272 0.0000
# 6 0.0000 0.0000 0.0000 5.0801 0.0000 38.8337
#
#
#
# Elastic Compliance Matrix: (Units=1/GPa)
#
#
# Indices 1 2 3 4 5 6 
#
# 1 0.027745 -0.006293 0.008603 0.000000 -0.011452 0.000000
# 2 -0.006293 0.014571 -0.002898 0.000000 -0.003205 0.000000
# 3 0.008603 -0.002898 0.019694 0.000000 -0.013795 0.000000
# 4 0.000000 0.000000 0.000000 0.041640 0.000000 -0.005447
# 5 -0.011452 -0.003205 -0.013795 0.000000 0.047295 0.000000
# 6 0.000000 0.000000 0.000000 -0.005447 0.000000 0.026463
#
#
# Mechanical properties :
#
#
# Convention : Reuss Voigt Hill
#
# Bulk Modulus (GPa) = 16.43803 27.64995 22.04399
# Shear Modulus (GPa) = 25.14295 30.67509 27.90902
#
# Velocity S-wave (km/s) = 3.42225 3.78004 3.60558
# Velocity P-wave (km/s) = 4.82418 5.65077 5.25375
#
# Compressibility (1/GPa) = 0.06083454
#
# Stress axis : x y z
#
# Youngs Moduli (GPa) = 36.04237 68.62834 50.77671
#
# Poissons Ratio (x) = 0.43190 -0.43685
# Poissons Ratio (y) = 0.22683 0.14715
# Poissons Ratio (z) = -0.31009 0.19888
#
# Static dielectric constant tensor:
#      x y z
#    x 1.794120 0.000000 0.012080 
#    y 0.000000 1.715490 0.000000 
#    z 0.012080 0.000000 1.759320 
# 
# From -- ./inp_files/313780.got.cif
#   From: 2010.05.17/outbox.cif.g08.bks.cpg/sg12_157_cif.got.tgz:313780.got - 2010.06.03 13:09:07.
