data_PCOD9199987
_publ_section_title
;
Structure prediction by ZEFSAII (Michael W. Deem and Ramdas Pophale) SiO2 
 PCOD9199987
Probable space group: C 2/M
;
_chemical_formula_sum "Si O2"
_cell_formula_units_Z 36
_cell_length_a 11.107723
_cell_length_b 19.816515
_cell_length_c 8.971471
_cell_angle_alpha 90.000000
_cell_angle_beta 70.936214
_cell_angle_gamma 90.000000
_cell_volume 1866.462481
_symmetry_space_group_name_H-M "C 2/M"
_symmetry_group_IT_number 12
_symmetry_cell_setting 'monoclinic'
loop_
_space_group_symop_operation_xyz
x,y,z
-x,y,-z
-x,-y,-z
x,-y,z
1/2+x,1/2+y,z
1/2-x,1/2+y,-z
1/2-x,1/2-y,-z
1/2+x,1/2-y,z
loop_
_atom_site_type_symbol
_atom_site_label
_atom_site_fract_x
_atom_site_fract_y
_atom_site_fract_z
Si Si1 0.859067 0.716582 0.853764
Si Si2 0.500000 0.110406 0.000000
Si Si3 0.243052 0.674924 0.427253
Si Si4 0.020282 0.156643 0.321584
Si Si5 0.273533 0.076336 0.301991
O O1 0.818209 0.689229 0.708111
O O2 0.952207 0.778921 0.788280
O O3 0.750000 0.750000 0.000000
O O4 0.925780 0.657711 0.915216
O O5 0.388614 0.074362 0.137550
O O6 0.250000 0.750000 0.500000
O O7 0.377313 0.636207 0.338476
O O8 0.186333 0.626198 0.578477
O O9 0.143279 0.107804 0.281454
O O10 0.000000 0.179723 0.500000
O O11 0.246430 0.000000 0.363914
#
# Coordination Sequence:
#
# PCOD9199987 Si02
#       5
#     8   4   8   8   8
#     4  12  21  38  64  98 129 160 212 267 327 380
#     4  12  25  40  62  94 131 176 212 272 325 384
#     4  11  21  39  66  95 126 160 215 268 323 380
#     4  10  20  36  62  94 123 161 204 262 320 375
#     4  11  24  43  63  91 130 177 217 261 326 391
#
# _framework density 19.287825000000002
#
# number of rings (size 3 to 8) (size 9 to 14) (size 15 to 20)
#    0.000    0.889    6.667    3.000    0.000    4.000 
#    0.000    3.333    0.000    1.333    0.000    0.000 
#    0.000    0.000    0.000    0.000    0.000    0.000 
#
# Total GULP energy -100247.430278 kJ/mol
# GULP energy per Si atom -5569.301682 kJ/mol
# Density = 1.924392 g / cm^3
# Si number density = 19.287825 Si / 1000 Ang^3
#
#
#
# Elastic Constant Matrix: (Units=GPa)
#
#
# Indices 1 2 3 4 5 6 
#
# 1 72.1432 16.8217 43.3681 0.0000 2.5309 0.0000
# 2 16.8217 113.2804 46.8337 0.0000 6.7503 0.0000
# 3 43.3681 46.8337 100.0021 0.0000 -4.3379 0.0000
# 4 0.0000 0.0000 0.0000 20.4542 0.0000 4.4505
# 5 2.5309 6.7503 -4.3379 0.0000 53.8102 0.0000
# 6 0.0000 0.0000 0.0000 4.4505 0.0000 -8.3660
#
#
#
# Elastic Compliance Matrix: (Units=1/GPa)
#
#
# Indices 1 2 3 4 5 6 
#
# 1 0.018948 0.000888 -0.008707 0.000000 -0.001704 0.000000
# 2 0.000888 0.011164 -0.005696 0.000000 -0.001901 0.000000
# 3 -0.008707 -0.005696 0.016550 0.000000 0.002458 0.000000
# 4 0.000000 0.000000 0.000000 0.043818 0.000000 0.023310
# 5 -0.001704 -0.001901 0.002458 0.000000 0.019101 0.000000
# 6 0.000000 0.000000 0.000000 0.023310 0.000000 -0.107131
#
#
# Mechanical properties :
#
#
# Convention : Reuss Voigt Hill
#
# Bulk Modulus (GPa) = 50.93784 55.49697 53.21740
# Shear Modulus (GPa) = 138.79761 25.07316 81.93538
#
# Velocity S-wave (km/s) = 8.49220 3.60939 6.52477
# Velocity P-wave (km/s) = 11.07354 6.79748 9.18774
#
# Compressibility (1/GPa) = 0.01963177
#
# Stress axis : x y z
#
# Youngs Moduli (GPa) = 52.77537 89.57380 60.42347
#
# Poissons Ratio (x) = -0.07950 0.52610
# Poissons Ratio (y) = -0.04684 0.34416
# Poissons Ratio (z) = 0.45951 0.51019
#
# Static dielectric constant tensor:
#      x y z
#    x 1.626520 0.000000 0.990880 
#    y 0.000000 1.645770 0.000000 
#    z 0.990880 0.000000 -4.302160 
# 
# From -- ./inp_files/46787.got.cif
#   From: 2010.05.17/outbox.cif.g08.bks.cpg/sg12_24_cif.got.tgz:46787.got - 2010.06.03 13:09:07.
