data_PCOD9199742
_publ_section_title
;
Structure prediction by ZEFSAII (Michael W. Deem and Ramdas Pophale) SiO2 
 PCOD9199742
Probable space group: C 2/M
;
_chemical_formula_sum "Si O2"
_cell_formula_units_Z 44
_cell_length_a 10.965259
_cell_length_b 25.710930
_cell_length_c 12.157492
_cell_angle_alpha 90.000000
_cell_angle_beta 142.057760
_cell_angle_gamma 90.000000
_cell_volume 2107.471418
_symmetry_space_group_name_H-M "C 2/M"
_symmetry_group_IT_number 12
_symmetry_cell_setting 'monoclinic'
loop_
_space_group_symop_operation_xyz
x,y,z
-x,y,-z
-x,-y,-z
x,-y,z
1/2+x,1/2+y,z
1/2-x,1/2+y,-z
1/2-x,1/2-y,-z
1/2+x,1/2-y,z
loop_
_atom_site_type_symbol
_atom_site_label
_atom_site_fract_x
_atom_site_fract_y
_atom_site_fract_z
Si Si1 0.080740 0.803976 0.677956
Si Si2 0.983773 0.872663 0.172916
Si Si3 0.500000 0.862209 0.000000
Si Si4 0.794919 0.781091 0.919333
Si Si5 0.695739 0.058165 0.712837
Si Si6 0.138365 0.440735 0.931874
O O1 0.958006 0.833212 0.687215
O O2 0.300800 0.828305 0.851946
O O3 0.115877 0.741881 0.719030
O O4 0.000000 0.814679 0.500000
O O5 0.158839 0.897025 0.226532
O O6 0.832385 0.839079 0.989613
O O7 0.856526 0.921446 0.125238
O O8 0.498452 0.899851 0.893206
O O9 0.750000 0.750000 0.000000
O O10 0.000000 0.770549 0.000000
O O11 0.500000 0.060018 0.500000
O O12 0.638562 0.062270 0.799977
O O13 0.787850 0.000000 0.764868
O O14 0.097944 0.500000 0.934590
#
# Coordination Sequence:
#
# PCOD9199742 Si02
#       6
#     8   8   4   8   8   8
#     4  10  22  40  64  89 124 164 205 262 319 367
#     4  10  21  38  62  88 120 164 212 253 312 380
#     4  10  21  38  64  88 128 164 207 250 308 382
#     4  10  20  39  61  86 122 161 205 261 311 368
#     4  10  21  36  58  92 129 161 205 265 314 368
#     4  10  20  36  61  89 122 164 204 252 311 373
#
# _framework density 20.878101999999998
#
# number of rings (size 3 to 8) (size 9 to 14) (size 15 to 20)
#    0.000    2.000    0.909    2.455    2.545    1.455 
#    0.000    7.273    0.000    3.273    0.000    0.000 
#    0.000    0.000    0.000    0.000    0.000    0.000 
#
# Total GULP energy -122571.457060 kJ/mol
# GULP energy per Si atom -5571.429866 kJ/mol
# Density = 2.083058 g / cm^3
# Si number density = 20.878102 Si / 1000 Ang^3
#
#
#
# Elastic Constant Matrix: (Units=GPa)
#
#
# Indices 1 2 3 4 5 6 
#
# 1 90.6825 36.9869 11.3377 0.0000 -15.0178 0.0000
# 2 36.9869 117.4202 39.7244 0.0000 -8.2962 0.0000
# 3 11.3377 39.7244 69.2857 0.0000 -21.9613 0.0000
# 4 0.0000 0.0000 0.0000 19.9193 0.0000 0.9463
# 5 -15.0178 -8.2962 -21.9613 0.0000 24.3974 0.0000
# 6 0.0000 0.0000 0.0000 0.9463 0.0000 26.9688
#
#
#
# Elastic Compliance Matrix: (Units=1/GPa)
#
#
# Indices 1 2 3 4 5 6 
#
# 1 0.014390 -0.005120 0.003969 0.000000 0.010689 0.000000
# 2 -0.005120 0.012507 -0.008373 0.000000 -0.006436 0.000000
# 3 0.003969 -0.008373 0.025824 0.000000 0.022842 0.000000
# 4 0.000000 0.000000 0.000000 0.050286 0.000000 -0.001764
# 5 0.010689 -0.006436 0.022842 0.000000 0.065940 0.000000
# 6 0.000000 0.000000 0.000000 -0.001764 0.000000 0.037142
#
#
# Mechanical properties :
#
#
# Convention : Reuss Voigt Hill
#
# Bulk Modulus (GPa) = 29.69731 50.38738 40.04234
# Shear Modulus (GPa) = 21.15393 26.87972 24.01683
#
# Velocity S-wave (km/s) = 3.18655 3.59201 3.39534
# Velocity P-wave (km/s) = 5.27199 6.43350 5.88148
#
# Compressibility (1/GPa) = 0.03367308
#
# Stress axis : x y z
#
# Youngs Moduli (GPa) = 69.49296 79.95355 38.72348
#
# Poissons Ratio (x) = 0.40939 -0.15370
# Poissons Ratio (y) = 0.35583 0.32423
# Poissons Ratio (z) = -0.27583 0.66945
#
# Static dielectric constant tensor:
#      x y z
#    x 1.781290 0.000000 -0.021500 
#    y 0.000000 1.830080 0.000000 
#    z -0.021500 0.000000 1.721490 
# 
# From -- ./inp_files/136074.got.cif
#   From: 2010.05.17/outbox.cif.g08.bks.cpg/sg12_69_cif.got.tgz:136074.got - 2010.06.03 13:09:07.
