data_PCOD9199336
_publ_section_title
;
Structure prediction by ZEFSAII (Michael W. Deem and Ramdas Pophale) SiO2 
 PCOD9199336
Probable space group: C 2/M
;
_chemical_formula_sum "Si O2"
_cell_formula_units_Z 64
_cell_length_a 18.309254
_cell_length_b 23.955614
_cell_length_c 14.849962
_cell_angle_alpha 90.000000
_cell_angle_beta 151.981402
_cell_angle_gamma 90.000000
_cell_volume 3059.691306
_symmetry_space_group_name_H-M "C 2/M"
_symmetry_group_IT_number 12
_symmetry_cell_setting 'monoclinic'
loop_
_space_group_symop_operation_xyz
x,y,z
-x,y,-z
-x,-y,-z
x,-y,z
1/2+x,1/2+y,z
1/2-x,1/2+y,-z
1/2-x,1/2-y,-z
1/2+x,1/2-y,z
loop_
_atom_site_type_symbol
_atom_site_label
_atom_site_fract_x
_atom_site_fract_y
_atom_site_fract_z
Si Si1 0.603460 0.435073 0.354050
Si Si2 0.857279 0.563029 0.907401
Si Si3 0.457060 0.778409 0.057580
Si Si4 0.892663 0.878679 0.258857
Si Si5 0.947458 0.390622 0.733628
Si Si6 0.340323 0.845807 0.158475
Si Si7 0.954160 0.848306 0.054053
Si Si8 0.408843 0.737178 0.316274
O O1 0.602764 0.500000 0.329343
O O2 0.500464 0.424877 0.331169
O O3 0.775983 0.412770 0.557821
O O4 0.533585 0.395645 0.200271
O O5 0.819869 0.500000 0.838350
O O6 0.939427 0.565700 0.094033
O O7 0.703041 0.598885 0.759052
O O8 0.000000 0.583815 0.000000
O O9 0.526262 0.830161 0.189169
O O10 0.501615 0.715047 0.135149
O O11 0.500000 0.784364 0.000000
O O12 0.269377 0.778195 0.856209
O O13 0.986925 0.821984 0.379697
O O14 0.773814 0.859221 0.049534
O O15 0.008916 0.382553 0.698720
O O16 0.397757 0.781994 0.225167
O O17 0.231025 0.853144 0.126481
O O18 0.000000 0.853728 0.000000
O O19 0.500000 0.762414 0.500000
#
# Coordination Sequence:
#
# PCOD9199336 Si02
#       8
#     8   8   8   8   8   8   8   8
#     4  11  25  41  60  89 121 158 211 260 295 350
#     4  10  20  36  60  84 114 165 211 246 296 350
#     4  10  21  37  59  92 128 162 195 240 306 369
#     4  10  21  38  59  83 120 162 204 248 300 354
#     4  11  22  36  61  85 124 160 201 251 298 357
#     4   9  20  38  60  86 122 159 194 240 304 372
#     4   9  21  41  65  90 122 155 195 249 310 373
#     4  11  22  34  59  90 124 156 195 247 299 365
#
# _framework density 20.917141999999998
#
# number of rings (size 3 to 8) (size 9 to 14) (size 15 to 20)
#    0.000    1.875    2.500    1.500    5.250    3.750 
#    0.000    0.625    0.000    3.750    0.000    0.000 
#    0.000    0.000    0.000    0.000    0.000    0.000 
#
# Total GULP energy -178439.137788 kJ/mol
# GULP energy per Si atom -5576.223056 kJ/mol
# Density = 2.086953 g / cm^3
# Si number density = 20.917142 Si / 1000 Ang^3
#
#
#
# Elastic Constant Matrix: (Units=GPa)
#
#
# Indices 1 2 3 4 5 6 
#
# 1 102.3885 22.5097 -6.2625 0.0000 10.5362 0.0000
# 2 22.5097 120.6857 30.1467 0.0000 1.5657 0.0000
# 3 -6.2625 30.1467 42.5951 0.0000 2.7095 0.0000
# 4 0.0000 0.0000 0.0000 17.0491 0.0000 -0.7690
# 5 10.5362 1.5657 2.7095 0.0000 16.9604 0.0000
# 6 0.0000 0.0000 0.0000 -0.7690 0.0000 18.8324
#
#
#
# Elastic Compliance Matrix: (Units=1/GPa)
#
#
# Indices 1 2 3 4 5 6 
#
# 1 0.011506 -0.003147 0.004400 0.000000 -0.007560 0.000000
# 2 -0.003147 0.010927 -0.008341 0.000000 0.002279 0.000000
# 3 0.004400 -0.008341 0.030462 0.000000 -0.006830 0.000000
# 4 0.000000 0.000000 0.000000 0.058762 0.000000 0.002399
# 5 -0.007560 0.002279 -0.006830 0.000000 0.064538 0.000000
# 6 0.000000 0.000000 0.000000 0.002399 0.000000 0.053198
#
#
# Mechanical properties :
#
#
# Convention : Reuss Voigt Hill
#
# Bulk Modulus (GPa) = 25.82815 39.82856 32.82836
# Shear Modulus (GPa) = 19.49507 25.18673 22.34090
#
# Velocity S-wave (km/s) = 3.05620 3.47381 3.27167
# Velocity P-wave (km/s) = 4.98282 5.93062 5.47726
#
# Compressibility (1/GPa) = 0.03871745
#
# Stress axis : x y z
#
# Youngs Moduli (GPa) = 86.91411 91.51667 32.82813
#
# Poissons Ratio (x) = 0.28800 -0.14443
# Poissons Ratio (y) = 0.27351 0.27383
# Poissons Ratio (z) = -0.38240 0.76336
#
# Static dielectric constant tensor:
#      x y z
#    x 1.816720 0.000000 0.018830 
#    y 0.000000 1.771030 0.000000 
#    z 0.018830 0.000000 1.783290 
# 
# From -- ./inp_files/228154.got.cif
#   From: 2010.05.17/outbox.cif.g08.bks.cpg/sg12_115_cif.got.tgz:228154.got - 2010.06.03 13:09:07.
