data_PCOD9199347
_publ_section_title
;
Structure prediction by ZEFSAII (Michael W. Deem and Ramdas Pophale) SiO2 
 PCOD9199347
Probable space group: C 2/M
;
_chemical_formula_sum "Si O2"
_cell_formula_units_Z 56
_cell_length_a 30.526269
_cell_length_b 13.236252
_cell_length_c 9.578605
_cell_angle_alpha 90.000000
_cell_angle_beta 49.024528
_cell_angle_gamma 90.000000
_cell_volume 2922.014914
_symmetry_space_group_name_H-M "C 2/M"
_symmetry_group_IT_number 12
_symmetry_cell_setting 'monoclinic'
loop_
_space_group_symop_operation_xyz
x,y,z
-x,y,-z
-x,-y,-z
x,-y,z
1/2+x,1/2+y,z
1/2-x,1/2+y,-z
1/2-x,1/2-y,-z
1/2+x,1/2-y,z
loop_
_atom_site_type_symbol
_atom_site_label
_atom_site_fract_x
_atom_site_fract_y
_atom_site_fract_z
Si Si1 0.920571 0.000000 0.321001
Si Si2 0.291420 0.378109 0.317486
Si Si3 0.111036 0.189156 0.088894
Si Si4 0.055008 0.385338 0.811152
Si Si5 0.671692 0.228735 0.524397
Si Si6 0.558566 0.500000 0.041984
Si Si7 0.497843 0.174445 0.656584
Si Si8 0.107004 0.183722 0.421192
O O1 0.897981 0.093578 0.457994
O O2 0.989931 0.000000 0.177389
O O3 0.911177 0.000000 0.173935
O O4 0.297850 0.500000 0.292425
O O5 0.310876 0.329127 0.425060
O O6 0.224621 0.347939 0.433282
O O7 0.329613 0.315822 0.123512
O O8 0.122243 0.165081 0.228508
O O9 0.067235 0.285758 0.173596
O O10 0.076564 0.098157 0.089310
O O11 0.063950 0.500000 0.844150
O O12 0.112201 0.319488 0.707793
O O13 0.030462 0.389049 0.705570
O O14 0.000000 0.334312 0.000000
O O15 0.654773 0.246651 0.398006
O O16 0.500000 0.125314 0.500000
O O17 0.542280 0.269187 0.551320
#
# Coordination Sequence:
#
# PCOD9199347 Si02
#       8
#     4   8   8   8   8   4   8   8
#     4  11  21  31  51  83 119 153 185 224 279 338
#     4  11  23  39  60  82 110 151 192 236 289 341
#     4  11  20  35  55  83 116 149 188 228 282 343
#     4  10  20  36  60  85 110 146 190 235 283 332
#     4  10  23  41  57  82 115 146 191 241 284 338
#     4  11  21  31  49  85 121 151 186 224 273 344
#     4   9  19  34  52  81 117 149 181 228 282 332
#     4  10  21  34  55  79 114 153 185 231 285 333
#
# _framework density 19.164857999999999
#
# number of rings (size 3 to 8) (size 9 to 14) (size 15 to 20)
#    0.000    1.714    2.143    2.571    1.000    2.571 
#    0.000    0.000    0.000    0.429    0.000    0.000 
#    0.000    0.000    0.000    0.000    0.000    0.000 
#
# Total GULP energy -155985.740429 kJ/mol
# GULP energy per Si atom -5570.919301 kJ/mol
# Density = 1.912124 g / cm^3
# Si number density = 19.164858 Si / 1000 Ang^3
#
#
#
# Elastic Constant Matrix: (Units=GPa)
#
#
# Indices 1 2 3 4 5 6 
#
# 1 134.9602 23.1529 52.4891 0.0000 -4.4851 0.0000
# 2 23.1529 49.0369 14.3444 0.0000 -6.6327 0.0000
# 3 52.4891 14.3444 79.2971 0.0000 -2.9130 0.0000
# 4 0.0000 0.0000 0.0000 28.1925 0.0000 0.6978
# 5 -4.4851 -6.6327 -2.9130 0.0000 41.7675 0.0000
# 6 0.0000 0.0000 0.0000 0.6978 0.0000 14.3311
#
#
#
# Elastic Compliance Matrix: (Units=1/GPa)
#
#
# Indices 1 2 3 4 5 6 
#
# 1 0.010397 -0.003032 -0.006326 0.000000 0.000194 0.000000
# 2 -0.003032 0.022839 -0.002008 0.000000 0.003161 0.000000
# 3 -0.006326 -0.002008 0.017169 0.000000 0.000199 0.000000
# 4 0.000000 0.000000 0.000000 0.035513 0.000000 -0.001729
# 5 0.000194 0.003161 0.000199 0.000000 0.024479 0.000000
# 6 0.000000 0.000000 0.000000 -0.001729 0.000000 0.069863
#
#
# Mechanical properties :
#
#
# Convention : Reuss Voigt Hill
#
# Bulk Modulus (GPa) = 36.13799 49.25188 42.69493
# Shear Modulus (GPa) = 23.56080 28.41208 25.98644
#
# Velocity S-wave (km/s) = 3.51005 3.85451 3.68631
# Velocity P-wave (km/s) = 5.94345 6.75015 6.35960
#
# Compressibility (1/GPa) = 0.02767171
#
# Stress axis : x y z
#
# Youngs Moduli (GPa) = 96.18528 43.78385 58.24471
#
# Poissons Ratio (x) = 0.13275 0.36847
# Poissons Ratio (y) = 0.29164 0.11698
# Poissons Ratio (z) = 0.60849 0.08794
#
# Static dielectric constant tensor:
#      x y z
#    x 1.682090 0.000000 0.018170 
#    y 0.000000 1.676670 0.000000 
#    z 0.018170 0.000000 1.703960 
# 
# From -- ./inp_files/111593.got.cif
#   From: 2010.05.17/outbox.cif.g08.bks.cpg/sg12_56_cif.got.tgz:111593.got - 2010.06.03 13:09:07.
