data_PCOD9199157
_publ_section_title
;
Structure prediction by ZEFSAII (Michael W. Deem and Ramdas Pophale) SiO2 
 PCOD9199157
Probable space group: C 2/M
;
_chemical_formula_sum "Si O2"
_cell_formula_units_Z 56
_cell_length_a 25.784473
_cell_length_b 16.962873
_cell_length_c 10.952336
_cell_angle_alpha 90.000000
_cell_angle_beta 39.043664
_cell_angle_gamma 90.000000
_cell_volume 3017.481562
_symmetry_space_group_name_H-M "C 2/M"
_symmetry_group_IT_number 12
_symmetry_cell_setting 'monoclinic'
loop_
_space_group_symop_operation_xyz
x,y,z
-x,y,-z
-x,-y,-z
x,-y,z
1/2+x,1/2+y,z
1/2-x,1/2+y,-z
1/2-x,1/2-y,-z
1/2+x,1/2-y,z
loop_
_atom_site_type_symbol
_atom_site_label
_atom_site_fract_x
_atom_site_fract_y
_atom_site_fract_z
Si Si1 0.479704 0.823964 0.173214
Si Si2 0.548022 0.093832 0.284424
Si Si3 0.879254 0.803629 0.034696
Si Si4 0.836187 0.910268 0.590833
Si Si5 0.522979 0.590717 0.326466
Si Si6 0.332679 0.294257 0.380453
Si Si7 0.782305 0.693847 0.047547
O O1 0.492893 0.881019 0.266134
O O2 0.547887 0.757964 0.075193
O O3 0.396210 0.772761 0.313017
O O4 0.500000 0.858378 0.000000
O O5 0.500000 0.108534 0.500000
O O6 0.632981 0.144828 0.130524
O O7 0.565643 0.000000 0.244393
O O8 0.803985 0.753072 0.119069
O O9 0.910832 0.863892 0.875006
O O10 0.862797 0.835098 0.199813
O O11 0.934848 0.909366 0.421561
O O12 0.816337 0.861010 0.508045
O O13 0.808072 0.000000 0.636899
O O14 0.789870 0.866283 0.785032
O O15 0.500000 0.627098 0.500000
O O16 0.549783 0.500000 0.297817
O O17 0.250000 0.250000 0.500000
O O18 0.750000 0.750000 0.000000
#
# Coordination Sequence:
#
# PCOD9199157 Si02
#       7
#     8   8   8   8   8   8   8
#     4   9  20  37  59  87 116 158 206 250 297 369
#     4  10  23  41  62  90 123 160 207 263 312 365
#     4  10  20  36  59  87 116 155 209 251 292 362
#     4  11  23  39  60  89 125 160 196 249 314 368
#     4  10  21  37  58  86 123 159 196 249 308 368
#     4  11  21  38  60  86 123 158 205 257 304 366
#     4  11  23  37  62  90 118 163 203 249 309 370
#
# _framework density 18.558522
#
# number of rings (size 3 to 8) (size 9 to 14) (size 15 to 20)
#    0.000    1.714    2.857    1.286    2.000    3.143 
#    0.000    2.857    0.000    0.000    0.000    0.000 
#    0.000    0.000    0.000    0.000    0.000    0.000 
#
# Total GULP energy -156066.892062 kJ/mol
# GULP energy per Si atom -5573.817574 kJ/mol
# Density = 1.851628 g / cm^3
# Si number density = 18.558522 Si / 1000 Ang^3
#
#
#
# Elastic Constant Matrix: (Units=GPa)
#
#
# Indices 1 2 3 4 5 6 
#
# 1 81.9822 33.2893 11.8115 0.0000 13.0748 0.0000
# 2 33.2893 97.6497 56.9035 0.0000 18.6884 0.0000
# 3 11.8115 56.9035 92.7384 0.0000 27.1564 0.0000
# 4 0.0000 0.0000 0.0000 23.0533 0.0000 -0.7210
# 5 13.0748 18.6884 27.1564 0.0000 32.5529 0.0000
# 6 0.0000 0.0000 0.0000 -0.7210 0.0000 26.0325
#
#
#
# Elastic Compliance Matrix: (Units=1/GPa)
#
#
# Indices 1 2 3 4 5 6 
#
# 1 0.015031 -0.006066 0.003382 0.000000 -0.005376 0.000000
# 2 -0.006066 0.018431 -0.010786 0.000000 0.000854 0.000000
# 3 0.003382 -0.010786 0.020583 0.000000 -0.012337 0.000000
# 4 0.000000 0.000000 0.000000 0.043415 0.000000 0.001202
# 5 -0.005376 0.000854 -0.012337 0.000000 0.042680 0.000000
# 6 0.000000 0.000000 0.000000 0.001202 0.000000 0.038447
#
#
# Mechanical properties :
#
#
# Convention : Reuss Voigt Hill
#
# Bulk Modulus (GPa) = 36.89467 52.93100 44.91284
# Shear Modulus (GPa) = 23.30314 27.68547 25.49431
#
# Velocity S-wave (km/s) = 3.54737 3.86656 3.71040
# Velocity P-wave (km/s) = 6.05820 6.96540 6.52758
#
# Compressibility (1/GPa) = 0.02710418
#
# Stress axis : x y z
#
# Youngs Moduli (GPa) = 66.52891 54.25692 48.58294
#
# Poissons Ratio (x) = 0.32912 -0.16430
# Poissons Ratio (y) = 0.40357 0.52403
# Poissons Ratio (z) = -0.22499 0.58524
#
# Static dielectric constant tensor:
#      x y z
#    x 1.660610 0.000000 0.025280 
#    y 0.000000 1.500980 0.000000 
#    z 0.025280 0.000000 1.693820 
# 
# From -- ./inp_files/98037.got.cif
#   From: 2010.05.17/outbox.cif.g08.bks.cpg/sg12_50_cif.got.tgz:98037.got - 2010.06.03 13:09:07.
