data_PCOD9199176
_publ_section_title
;
Structure prediction by ZEFSAII (Michael W. Deem and Ramdas Pophale) SiO2 
 PCOD9199176
Probable space group: C 2/M
;
_chemical_formula_sum "Si O2"
_cell_formula_units_Z 56
_cell_length_a 27.929525
_cell_length_b 8.112720
_cell_length_c 12.670418
_cell_angle_alpha 90.000000
_cell_angle_beta 109.366804
_cell_angle_gamma 90.000000
_cell_volume 2708.468145
_symmetry_space_group_name_H-M "C 2/M"
_symmetry_group_IT_number 12
_symmetry_cell_setting 'monoclinic'
loop_
_space_group_symop_operation_xyz
x,y,z
-x,y,-z
-x,-y,-z
x,-y,z
1/2+x,1/2+y,z
1/2-x,1/2+y,-z
1/2-x,1/2-y,-z
1/2+x,1/2-y,z
loop_
_atom_site_type_symbol
_atom_site_label
_atom_site_fract_x
_atom_site_fract_y
_atom_site_fract_z
Si Si1 0.493418 0.698393 0.374946
Si Si2 0.911608 0.300033 0.696765
Si Si3 0.390104 0.803119 0.921026
Si Si4 0.803731 0.681538 0.574428
Si Si5 0.405350 0.300685 0.156021
Si Si6 0.287148 0.686766 0.780143
Si Si7 0.209522 0.801891 0.881721
O O1 0.500000 0.760632 0.500000
O O2 0.489677 0.500000 0.378581
O O3 0.541147 0.741769 0.336379
O O4 0.443706 0.757351 0.274972
O O5 0.909693 0.500000 0.694068
O O6 0.912188 0.252740 0.822026
O O7 0.859048 0.236238 0.604415
O O8 0.335547 0.712257 0.891392
O O9 0.382898 0.000000 0.914592
O O10 0.420182 0.758045 0.049137
O O11 0.807712 0.500000 0.531358
O O12 0.750000 0.750000 0.500000
O O13 0.797886 0.684223 0.696321
O O14 0.405674 0.500000 0.155254
O O15 0.347717 0.245783 0.138307
O O16 0.288381 0.500000 0.740219
O O17 0.234058 0.724158 0.795356
O O18 0.209788 0.000000 0.873925
O O19 0.250000 0.750000 0.000000
#
# Coordination Sequence:
#
# PCOD9199176 Si02
#       7
#     8   8   8   8   8   8   8
#     4  10  23  43  63  85 115 155 202 248 295 353
#     4   9  21  40  61  87 118 153 191 243 301 352
#     4  10  20  36  59  87 119 151 192 242 299 363
#     4  10  21  38  59  87 120 154 198 246 294 354
#     4  10  22  38  58  86 119 156 201 250 299 358
#     4  11  21  34  54  83 120 159 195 239 295 354
#     4  11  21  34  54  83 120 158 196 241 295 356
#
# _framework density 20.675894
#
# number of rings (size 3 to 8) (size 9 to 14) (size 15 to 20)
#    0.000    1.857    1.429    3.429    0.000    6.571 
#    0.000    4.286    0.000    0.000    0.000    0.000 
#    0.000    0.000    0.000    0.000    0.000    0.000 
#
# Total GULP energy -156126.635134 kJ/mol
# GULP energy per Si atom -5575.951255 kJ/mol
# Density = 2.062884 g / cm^3
# Si number density = 20.675894 Si / 1000 Ang^3
#
#
#
# Elastic Constant Matrix: (Units=GPa)
#
#
# Indices 1 2 3 4 5 6 
#
# 1 141.3857 6.6543 72.1095 0.0000 6.0791 0.0000
# 2 6.6543 39.5532 9.3758 0.0000 4.3795 0.0000
# 3 72.1095 9.3758 128.1866 0.0000 19.7868 0.0000
# 4 0.0000 0.0000 0.0000 24.8530 0.0000 -2.2284
# 5 6.0791 4.3795 19.7868 0.0000 31.7528 0.0000
# 6 0.0000 0.0000 0.0000 -2.2284 0.0000 27.8513
#
#
#
# Elastic Compliance Matrix: (Units=1/GPa)
#
#
# Indices 1 2 3 4 5 6 
#
# 1 0.010016 -0.000492 -0.005878 0.000000 0.001813 0.000000
# 2 -0.000492 0.025953 -0.001198 0.000000 -0.002738 0.000000
# 3 -0.005878 -0.001198 0.012167 0.000000 -0.006291 0.000000
# 4 0.000000 0.000000 0.000000 0.040527 0.000000 0.003243
# 5 0.001813 -0.002738 -0.006291 0.000000 0.035444 0.000000
# 6 0.000000 0.000000 0.000000 0.003243 0.000000 0.036164
#
#
# Mechanical properties :
#
#
# Convention : Reuss Voigt Hill
#
# Bulk Modulus (GPa) = 30.30599 53.93386 42.11993
# Shear Modulus (GPa) = 26.82281 31.62382 29.22331
#
# Velocity S-wave (km/s) = 3.60571 3.91513 3.76360
# Velocity P-wave (km/s) = 5.65900 6.82493 6.26913
#
# Compressibility (1/GPa) = 0.03299677
#
# Stress axis : x y z
#
# Youngs Moduli (GPa) = 99.83908 38.53181 82.19210
#
# Poissons Ratio (x) = 0.01898 0.48315
# Poissons Ratio (y) = 0.04917 0.09851
# Poissons Ratio (z) = 0.58689 0.04618
#
# Static dielectric constant tensor:
#      x y z
#    x 1.755010 0.000000 0.050300 
#    y 0.000000 1.766680 0.000000 
#    z 0.050300 0.000000 1.807150 
# 
# From -- ./inp_files/181023.got.cif
#   From: 2010.05.17/outbox.cif.g08.bks.cpg/sg12_91_cif.got.tgz:181023.got - 2010.06.03 13:09:07.
