data_PCOD9199816
_publ_section_title
;
Structure prediction by ZEFSAII (Michael W. Deem and Ramdas Pophale) SiO2 
 PCOD9199816
Probable space group: C 2/M
;
_chemical_formula_sum "Si O2"
_cell_formula_units_Z 56
_cell_length_a 18.557737
_cell_length_b 13.590606
_cell_length_c 21.545997
_cell_angle_alpha 90.000000
_cell_angle_beta 28.820568
_cell_angle_gamma 90.000000
_cell_volume 2619.623839
_symmetry_space_group_name_H-M "C 2/M"
_symmetry_group_IT_number 12
_symmetry_cell_setting 'monoclinic'
loop_
_space_group_symop_operation_xyz
x,y,z
-x,y,-z
-x,-y,-z
x,-y,z
1/2+x,1/2+y,z
1/2-x,1/2+y,-z
1/2-x,1/2-y,-z
1/2+x,1/2-y,z
loop_
_atom_site_type_symbol
_atom_site_label
_atom_site_fract_x
_atom_site_fract_y
_atom_site_fract_z
Si Si1 0.888695 0.618689 0.138704
Si Si2 0.649103 0.384043 0.735864
Si Si3 0.220746 0.385088 0.224104
Si Si4 0.479490 0.117024 0.828951
Si Si5 0.444245 0.292673 0.612540
Si Si6 0.817245 0.881007 0.015293
Si Si7 0.757427 0.213715 0.563768
O O1 0.878470 0.500000 0.146118
O O2 0.968626 0.650586 0.142031
O O3 0.719331 0.658107 0.261009
O O4 0.000000 0.649022 0.000000
O O5 0.673672 0.500000 0.701198
O O6 0.690583 0.374639 0.777742
O O7 0.736513 0.306449 0.627136
O O8 0.473636 0.358918 0.864609
O O9 0.181947 0.500000 0.247213
O O10 0.079855 0.314845 0.339692
O O11 0.305300 0.353546 0.097256
O O12 0.326580 0.155294 0.914148
O O13 0.618652 0.143029 0.680963
O O14 0.461252 0.000000 0.847575
O O15 0.500000 0.287656 0.500000
O O16 0.584247 0.338734 0.542651
O O17 0.812459 0.000000 0.019920
O O18 0.750000 0.250000 0.500000
#
# Coordination Sequence:
#
# PCOD9199816 Si02
#       7
#     8   8   8   8   8   8   8
#     4  10  23  43  69  95 119 158 212 265 315 365
#     4  10  21  38  60  88 125 162 206 258 302 363
#     4  10  20  36  61  92 126 164 204 247 303 373
#     4  10  21  40  62  87 122 158 201 259 312 365
#     4  12  23  41  62  91 125 165 209 249 305 370
#     4   9  19  36  61  92 123 160 202 249 314 373
#     4  12  26  41  58  88 124 162 211 251 305 374
#
# _framework density 21.377115
#
# number of rings (size 3 to 8) (size 9 to 14) (size 15 to 20)
#    0.000    1.571    2.857    1.286    0.000    8.000 
#    0.000    1.429    0.000    0.000    0.000    0.000 
#    0.000    0.000    0.000    0.000    0.000    0.000 
#
# Total GULP energy -156400.031998 kJ/mol
# GULP energy per Si atom -5585.715429 kJ/mol
# Density = 2.132846 g / cm^3
# Si number density = 21.377115 Si / 1000 Ang^3
#
#
#
# Elastic Constant Matrix: (Units=GPa)
#
#
# Indices 1 2 3 4 5 6 
#
# 1 111.7928 16.3977 55.5105 -0.0013 3.7160 0.0004
# 2 16.3977 59.3615 19.1776 -0.0013 -6.2516 0.0003
# 3 55.5105 19.1776 129.2535 -0.0032 -2.2516 0.0010
# 4 -0.0013 -0.0013 -0.0032 33.9450 0.0007 -1.0209
# 5 3.7160 -6.2516 -2.2516 0.0007 40.4674 -0.0001
# 6 0.0004 0.0003 0.0010 -1.0209 -0.0001 18.2651
#
#
#
# Elastic Compliance Matrix: (Units=1/GPa)
#
#
# Indices 1 2 3 4 5 6 
#
# 1 0.011627 -0.001848 -0.004748 0.000000 -0.001617 0.000000
# 2 -0.001848 0.018263 -0.001866 0.000000 0.002887 0.000000
# 3 -0.004748 -0.001866 0.010065 0.000001 0.000708 0.000000
# 4 0.000000 0.000000 0.000001 0.029509 0.000000 0.001649
# 5 -0.001617 0.002887 0.000708 0.000000 0.025345 0.000000
# 6 0.000000 0.000000 0.000000 0.001649 0.000000 0.054841
#
#
# Mechanical properties :
#
#
# Convention : Reuss Voigt Hill
#
# Bulk Modulus (GPa) = 43.41727 53.61995 48.51861
# Shear Modulus (GPa) = 28.69414 32.49032 30.59223
#
# Velocity S-wave (km/s) = 3.66769 3.90277 3.78706
# Velocity P-wave (km/s) = 6.18791 6.74138 6.47056
#
# Compressibility (1/GPa) = 0.02303231
#
# Stress axis : x y z
#
# Youngs Moduli (GPa) = 86.00385 54.75447 99.35629
#
# Poissons Ratio (x) = 0.10121 0.47170
# Poissons Ratio (y) = 0.15897 0.18536
# Poissons Ratio (z) = 0.40831 0.10215
#
# Static dielectric constant tensor:
#      x y z
#    x 1.782570 0.000000 -0.022070 
#    y 0.000000 1.814440 0.000000 
#    z -0.022070 0.000000 1.743720 
# 
# From -- ./inp_files/316700.got.cif
#   From: 2010.05.17/outbox.cif.g08.bks.cpg/sg12_159_cif.got.tgz:316700.got - 2010.06.03 13:09:07.
