data_PCOD9199546
_publ_section_title
;
Structure prediction by ZEFSAII (Michael W. Deem and Ramdas Pophale) SiO2 
 PCOD9199546
Probable space group: C 2/M
;
_chemical_formula_sum "Si O2"
_cell_formula_units_Z 48
_cell_length_a 14.563108
_cell_length_b 8.465604
_cell_length_c 17.785686
_cell_angle_alpha 90.000000
_cell_angle_beta 92.678424
_cell_angle_gamma 90.000000
_cell_volume 2190.321837
_symmetry_space_group_name_H-M "C 2/M"
_symmetry_group_IT_number 12
_symmetry_cell_setting 'monoclinic'
loop_
_space_group_symop_operation_xyz
x,y,z
-x,y,-z
-x,-y,-z
x,-y,z
1/2+x,1/2+y,z
1/2-x,1/2+y,-z
1/2-x,1/2-y,-z
1/2+x,1/2-y,z
loop_
_atom_site_type_symbol
_atom_site_label
_atom_site_fract_x
_atom_site_fract_y
_atom_site_fract_z
Si Si1 0.084316 0.686688 0.786394
Si Si2 0.677341 0.820202 0.334880
Si Si3 0.219020 0.314322 0.167360
Si Si4 0.680845 0.181564 0.559139
Si Si5 0.010732 0.817207 0.628063
Si Si6 0.955128 0.692526 0.920919
O O1 0.071358 0.500000 0.769828
O O2 0.187622 0.720222 0.817445
O O3 0.058967 0.781990 0.710332
O O4 0.018613 0.734389 0.852650
O O5 0.664986 0.806879 0.245068
O O6 0.757836 0.704137 0.363558
O O7 0.582996 0.782370 0.373756
O O8 0.707289 0.000000 0.352291
O O9 0.241051 0.500000 0.156101
O O10 0.149008 0.256625 0.100897
O O11 0.750000 0.250000 0.500000
O O12 0.585500 0.271030 0.568461
O O13 0.661516 0.000000 0.543911
O O14 0.986394 0.000000 0.620903
O O15 0.952649 0.500000 0.923105
O O16 0.000000 0.748795 0.000000
#
# Coordination Sequence:
#
# PCOD9199546 Si02
#       6
#     8   8   8   8   8   8
#     4  11  21  36  60  90 120 160 210 258 309 369
#     4  11  22  40  65  95 126 163 208 258 311 369
#     4  10  20  36  60  89 121 159 205 254 308 368
#     4  12  26  45  67  95 129 165 204 255 312 370
#     4  12  24  40  64  94 126 165 210 258 307 367
#     4   9  19  37  59  85 122 165 205 252 311 370
#
# _framework density 21.914586
#
# number of rings (size 3 to 8) (size 9 to 14) (size 15 to 20)
#    0.000    1.167    3.333    4.000    0.000    2.000 
#    0.000    3.333    0.000    3.500    0.000    0.000 
#    0.000    0.000    0.000    0.000    0.000    0.000 
#
# Total GULP energy -134262.841551 kJ/mol
# GULP energy per Si atom -5594.285065 kJ/mol
# Density = 2.186471 g / cm^3
# Si number density = 21.914586 Si / 1000 Ang^3
#
#
#
# Elastic Constant Matrix: (Units=GPa)
#
#
# Indices 1 2 3 4 5 6 
#
# 1 81.8198 -10.6333 -6.5218 0.0000 -2.9917 0.0000
# 2 -10.6333 55.4643 0.2017 0.0000 -6.4109 0.0000
# 3 -6.5218 0.2017 42.2042 0.0000 6.9817 0.0000
# 4 0.0000 0.0000 0.0000 17.4844 0.0000 2.4202
# 5 -2.9917 -6.4109 6.9817 0.0000 30.4656 0.0000
# 6 0.0000 0.0000 0.0000 2.4202 0.0000 30.8560
#
#
#
# Elastic Compliance Matrix: (Units=1/GPa)
#
#
# Indices 1 2 3 4 5 6 
#
# 1 0.012749 0.002600 0.001725 0.000000 0.001404 0.000000
# 2 0.002600 0.019033 -0.000409 0.000000 0.004354 0.000000
# 3 0.001725 -0.000409 0.024893 0.000000 -0.005621 0.000000
# 4 0.000000 0.000000 0.000000 0.057822 0.000000 -0.004535
# 5 0.001404 0.004354 -0.005621 0.000000 0.035166 0.000000
# 6 0.000000 0.000000 0.000000 -0.004535 0.000000 0.032764
#
#
# Mechanical properties :
#
#
# Convention : Reuss Voigt Hill
#
# Bulk Modulus (GPa) = 15.50232 16.17573 15.83903
# Shear Modulus (GPa) = 25.49762 28.85732 27.17747
#
# Velocity S-wave (km/s) = 3.41471 3.63272 3.52540
# Velocity P-wave (km/s) = 4.75777 4.99929 4.88002
#
# Compressibility (1/GPa) = 0.06450648
#
# Stress axis : x y z
#
# Youngs Moduli (GPa) = 78.43911 52.54074 40.17217
#
# Poissons Ratio (x) = -0.13661 -0.06931
# Poissons Ratio (y) = -0.20395 0.01645
# Poissons Ratio (z) = -0.13534 0.02151
#
# Static dielectric constant tensor:
#      x y z
#    x 1.796700 0.000000 0.019390 
#    y 0.000000 1.747550 0.000000 
#    z 0.019390 0.000000 1.848190 
# 
# From -- ./inp_files/267606.got.cif
#   From: 2010.05.17/outbox.cif.g08.bks.cpg/sg12_134_cif.got.tgz:267606.got - 2010.06.03 13:09:07.
