data_PCOD9199099
_publ_section_title
;
Structure prediction by ZEFSAII (Michael W. Deem and Ramdas Pophale) SiO2 
 PCOD9199099
Probable space group: C 2/M
;
_chemical_formula_sum "Si O2"
_cell_formula_units_Z 40
_cell_length_a 27.341279
_cell_length_b 15.652068
_cell_length_c 10.398954
_cell_angle_alpha 90.000000
_cell_angle_beta 154.311640
_cell_angle_gamma 90.000000
_cell_volume 1929.057989
_symmetry_space_group_name_H-M "C 2/M"
_symmetry_group_IT_number 12
_symmetry_cell_setting 'monoclinic'
loop_
_space_group_symop_operation_xyz
x,y,z
-x,y,-z
-x,-y,-z
x,-y,z
1/2+x,1/2+y,z
1/2-x,1/2+y,-z
1/2-x,1/2-y,-z
1/2+x,1/2-y,z
loop_
_atom_site_type_symbol
_atom_site_label
_atom_site_fract_x
_atom_site_fract_y
_atom_site_fract_z
Si Si1 0.834546 0.597473 0.823474
Si Si2 0.129820 0.174524 0.839040
Si Si3 0.536819 0.218952 0.229041
Si Si4 0.743250 0.899693 0.636696
Si Si5 0.786030 0.839193 0.219857
O O1 0.878569 0.500000 0.911184
O O2 0.755205 0.616886 0.512158
O O3 0.762740 0.602953 0.782840
O O4 0.933559 0.668410 0.051108
O O5 0.188553 0.123177 0.860235
O O6 0.000000 0.181019 0.500000
O O7 0.154771 0.135237 0.036959
O O8 0.190441 0.266235 0.978146
O O9 0.632699 0.148106 0.427217
O O10 0.600866 0.290927 0.462390
O O11 0.500000 0.250653 0.000000
O O12 0.733208 0.000000 0.631972
#
# Coordination Sequence:
#
# PCOD9199099 Si02
#       5
#     8   8   8   8   8
#     4  10  20  36  59  86 113 140 179 234 282 319
#     4  10  21  36  54  75 109 151 187 220 269 333
#     4   9  18  33  58  83 109 144 182 225 279 331
#     4   9  19  35  54  79 109 144 185 224 270 332
#     4  10  21  35  55  84 110 139 186 235 271 319
#
# _framework density 20.735509
#
# number of rings (size 3 to 8) (size 9 to 14) (size 15 to 20)
#    0.000    2.400    0.000    1.800    0.000   12.400 
#    0.000    0.000    0.000   15.600    0.000    0.000 
#    0.000    0.000    0.000    0.000    0.000    0.000 
#
# Total GULP energy -111629.695835 kJ/mol
# GULP energy per Si atom -5581.484792 kJ/mol
# Density = 2.068831 g / cm^3
# Si number density = 20.735509 Si / 1000 Ang^3
#
#
#
# Elastic Constant Matrix: (Units=GPa)
#
#
# Indices 1 2 3 4 5 6 
#
# 1 87.7742 4.1588 18.4593 0.0000 -2.6047 0.0000
# 2 4.1588 19.7963 -3.3844 0.0000 2.0135 0.0000
# 3 18.4593 -3.3844 100.6962 0.0000 -2.5730 0.0000
# 4 0.0000 0.0000 0.0000 8.5455 0.0000 -0.4912
# 5 -2.6047 2.0135 -2.5730 0.0000 12.2695 0.0000
# 6 0.0000 0.0000 0.0000 -0.4912 0.0000 18.0817
#
#
#
# Elastic Compliance Matrix: (Units=1/GPa)
#
#
# Indices 1 2 3 4 5 6 
#
# 1 0.012097 -0.003194 -0.002258 0.000000 0.002619 0.000000
# 2 -0.003194 0.052447 0.002122 0.000000 -0.008840 0.000000
# 3 -0.002258 0.002122 0.010451 0.000000 0.001364 0.000000
# 4 0.000000 0.000000 0.000000 0.117204 0.000000 0.003184
# 5 0.002619 -0.008840 0.001364 0.000000 0.083795 0.000000
# 6 0.000000 0.000000 0.000000 0.003184 0.000000 0.055391
#
#
# Mechanical properties :
#
#
# Convention : Reuss Voigt Hill
#
# Bulk Modulus (GPa) = 14.63345 27.41489 21.02417
# Shear Modulus (GPa) = 13.85721 20.38154 17.11938
#
# Velocity S-wave (km/s) = 2.58792 3.13857 2.87645
# Velocity P-wave (km/s) = 4.00029 5.13655 4.60361
#
# Compressibility (1/GPa) = 0.06833659
#
# Stress axis : x y z
#
# Youngs Moduli (GPa) = 82.66678 19.06671 95.68492
#
# Poissons Ratio (x) = 0.06089 0.21605
# Poissons Ratio (y) = 0.26401 -0.20307
# Poissons Ratio (z) = 0.18666 -0.04047
#
# Static dielectric constant tensor:
#      x y z
#    x 1.781090 0.000000 -0.034560 
#    y 0.000000 1.739380 0.000000 
#    z -0.034560 0.000000 1.741960 
# 
# From -- ./inp_files/75523.got.cif
#   From: 2010.05.17/outbox.cif.g08.bks.cpg/sg12_38_cif.got.tgz:75523.got - 2010.06.03 13:09:07.
