data_PCOD9199429
_publ_section_title
;
Structure prediction by ZEFSAII (Michael W. Deem and Ramdas Pophale) SiO2 
 PCOD9199429
Probable space group: C 2/M
;
_chemical_formula_sum "Si O2"
_cell_formula_units_Z 64
_cell_length_a 18.358916
_cell_length_b 8.853120
_cell_length_c 31.058177
_cell_angle_alpha 90.000000
_cell_angle_beta 137.983303
_cell_angle_gamma 90.000000
_cell_volume 3378.864381
_symmetry_space_group_name_H-M "C 2/M"
_symmetry_group_IT_number 12
_symmetry_cell_setting 'monoclinic'
loop_
_space_group_symop_operation_xyz
x,y,z
-x,y,-z
-x,-y,-z
x,-y,z
1/2+x,1/2+y,z
1/2-x,1/2+y,-z
1/2-x,1/2-y,-z
1/2+x,1/2-y,z
loop_
_atom_site_type_symbol
_atom_site_label
_atom_site_fract_x
_atom_site_fract_y
_atom_site_fract_z
Si Si1 0.716910 0.819291 0.810679
Si Si2 0.067615 0.820133 0.819314
Si Si3 0.072939 0.320482 0.425041
Si Si4 0.186630 0.820235 0.308249
Si Si5 0.343165 0.679079 0.307431
Si Si6 0.767106 0.819176 0.573581
Si Si7 0.529117 0.680809 0.062131
Si Si8 0.131971 0.319859 0.938817
O O1 0.646796 0.745316 0.817766
O O2 0.678043 0.756764 0.747816
O O3 0.844643 0.785049 0.873341
O O4 0.703836 0.000000 0.806254
O O5 0.091502 0.742017 0.875212
O O6 0.942324 0.793698 0.751243
O O7 0.083820 0.000000 0.830490
O O8 0.054656 0.500000 0.415306
O O9 0.140942 0.266687 0.413214
O O10 0.151828 0.287058 0.500161
O O11 0.959046 0.235580 0.376064
O O12 0.250321 0.730410 0.299776
O O13 0.227893 0.780321 0.374113
O O14 0.205317 0.000000 0.309796
O O15 0.343745 0.500000 0.302288
O O16 0.786832 0.000000 0.578270
O O17 0.513280 0.500000 0.060919
O O18 0.451242 0.766329 0.060900
O O19 0.500000 0.717518 0.000000
O O20 0.139254 0.500000 0.941036
O O21 0.250000 0.250000 0.000000
#
# Coordination Sequence:
#
# PCOD9199429 Si02
#       8
#     8   8   8   8   8   8   8   8
#     4  11  23  40  64  91 121 157 197 242 294 353
#     4  11  23  40  64  92 123 157 195 242 296 356
#     4  10  20  36  60  87 117 153 194 242 296 355
#     4  10  22  40  60  84 117 155 194 240 297 355
#     4  12  25  39  57  83 118 157 200 248 294 347
#     4   9  19  37  61  88 117 151 193 242 296 355
#     4  10  22  41  64  91 123 156 193 242 300 357
#     4  12  25  41  63  90 123 161 203 249 295 348
#
# _framework density 18.941275999999998
#
# number of rings (size 3 to 8) (size 9 to 14) (size 15 to 20)
#    0.000    1.375    0.000    5.625    0.000    8.750 
#    0.000    2.500    0.000    0.000    0.000    0.000 
#    0.000    0.000    0.000    0.000    0.000    0.000 
#
# Total GULP energy -179008.048680 kJ/mol
# GULP energy per Si atom -5594.001521 kJ/mol
# Density = 1.889817 g / cm^3
# Si number density = 18.941276 Si / 1000 Ang^3
#
#
#
# Elastic Constant Matrix: (Units=GPa)
#
#
# Indices 1 2 3 4 5 6 
#
# 1 154.3009 86.6263 78.0138 0.0000 -2.1144 0.0000
# 2 86.6263 97.3475 68.6355 0.0000 8.1079 0.0000
# 3 78.0138 68.6355 108.1802 0.0000 -5.6764 0.0000
# 4 0.0000 0.0000 0.0000 25.4801 0.0000 0.0034
# 5 -2.1144 8.1079 -5.6764 0.0000 36.4119 0.0000
# 6 0.0000 0.0000 0.0000 0.0034 0.0000 40.9831
#
#
#
# Elastic Compliance Matrix: (Units=1/GPa)
#
#
# Indices 1 2 3 4 5 6 
#
# 1 0.014024 -0.010233 -0.003487 0.000000 0.002549 0.000000
# 2 -0.010233 0.027465 -0.010484 0.000000 -0.008344 0.000000
# 3 -0.003487 -0.010484 0.018675 0.000000 0.005043 0.000000
# 4 0.000000 0.000000 0.000000 0.039246 0.000000 -0.000003
# 5 0.002549 -0.008344 0.005043 0.000000 0.030256 0.000000
# 6 0.000000 0.000000 0.000000 -0.000003 0.000000 0.024400
#
#
# Mechanical properties :
#
#
# Convention : Reuss Voigt Hill
#
# Bulk Modulus (GPa) = 85.06363 91.81998 88.44181
# Shear Modulus (GPa) = 24.22575 29.01188 26.61881
#
# Velocity S-wave (km/s) = 3.58018 3.91791 3.75284
# Velocity P-wave (km/s) = 7.88016 8.30952 8.09768
#
# Compressibility (1/GPa) = 0.01175591
#
# Stress axis : x y z
#
# Youngs Moduli (GPa) = 71.30759 36.40977 53.54894
#
# Poissons Ratio (x) = 0.37258 0.18672
# Poissons Ratio (y) = 0.72970 0.56139
# Poissons Ratio (z) = 0.24865 0.38171
#
# Static dielectric constant tensor:
#      x y z
#    x 1.610960 0.000000 0.002820 
#    y 0.000000 1.636990 0.000000 
#    z 0.002820 0.000000 1.642310 
# 
# From -- ./inp_files/378495.got.cif
#   From: 2010.05.17/outbox.cif.g08.bks.cpg/sg12_190_cif.got.tgz:378495.got - 2010.06.03 13:09:07.
