data_PCOD9199771
_publ_section_title
;
Structure prediction by ZEFSAII (Michael W. Deem and Ramdas Pophale) SiO2 
 PCOD9199771
Probable space group: C 2/M
;
_chemical_formula_sum "Si O2"
_cell_formula_units_Z 64
_cell_length_a 14.513789
_cell_length_b 24.712815
_cell_length_c 17.209955
_cell_angle_alpha 90.000000
_cell_angle_beta 149.321451
_cell_angle_gamma 90.000000
_cell_volume 3149.495954
_symmetry_space_group_name_H-M "C 2/M"
_symmetry_group_IT_number 12
_symmetry_cell_setting 'monoclinic'
loop_
_space_group_symop_operation_xyz
x,y,z
-x,y,-z
-x,-y,-z
x,-y,z
1/2+x,1/2+y,z
1/2-x,1/2+y,-z
1/2-x,1/2-y,-z
1/2+x,1/2-y,z
loop_
_atom_site_type_symbol
_atom_site_label
_atom_site_fract_x
_atom_site_fract_y
_atom_site_fract_z
Si Si1 0.683915 0.439615 0.801637
Si Si2 0.267678 0.559726 0.508388
Si Si3 0.487389 0.845098 0.646428
Si Si4 0.723065 0.311056 0.849794
Si Si5 0.511468 0.176891 0.182781
Si Si6 0.846804 0.217116 0.659082
Si Si7 0.802293 0.096333 0.356273
Si Si8 0.674760 0.707442 0.177862
O O1 0.757411 0.500000 0.880970
O O2 0.478367 0.436396 0.683792
O O3 0.750768 0.376782 0.862366
O O4 0.686081 0.441955 0.709390
O O5 0.202480 0.500000 0.476451
O O6 0.133596 0.601739 0.449808
O O7 0.274465 0.570206 0.420317
O O8 0.561606 0.846349 0.789176
O O9 0.338419 0.800285 0.514429
O O10 0.659294 0.831575 0.720735
O O11 0.520180 0.299634 0.733234
O O12 0.766176 0.269011 0.809975
O O13 0.862259 0.296479 0.020137
O O14 0.650913 0.219684 0.319137
O O15 0.629952 0.134267 0.222357
O O16 0.865750 0.196763 0.761282
O O17 0.000000 0.124993 0.500000
O O18 0.500000 0.695126 0.000000
#
# Coordination Sequence:
#
# PCOD9199771 Si02
#       8
#     8   8   8   8   8   8   8   8
#     4  10  20  36  61  90 127 169 213 259 303 370
#     4   9  18  37  62  89 122 162 209 266 322 365
#     4  11  23  40  62  95 120 160 214 261 308 372
#     4  12  24  42  60  91 131 173 211 248 320 386
#     4  11  22  38  59  85 129 169 201 254 312 371
#     4  12  23  40  62  90 124 160 211 262 305 371
#     4   9  19  33  57  90 124 164 211 253 307 372
#     4  12  25  41  64  89 130 171 202 255 324 377
#
# _framework density 20.320709999999998
#
# number of rings (size 3 to 8) (size 9 to 14) (size 15 to 20)
#    0.000    1.250    3.750    3.000    0.000    2.500 
#    0.000    3.750    0.000    2.625    0.000    0.000 
#    0.000    0.000    0.000    0.000    0.000    0.000 
#
# Total GULP energy -178158.288577 kJ/mol
# GULP energy per Si atom -5567.446518 kJ/mol
# Density = 2.027446 g / cm^3
# Si number density = 20.320710 Si / 1000 Ang^3
#
#
#
# Elastic Constant Matrix: (Units=GPa)
#
#
# Indices 1 2 3 4 5 6 
#
# 1 42.8216 8.9755 26.9044 0.0000 1.1782 0.0000
# 2 8.9755 91.6564 4.2475 0.0000 7.9963 0.0000
# 3 26.9044 4.2475 69.7132 0.0000 2.5108 0.0000
# 4 0.0000 0.0000 0.0000 15.6125 0.0000 3.3426
# 5 1.1782 7.9963 2.5108 0.0000 24.7929 0.0000
# 6 0.0000 0.0000 0.0000 3.3426 0.0000 8.5097
#
#
#
# Elastic Compliance Matrix: (Units=1/GPa)
#
#
# Indices 1 2 3 4 5 6 
#
# 1 0.031405 -0.002568 -0.011983 0.000000 0.000549 0.000000
# 2 -0.002568 0.011458 0.000423 0.000000 -0.003616 0.000000
# 3 -0.011983 0.000423 0.018997 0.000000 -0.001491 0.000000
# 4 0.000000 0.000000 0.000000 0.069932 0.000000 -0.027469
# 5 0.000549 -0.003616 -0.001491 0.000000 0.041625 0.000000
# 6 0.000000 0.000000 0.000000 -0.027469 0.000000 0.128303
#
#
# Mechanical properties :
#
#
# Convention : Reuss Voigt Hill
#
# Bulk Modulus (GPa) = 29.75892 31.60512 30.68202
# Shear Modulus (GPa) = 14.65512 20.72060 17.68786
#
# Velocity S-wave (km/s) = 2.68841 3.19671 2.95351
# Velocity P-wave (km/s) = 4.93084 5.40483 5.17326
#
# Compressibility (1/GPa) = 0.03360337
#
# Stress axis : x y z
#
# Youngs Moduli (GPa) = 31.84215 87.27785 52.63946
#
# Poissons Ratio (x) = 0.22412 0.63080
# Poissons Ratio (y) = 0.08177 -0.02228
# Poissons Ratio (z) = 0.38158 -0.03694
#
# Static dielectric constant tensor:
#      x y z
#    x 1.771840 0.000000 -0.028000 
#    y 0.000000 1.795170 0.000000 
#    z -0.028000 0.000000 1.740090 
# 
# From -- ./inp_files/272857.got.cif
#   From: 2010.05.17/outbox.cif.g08.bks.cpg/sg12_137_cif.got.tgz:272857.got - 2010.06.03 13:09:07.
