data_PCOD9199923
_publ_section_title
;
Structure prediction by ZEFSAII (Michael W. Deem and Ramdas Pophale) SiO2 
 PCOD9199923
Probable space group: C 2/M
;
_chemical_formula_sum "Si O2"
_cell_formula_units_Z 56
_cell_length_a 19.359428
_cell_length_b 24.174233
_cell_length_c 8.706327
_cell_angle_alpha 90.000000
_cell_angle_beta 41.270172
_cell_angle_gamma 90.000000
_cell_volume 2687.619245
_symmetry_space_group_name_H-M "C 2/M"
_symmetry_group_IT_number 12
_symmetry_cell_setting 'monoclinic'
loop_
_space_group_symop_operation_xyz
x,y,z
-x,y,-z
-x,-y,-z
x,-y,z
1/2+x,1/2+y,z
1/2-x,1/2+y,-z
1/2-x,1/2-y,-z
1/2+x,1/2-y,z
loop_
_atom_site_type_symbol
_atom_site_label
_atom_site_fract_x
_atom_site_fract_y
_atom_site_fract_z
Si Si1 0.806514 0.833278 0.110189
Si Si2 0.609180 0.435727 0.222123
Si Si3 0.100939 0.435328 0.741364
Si Si4 0.396767 0.337862 0.275012
Si Si5 0.990697 0.758018 0.695840
Si Si6 0.692955 0.437621 0.400412
Si Si7 0.577038 0.858010 0.499161
O O1 0.807939 0.831419 0.294105
O O2 0.686868 0.833036 0.253550
O O3 0.863117 0.889133 0.949480
O O4 0.879433 0.782422 0.935551
O O5 0.500000 0.427009 0.500000
O O6 0.608901 0.500000 0.167156
O O7 0.695694 0.430431 0.212933
O O8 0.086123 0.500000 0.729766
O O9 0.197866 0.431376 0.695109
O O10 0.111180 0.401964 0.568161
O O11 0.000000 0.414284 0.000000
O O12 0.419888 0.288436 0.353666
O O13 0.380382 0.392316 0.401403
O O14 0.500000 0.342997 0.000000
O O15 0.000000 0.771361 0.500000
O O16 0.010346 0.692959 0.679503
O O17 0.653436 0.500000 0.493410
O O18 0.500000 0.882761 0.500000
#
# Coordination Sequence:
#
# PCOD9199923 Si02
#       7
#     8   8   8   8   8   8   8
#     4  11  22  40  63  92 130 160 202 264 311 358
#     4  10  21  37  63  97 131 170 209 246 307 381
#     4  10  23  44  65  90 126 165 207 255 306 366
#     4  10  20  36  62  90 125 163 197 252 313 359
#     4  10  23  43  62  89 127 163 205 252 313 371
#     4  10  20  37  60  90 125 166 210 247 302 371
#     4  11  26  44  65  96 121 160 215 257 312 372
#
# _framework density 20.836285
#
# number of rings (size 3 to 8) (size 9 to 14) (size 15 to 20)
#    0.000    1.714    1.429    3.000    2.000    6.286 
#    2.571    0.000    0.000    0.000    0.000    0.000 
#    0.000    0.000    0.000    0.000    0.000    0.000 
#
# Total GULP energy -156293.096233 kJ/mol
# GULP energy per Si atom -5581.896294 kJ/mol
# Density = 2.078886 g / cm^3
# Si number density = 20.836285 Si / 1000 Ang^3
#
#
#
# Elastic Constant Matrix: (Units=GPa)
#
#
# Indices 1 2 3 4 5 6 
#
# 1 127.4282 16.5671 12.9277 0.0000 1.7746 0.0000
# 2 16.5671 51.1282 15.0320 0.0000 9.6636 0.0000
# 3 12.9277 15.0320 26.2197 0.0000 -6.1310 0.0000
# 4 0.0000 0.0000 0.0000 19.5464 0.0000 10.3072
# 5 1.7746 9.6636 -6.1310 0.0000 31.3948 0.0000
# 6 0.0000 0.0000 0.0000 10.3072 0.0000 77.4627
#
#
#
# Elastic Compliance Matrix: (Units=1/GPa)
#
#
# Indices 1 2 3 4 5 6 
#
# 1 0.008408 -0.001614 -0.003369 0.000000 -0.000637 0.000000
# 2 -0.001614 0.027548 -0.017771 0.000000 -0.011859 0.000000
# 3 -0.003369 -0.017771 0.053767 0.000000 0.016160 0.000000
# 4 0.000000 0.000000 0.000000 0.055021 0.000000 -0.007321
# 5 -0.000637 -0.011859 0.016160 0.000000 0.038694 0.000000
# 6 0.000000 0.000000 0.000000 -0.007321 0.000000 0.013884
#
#
# Mechanical properties :
#
#
# Convention : Reuss Voigt Hill
#
# Bulk Modulus (GPa) = 22.61631 32.64776 27.63204
# Shear Modulus (GPa) = 19.41239 36.36405 27.88822
#
# Velocity S-wave (km/s) = 3.05563 4.18212 3.66245
# Velocity P-wave (km/s) = 4.82980 6.24683 5.58345
#
# Compressibility (1/GPa) = 0.04421588
#
# Stress axis : x y z
#
# Youngs Moduli (GPa) = 118.93394 36.30089 18.59864
#
# Poissons Ratio (x) = 0.05857 0.06267
# Poissons Ratio (y) = 0.19190 0.33051
# Poissons Ratio (z) = 0.40074 0.64509
#
# Static dielectric constant tensor:
#      x y z
#    x 1.837750 0.000000 -0.003800 
#    y 0.000000 1.732360 0.000000 
#    z -0.003800 0.000000 1.780760 
# 
# From -- ./inp_files/80025.got.cif
#   From: 2010.05.17/outbox.cif.g08.bks.cpg/sg12_41_cif.got.tgz:80025.got - 2010.06.03 13:09:07.
