data_PCOD9199614
_publ_section_title
;
Structure prediction by ZEFSAII (Michael W. Deem and Ramdas Pophale) SiO2 
 PCOD9199614
Probable space group: C 2/M
;
_chemical_formula_sum "Si O2"
_cell_formula_units_Z 52
_cell_length_a 23.810152
_cell_length_b 7.460096
_cell_length_c 22.669036
_cell_angle_alpha 90.000000
_cell_angle_beta 142.693403
_cell_angle_gamma 90.000000
_cell_volume 2440.448120
_symmetry_space_group_name_H-M "C 2/M"
_symmetry_group_IT_number 12
_symmetry_cell_setting 'monoclinic'
loop_
_space_group_symop_operation_xyz
x,y,z
-x,y,-z
-x,-y,-z
x,-y,z
1/2+x,1/2+y,z
1/2-x,1/2+y,-z
1/2-x,1/2-y,-z
1/2+x,1/2-y,z
loop_
_atom_site_type_symbol
_atom_site_label
_atom_site_fract_x
_atom_site_fract_y
_atom_site_fract_z
Si Si1 0.209228 0.788237 0.837626
Si Si2 0.970586 0.295524 0.253923
Si Si3 0.970895 0.783019 0.909515
Si Si4 0.265317 0.715122 0.751066
Si Si5 0.433594 0.500000 0.596459
Si Si6 0.373500 0.793669 0.054790
Si Si7 0.085200 0.713793 0.525849
O O1 0.108689 0.703439 0.761646
O O2 0.249245 0.766118 0.805666
O O3 0.195578 0.000000 0.835340
O O4 0.282794 0.715666 0.947053
O O5 0.001633 0.500000 0.268804
O O6 0.914608 0.222681 0.149957
O O7 0.048143 0.157936 0.338209
O O8 0.865395 0.721904 0.812299
O O9 0.044476 0.713052 0.924395
O O10 0.974363 0.000000 0.909000
O O11 0.000000 0.732053 0.000000
O O12 0.268248 0.500000 0.752973
O O13 0.178874 0.767304 0.638824
O O14 0.425992 0.342045 0.539070
O O15 0.349806 0.000000 0.047681
O O16 0.089730 0.500000 0.514319
O O17 0.000000 0.735785 0.500000
#
# Coordination Sequence:
#
# PCOD9199614 Si02
#       7
#     8   8   8   8   4   8   8
#     4  11  21  35  58  90 130 167 208 249 309 382
#     4  11  24  41  60  90 126 169 213 264 315 367
#     4  10  20  36  60  91 126 165 206 253 314 382
#     4  10  21  37  58  94 129 164 202 258 320 379
#     4  12  23  40  64  90 116 165 216 262 314 376
#     4  10  23  39  58  88 126 168 212 258 305 373
#     4  10  22  39  62  93 131 163 206 265 322 375
#
# _framework density 21.307562999999998
#
# number of rings (size 3 to 8) (size 9 to 14) (size 15 to 20)
#    0.000    1.538    2.308    2.538    2.154    2.769 
#    0.000    0.000    0.000    0.923    0.000    0.000 
#    0.000    0.000    0.000    0.000    0.000    0.000 
#
# Total GULP energy -144787.507323 kJ/mol
# GULP energy per Si atom -5568.750282 kJ/mol
# Density = 2.125907 g / cm^3
# Si number density = 21.307563 Si / 1000 Ang^3
#
#
#
# Elastic Constant Matrix: (Units=GPa)
#
#
# Indices 1 2 3 4 5 6 
#
# 1 38.2161 -5.7813 3.2635 0.0000 4.8648 0.0000
# 2 -5.7813 99.3389 41.2228 -0.0001 -7.6425 -0.0002
# 3 3.2635 41.2228 94.7978 0.0000 -7.2814 0.0000
# 4 0.0000 -0.0001 0.0000 4.6654 0.0000 -24.8472
# 5 4.8648 -7.6425 -7.2814 0.0000 34.1385 0.0000
# 6 0.0000 -0.0002 0.0000 -24.8472 0.0000 12.8689
#
#
#
# Elastic Compliance Matrix: (Units=1/GPa)
#
#
# Indices 1 2 3 4 5 6 
#
# 1 0.027175 0.002192 -0.002184 0.000000 -0.003848 0.000000
# 2 0.002192 0.012551 -0.005430 0.000000 0.001339 0.000000
# 3 -0.002184 -0.005430 0.013131 0.000000 0.001896 0.000000
# 4 0.000000 0.000000 0.000000 -0.023090 0.000000 -0.044581
# 5 -0.003848 0.001339 0.001896 0.000000 0.030545 0.000000
# 6 0.000000 0.000000 0.000000 -0.044581 0.000000 -0.008371
#
#
# Mechanical properties :
#
#
# Convention : Reuss Voigt Hill
#
# Bulk Modulus (GPa) = 23.80309 34.41809 29.11059
# Shear Modulus (GPa) = 65.11277 23.24439 44.17858
#
# Velocity S-wave (km/s) = 5.53397 3.30646 4.55837
# Velocity P-wave (km/s) = 7.21309 5.54662 6.43403
#
# Compressibility (1/GPa) = 0.04201136
#
# Stress axis : x y z
#
# Youngs Moduli (GPa) = 36.79864 79.67805 76.15607
#
# Poissons Ratio (x) = -0.17465 0.16634
# Poissons Ratio (y) = -0.08066 0.41354
# Poissons Ratio (z) = 0.08038 0.43267
#
# Static dielectric constant tensor:
#      x y z
#    x 1.752890 0.000000 0.019730 
#    y 0.000000 1.806990 0.000000 
#    z 0.019730 0.000000 1.801230 
# 
# From -- ./inp_files/324385.got.cif
#   From: 2010.05.17/outbox.cif.g08.bks.cpg/sg12_163_cif.got.tgz:324385.got - 2010.06.03 13:09:07.
