data_PCOD9199576
_publ_section_title
;
Structure prediction by ZEFSAII (Michael W. Deem and Ramdas Pophale) SiO2 
 PCOD9199576
Probable space group: C 2/M
;
_chemical_formula_sum "Si O2"
_cell_formula_units_Z 48
_cell_length_a 15.256621
_cell_length_b 8.723582
_cell_length_c 26.567749
_cell_angle_alpha 90.000000
_cell_angle_beta 134.266257
_cell_angle_gamma 90.000000
_cell_volume 2532.118458
_symmetry_space_group_name_H-M "C 2/M"
_symmetry_group_IT_number 12
_symmetry_cell_setting 'monoclinic'
loop_
_space_group_symop_operation_xyz
x,y,z
-x,y,-z
-x,-y,-z
x,-y,z
1/2+x,1/2+y,z
1/2-x,1/2+y,-z
1/2-x,1/2-y,-z
1/2+x,1/2-y,z
loop_
_atom_site_type_symbol
_atom_site_label
_atom_site_fract_x
_atom_site_fract_y
_atom_site_fract_z
Si Si1 0.922567 0.681870 0.328891
Si Si2 0.294337 0.182728 0.823461
Si Si3 0.690077 0.316863 0.425079
Si Si4 0.212511 0.683630 0.061515
Si Si5 0.948038 0.181904 0.090363
Si Si6 0.626085 0.318151 0.581476
O O1 0.940233 0.500000 0.334648
O O2 0.815994 0.733202 0.248527
O O3 0.885568 0.734883 0.370020
O O4 0.049779 0.764616 0.366832
O O5 0.296523 0.223172 0.883635
O O6 0.424336 0.231814 0.852499
O O7 0.277896 0.000000 0.812721
O O8 0.698513 0.500000 0.429620
O O9 0.750000 0.250000 0.500000
O O10 0.765531 0.249896 0.408627
O O11 0.192851 0.500000 0.048391
O O12 0.346314 0.718633 0.091992
O O13 0.114098 0.767945 0.987152
O O14 0.968987 0.000000 0.099171
O O15 0.500000 0.296525 0.500000
O O16 0.642933 0.500000 0.595932
#
# Coordination Sequence:
#
# PCOD9199576 Si02
#       6
#     8   8   8   8   8   8
#     4  12  26  43  63  91 126 164 208 257 314 373
#     4  11  23  40  60  84 122 164 204 250 306 370
#     4  12  24  41  66  94 124 159 202 252 307 366
#     4   9  20  38  60  86 119 161 203 245 301 364
#     4  10  20  36  60  90 121 155 203 255 303 359
#     4  11  23  41  67  94 122 157 202 253 306 368
#
# _framework density 18.956458999999999
#
# number of rings (size 3 to 8) (size 9 to 14) (size 15 to 20)
#    0.000    1.167    1.667    5.000    0.000    6.000 
#    0.000    5.000    0.000    0.000    0.000    0.000 
#    0.000    0.000    0.000    0.000    0.000    0.000 
#
# Total GULP energy -134267.811866 kJ/mol
# GULP energy per Si atom -5594.492161 kJ/mol
# Density = 1.891331 g / cm^3
# Si number density = 18.956459 Si / 1000 Ang^3
#
#
#
# Elastic Constant Matrix: (Units=GPa)
#
#
# Indices 1 2 3 4 5 6 
#
# 1 77.7843 3.0986 7.9887 0.0000 13.2266 0.0000
# 2 3.0986 50.4870 7.0926 0.0000 1.0101 0.0000
# 3 7.9887 7.0926 41.2967 0.0000 20.0123 0.0000
# 4 0.0000 0.0000 0.0000 35.8623 0.0000 1.9394
# 5 13.2266 1.0101 20.0123 0.0000 23.7142 0.0000
# 6 0.0000 0.0000 0.0000 1.9394 0.0000 35.3996
#
#
#
# Elastic Compliance Matrix: (Units=1/GPa)
#
#
# Indices 1 2 3 4 5 6 
#
# 1 0.014334 -0.000982 0.002114 0.000000 -0.009737 0.000000
# 2 -0.000982 0.020539 -0.005379 0.000000 0.004212 0.000000
# 3 0.002114 -0.005379 0.042619 0.000000 -0.036917 0.000000
# 4 0.000000 0.000000 0.000000 0.027967 0.000000 -0.001532
# 5 -0.009737 0.004212 -0.036917 0.000000 0.078574 0.000000
# 6 0.000000 0.000000 0.000000 -0.001532 0.000000 0.028333
#
#
# Mechanical properties :
#
#
# Convention : Reuss Voigt Hill
#
# Bulk Modulus (GPa) = 14.49280 22.88086 18.68683
# Shear Modulus (GPa) = 20.50373 29.08774 24.79573
#
# Velocity S-wave (km/s) = 3.29237 3.92146 3.62060
# Velocity P-wave (km/s) = 4.70264 5.70966 5.23044
#
# Compressibility (1/GPa) = 0.06899977
#
# Stress axis : x y z
#
# Youngs Moduli (GPa) = 69.76537 48.68867 23.46350
#
# Poissons Ratio (x) = 0.04781 -0.04961
# Poissons Ratio (y) = 0.06851 0.12620
# Poissons Ratio (z) = -0.14752 0.26187
#
# Static dielectric constant tensor:
#      x y z
#    x 1.642890 0.000000 0.003750 
#    y 0.000000 1.633140 0.000000 
#    z 0.003750 0.000000 1.620680 
# 
# From -- ./inp_files/360256.got.cif
#   From: 2010.05.17/outbox.cif.g08.bks.cpg/sg12_181_cif.got.tgz:360256.got - 2010.06.03 13:09:07.
