data_PCOD9199442
_publ_section_title
;
Structure prediction by ZEFSAII (Michael W. Deem and Ramdas Pophale) SiO2 
 PCOD9199442
Probable space group: C 2/M
;
_chemical_formula_sum "Si O2"
_cell_formula_units_Z 56
_cell_length_a 8.274407
_cell_length_b 19.796879
_cell_length_c 27.854401
_cell_angle_alpha 90.000000
_cell_angle_beta 145.172388
_cell_angle_gamma 90.000000
_cell_volume 2605.833184
_symmetry_space_group_name_H-M "C 2/M"
_symmetry_group_IT_number 12
_symmetry_cell_setting 'monoclinic'
loop_
_space_group_symop_operation_xyz
x,y,z
-x,y,-z
-x,-y,-z
x,-y,z
1/2+x,1/2+y,z
1/2-x,1/2+y,-z
1/2-x,1/2-y,-z
1/2+x,1/2-y,z
loop_
_atom_site_type_symbol
_atom_site_label
_atom_site_fract_x
_atom_site_fract_y
_atom_site_fract_z
Si Si1 0.982027 0.240209 0.833611
Si Si2 0.638684 0.649539 0.791921
Si Si3 0.684178 0.422355 0.362113
Si Si4 0.092357 0.577104 0.966529
Si Si5 0.165148 0.418124 0.299320
Si Si6 0.674534 0.082221 0.413418
Si Si7 0.853308 0.148097 0.885950
O O1 0.721800 0.290635 0.776233
O O2 0.020476 0.191890 0.887594
O O3 0.939329 0.189531 0.779499
O O4 0.237735 0.292734 0.891377
O O5 0.517300 0.586895 0.733598
O O6 0.904095 0.626057 0.888164
O O7 0.744592 0.500000 0.388890
O O8 0.478394 0.397526 0.355283
O O9 0.972598 0.392950 0.408214
O O10 0.037617 0.500000 0.938759
O O11 0.421957 0.594824 0.040594
O O12 0.000000 0.582588 0.000000
O O13 0.152107 0.500000 0.291933
O O14 0.110194 0.400578 0.341831
O O15 0.917986 0.386233 0.205965
O O16 0.000000 0.101530 0.500000
O O17 0.655576 0.000000 0.410866
#
# Coordination Sequence:
#
# PCOD9199442 Si02
#       7
#     8   8   8   8   8   8   8
#     4  10  23  35  60  76 110 150 198 241 295 336
#     4  11  21  40  54  84 111 150 197 243 288 344
#     4  10  20  36  60  87 119 155 193 241 294 355
#     4  11  24  38  58  83 114 155 196 245 297 352
#     4  10  20  36  60  87 119 155 193 241 294 355
#     4   9  19  34  56  89 124 155 185 229 294 359
#     4  11  21  40  54  84 111 150 197 243 288 344
#
# _framework density 21.490247
#
# number of rings (size 3 to 8) (size 9 to 14) (size 15 to 20)
#    0.000    1.714    2.857    1.714    0.000    4.571 
#    0.000    3.571    0.000    0.000    0.000   16.000 
#    0.000    0.000    0.000    0.000    0.000    0.000 
#
# Total GULP energy -155984.376162 kJ/mol
# GULP energy per Si atom -5570.870577 kJ/mol
# Density = 2.144133 g / cm^3
# Si number density = 21.490247 Si / 1000 Ang^3
#
#
#
# Elastic Constant Matrix: (Units=GPa)
#
#
# Indices 1 2 3 4 5 6 
#
# 1 105.1458 35.6885 17.6019 0.0023 23.0688 0.0041
# 2 35.6885 56.1767 9.4986 0.0153 1.7023 0.0170
# 3 17.6019 9.4986 63.5650 0.0138 18.7450 0.0130
# 4 0.0023 0.0153 0.0138 -63.5194 0.0130 -78.1736
# 5 23.0688 1.7023 18.7450 0.0130 22.4584 0.0161
# 6 0.0041 0.0170 0.0130 -78.1736 0.0161 -72.9763
#
#
#
# Elastic Compliance Matrix: (Units=1/GPa)
#
#
# Indices 1 2 3 4 5 6 
#
# 1 0.016672 -0.010432 0.002333 -0.000004 -0.018282 -0.000001
# 2 -0.010432 0.024814 -0.004543 0.000005 0.012626 0.000002
# 3 0.002333 -0.004543 0.021715 -0.000004 -0.020177 0.000003
# 4 -0.000004 0.000005 -0.000004 0.049452 0.000016 -0.052974
# 5 -0.018282 0.012626 -0.020177 0.000016 0.079189 -0.000002
# 6 -0.000001 0.000002 0.000003 -0.052974 -0.000002 0.043044
#
#
# Mechanical properties :
#
#
# Convention : Reuss Voigt Hill
#
# Bulk Modulus (GPa) = 26.37280 38.94062 32.65671
# Shear Modulus (GPa) = 18.32804 -12.00090 3.16357
#
# Velocity S-wave (km/s) = 2.92353 -2.36569 1.21462
# Velocity P-wave (km/s) = 4.86772 3.27071 4.14682
#
# Compressibility (1/GPa) = 0.03791785
#
# Stress axis : x y z
#
# Youngs Moduli (GPa) = 59.98172 40.30021 46.05205
#
# Poissons Ratio (x) = 0.42041 -0.10746
# Poissons Ratio (y) = 0.62573 0.20920
# Poissons Ratio (z) = -0.13996 0.18307
#
# Static dielectric constant tensor:
#      x y z
#    x 1.913610 0.000000 0.027060 
#    y 0.000000 1.760680 0.000000 
#    z 0.027060 0.000000 1.765400 
# 
# From -- ./inp_files/373192.got.cif
#   From: 2010.05.17/outbox.cif.g08.bks.cpg/sg12_187_cif.got.tgz:373192.got - 2010.06.03 13:09:07.
