data_PCOD9199239
_publ_section_title
;
Structure prediction by ZEFSAII (Michael W. Deem and Ramdas Pophale) SiO2 
 PCOD9199239
Probable space group: C 2/M
;
_chemical_formula_sum "Si O2"
_cell_formula_units_Z 64
_cell_length_a 24.188688
_cell_length_b 10.984392
_cell_length_c 11.825392
_cell_angle_alpha 90.000000
_cell_angle_beta 92.492552
_cell_angle_gamma 90.000000
_cell_volume 3139.010687
_symmetry_space_group_name_H-M "C 2/M"
_symmetry_group_IT_number 12
_symmetry_cell_setting 'monoclinic'
loop_
_space_group_symop_operation_xyz
x,y,z
-x,y,-z
-x,-y,-z
x,-y,z
1/2+x,1/2+y,z
1/2-x,1/2+y,-z
1/2-x,1/2-y,-z
1/2+x,1/2-y,z
loop_
_atom_site_type_symbol
_atom_site_label
_atom_site_fract_x
_atom_site_fract_y
_atom_site_fract_z
Si Si1 0.911980 0.859508 0.990292
Si Si2 0.216201 0.134788 0.040455
Si Si3 0.537667 0.736617 0.774122
Si Si4 0.763977 0.859172 0.692786
Si Si5 0.636457 0.139342 0.648806
Si Si6 0.860557 0.704973 0.610744
Si Si7 0.430631 0.132620 0.824468
Si Si8 0.463837 0.633526 0.590267
O O1 0.944450 0.817014 0.104335
O O2 0.926238 0.000000 0.958360
O O3 0.846387 0.859656 0.009111
O O4 0.920869 0.752594 0.899426
O O5 0.214521 0.141228 0.176504
O O6 0.239674 0.000000 0.013212
O O7 0.250000 0.250000 0.000000
O O8 0.590686 0.778626 0.706320
O O9 0.492828 0.845755 0.782856
O O10 0.502430 0.637602 0.702416
O O11 0.699225 0.826386 0.687283
O O12 0.800738 0.762858 0.627892
O O13 0.768834 0.000000 0.651146
O O14 0.634936 0.145067 0.512013
O O15 0.627363 0.000000 0.684299
O O16 0.885176 0.632452 0.719881
O O17 0.904946 0.812950 0.610433
O O18 0.427870 0.000000 0.882349
O O19 0.500000 0.704788 0.500000
O O20 0.452937 0.500000 0.544416
#
# Coordination Sequence:
#
# PCOD9199239 Si02
#       8
#     8   8   8   8   8   8   8   8
#     4  11  24  43  67  94 130 168 213 268 323 383
#     4  10  21  40  63  91 123 165 212 258 315 378
#     4  11  23  40  63  93 127 165 212 259 326 379
#     4  10  21  39  63  89 120 161 209 262 320 378
#     4  11  23  39  61  90 127 166 208 262 319 378
#     4  11  21  40  62  90 125 165 214 256 316 377
#     4  11  25  41  65  95 130 172 217 265 317 384
#     4  10  20  36  59  88 122 160 206 258 314 374
#
# _framework density 20.388590000000001
#
# number of rings (size 3 to 8) (size 9 to 14) (size 15 to 20)
#    0.000    1.375    2.500    3.000    0.000    5.000 
#    0.000    1.875    0.000    5.250    0.000    0.000 
#    0.000    0.000    0.000    0.000    0.000    0.000 
#
# Total GULP energy -178500.340032 kJ/mol
# GULP energy per Si atom -5578.135626 kJ/mol
# Density = 2.034218 g / cm^3
# Si number density = 20.388590 Si / 1000 Ang^3
#
#
#
# Elastic Constant Matrix: (Units=GPa)
#
#
# Indices 1 2 3 4 5 6 
#
# 1 88.9648 30.6722 -11.1242 0.0000 1.6939 0.0000
# 2 30.6722 113.9326 9.0659 0.0000 -21.2402 0.0000
# 3 -11.1242 9.0659 42.5634 0.0000 7.6539 0.0000
# 4 0.0000 0.0000 0.0000 55.6101 0.0000 -40.2191
# 5 1.6939 -21.2402 7.6539 0.0000 36.4342 0.0000
# 6 0.0000 0.0000 0.0000 -40.2191 0.0000 -13.0896
#
#
#
# Elastic Compliance Matrix: (Units=1/GPa)
#
#
# Indices 1 2 3 4 5 6 
#
# 1 0.013751 -0.005021 0.005513 0.000000 -0.004725 0.000000
# 2 -0.005021 0.012134 -0.005416 0.000000 0.008445 0.000000
# 3 0.005513 -0.005416 0.027751 0.000000 -0.009243 0.000000
# 4 0.000000 0.000000 0.000000 0.005581 0.000000 -0.017147
# 5 -0.004725 0.008445 -0.009243 0.000000 0.034531 0.000000
# 6 0.000000 0.000000 0.000000 -0.017147 0.000000 -0.023709
#
#
# Mechanical properties :
#
#
# Convention : Reuss Voigt Hill
#
# Bulk Modulus (GPa) = 22.83722 33.63209 28.23465
# Shear Modulus (GPa) = 52.91959 30.24740 41.58349
#
# Velocity S-wave (km/s) = 5.10018 3.85586 4.52103
# Velocity P-wave (km/s) = 6.77553 6.02950 6.41337
#
# Compressibility (1/GPa) = 0.04378817
#
# Stress axis : x y z
#
# Youngs Moduli (GPa) = 72.72224 82.41100 36.03487
#
# Poissons Ratio (x) = 0.41382 -0.19866
# Poissons Ratio (y) = 0.36517 0.19515
# Poissons Ratio (z) = -0.40092 0.44630
#
# Static dielectric constant tensor:
#      x y z
#    x 1.710060 0.000000 -0.011270 
#    y 0.000000 1.746520 0.000000 
#    z -0.011270 0.000000 1.762470 
# 
# From -- ./inp_files/174640.got.cif
#   From: 2010.05.17/outbox.cif.g08.bks.cpg/sg12_88_cif.got.tgz:174640.got - 2010.06.03 13:09:07.
