data_PCOD9199063
_publ_section_title
;
Structure prediction by ZEFSAII (Michael W. Deem and Ramdas Pophale) SiO2 
 PCOD9199063
Probable space group: C 2/M
;
_chemical_formula_sum "Si O2"
_cell_formula_units_Z 64
_cell_length_a 28.199384
_cell_length_b 13.604283
_cell_length_c 12.492431
_cell_angle_alpha 90.000000
_cell_angle_beta 39.202988
_cell_angle_gamma 90.000000
_cell_volume 3029.194927
_symmetry_space_group_name_H-M "C 2/M"
_symmetry_group_IT_number 12
_symmetry_cell_setting 'monoclinic'
loop_
_space_group_symop_operation_xyz
x,y,z
-x,y,-z
-x,-y,-z
x,-y,z
1/2+x,1/2+y,z
1/2-x,1/2+y,-z
1/2-x,1/2-y,-z
1/2+x,1/2-y,z
loop_
_atom_site_type_symbol
_atom_site_label
_atom_site_fract_x
_atom_site_fract_y
_atom_site_fract_z
Si Si1 0.577842 0.758068 0.390017
Si Si2 0.733969 0.292443 0.409848
Si Si3 0.956720 0.807454 0.964575
Si Si4 0.189376 0.384429 0.078490
Si Si5 0.125595 0.614913 0.952869
Si Si6 0.348285 0.610609 0.865091
Si Si7 0.202499 0.110594 0.801280
Si Si8 0.416611 0.383075 0.412869
O O1 0.500000 0.811496 0.500000
O O2 0.645212 0.832531 0.250919
O O3 0.584835 0.681287 0.279298
O O4 0.583088 0.690636 0.485712
O O5 0.750000 0.250000 0.500000
O O6 0.802829 0.359622 0.247295
O O7 0.737950 0.193865 0.330755
O O8 0.656590 0.350291 0.528022
O O9 0.008740 0.861559 0.786705
O O10 0.937332 0.695495 0.964239
O O11 0.876292 0.860958 0.116935
O O12 0.000000 0.807659 0.000000
O O13 0.189739 0.500000 0.098795
O O14 0.151386 0.366854 0.030368
O O15 0.276729 0.356789 0.920094
O O16 0.104992 0.500000 0.977984
O O17 0.369243 0.500000 0.802302
O O18 0.319408 0.615110 0.035876
O O19 0.225798 0.000000 0.733201
O O20 0.412234 0.500000 0.447293
#
# Coordination Sequence:
#
# PCOD9199063 Si02
#       8
#     8   8   8   8   8   8   8   8
#     4  12  23  36  57  89 129 159 189 241 300 360
#     4  11  23  39  60  89 121 152 199 257 307 354
#     4  11  24  42  61  85 118 160 210 257 299 354
#     4  10  21  39  64  89 117 159 204 243 292 359
#     4  10  21  41  66  89 118 162 211 253 299 360
#     4  10  20  36  59  85 114 151 193 236 288 355
#     4  10  21  39  62  86 116 156 200 244 294 359
#     4  12  25  40  61  91 125 160 199 248 309 368
#
# _framework density 21.127725000000002
#
# number of rings (size 3 to 8) (size 9 to 14) (size 15 to 20)
#    0.000    1.250    0.000    7.500    0.000    6.500 
#    0.000    1.250    0.000    0.000    0.000    0.000 
#    0.000    0.000    0.000    0.000    0.000    0.000 
#
# Total GULP energy -178828.697518 kJ/mol
# GULP energy per Si atom -5588.396797 kJ/mol
# Density = 2.107964 g / cm^3
# Si number density = 21.127725 Si / 1000 Ang^3
#
#
#
# Elastic Constant Matrix: (Units=GPa)
#
#
# Indices 1 2 3 4 5 6 
#
# 1 69.5116 7.5729 12.7365 0.0000 11.9439 0.0000
# 2 7.5729 85.3461 13.5486 0.0000 6.0933 0.0000
# 3 12.7365 13.5486 57.1624 0.0000 1.0539 0.0000
# 4 0.0000 0.0000 0.0000 15.5484 0.0000 0.7995
# 5 11.9439 6.0933 1.0539 0.0000 26.7386 0.0000
# 6 0.0000 0.0000 0.0000 0.7995 0.0000 25.0930
#
#
#
# Elastic Compliance Matrix: (Units=1/GPa)
#
#
# Indices 1 2 3 4 5 6 
#
# 1 0.016262 -0.000401 -0.003399 0.000000 -0.007039 0.000000
# 2 -0.000401 0.012377 -0.002798 0.000000 -0.002531 0.000000
# 3 -0.003399 -0.002798 0.018888 0.000000 0.001411 0.000000
# 4 0.000000 0.000000 0.000000 0.064421 0.000000 -0.002053
# 5 -0.007039 -0.002531 0.001411 0.000000 0.041065 0.000000
# 6 0.000000 0.000000 0.000000 -0.002053 0.000000 0.039917
#
#
# Mechanical properties :
#
#
# Convention : Reuss Voigt Hill
#
# Bulk Modulus (GPa) = 29.12618 31.08179 30.10398
# Shear Modulus (GPa) = 22.98122 25.35347 24.16735
#
# Velocity S-wave (km/s) = 3.30165 3.46787 3.38578
# Velocity P-wave (km/s) = 5.32449 5.54781 5.43730
#
# Compressibility (1/GPa) = 0.03433338
#
# Stress axis : x y z
#
# Youngs Moduli (GPa) = 61.49328 80.79224 52.94267
#
# Poissons Ratio (x) = 0.03239 0.17993
# Poissons Ratio (y) = 0.02465 0.14812
# Poissons Ratio (z) = 0.20899 0.22603
#
# Static dielectric constant tensor:
#      x y z
#    x 1.811010 0.000000 -0.010080 
#    y 0.000000 1.759560 0.000000 
#    z -0.010080 0.000000 1.765130 
# 
# From -- ./inp_files/183761.got.cif
#   From: 2010.05.17/outbox.cif.g08.bks.cpg/sg12_92_cif.got.tgz:183761.got - 2010.06.03 13:09:07.
