data_PCOD9199371
_publ_section_title
;
Structure prediction by ZEFSAII (Michael W. Deem and Ramdas Pophale) SiO2 
 PCOD9199371
Probable space group: C 2/M
;
_chemical_formula_sum "Si O2"
_cell_formula_units_Z 48
_cell_length_a 25.778558
_cell_length_b 8.775752
_cell_length_c 12.718263
_cell_angle_alpha 90.000000
_cell_angle_beta 109.315796
_cell_angle_gamma 90.000000
_cell_volume 2715.246273
_symmetry_space_group_name_H-M "C 2/M"
_symmetry_group_IT_number 12
_symmetry_cell_setting 'monoclinic'
loop_
_space_group_symop_operation_xyz
x,y,z
-x,y,-z
-x,-y,-z
x,-y,z
1/2+x,1/2+y,z
1/2-x,1/2+y,-z
1/2-x,1/2-y,-z
1/2+x,1/2-y,z
loop_
_atom_site_type_symbol
_atom_site_label
_atom_site_fract_x
_atom_site_fract_y
_atom_site_fract_z
Si Si1 0.120754 0.683131 0.272603
Si Si2 0.806946 0.817113 0.253124
Si Si3 0.804693 0.682147 0.483409
Si Si4 0.113651 0.816590 0.878486
Si Si5 0.500368 0.183498 0.877787
Si Si6 0.310244 0.682560 0.873143
O O1 0.124878 0.500000 0.258769
O O2 0.145273 0.716341 0.403627
O O3 0.057514 0.728013 0.213177
O O4 0.158116 0.763644 0.210169
O O5 0.812475 0.751183 0.373590
O O6 0.856498 0.770882 0.209313
O O7 0.749638 0.757310 0.167083
O O8 0.804864 0.000000 0.256558
O O9 0.798709 0.500000 0.471387
O O10 0.750000 0.750000 0.500000
O O11 0.053622 0.749144 0.856556
O O12 0.109915 0.000000 0.877705
O O13 0.153040 0.771111 0.002149
O O14 0.503829 0.000000 0.878820
O O15 0.500000 0.232580 0.000000
O O16 0.304649 0.500000 0.869300
#
# Coordination Sequence:
#
# PCOD9199371 Si02
#       6
#     8   8   8   8   8   8
#     4  10  21  37  57  85 117 147 184 234 286 336
#     4  11  23  39  57  81 118 155 191 235 287 340
#     4  11  22  37  59  85 115 150 192 235 283 337
#     4  10  23  39  56  84 118 153 189 235 289 340
#     4  10  20  36  60  86 112 149 191 231 283 343
#     4  11  21  34  57  87 116 147 188 233 288 346
#
# _framework density 17.677952999999999
#
# number of rings (size 3 to 8) (size 9 to 14) (size 15 to 20)
#    0.000    1.500    3.333    2.000    0.000    3.667 
#    0.000    0.833    0.000    5.000    0.000    0.000 
#    0.000    0.000    0.000    0.000    0.000    0.000 
#
# Total GULP energy -134095.215258 kJ/mol
# GULP energy per Si atom -5587.300636 kJ/mol
# Density = 1.763772 g / cm^3
# Si number density = 17.677953 Si / 1000 Ang^3
#
#
#
# Elastic Constant Matrix: (Units=GPa)
#
#
# Indices 1 2 3 4 5 6 
#
# 1 160.7667 36.1220 52.7849 0.0000 3.6568 0.0000
# 2 36.1220 31.3794 25.9641 0.0000 3.3241 0.0000
# 3 52.7849 25.9641 68.5521 0.0000 10.6548 0.0000
# 4 0.0000 0.0000 0.0000 24.0006 0.0000 -0.4295
# 5 3.6568 3.3241 10.6548 0.0000 33.0223 0.0000
# 6 0.0000 0.0000 0.0000 -0.4295 0.0000 32.0777
#
#
#
# Elastic Compliance Matrix: (Units=1/GPa)
#
#
# Indices 1 2 3 4 5 6 
#
# 1 0.009299 -0.006923 -0.004724 0.000000 0.001191 0.000000
# 2 -0.006923 0.051601 -0.014240 0.000000 0.000167 0.000000
# 3 -0.004724 -0.014240 0.024545 0.000000 -0.005963 0.000000
# 4 0.000000 0.000000 0.000000 0.041676 0.000000 0.000558
# 5 0.001191 0.000167 -0.005963 0.000000 0.032058 0.000000
# 6 0.000000 0.000000 0.000000 0.000558 0.000000 0.031182
#
#
# Mechanical properties :
#
#
# Convention : Reuss Voigt Hill
#
# Bulk Modulus (GPa) = 29.69674 54.49337 42.09505
# Shear Modulus (GPa) = 19.73498 27.54192 23.63845
#
# Velocity S-wave (km/s) = 3.34482 3.95141 3.66070
# Velocity P-wave (km/s) = 5.63492 7.19102 6.45999
#
# Compressibility (1/GPa) = 0.03367373
#
# Stress axis : x y z
#
# Youngs Moduli (GPa) = 107.53296 19.37937 40.74183
#
# Poissons Ratio (x) = 0.13415 0.19246
# Poissons Ratio (y) = 0.74440 0.58015
# Poissons Ratio (z) = 0.50796 0.27595
#
# Static dielectric constant tensor:
#      x y z
#    x 1.570670 0.000000 0.008330 
#    y 0.000000 1.596740 0.000000 
#    z 0.008330 0.000000 1.595860 
# 
# From -- ./inp_files/172067.got.cif
#   From: 2010.05.17/outbox.cif.g08.bks.cpg/sg12_87_cif.got.tgz:172067.got - 2010.06.03 13:09:07.
