data_PCOD9199248
_publ_section_title
;
Structure prediction by ZEFSAII (Michael W. Deem and Ramdas Pophale) SiO2 
 PCOD9199248
Probable space group: C 2/M
;
_chemical_formula_sum "Si O2"
_cell_formula_units_Z 36
_cell_length_a 25.549295
_cell_length_b 15.582156
_cell_length_c 8.953999
_cell_angle_alpha 90.000000
_cell_angle_beta 26.706752
_cell_angle_gamma 90.000000
_cell_volume 1602.064645
_symmetry_space_group_name_H-M "C 2/M"
_symmetry_group_IT_number 12
_symmetry_cell_setting 'monoclinic'
loop_
_space_group_symop_operation_xyz
x,y,z
-x,y,-z
-x,-y,-z
x,-y,z
1/2+x,1/2+y,z
1/2-x,1/2+y,-z
1/2-x,1/2-y,-z
1/2+x,1/2-y,z
loop_
_atom_site_type_symbol
_atom_site_label
_atom_site_fract_x
_atom_site_fract_y
_atom_site_fract_z
Si Si1 0.020468 0.096804 0.270113
Si Si2 0.876462 0.728743 0.046387
Si Si3 0.769619 0.167271 0.842255
Si Si4 0.500000 0.846670 0.000000
Si Si5 0.936973 0.592417 0.466247
O O1 0.900136 0.132938 0.509545
O O2 0.000000 0.094938 0.500000
O O3 0.046959 0.000000 0.152357
O O4 0.114651 0.169986 0.997754
O O5 0.770706 0.690697 0.221676
O O6 0.904493 0.705478 0.146549
O O7 0.984946 0.675626 0.696132
O O8 0.750000 0.250000 0.000000
O O9 0.683101 0.099505 0.140449
O O10 0.569657 0.899079 0.696507
O O11 0.993774 0.500000 0.351580
#
# Coordination Sequence:
#
# PCOD9199248 Si02
#       5
#     8   8   8   4   8
#     4  11  22  38  60  90 122 155 195 249 301 351
#     4  10  21  39  61  85 120 156 193 244 299 355
#     4  12  20  36  62  89 116 150 202 248 296 349
#     4   8  21  38  59  82 124 160 185 242 307 354
#     4  10  20  36  59  89 117 149 193 244 300 354
#
# _framework density 22.471001999999999
#
# number of rings (size 3 to 8) (size 9 to 14) (size 15 to 20)
#    1.333    0.222    4.444    1.667    0.000    2.667 
#    0.000    5.000    0.000    0.000    0.000    0.000 
#    0.000    0.000    0.000    0.000    0.000    0.000 
#
# Total GULP energy -100347.170682 kJ/mol
# GULP energy per Si atom -5574.842816 kJ/mol
# Density = 2.241986 g / cm^3
# Si number density = 22.471002 Si / 1000 Ang^3
#
#
#
# Elastic Constant Matrix: (Units=GPa)
#
#
# Indices 1 2 3 4 5 6 
#
# 1 172.0549 36.2260 18.7051 0.0000 9.9474 0.0000
# 2 36.2260 160.1402 8.7208 0.0000 2.0328 0.0000
# 3 18.7051 8.7208 52.8931 0.0000 7.6255 0.0000
# 4 0.0000 0.0000 0.0000 35.1851 0.0000 -19.5050
# 5 9.9474 2.0328 7.6255 0.0000 30.7910 0.0000
# 6 0.0000 0.0000 0.0000 -19.5050 0.0000 36.9668
#
#
#
# Elastic Compliance Matrix: (Units=1/GPa)
#
#
# Indices 1 2 3 4 5 6 
#
# 1 0.006376 -0.001324 -0.001817 0.000000 -0.001523 0.000000
# 2 -0.001324 0.006577 -0.000638 0.000000 0.000152 0.000000
# 3 -0.001817 -0.000638 0.020287 0.000000 -0.004395 0.000000
# 4 0.000000 0.000000 0.000000 0.040171 0.000000 0.021196
# 5 -0.001523 0.000152 -0.004395 0.000000 0.034047 0.000000
# 6 0.000000 0.000000 0.000000 0.021196 0.000000 0.038235
#
#
# Mechanical properties :
#
#
# Convention : Reuss Voigt Hill
#
# Bulk Modulus (GPa) = 38.93729 56.93245 47.93487
# Shear Modulus (GPa) = 30.89980 42.01766 36.45873
#
# Velocity S-wave (km/s) = 3.71225 4.32888 4.03237
# Velocity P-wave (km/s) = 5.97828 7.09765 6.56188
#
# Compressibility (1/GPa) = 0.02568232
#
# Stress axis : x y z
#
# Youngs Moduli (GPa) = 156.82628 152.04757 49.29151
#
# Poissons Ratio (x) = 0.20134 0.08957
# Poissons Ratio (y) = 0.20766 0.03145
# Poissons Ratio (z) = 0.28498 0.09700
#
# Static dielectric constant tensor:
#      x y z
#    x 1.887770 0.000000 -0.010140 
#    y 0.000000 1.850360 0.000000 
#    z -0.010140 0.000000 1.870900 
# 
# From -- ./inp_files/104891.got.cif
#   From: 2010.05.17/outbox.cif.g08.bks.cpg/sg12_53_cif.got.tgz:104891.got - 2010.06.03 13:09:07.
