data_PCOD9199022
_publ_section_title
;
Structure prediction by ZEFSAII (Michael W. Deem and Ramdas Pophale) SiO2 
 PCOD9199022
Probable space group: C 2/M
;
_chemical_formula_sum "Si O2"
_cell_formula_units_Z 48
_cell_length_a 30.919964
_cell_length_b 8.365671
_cell_length_c 7.643412
_cell_angle_alpha 90.000000
_cell_angle_beta 92.314678
_cell_angle_gamma 90.000000
_cell_volume 1975.479543
_symmetry_space_group_name_H-M "C 2/M"
_symmetry_group_IT_number 12
_symmetry_cell_setting 'monoclinic'
loop_
_space_group_symop_operation_xyz
x,y,z
-x,y,-z
-x,-y,-z
x,-y,z
1/2+x,1/2+y,z
1/2-x,1/2+y,-z
1/2-x,1/2-y,-z
1/2+x,1/2-y,z
loop_
_atom_site_type_symbol
_atom_site_label
_atom_site_fract_x
_atom_site_fract_y
_atom_site_fract_z
Si Si1 0.353278 0.309397 0.670033
Si Si2 0.811031 0.317151 0.016933
Si Si3 0.604407 0.319748 0.824278
Si Si4 0.525960 0.819122 0.682277
Si Si5 0.060829 0.308303 0.154081
Si Si6 0.214135 0.190302 0.629899
O O1 0.359594 0.500000 0.673867
O O2 0.399085 0.224016 0.708353
O O3 0.330022 0.266029 0.483563
O O4 0.322311 0.266894 0.833190
O O5 0.856719 0.299241 0.128416
O O6 0.780681 0.251364 0.169239
O O7 0.699721 0.000000 0.021343
O O8 0.621624 0.500000 0.815905
O O9 0.569484 0.281777 0.671439
O O10 0.574481 0.293137 0.988868
O O11 0.500000 0.829927 0.500000
O O12 0.487264 0.759760 0.799021
O O13 0.538926 0.000000 0.736627
O O14 0.059846 0.500000 0.125813
O O15 0.250000 0.250000 0.500000
O O16 0.215905 0.000000 0.638267
#
# Coordination Sequence:
#
# PCOD9199022 Si02
#       6
#     8   8   8   8   8   8
#     4  10  22  41  65  93 127 162 205 257 309 366
#     4  11  23  41  67  94 125 166 209 254 308 369
#     4  11  22  37  58  84 116 156 201 250 303 357
#     4  10  22  37  53  81 117 156 201 250 300 356
#     4  10  20  36  59  84 114 156 203 248 299 358
#     4  11  25  44  67  97 129 164 203 252 310 371
#
# _framework density 24.297898
#
# number of rings (size 3 to 8) (size 9 to 14) (size 15 to 20)
#    0.000    1.500    0.000    7.000    2.333    7.000 
#    0.000    0.000    0.000    0.000    0.000    0.000 
#    0.000    0.000    0.000    0.000    0.000    0.000 
#
# Total GULP energy -134108.231942 kJ/mol
# GULP energy per Si atom -5587.842998 kJ/mol
# Density = 2.424260 g / cm^3
# Si number density = 24.297898 Si / 1000 Ang^3
#
#
#
# Elastic Constant Matrix: (Units=GPa)
#
#
# Indices 1 2 3 4 5 6 
#
# 1 50.4706 -3.2339 -6.0706 0.0000 -0.3082 0.0000
# 2 -3.2339 58.5400 3.3888 0.0000 1.6168 0.0000
# 3 -6.0706 3.3888 129.1382 0.0000 -4.9288 0.0000
# 4 0.0000 0.0000 0.0000 -15.0236 0.0000 -139.1453
# 5 -0.3082 1.6168 -4.9288 0.0000 46.4757 0.0000
# 6 0.0000 0.0000 0.0000 -139.1453 0.0000 -540.3132
#
#
#
# Elastic Compliance Matrix: (Units=1/GPa)
#
#
# Indices 1 2 3 4 5 6 
#
# 1 0.019992 0.001046 0.000920 0.000000 0.000194 0.000000
# 2 0.001046 0.017182 -0.000426 0.000000 -0.000636 0.000000
# 3 0.000920 -0.000426 0.007831 0.000000 0.000851 0.000000
# 4 0.000000 0.000000 0.000000 0.048054 0.000000 -0.012375
# 5 0.000194 -0.000636 0.000851 0.000000 0.021630 0.000000
# 6 0.000000 0.000000 0.000000 -0.012375 0.000000 0.001336
#
#
# Mechanical properties :
#
#
# Convention : Reuss Voigt Hill
#
# Bulk Modulus (GPa) = 20.79678 25.14639 22.97158
# Shear Modulus (GPa) = 38.76736 -85.50127 -23.36695
#
# Velocity S-wave (km/s) = 3.99871 -5.93845 -3.10447
# Velocity P-wave (km/s) = 5.46783 6.05380 1.83729
#
# Compressibility (1/GPa) = 0.04808438
#
# Stress axis : x y z
#
# Youngs Moduli (GPa) = 50.01915 58.19931 127.70492
#
# Poissons Ratio (x) = -0.06087 -0.11746
# Poissons Ratio (y) = -0.05231 0.05440
# Poissons Ratio (z) = -0.04601 0.02479
#
# Static dielectric constant tensor:
#      x y z
#    x 2.051700 0.000000 0.028600 
#    y 0.000000 1.879890 0.000000 
#    z 0.028600 0.000000 2.094730 
# 
# From -- ./inp_files/108668.got.cif
#   From: 2010.05.17/outbox.cif.g08.bks.cpg/sg12_55_cif.got.tgz:108668.got - 2010.06.03 13:09:07.
