data_PCOD9199716
_publ_section_title
;
Structure prediction by ZEFSAII (Michael W. Deem and Ramdas Pophale) SiO2 
 PCOD9199716
Probable space group: C 2/M
;
_chemical_formula_sum "Si O2"
_cell_formula_units_Z 56
_cell_length_a 9.834526
_cell_length_b 17.352584
_cell_length_c 29.782766
_cell_angle_alpha 90.000000
_cell_angle_beta 145.618944
_cell_angle_gamma 90.000000
_cell_volume 2870.092638
_symmetry_space_group_name_H-M "C 2/M"
_symmetry_group_IT_number 12
_symmetry_cell_setting 'monoclinic'
loop_
_space_group_symop_operation_xyz
x,y,z
-x,y,-z
-x,-y,-z
x,-y,z
1/2+x,1/2+y,z
1/2-x,1/2+y,-z
1/2-x,1/2-y,-z
1/2+x,1/2-y,z
loop_
_atom_site_type_symbol
_atom_site_label
_atom_site_fract_x
_atom_site_fract_y
_atom_site_fract_z
Si Si1 0.224832 0.670816 0.825182
Si Si2 0.095133 0.090138 0.322998
Si Si3 0.597238 0.827548 0.174573
Si Si4 0.483994 0.176261 0.604611
Si Si5 0.602631 0.356468 0.423679
Si Si6 0.123864 0.412668 0.336656
Si Si7 0.840870 0.826326 0.000116
O O1 0.299619 0.748447 0.818875
O O2 0.469163 0.635862 0.913866
O O3 0.044823 0.688820 0.817706
O O4 0.084897 0.614296 0.753950
O O5 0.254958 0.140516 0.332787
O O6 0.176901 0.110834 0.395842
O O7 0.818555 0.116149 0.243881
O O8 0.125393 0.000000 0.322668
O O9 0.400140 0.863205 0.086243
O O10 0.486685 0.268373 0.606500
O O11 0.314960 0.148163 0.517742
O O12 0.376706 0.144385 0.621397
O O13 0.379095 0.404706 0.381500
O O14 0.086290 0.500000 0.341602
O O15 0.750000 0.750000 0.000000
O O16 0.000000 0.805057 0.000000
#
# Coordination Sequence:
#
# PCOD9199716 Si02
#       7
#     8   8   8   8   8   8   8
#     4  10  20  36  61  88 119 157 200 244 291 348
#     4  12  25  39  59  89 125 157 192 241 298 354
#     4  10  20  36  61  88 119 157 200 244 291 348
#     4  11  25  43  63  88 113 156 201 247 292 353
#     4  11  23  43  67  86 113 150 205 249 294 345
#     4  12  25  39  59  89 125 157 192 241 298 354
#     4   8  16  32  55  87 116 148 196 246 288 338
#
# _framework density 19.511565000000001
#
# number of rings (size 3 to 8) (size 9 to 14) (size 15 to 20)
#    0.000    1.429    1.429    4.286    2.000    5.714 
#    0.000    0.714    0.000    2.571    0.000    2.000 
#    0.000    0.000    0.000    0.000    0.000    0.000 
#
# Total GULP energy -156388.513366 kJ/mol
# GULP energy per Si atom -5585.304049 kJ/mol
# Density = 1.946716 g / cm^3
# Si number density = 19.511565 Si / 1000 Ang^3
#
#
#
# Elastic Constant Matrix: (Units=GPa)
#
#
# Indices 1 2 3 4 5 6 
#
# 1 42.0932 6.4391 -8.4208 -0.0001 2.3026 0.0000
# 2 6.4391 49.5814 33.0647 -0.0001 1.8397 -0.0001
# 3 -8.4208 33.0647 72.8915 -0.0007 5.9928 -0.0002
# 4 -0.0001 -0.0001 -0.0007 0.7865 -0.0002 -3.7854
# 5 2.3026 1.8397 5.9928 -0.0002 28.7255 -0.0001
# 6 0.0000 -0.0001 -0.0002 -3.7854 -0.0001 10.4132
#
#
#
# Elastic Compliance Matrix: (Units=1/GPa)
#
#
# Indices 1 2 3 4 5 6 
#
# 1 0.026524 -0.007946 0.006920 -0.000012 -0.003061 -0.000004
# 2 -0.007946 0.031319 -0.015274 0.000014 0.001818 0.000005
# 3 0.006920 -0.015274 0.021786 -0.000026 -0.004122 -0.000009
# 4 -0.000012 0.000014 -0.000026 -1.696186 -0.000007 -0.616592
# 5 -0.003061 0.001818 -0.004122 -0.000007 0.035801 -0.000002
# 6 -0.000004 0.000005 -0.000009 -0.616592 -0.000002 -0.128109
#
#
# Mechanical properties :
#
#
# Convention : Reuss Voigt Hill
#
# Bulk Modulus (GPa) = 21.26330 25.19247 23.22788
# Shear Modulus (GPa) = -3.01098 16.88391 6.93646
#
# Velocity S-wave (km/s) = -1.24360 2.94484 1.88753
# Velocity P-wave (km/s) = 2.97648 4.94998 4.08422
#
# Compressibility (1/GPa) = 0.04702940
#
# Stress axis : x y z
#
# Youngs Moduli (GPa) = 37.70138 31.92901 45.90097
#
# Poissons Ratio (x) = 0.25371 -0.31765
# Poissons Ratio (y) = 0.29958 0.70111
# Poissons Ratio (z) = -0.26091 0.48770
#
# Static dielectric constant tensor:
#      x y z
#    x 1.701180 0.000000 0.013240 
#    y 0.000000 1.627750 0.000000 
#    z 0.013240 0.000000 1.734370 
# 
# From -- ./inp_files/356725.got.cif
#   From: 2010.05.17/outbox.cif.g08.bks.cpg/sg12_179_cif.got.tgz:356725.got - 2010.06.03 13:09:07.
