data_PCOD9199845
_publ_section_title
;
Structure prediction by ZEFSAII (Michael W. Deem and Ramdas Pophale) SiO2 
 PCOD9199845
Probable space group: C 2/M
;
_chemical_formula_sum "Si O2"
_cell_formula_units_Z 48
_cell_length_a 26.272263
_cell_length_b 12.900409
_cell_length_c 11.701463
_cell_angle_alpha 90.000000
_cell_angle_beta 29.950202
_cell_angle_gamma 90.000000
_cell_volume 1979.961246
_symmetry_space_group_name_H-M "C 2/M"
_symmetry_group_IT_number 12
_symmetry_cell_setting 'monoclinic'
loop_
_space_group_symop_operation_xyz
x,y,z
-x,y,-z
-x,-y,-z
x,-y,z
1/2+x,1/2+y,z
1/2-x,1/2+y,-z
1/2-x,1/2-y,-z
1/2+x,1/2-y,z
loop_
_atom_site_type_symbol
_atom_site_label
_atom_site_fract_x
_atom_site_fract_y
_atom_site_fract_z
Si Si1 0.986681 0.729962 0.896075
Si Si2 0.822147 0.117650 0.495452
Si Si3 0.102253 0.384053 0.502768
Si Si4 0.611140 0.287051 0.287211
Si Si5 0.299344 0.382394 0.281406
Si Si6 0.798611 0.382382 0.036363
O O1 0.081820 0.806833 0.685709
O O2 0.004665 0.637438 0.773020
O O3 0.000000 0.692731 0.000000
O O4 0.886350 0.799819 0.084923
O O5 0.770821 0.130998 0.470888
O O6 0.746174 0.129052 0.749059
O O7 0.861191 0.000000 0.424137
O O8 0.099464 0.500000 0.460697
O O9 0.108599 0.298649 0.392784
O O10 0.201734 0.375036 0.390322
O O11 0.500000 0.336775 0.500000
O O12 0.700654 0.366216 0.142352
O O13 0.633998 0.215993 0.132618
O O14 0.340256 0.500000 0.190363
O O15 0.838153 0.500000 0.945008
#
# Coordination Sequence:
#
# PCOD9199845 Si02
#       6
#     8   8   8   8   8   8
#     4  10  20  36  61  94 128 165 204 250 305 371
#     4   9  17  36  64  98 129 156 201 257 315 371
#     4  11  24  43  61  89 128 168 213 254 307 372
#     4  11  25  46  66  90 126 167 210 259 317 369
#     4   9  20  39  66  93 127 166 201 254 314 371
#     4  10  22  43  70  97 123 158 209 262 310 372
#
# _framework density 24.242899999999999
#
# number of rings (size 3 to 8) (size 9 to 14) (size 15 to 20)
#    0.000    2.000    1.667    1.000    0.000    9.333 
#    3.000    0.000    0.000    1.000    0.000    0.000 
#    0.000    0.000    0.000    0.000    0.000    0.000 
#
# Total GULP energy -134418.683320 kJ/mol
# GULP energy per Si atom -5600.778472 kJ/mol
# Density = 2.418772 g / cm^3
# Si number density = 24.242900 Si / 1000 Ang^3
#
#
#
# Elastic Constant Matrix: (Units=GPa)
#
#
# Indices 1 2 3 4 5 6 
#
# 1 79.2255 -1.2235 16.6373 0.0000 9.1514 0.0000
# 2 -1.2235 82.1039 -9.8092 0.0000 5.7694 0.0000
# 3 16.6373 -9.8092 74.2626 0.0000 11.8151 0.0000
# 4 0.0000 0.0000 0.0000 21.2625 0.0000 -2.4383
# 5 9.1514 5.7694 11.8151 0.0000 47.4165 0.0000
# 6 0.0000 0.0000 0.0000 -2.4383 0.0000 20.5645
#
#
#
# Elastic Compliance Matrix: (Units=1/GPa)
#
#
# Indices 1 2 3 4 5 6 
#
# 1 0.013410 0.000012 -0.002698 0.000000 -0.001918 0.000000
# 2 0.000012 0.012558 0.001978 0.000000 -0.002023 0.000000
# 3 -0.002698 0.001978 0.014877 0.000000 -0.003427 0.000000
# 4 0.000000 0.000000 0.000000 0.047679 0.000000 0.005653
# 5 -0.001918 -0.002023 -0.003427 0.000000 0.022560 0.000000
# 6 0.000000 0.000000 0.000000 0.005653 0.000000 0.049298
#
#
# Mechanical properties :
#
#
# Convention : Reuss Voigt Hill
#
# Bulk Modulus (GPa) = 25.36111 27.42236 26.39174
# Shear Modulus (GPa) = 28.58110 33.18119 30.88115
#
# Velocity S-wave (km/s) = 3.43731 3.70360 3.57294
# Velocity P-wave (km/s) = 5.12224 5.44288 5.28500
#
# Compressibility (1/GPa) = 0.03943045
#
# Stress axis : x y z
#
# Youngs Moduli (GPa) = 74.56900 79.62825 67.21969
#
# Poissons Ratio (x) = -0.00098 0.18134
# Poissons Ratio (y) = -0.00092 -0.13296
# Poissons Ratio (z) = 0.20116 -0.15750
#
# Static dielectric constant tensor:
#      x y z
#    x 1.962890 0.000000 -0.011270 
#    y 0.000000 1.893450 0.000000 
#    z -0.011270 0.000000 1.939510 
# 
# From -- ./inp_files/142986.got.cif
#   From: 2010.05.17/outbox.cif.g08.bks.cpg/sg12_72_cif.got.tgz:142986.got - 2010.06.03 13:09:07.
