data_PCOD9199797
_publ_section_title
;
Structure prediction by ZEFSAII (Michael W. Deem and Ramdas Pophale) SiO2 
 PCOD9199797
Probable space group: C 2/M
;
_chemical_formula_sum "Si O2"
_cell_formula_units_Z 64
_cell_length_a 14.516474
_cell_length_b 8.550645
_cell_length_c 23.835295
_cell_angle_alpha 90.000000
_cell_angle_beta 77.336407
_cell_angle_gamma 90.000000
_cell_volume 2886.591303
_symmetry_space_group_name_H-M "C 2/M"
_symmetry_group_IT_number 12
_symmetry_cell_setting 'monoclinic'
loop_
_space_group_symop_operation_xyz
x,y,z
-x,y,-z
-x,-y,-z
x,-y,z
1/2+x,1/2+y,z
1/2-x,1/2+y,-z
1/2-x,1/2-y,-z
1/2+x,1/2-y,z
loop_
_atom_site_type_symbol
_atom_site_label
_atom_site_fract_x
_atom_site_fract_y
_atom_site_fract_z
Si Si1 0.235683 0.180510 0.216648
Si Si2 0.519768 0.321550 0.128089
Si Si3 0.445016 0.179418 0.243115
Si Si4 0.482619 0.188790 0.438593
Si Si5 0.784050 0.680692 0.902143
Si Si6 0.361602 0.314237 0.363279
Si Si7 0.658699 0.812079 0.337968
Si Si8 0.911042 0.317159 0.047310
O O1 0.340189 0.190774 0.229863
O O2 0.230879 0.287021 0.162259
O O3 0.167020 0.233278 0.276010
O O4 0.219115 0.000000 0.202134
O O5 0.493986 0.500000 0.119834
O O6 0.510631 0.285186 0.195229
O O7 0.625047 0.282413 0.094215
O O8 0.447885 0.207611 0.105690
O O9 0.430115 0.233240 0.308576
O O10 0.477281 0.000000 0.236448
O O11 0.500000 0.239377 0.500000
O O12 0.390583 0.256938 0.420726
O O13 0.570799 0.235923 0.387717
O O14 0.476852 0.000000 0.438957
O O15 0.805431 0.500000 0.909376
O O16 0.687918 0.730992 0.945270
O O17 0.372641 0.500000 0.357363
O O18 0.255005 0.275352 0.359066
O O19 0.655505 0.000000 0.330279
O O20 0.898073 0.500000 0.036750
O O21 0.000000 0.255711 0.000000
#
# Coordination Sequence:
#
# PCOD9199797 Si02
#       8
#     8   8   8   8   8   8   8   8
#     4  10  20  36  61  91 126 161 204 256 311 376
#     4  12  25  41  65  96 130 168 213 261 315 377
#     4  10  20  37  62  90 126 164 203 252 312 377
#     4  10  22  40  60  83 116 160 207 253 308 376
#     4  12  25  41  65  95 130 170 212 260 316 375
#     4  10  21  37  58  86 119 155 200 253 308 366
#     4   9  20  38  58  83 118 158 201 248 308 373
#     4  11  25  47  71  95 129 170 214 265 316 373
#
# _framework density 22.171479000000001
#
# number of rings (size 3 to 8) (size 9 to 14) (size 15 to 20)
#    0.000    1.500    1.250    3.750    1.750    4.250 
#    0.000    0.000    0.000    0.000    0.000    0.000 
#    0.000    0.000    0.000    0.000    0.000    0.000 
#
# Total GULP energy -179105.526355 kJ/mol
# GULP energy per Si atom -5597.047699 kJ/mol
# Density = 2.212102 g / cm^3
# Si number density = 22.171479 Si / 1000 Ang^3
#
#
#
# Elastic Constant Matrix: (Units=GPa)
#
#
# Indices 1 2 3 4 5 6 
#
# 1 61.1455 1.1673 13.2018 0.0000 -2.2251 0.0000
# 2 1.1673 43.7891 3.9635 0.0000 -6.8240 0.0000
# 3 13.2018 3.9635 73.3671 0.0000 -0.3685 0.0000
# 4 0.0000 0.0000 0.0000 27.7513 0.0000 -2.3321
# 5 -2.2251 -6.8240 -0.3685 0.0000 37.5587 0.0000
# 6 0.0000 0.0000 0.0000 -2.3321 0.0000 20.2226
#
#
#
# Elastic Compliance Matrix: (Units=1/GPa)
#
#
# Indices 1 2 3 4 5 6 
#
# 1 0.017052 -0.000025 -0.003062 0.000000 0.000976 0.000000
# 2 -0.000025 0.023617 -0.001250 0.000000 0.004277 0.000000
# 3 -0.003062 -0.001250 0.014247 0.000000 -0.000269 0.000000
# 4 0.000000 0.000000 0.000000 0.036387 0.000000 0.004196
# 5 0.000976 0.004277 -0.000269 0.000000 0.027457 0.000000
# 6 0.000000 0.000000 0.000000 0.004196 0.000000 0.049934
#
#
# Mechanical properties :
#
#
# Convention : Reuss Voigt Hill
#
# Bulk Modulus (GPa) = 21.62562 23.88522 22.75542
# Shear Modulus (GPa) = 25.93606 27.77113 26.85360
#
# Velocity S-wave (km/s) = 3.42394 3.54299 3.48397
# Velocity P-wave (km/s) = 5.04045 5.24723 5.14488
#
# Compressibility (1/GPa) = 0.04624144
#
# Stress axis : x y z
#
# Youngs Moduli (GPa) = 58.64577 42.34226 70.18902
#
# Poissons Ratio (x) = 0.00107 0.21492
# Poissons Ratio (y) = 0.00149 0.08772
# Poissons Ratio (z) = 0.17957 0.05292
#
# Static dielectric constant tensor:
#      x y z
#    x 1.839880 0.000000 0.009930 
#    y 0.000000 1.754320 0.000000 
#    z 0.009930 0.000000 1.823290 
# 
# From -- ./inp_files/359779.got.cif
#   From: 2010.05.17/outbox.cif.g08.bks.cpg/sg12_180_cif.got.tgz:359779.got - 2010.06.03 13:09:07.
