data_PCOD9199729
_publ_section_title
;
Structure prediction by ZEFSAII (Michael W. Deem and Ramdas Pophale) SiO2 
 PCOD9199729
Probable space group: C 2/M
;
_chemical_formula_sum "Si O2"
_cell_formula_units_Z 56
_cell_length_a 28.215812
_cell_length_b 7.983967
_cell_length_c 19.115137
_cell_angle_alpha 90.000000
_cell_angle_beta 37.327626
_cell_angle_gamma 90.000000
_cell_volume 2611.125545
_symmetry_space_group_name_H-M "C 2/M"
_symmetry_group_IT_number 12
_symmetry_cell_setting 'monoclinic'
loop_
_space_group_symop_operation_xyz
x,y,z
-x,y,-z
-x,-y,-z
x,-y,z
1/2+x,1/2+y,z
1/2-x,1/2+y,-z
1/2-x,1/2-y,-z
1/2+x,1/2-y,z
loop_
_atom_site_type_symbol
_atom_site_label
_atom_site_fract_x
_atom_site_fract_y
_atom_site_fract_z
Si Si1 0.183661 0.199455 0.023434
Si Si2 0.208113 0.204819 0.693820
Si Si3 0.126731 0.302217 0.542768
Si Si4 0.420914 0.300538 0.555604
Si Si5 0.254901 0.202592 0.795490
Si Si6 0.484126 0.198787 0.799235
Si Si7 0.034568 0.200873 0.886351
O O1 0.208252 0.264496 0.917666
O O2 0.181473 0.000000 0.022364
O O3 0.250000 0.250000 0.000000
O O4 0.096631 0.257727 0.143814
O O5 0.284616 0.266446 0.562290
O O6 0.219508 0.253082 0.761954
O O7 0.123057 0.263028 0.769602
O O8 0.209563 0.000000 0.689704
O O9 0.133130 0.500000 0.550088
O O10 0.094901 0.281612 0.501107
O O11 0.061440 0.228914 0.670847
O O12 0.500000 0.241567 0.500000
O O13 0.426753 0.500000 0.537970
O O14 0.344419 0.262098 0.691307
O O15 0.254729 0.000000 0.796428
O O16 0.482185 0.260509 0.881101
O O17 0.491038 0.000000 0.791866
O O18 0.039236 0.000000 0.887438
O O19 0.000000 0.265788 0.000000
#
# Coordination Sequence:
#
# PCOD9199729 Si02
#       7
#     8   8   8   8   8   8   8
#     4  11  24  41  61  85 115 154 197 242 298 357
#     4   8  15  33  59  83 109 146 193 239 283 342
#     4   9  20  38  57  79 114 159 202 240 286 354
#     4  10  21  34  53  84 115 145 187 243 295 340
#     4   9  19  37  59  81 108 148 192 233 284 351
#     4  11  24  40  58  86 121 156 199 249 298 349
#     4  10  20  36  61  89 117 153 198 247 302 360
#
# _framework density 21.44669
#
# number of rings (size 3 to 8) (size 9 to 14) (size 15 to 20)
#    0.000    2.286    0.000    3.000    2.000    6.571 
#    0.000    2.857    0.000    0.000    0.000    0.000 
#    0.000    0.000    0.000    0.000    0.000    0.000 
#
# Total GULP energy -156364.013146 kJ/mol
# GULP energy per Si atom -5584.429041 kJ/mol
# Density = 2.139788 g / cm^3
# Si number density = 21.446690 Si / 1000 Ang^3
#
#
#
# Elastic Constant Matrix: (Units=GPa)
#
#
# Indices 1 2 3 4 5 6 
#
# 1 64.0184 -7.6909 42.9218 -0.0049 -23.2767 -0.0038
# 2 -7.6909 15.6740 6.4037 -0.0239 1.0351 0.0098
# 3 42.9218 6.4037 125.3336 -0.0227 -7.0254 0.0017
# 4 -0.0049 -0.0239 -0.0227 17.4888 0.0036 -3.6539
# 5 -23.2767 1.0351 -7.0254 0.0036 36.3139 0.0041
# 6 -0.0038 0.0098 0.0017 -3.6539 0.0041 18.2590
#
#
#
# Elastic Compliance Matrix: (Units=1/GPa)
#
#
# Indices 1 2 3 4 5 6 
#
# 1 0.031438 0.018654 -0.010736 0.000016 0.017543 -0.000003
# 2 0.018654 0.076459 -0.009853 0.000091 0.007871 -0.000020
# 3 -0.010736 -0.009853 0.011918 0.000001 -0.004295 0.000003
# 4 0.000016 0.000091 0.000001 0.059675 0.000001 0.011942
# 5 0.017543 0.007871 -0.004295 0.000001 0.037727 -0.000009
# 6 -0.000003 -0.000020 0.000003 0.011942 -0.000009 0.057157
#
#
# Mechanical properties :
#
#
# Convention : Reuss Voigt Hill
#
# Bulk Modulus (GPa) = 8.62491 32.03282 20.32886
# Shear Modulus (GPa) = 15.77818 25.30507 20.54162
#
# Velocity S-wave (km/s) = 2.71531 3.43870 3.09819
# Velocity P-wave (km/s) = 3.72301 5.54389 4.72205
#
# Compressibility (1/GPa) = 0.11594330
#
# Stress axis : x y z
#
# Youngs Moduli (GPa) = 31.80865 13.07891 83.90616
#
# Poissons Ratio (x) = -0.24397 0.90082
# Poissons Ratio (y) = -0.59335 0.82677
# Poissons Ratio (z) = 0.34150 0.12887
#
# Static dielectric constant tensor:
#      x y z
#    x 1.735580 -0.000010 -0.001330 
#    y -0.000010 1.768820 0.000010 
#    z -0.001330 0.000010 1.820510 
# 
# From -- ./inp_files/329470.got.cif
#   From: 2010.05.17/outbox.cif.g08.bks.cpg/sg12_165_cif.got.tgz:329470.got - 2010.06.03 13:09:07.
