data_PCOD9199433
_publ_section_title
;
Structure prediction by ZEFSAII (Michael W. Deem and Ramdas Pophale) SiO2 
 PCOD9199433
Probable space group: C 2/M
;
_chemical_formula_sum "Si O2"
_cell_formula_units_Z 48
_cell_length_a 23.647554
_cell_length_b 11.492279
_cell_length_c 12.145989
_cell_angle_alpha 90.000000
_cell_angle_beta 48.362291
_cell_angle_gamma 90.000000
_cell_volume 2466.923503
_symmetry_space_group_name_H-M "C 2/M"
_symmetry_group_IT_number 12
_symmetry_cell_setting 'monoclinic'
loop_
_space_group_symop_operation_xyz
x,y,z
-x,y,-z
-x,-y,-z
x,-y,z
1/2+x,1/2+y,z
1/2-x,1/2+y,-z
1/2-x,1/2-y,-z
1/2+x,1/2-y,z
loop_
_atom_site_type_symbol
_atom_site_label
_atom_site_fract_x
_atom_site_fract_y
_atom_site_fract_z
Si Si1 0.684837 0.135770 0.364719
Si Si2 0.181337 0.718565 0.845450
Si Si3 0.866792 0.638992 0.330677
Si Si4 0.223521 0.873249 0.089536
Si Si5 0.459595 0.139373 0.836653
Si Si6 0.574028 0.730364 0.342572
O O1 0.770034 0.163369 0.216315
O O2 0.672783 0.179332 0.505380
O O3 0.625163 0.198496 0.363034
O O4 0.668821 0.000000 0.383637
O O5 0.165633 0.688522 0.739810
O O6 0.237047 0.632961 0.841408
O O7 0.102752 0.707418 0.011535
O O8 0.857946 0.500000 0.336038
O O9 0.956268 0.662361 0.228086
O O10 0.133320 0.862046 0.217079
O O11 0.244759 0.000000 0.012572
O O12 0.250000 0.750000 0.000000
O O13 0.451692 0.184056 0.722206
O O14 0.445633 0.000000 0.861328
O O15 0.500000 0.683904 0.500000
#
# Coordination Sequence:
#
# PCOD9199433 Si02
#       6
#     8   8   8   8   8   8
#     4  10  22  37  59  88 119 162 204 249 303 363
#     4  11  22  37  58  89 123 153 197 254 307 362
#     4  10  20  36  60  87 117 155 203 251 302 358
#     4  11  24  41  64  93 124 162 204 254 310 367
#     4  11  21  35  59  90 119 156 201 254 307 358
#     4  11  22  39  61  88 121 157 200 252 304 361
#
# _framework density 19.457433999999999
#
# number of rings (size 3 to 8) (size 9 to 14) (size 15 to 20)
#    0.000    1.333    3.333    3.000    0.000    5.000 
#    0.000    0.000    0.000    3.000    0.000    0.000 
#    0.000    0.000    0.000    0.000    0.000    0.000 
#
# Total GULP energy -133890.170856 kJ/mol
# GULP energy per Si atom -5578.757119 kJ/mol
# Density = 1.941315 g / cm^3
# Si number density = 19.457434 Si / 1000 Ang^3
#
#
#
# Elastic Constant Matrix: (Units=GPa)
#
#
# Indices 1 2 3 4 5 6 
#
# 1 118.1838 27.2024 22.4743 0.0000 15.2523 0.0000
# 2 27.2024 64.0156 21.1187 0.0000 2.4236 0.0000
# 3 22.4743 21.1187 85.1486 0.0000 -13.5946 0.0000
# 4 0.0000 0.0000 0.0000 25.4077 0.0000 -1.0592
# 5 15.2523 2.4236 -13.5946 0.0000 38.7212 0.0000
# 6 0.0000 0.0000 0.0000 -1.0592 0.0000 8.7048
#
#
#
# Elastic Compliance Matrix: (Units=1/GPa)
#
#
# Indices 1 2 3 4 5 6 
#
# 1 0.010359 -0.003337 -0.002674 0.000000 -0.004810 0.000000
# 2 -0.003337 0.018359 -0.003863 0.000000 -0.001191 0.000000
# 3 -0.002674 -0.003863 0.014423 0.000000 0.006359 0.000000
# 4 0.000000 0.000000 0.000000 0.039559 0.000000 0.004814
# 5 -0.004810 -0.001191 0.006359 0.000000 0.030028 0.000000
# 6 0.000000 0.000000 0.000000 0.004814 0.000000 0.115464
#
#
# Mechanical properties :
#
#
# Convention : Reuss Voigt Hill
#
# Bulk Modulus (GPa) = 42.74940 45.43767 44.09354
# Shear Modulus (GPa) = 19.55124 27.67024 23.61074
#
# Velocity S-wave (km/s) = 3.17333 3.77515 3.48725
# Velocity P-wave (km/s) = 5.95358 6.51194 6.23901
#
# Compressibility (1/GPa) = 0.02339214
#
# Stress axis : x y z
#
# Youngs Moduli (GPa) = 96.53454 54.47001 69.33203
#
# Poissons Ratio (x) = 0.18179 0.18542
# Poissons Ratio (y) = 0.32218 0.26780
# Poissons Ratio (z) = 0.25818 0.21039
#
# Static dielectric constant tensor:
#      x y z
#    x 1.670670 0.000000 0.013680 
#    y 0.000000 1.668810 0.000000 
#    z 0.013680 0.000000 1.742010 
# 
# From -- ./inp_files/165469.got.cif
#   From: 2010.05.17/outbox.cif.g08.bks.cpg/sg12_83_cif.got.tgz:165469.got - 2010.06.03 13:09:07.
