data_PCOD9199976
_publ_section_title
;
Structure prediction by ZEFSAII (Michael W. Deem and Ramdas Pophale) SiO2 
 PCOD9199976
Probable space group: C 2/M
;
_chemical_formula_sum "Si O2"
_cell_formula_units_Z 56
_cell_length_a 14.936448
_cell_length_b 9.460878
_cell_length_c 20.116873
_cell_angle_alpha 90.000000
_cell_angle_beta 72.422761
_cell_angle_gamma 90.000000
_cell_volume 2710.027638
_symmetry_space_group_name_H-M "C 2/M"
_symmetry_group_IT_number 12
_symmetry_cell_setting 'monoclinic'
loop_
_space_group_symop_operation_xyz
x,y,z
-x,y,-z
-x,-y,-z
x,-y,z
1/2+x,1/2+y,z
1/2-x,1/2+y,-z
1/2-x,1/2-y,-z
1/2+x,1/2-y,z
loop_
_atom_site_type_symbol
_atom_site_label
_atom_site_fract_x
_atom_site_fract_y
_atom_site_fract_z
Si Si1 0.191990 0.346178 0.453951
Si Si2 0.574905 0.333265 0.385753
Si Si3 0.649320 0.348300 0.693803
Si Si4 0.714377 0.332770 0.106461
Si Si5 0.890570 0.166760 0.008554
Si Si6 0.403676 0.841283 0.395107
Si Si7 0.318464 0.834531 0.753220
O O1 0.143144 0.500000 0.450076
O O2 0.132666 0.220967 0.435570
O O3 0.283264 0.358197 0.386572
O O4 0.187820 0.344118 0.535290
O O5 0.578983 0.500000 0.377780
O O6 0.470640 0.273833 0.412949
O O7 0.619689 0.252470 0.312877
O O8 0.597622 0.500000 0.709690
O O9 0.599408 0.206271 0.681495
O O10 0.714007 0.332157 0.743492
O O11 0.724086 0.500000 0.118498
O O12 0.814788 0.265060 0.062896
O O13 0.680371 0.244467 0.177307
O O14 0.640816 0.318786 0.061659
O O15 0.876378 0.000000 0.029531
O O16 0.000000 0.199946 0.000000
O O17 0.441262 0.000000 0.389321
O O18 0.844550 0.500000 0.751611
#
# Coordination Sequence:
#
# PCOD9199976 Si02
#       7
#     8   8   8   8   8   8   8
#     4   9  19  35  53  73 101 138 177 224 288 348
#     4  11  22  35  53  76 104 139 184 234 279 335
#     4   9  19  35  53  74 102 138 181 229 280 339
#     4  10  20  36  62  93 124 159 199 243 286 339
#     4   9  19  38  63  93 127 163 198 235 285 340
#     4  11  21  33  51  76 105 137 178 231 287 341
#     4  10  21  40  60  78 108 151 188 224 283 342
#
# _framework density 20.663993999999999
#
# number of rings (size 3 to 8) (size 9 to 14) (size 15 to 20)
#    0.000    2.143    0.000    4.286    0.000    6.571 
#    2.571    0.000    0.000    0.000    0.000    0.000 
#    0.000    0.000    0.000    0.000    0.000    0.000 
#
# Total GULP energy -155955.607053 kJ/mol
# GULP energy per Si atom -5569.843109 kJ/mol
# Density = 2.061696 g / cm^3
# Si number density = 20.663994 Si / 1000 Ang^3
#
#
#
# Elastic Constant Matrix: (Units=GPa)
#
#
# Indices 1 2 3 4 5 6 
#
# 1 67.8815 17.5236 12.0016 0.0000 9.1832 0.0000
# 2 17.5236 146.2839 51.1945 0.0000 6.8973 0.0000
# 3 12.0016 51.1945 89.7895 0.0000 6.3733 0.0000
# 4 0.0000 0.0000 0.0000 21.0878 0.0000 -3.2849
# 5 9.1832 6.8973 6.3733 0.0000 13.2710 0.0000
# 6 0.0000 0.0000 0.0000 -3.2849 0.0000 18.9959
#
#
#
# Elastic Compliance Matrix: (Units=1/GPa)
#
#
# Indices 1 2 3 4 5 6 
#
# 1 0.016602 -0.001222 -0.000778 0.000000 -0.010479 0.000000
# 2 -0.001222 0.008691 -0.004691 0.000000 -0.001418 0.000000
# 3 -0.000778 -0.004691 0.014188 0.000000 -0.003837 0.000000
# 4 0.000000 0.000000 0.000000 0.048734 0.000000 0.008427
# 5 -0.010479 -0.001418 -0.003837 0.000000 0.085184 0.000000
# 6 0.000000 0.000000 0.000000 0.008427 0.000000 0.054100
#
#
# Mechanical properties :
#
#
# Convention : Reuss Voigt Hill
#
# Bulk Modulus (GPa) = 38.31735 51.71046 45.01390
# Shear Modulus (GPa) = 20.03346 25.55329 22.79337
#
# Velocity S-wave (km/s) = 3.11704 3.52036 3.32482
# Velocity P-wave (km/s) = 5.61586 6.45001 6.04734
#
# Compressibility (1/GPa) = 0.02609784
#
# Stress axis : x y z
#
# Youngs Moduli (GPa) = 60.23233 115.06008 70.48043
#
# Poissons Ratio (x) = 0.14064 0.05486
# Poissons Ratio (y) = 0.07362 0.33064
# Poissons Ratio (z) = 0.04688 0.53978
#
# Static dielectric constant tensor:
#      x y z
#    x 1.842620 0.000000 0.000140 
#    y 0.000000 2.148560 0.000000 
#    z 0.000140 0.000000 1.736570 
# 
# From -- ./inp_files/313274.got.cif
#   From: 2010.05.17/outbox.cif.g08.bks.cpg/sg12_157_cif.got.tgz:313274.got - 2010.06.03 13:09:07.
