data_PCOD9199582
_publ_section_title
;
Structure prediction by ZEFSAII (Michael W. Deem and Ramdas Pophale) SiO2 
 PCOD9199582
Probable space group: C 2/M
;
_chemical_formula_sum "Si O2"
_cell_formula_units_Z 52
_cell_length_a 14.971933
_cell_length_b 11.067816
_cell_length_c 19.099936
_cell_angle_alpha 90.000000
_cell_angle_beta 55.300775
_cell_angle_gamma 90.000000
_cell_volume 2602.098296
_symmetry_space_group_name_H-M "C 2/M"
_symmetry_group_IT_number 12
_symmetry_cell_setting 'monoclinic'
loop_
_space_group_symop_operation_xyz
x,y,z
-x,y,-z
-x,-y,-z
x,-y,z
1/2+x,1/2+y,z
1/2-x,1/2+y,-z
1/2-x,1/2-y,-z
1/2+x,1/2-y,z
loop_
_atom_site_type_symbol
_atom_site_label
_atom_site_fract_x
_atom_site_fract_y
_atom_site_fract_z
Si Si1 0.193618 0.141145 0.482187
Si Si2 0.887934 0.500000 0.174691
Si Si3 0.246347 0.785579 0.300164
Si Si4 0.782435 0.500000 0.082808
Si Si5 0.470270 0.639989 0.656645
Si Si6 0.829513 0.759212 0.898227
Si Si7 0.048388 0.139345 0.779768
Si Si8 0.866712 0.500000 0.884753
O O1 0.250000 0.250000 0.500000
O O2 0.219746 0.167069 0.389917
O O3 0.066144 0.150664 0.557423
O O4 0.224565 0.000000 0.485592
O O5 0.820212 0.385373 0.230134
O O6 0.880893 0.500000 0.093574
O O7 0.004516 0.500000 0.159251
O O8 0.131079 0.775172 0.313832
O O9 0.326699 0.672297 0.265017
O O10 0.712074 0.377449 0.124692
O O11 0.818801 0.500000 0.985618
O O12 0.431692 0.500000 0.671951
O O13 0.521858 0.662488 0.709670
O O14 0.829974 0.625075 0.865513
O O15 0.955056 0.786276 0.861972
O O16 0.750000 0.750000 0.000000
O O17 0.029697 0.000000 0.803819
#
# Coordination Sequence:
#
# PCOD9199582 Si02
#       8
#     8   4   8   4   8   8   8   4
#     4  11  22  39  61  92 124 163 206 258 314 370
#     4  12  21  36  59  90 116 154 209 255 307 356
#     4  12  22  36  62  92 121 155 212 262 304 361
#     4  10  21  38  62  84 123 163 205 249 310 383
#     4  10  21  38  63  89 117 162 211 252 304 373
#     4  10  20  36  60  90 121 159 203 249 307 366
#     4  11  22  39  63  88 125 168 207 253 317 381
#     4  10  21  36  60  94 119 156 202 262 308 362
#
# _framework density 19.983872000000002
#
# number of rings (size 3 to 8) (size 9 to 14) (size 15 to 20)
#    0.000    1.231    5.385    1.615    0.000    1.231 
#    0.000    0.769    8.462    1.846    0.000   10.769 
#    0.000    0.000    0.000    0.000    0.000    0.000 
#
# Total GULP energy -145046.899770 kJ/mol
# GULP energy per Si atom -5578.726914 kJ/mol
# Density = 1.993839 g / cm^3
# Si number density = 19.983872 Si / 1000 Ang^3
#
#
#
# Elastic Constant Matrix: (Units=GPa)
#
#
# Indices 1 2 3 4 5 6 
#
# 1 60.7001 28.0841 18.8521 0.0000 -16.8200 0.0000
# 2 28.0841 122.3576 24.7653 0.0000 -10.1213 0.0000
# 3 18.8521 24.7653 86.0462 0.0000 -17.7582 0.0000
# 4 0.0000 0.0000 0.0000 26.3164 0.0000 -11.5862
# 5 -16.8200 -10.1213 -17.7582 0.0000 33.4038 0.0000
# 6 0.0000 0.0000 0.0000 -11.5862 0.0000 23.9191
#
#
#
# Elastic Compliance Matrix: (Units=1/GPa)
#
#
# Indices 1 2 3 4 5 6 
#
# 1 0.021150 -0.003787 -0.001778 0.000000 0.008557 0.000000
# 2 -0.003787 0.009420 -0.001894 0.000000 -0.000059 0.000000
# 3 -0.001778 -0.001894 0.013763 0.000000 0.005848 0.000000
# 4 0.000000 0.000000 0.000000 0.048299 0.000000 0.023396
# 5 0.008557 -0.000059 0.005848 0.000000 0.037336 0.000000
# 6 0.000000 0.000000 0.000000 0.023396 0.000000 0.053140
#
#
# Mechanical properties :
#
#
# Convention : Reuss Voigt Hill
#
# Bulk Modulus (GPa) = 33.99475 45.83411 39.91443
# Shear Modulus (GPa) = 24.05793 29.88802 26.97298
#
# Velocity S-wave (km/s) = 3.47344 3.87150 3.67786
# Velocity P-wave (km/s) = 5.75625 6.55516 6.16865
#
# Compressibility (1/GPa) = 0.02941630
#
# Stress axis : x y z
#
# Youngs Moduli (GPa) = 47.28180 106.15327 72.65790
#
# Poissons Ratio (x) = 0.40197 0.12918
# Poissons Ratio (y) = 0.17904 0.13761
# Poissons Ratio (z) = 0.08406 0.20104
#
# Static dielectric constant tensor:
#      x y z
#    x 1.709560 0.000000 -0.006820 
#    y 0.000000 1.742230 0.000000 
#    z -0.006820 0.000000 1.717840 
# 
# From -- ./inp_files/268137.got.cif
#   From: 2010.05.17/outbox.cif.g08.bks.cpg/sg12_135_cif.got.tgz:268137.got - 2010.06.03 13:09:07.
