data_PCOD9199154
_publ_section_title
;
Structure prediction by ZEFSAII (Michael W. Deem and Ramdas Pophale) SiO2 
 PCOD9199154
Probable space group: C 2/M
;
_chemical_formula_sum "Si O2"
_cell_formula_units_Z 48
_cell_length_a 20.238167
_cell_length_b 20.197218
_cell_length_c 8.479656
_cell_angle_alpha 90.000000
_cell_angle_beta 43.599970
_cell_angle_gamma 90.000000
_cell_volume 2390.288295
_symmetry_space_group_name_H-M "C 2/M"
_symmetry_group_IT_number 12
_symmetry_cell_setting 'monoclinic'
loop_
_space_group_symop_operation_xyz
x,y,z
-x,y,-z
-x,-y,-z
x,-y,z
1/2+x,1/2+y,z
1/2-x,1/2+y,-z
1/2-x,1/2-y,-z
1/2+x,1/2-y,z
loop_
_atom_site_type_symbol
_atom_site_label
_atom_site_fract_x
_atom_site_fract_y
_atom_site_fract_z
Si Si1 0.507027 0.424646 0.656326
Si Si2 0.357787 0.793270 0.128964
Si Si3 0.933872 0.266019 0.335410
Si Si4 0.227956 0.301077 0.180022
Si Si5 0.681819 0.371946 0.494289
Si Si6 0.679802 0.420725 0.851710
O O1 0.500000 0.388411 0.500000
O O2 0.474202 0.500000 0.689533
O O3 0.615988 0.424561 0.520944
O O4 0.430990 0.401709 0.917973
O O5 0.393808 0.799513 0.245259
O O6 0.290474 0.729893 0.215997
O O7 0.281081 0.852135 0.238139
O O8 0.452751 0.779123 0.862901
O O9 0.881509 0.294646 0.578544
O O10 0.892048 0.191294 0.387678
O O11 0.260893 0.377111 0.123363
O O12 0.250000 0.250000 0.000000
O O13 0.700764 0.397234 0.637650
O O14 0.695178 0.500000 0.834465
#
# Coordination Sequence:
#
# PCOD9199154 Si02
#       6
#     8   8   8   8   8   8
#     4  10  23  37  54  84 120 159 196 240 300 365
#     4  10  20  36  59  87 115 152 194 253 306 351
#     4  10  20  37  58  85 122 146 196 256 300 354
#     4  11  22  37  58  89 119 161 201 247 307 363
#     4  11  19  36  60  85 116 158 197 245 303 363
#     4  11  22  38  58  86 119 156 204 249 304 368
#
# _framework density 20.081258999999999
#
# number of rings (size 3 to 8) (size 9 to 14) (size 15 to 20)
#    0.000    1.500    3.333    3.000    7.000    2.000 
#    0.000    0.000    0.000    3.000    0.000    1.167 
#    0.000    0.000    0.000    0.000    0.000    0.000 
#
# Total GULP energy -133606.247621 kJ/mol
# GULP energy per Si atom -5566.926984 kJ/mol
# Density = 2.003555 g / cm^3
# Si number density = 20.081259 Si / 1000 Ang^3
#
#
#
# Elastic Constant Matrix: (Units=GPa)
#
#
# Indices 1 2 3 4 5 6 
#
# 1 46.7270 24.0433 32.4405 0.0000 0.7383 0.0000
# 2 24.0433 90.2448 33.0186 0.0000 -7.4578 0.0000
# 3 32.4405 33.0186 135.2471 0.0000 -35.1518 0.0000
# 4 0.0000 0.0000 0.0000 20.1781 0.0000 -6.2413
# 5 0.7383 -7.4578 -35.1518 0.0000 26.8975 0.0000
# 6 0.0000 0.0000 0.0000 -6.2413 0.0000 25.8870
#
#
#
# Elastic Compliance Matrix: (Units=1/GPa)
#
#
# Indices 1 2 3 4 5 6 
#
# 1 0.031980 -0.006054 -0.010385 0.000000 -0.016128 0.000000
# 2 -0.006054 0.013324 -0.001208 0.000000 0.002282 0.000000
# 3 -0.010385 -0.001208 0.015396 0.000000 0.020071 0.000000
# 4 0.000000 0.000000 0.000000 0.053552 0.000000 0.012911
# 5 -0.016128 0.002282 0.020071 0.000000 0.064484 0.000000
# 6 0.000000 0.000000 0.000000 0.012911 0.000000 0.041742
#
#
# Mechanical properties :
#
#
# Convention : Reuss Voigt Hill
#
# Bulk Modulus (GPa) = 39.35638 50.13594 44.74616
# Shear Modulus (GPa) = 18.92210 26.77364 22.84787
#
# Velocity S-wave (km/s) = 3.07298 3.65535 3.37675
# Velocity P-wave (km/s) = 5.67733 6.54494 6.12651
#
# Compressibility (1/GPa) = 0.02540884
#
# Stress axis : x y z
#
# Youngs Moduli (GPa) = 31.26934 75.05109 64.95067
#
# Poissons Ratio (x) = 0.45432 0.67449
# Poissons Ratio (y) = 0.18929 0.07844
# Poissons Ratio (z) = 0.32472 0.09064
#
# Static dielectric constant tensor:
#      x y z
#    x 1.764750 0.000000 0.028530 
#    y 0.000000 1.813450 0.000000 
#    z 0.028530 0.000000 1.794240 
# 
# From -- ./inp_files/63617.got.cif
#   From: 2010.05.17/outbox.cif.g08.bks.cpg/sg12_32_cif.got.tgz:63617.got - 2010.06.03 13:09:07.
