data_PCOD9199288
_publ_section_title
;
Structure prediction by ZEFSAII (Michael W. Deem and Ramdas Pophale) SiO2 
 PCOD9199288
Probable space group: C 2/M
;
_chemical_formula_sum "Si O2"
_cell_formula_units_Z 56
_cell_length_a 15.176051
_cell_length_b 23.282861
_cell_length_c 8.952861
_cell_angle_alpha 90.000000
_cell_angle_beta 69.275884
_cell_angle_gamma 90.000000
_cell_volume 2958.732183
_symmetry_space_group_name_H-M "C 2/M"
_symmetry_group_IT_number 12
_symmetry_cell_setting 'monoclinic'
loop_
_space_group_symop_operation_xyz
x,y,z
-x,y,-z
-x,-y,-z
x,-y,z
1/2+x,1/2+y,z
1/2-x,1/2+y,-z
1/2-x,1/2-y,-z
1/2+x,1/2-y,z
loop_
_atom_site_type_symbol
_atom_site_label
_atom_site_fract_x
_atom_site_fract_y
_atom_site_fract_z
Si Si1 0.274731 0.628561 0.839242
Si Si2 0.846977 0.435123 0.314655
Si Si3 0.536386 0.176540 0.810916
Si Si4 0.101679 0.931969 0.999082
Si Si5 0.841616 0.327257 0.809597
Si Si6 0.281927 0.065042 0.683930
Si Si7 0.234873 0.734329 0.680498
O O1 0.218230 0.578187 0.789247
O O2 0.361484 0.603699 0.880902
O O3 0.289289 0.677202 0.705153
O O4 0.206536 0.657974 0.003248
O O5 0.884869 0.500000 0.285488
O O6 0.923812 0.384539 0.270458
O O7 0.786189 0.429878 0.503066
O O8 0.446190 0.196598 0.771142
O O9 0.624395 0.219551 0.761691
O O10 0.500000 0.167630 0.000000
O O11 0.097349 0.000000 0.038774
O O12 0.180124 0.925581 0.821506
O O13 0.000000 0.913825 0.000000
O O14 0.847606 0.386870 0.716333
O O15 0.773359 0.285179 0.760497
O O16 0.311256 0.000000 0.704823
O O17 0.250000 0.750000 0.500000
#
# Coordination Sequence:
#
# PCOD9199288 Si02
#       7
#     8   8   8   8   8   8   8
#     4  10  20  37  60  88 116 159 203 249 302 354
#     4  10  20  36  59  91 128 159 192 242 302 363
#     4  11  23  41  63  90 118 158 204 248 298 356
#     4   9  18  36  61  88 120 162 209 251 296 355
#     4  11  21  41  64  86 118 159 201 251 295 362
#     4   9  20  37  60  90 127 162 194 244 307 358
#     4  11  24  41  61  85 119 155 197 254 308 357
#
# _framework density 18.927023999999999
#
# number of rings (size 3 to 8) (size 9 to 14) (size 15 to 20)
#    0.000    1.857    2.857    2.571    0.000    3.714 
#    5.143    2.143    6.286    3.429    0.000    0.000 
#    0.000    0.000    0.000    0.000    0.000    0.000 
#
# Total GULP energy -156186.325881 kJ/mol
# GULP energy per Si atom -5578.083067 kJ/mol
# Density = 1.888395 g / cm^3
# Si number density = 18.927024 Si / 1000 Ang^3
#
#
#
# Elastic Constant Matrix: (Units=GPa)
#
#
# Indices 1 2 3 4 5 6 
#
# 1 141.1548 53.8939 33.3558 0.0000 8.3659 0.0000
# 2 53.8939 84.8824 42.4560 0.0000 3.8128 0.0000
# 3 33.3558 42.4560 87.5805 0.0000 15.0459 0.0000
# 4 0.0000 0.0000 0.0000 34.1632 0.0000 7.7399
# 5 8.3659 3.8128 15.0459 0.0000 19.3767 0.0000
# 6 0.0000 0.0000 0.0000 7.7399 0.0000 23.8335
#
#
#
# Elastic Compliance Matrix: (Units=1/GPa)
#
#
# Indices 1 2 3 4 5 6 
#
# 1 0.009524 -0.005733 -0.000387 0.000000 -0.002683 0.000000
# 2 -0.005733 0.019179 -0.007952 0.000000 0.004876 0.000000
# 3 -0.000387 -0.007952 0.017451 0.000000 -0.011818 0.000000
# 4 0.000000 0.000000 0.000000 0.031596 0.000000 -0.010261
# 5 -0.002683 0.004876 -0.011818 0.000000 0.060984 0.000000
# 6 0.000000 0.000000 0.000000 -0.010261 0.000000 0.045290
#
#
# Mechanical properties :
#
#
# Convention : Reuss Voigt Hill
#
# Bulk Modulus (GPa) = 55.52375 63.66991 59.59683
# Shear Modulus (GPa) = 22.91796 27.73549 25.32673
#
# Velocity S-wave (km/s) = 3.48352 3.83220 3.66201
# Velocity P-wave (km/s) = 6.75124 7.30025 7.03111
#
# Compressibility (1/GPa) = 0.01801031
#
# Stress axis : x y z
#
# Youngs Moduli (GPa) = 105.00111 52.14054 57.30483
#
# Poissons Ratio (x) = 0.29890 0.02219
# Poissons Ratio (y) = 0.60193 0.45566
# Poissons Ratio (z) = 0.04066 0.41460
#
# Static dielectric constant tensor:
#      x y z
#    x 1.654990 0.000000 0.009370 
#    y 0.000000 1.681840 0.000000 
#    z 0.009370 0.000000 1.655680 
# 
# From -- ./inp_files/65766.got.cif
#   From: 2010.05.17/outbox.cif.g08.bks.cpg/sg12_33_cif.got.tgz:65766.got - 2010.06.03 13:09:07.
