data_PCOD9199353
_publ_section_title
;
Structure prediction by ZEFSAII (Michael W. Deem and Ramdas Pophale) SiO2 
 PCOD9199353
Probable space group: C 2/M
;
_chemical_formula_sum "Si O2"
_cell_formula_units_Z 40
_cell_length_a 14.789633
_cell_length_b 15.636940
_cell_length_c 8.099232
_cell_angle_alpha 90.000000
_cell_angle_beta 115.306036
_cell_angle_gamma 90.000000
_cell_volume 1693.321658
_symmetry_space_group_name_H-M "C 2/M"
_symmetry_group_IT_number 12
_symmetry_cell_setting 'monoclinic'
loop_
_space_group_symop_operation_xyz
x,y,z
-x,y,-z
-x,-y,-z
x,-y,z
1/2+x,1/2+y,z
1/2-x,1/2+y,-z
1/2-x,1/2-y,-z
1/2+x,1/2-y,z
loop_
_atom_site_type_symbol
_atom_site_label
_atom_site_fract_x
_atom_site_fract_y
_atom_site_fract_z
Si Si1 0.660465 0.665261 0.364201
Si Si2 0.912823 0.403400 0.195588
Si Si3 0.889427 0.763168 0.999904
Si Si4 0.536501 0.593870 0.716384
Si Si5 0.374405 0.147962 0.543842
O O1 0.570235 0.600099 0.274109
O O2 0.623034 0.748424 0.437331
O O3 0.762147 0.626635 0.513423
O O4 0.682028 0.703144 0.199287
O O5 0.886261 0.500000 0.132923
O O6 0.864937 0.330113 0.047029
O O7 0.888676 0.384284 0.368644
O O8 0.033556 0.389710 0.281443
O O9 0.898613 0.830272 0.156632
O O10 0.000000 0.759516 0.000000
O O11 0.500000 0.605018 0.500000
O O12 0.581929 0.500000 0.771244
#
# Coordination Sequence:
#
# PCOD9199353 Si02
#       5
#     8   8   8   8   8
#     4  10  21  36  61  85 119 152 195 248 296 347
#     4  11  22  38  61  86 122 164 200 241 293 356
#     4  10  20  37  58  88 115 152 197 245 297 353
#     4  10  20  36  60  85 112 152 195 243 299 354
#     4  10  20  38  58  86 113 156 201 236 291 352
#
# _framework density 23.622208000000001
#
# number of rings (size 3 to 8) (size 9 to 14) (size 15 to 20)
#    0.000    1.800    4.000    2.400    0.000    6.400 
#    0.000    0.000    0.000    4.800    0.000    0.000 
#    0.000    0.000    0.000    0.000    0.000    0.000 
#
# Total GULP energy -111753.194726 kJ/mol
# GULP energy per Si atom -5587.659736 kJ/mol
# Density = 2.356844 g / cm^3
# Si number density = 23.622208 Si / 1000 Ang^3
#
#
#
# Elastic Constant Matrix: (Units=GPa)
#
#
# Indices 1 2 3 4 5 6 
#
# 1 32.3398 18.8007 -4.1449 0.0000 11.8879 0.0000
# 2 18.8007 168.4486 54.3862 0.0000 -17.2680 0.0000
# 3 -4.1449 54.3862 72.3017 0.0000 -12.2461 0.0000
# 4 0.0000 0.0000 0.0000 -5.4710 0.0000 -1.8332
# 5 11.8879 -17.2680 -12.2461 0.0000 24.5223 0.0000
# 6 0.0000 0.0000 0.0000 -1.8332 0.0000 14.5082
#
#
#
# Elastic Compliance Matrix: (Units=1/GPa)
#
#
# Indices 1 2 3 4 5 6 
#
# 1 0.047319 -0.009845 0.005526 0.000000 -0.027112 0.000000
# 2 -0.009845 0.010071 -0.006697 0.000000 0.008520 0.000000
# 3 0.005526 -0.006697 0.019590 0.000000 0.002388 0.000000
# 4 0.000000 0.000000 0.000000 -0.175357 0.000000 -0.022157
# 5 -0.027112 0.008520 0.002388 0.000000 0.061115 0.000000
# 6 0.000000 0.000000 0.000000 -0.022157 0.000000 0.066127
#
#
# Mechanical properties :
#
#
# Convention : Reuss Voigt Hill
#
# Bulk Modulus (GPa) = 18.19880 45.68601 31.94240
# Shear Modulus (GPa) = 72.24216 20.31512 46.27864
#
# Velocity S-wave (km/s) = 5.53613 2.93576 4.43099
# Velocity P-wave (km/s) = 6.97035 5.55642 6.30316
#
# Compressibility (1/GPa) = 0.05494868
#
# Stress axis : x y z
#
# Youngs Moduli (GPa) = 21.13297 99.29646 51.04752
#
# Poissons Ratio (x) = 0.97756 -0.28209
# Poissons Ratio (y) = 0.20805 0.34185
# Poissons Ratio (z) = -0.11678 0.66496
#
# Static dielectric constant tensor:
#      x y z
#    x 1.992050 0.000000 -0.024650 
#    y 0.000000 1.878260 0.000000 
#    z -0.024650 0.000000 1.919090 
# 
# From -- ./inp_files/59234.got.cif
#   From: 2010.05.17/outbox.cif.g08.bks.cpg/sg12_30_cif.got.tgz:59234.got - 2010.06.03 13:09:07.
