data_PCOD9199049
_publ_section_title
;
Structure prediction by ZEFSAII (Michael W. Deem and Ramdas Pophale) SiO2 
 PCOD9199049
Probable space group: C 2/M
;
_chemical_formula_sum "Si O2"
_cell_formula_units_Z 64
_cell_length_a 25.306086
_cell_length_b 8.059989
_cell_length_c 14.836463
_cell_angle_alpha 90.000000
_cell_angle_beta 88.155581
_cell_angle_gamma 90.000000
_cell_volume 3024.577687
_symmetry_space_group_name_H-M "C 2/M"
_symmetry_group_IT_number 12
_symmetry_cell_setting 'monoclinic'
loop_
_space_group_symop_operation_xyz
x,y,z
-x,y,-z
-x,-y,-z
x,-y,z
1/2+x,1/2+y,z
1/2-x,1/2+y,-z
1/2-x,1/2-y,-z
1/2+x,1/2-y,z
loop_
_atom_site_type_symbol
_atom_site_label
_atom_site_fract_x
_atom_site_fract_y
_atom_site_fract_z
Si Si1 0.349548 0.693280 0.384193
Si Si2 0.261733 0.691965 0.651795
Si Si3 0.752642 0.806133 0.148551
Si Si4 0.831401 0.197610 0.987959
Si Si5 0.988976 0.698159 0.601504
Si Si6 0.556094 0.201275 0.955143
Si Si7 0.067590 0.696046 0.750623
Si Si8 0.375571 0.701215 0.579493
O O1 0.361653 0.500000 0.375713
O O2 0.286850 0.716299 0.392495
O O3 0.374847 0.779209 0.296074
O O4 0.375127 0.758199 0.475196
O O5 0.259128 0.500000 0.624445
O O6 0.252646 0.708670 0.758845
O O7 0.320027 0.755503 0.624867
O O8 0.800887 0.750770 0.081549
O O9 0.760480 0.000000 0.170267
O O10 0.699965 0.783352 0.091554
O O11 0.892825 0.238764 0.992795
O O12 0.823844 0.000000 0.979001
O O13 0.997610 0.500000 0.597062
O O14 0.927705 0.732802 0.624390
O O15 0.000000 0.766419 0.500000
O O16 0.026910 0.765544 0.677925
O O17 0.561754 0.263196 0.851646
O O18 0.557524 0.000000 0.955279
O O19 0.500000 0.252817 0.000000
O O20 0.057172 0.500000 0.758253
O O21 0.377016 0.500000 0.580622
#
# Coordination Sequence:
#
# PCOD9199049 Si02
#       8
#     8   8   8   8   8   8   8   8
#     4  11  22  37  58  84 114 150 195 240 287 344
#     4  11  23  38  56  83 119 154 191 235 289 346
#     4  10  21  38  61  88 116 150 191 235 287 345
#     4  10  21  38  61  87 116 149 190 238 289 343
#     4  10  20  36  59  85 113 147 194 243 288 342
#     4  10  22  39  58  83 117 154 194 239 289 347
#     4  10  21  38  60  85 113 151 194 239 291 344
#     4  10  23  39  56  82 116 154 192 238 292 344
#
# _framework density 21.159980000000001
#
# number of rings (size 3 to 8) (size 9 to 14) (size 15 to 20)
#    0.000    1.750    1.250    2.625    0.000    7.500 
#    0.000    1.250    0.000    0.000    0.000    0.000 
#    0.000    0.000    0.000    0.000    0.000    0.000 
#
# Total GULP energy -178846.464571 kJ/mol
# GULP energy per Si atom -5588.952018 kJ/mol
# Density = 2.111182 g / cm^3
# Si number density = 21.159980 Si / 1000 Ang^3
#
#
#
# Elastic Constant Matrix: (Units=GPa)
#
#
# Indices 1 2 3 4 5 6 
#
# 1 121.4438 -11.3927 7.1559 0.0000 1.9604 0.0000
# 2 -11.3927 15.2394 -0.3131 0.0000 -0.7661 0.0000
# 3 7.1559 -0.3131 30.3281 0.0000 -1.2739 0.0000
# 4 0.0000 0.0000 0.0000 15.3851 0.0000 -1.6733
# 5 1.9604 -0.7661 -1.2739 0.0000 22.1814 0.0000
# 6 0.0000 0.0000 0.0000 -1.6733 0.0000 26.9194
#
#
#
# Elastic Compliance Matrix: (Units=1/GPa)
#
#
# Indices 1 2 3 4 5 6 
#
# 1 0.008991 0.006645 -0.002082 0.000000 -0.000685 0.000000
# 2 0.006645 0.070662 -0.000762 0.000000 0.001810 0.000000
# 3 -0.002082 -0.000762 0.033544 0.000000 0.002084 0.000000
# 4 0.000000 0.000000 0.000000 0.065440 0.000000 0.004068
# 5 -0.000685 0.001810 0.002084 0.000000 0.045326 0.000000
# 6 0.000000 0.000000 0.000000 0.004068 0.000000 0.037401
#
#
# Mechanical properties :
#
#
# Convention : Reuss Voigt Hill
#
# Bulk Modulus (GPa) = 8.27828 17.54572 12.91200
# Shear Modulus (GPa) = 17.00516 24.33458 20.66987
#
# Velocity S-wave (km/s) = 2.83794 3.39489 3.12883
# Velocity P-wave (km/s) = 3.82874 4.86590 4.37814
#
# Compressibility (1/GPa) = 0.12079811
#
# Stress axis : x y z
#
# Youngs Moduli (GPa) = 111.21865 14.15189 29.81198
#
# Poissons Ratio (x) = -0.09403 0.06206
# Poissons Ratio (y) = -0.73900 0.02272
# Poissons Ratio (z) = 0.23152 0.01079
#
# Static dielectric constant tensor:
#      x y z
#    x 1.749480 0.000000 -0.002910 
#    y 0.000000 1.750690 0.000000 
#    z -0.002910 0.000000 1.763030 
# 
# From -- ./inp_files/238698.got.cif
#   From: 2010.05.17/outbox.cif.g08.bks.cpg/sg12_120_cif.got.tgz:238698.got - 2010.06.03 13:09:07.
