data_PCOD9199370
_publ_section_title
;
Structure prediction by ZEFSAII (Michael W. Deem and Ramdas Pophale) SiO2 
 PCOD9199370
Probable space group: C 2/M
;
_chemical_formula_sum "Si O2"
_cell_formula_units_Z 48
_cell_length_a 16.438772
_cell_length_b 8.656022
_cell_length_c 26.169293
_cell_angle_alpha 90.000000
_cell_angle_beta 146.678001
_cell_angle_gamma 90.000000
_cell_volume 2045.614783
_symmetry_space_group_name_H-M "C 2/M"
_symmetry_group_IT_number 12
_symmetry_cell_setting 'monoclinic'
loop_
_space_group_symop_operation_xyz
x,y,z
-x,y,-z
-x,-y,-z
x,-y,z
1/2+x,1/2+y,z
1/2-x,1/2+y,-z
1/2-x,1/2-y,-z
1/2+x,1/2-y,z
loop_
_atom_site_type_symbol
_atom_site_label
_atom_site_fract_x
_atom_site_fract_y
_atom_site_fract_z
Si Si1 0.142036 0.821810 0.128404
Si Si2 0.604794 0.815996 0.368502
Si Si3 0.964743 0.680027 0.188818
Si Si4 0.662006 0.821752 0.029577
Si Si5 0.935505 0.819270 0.541687
Si Si6 0.758861 0.321170 0.299090
O O1 0.167249 0.711147 0.093578
O O2 0.250936 0.805168 0.233201
O O3 0.149381 0.000000 0.114585
O O4 0.975825 0.782552 0.060426
O O5 0.490752 0.792025 0.262964
O O6 0.576670 0.717277 0.404087
O O7 0.771161 0.778122 0.436039
O O8 0.604299 0.000000 0.381545
O O9 0.933491 0.500000 0.164984
O O10 0.121711 0.722551 0.247012
O O11 0.823875 0.774203 0.095453
O O12 0.630445 0.000000 0.002416
O O13 0.079491 0.730355 0.598038
O O14 0.959518 0.000000 0.545402
O O15 0.732350 0.500000 0.297680
#
# Coordination Sequence:
#
# PCOD9199370 Si02
#       6
#     8   8   8   8   8   8
#     4  10  21  39  61  83 111 148 187 227 275 330
#     4   9  20  38  59  84 112 146 188 230 274 328
#     4  11  23  39  58  80 113 153 188 226 276 333
#     4  11  22  37  60  88 114 141 183 234 278 327
#     4  10  20  36  60  86 112 145 186 231 278 328
#     4  11  24  39  56  82 115 149 187 230 276 330
#
# _framework density 23.464828000000001
#
# number of rings (size 3 to 8) (size 9 to 14) (size 15 to 20)
#    0.000    1.667    0.000    5.500    0.000   10.000 
#    0.000    3.333    0.000    0.000    0.000    0.000 
#    0.000    0.000    0.000    0.000    0.000    0.000 
#
# Total GULP energy -134334.012312 kJ/mol
# GULP energy per Si atom -5597.250513 kJ/mol
# Density = 2.341142 g / cm^3
# Si number density = 23.464828 Si / 1000 Ang^3
#
#
#
# Elastic Constant Matrix: (Units=GPa)
#
#
# Indices 1 2 3 4 5 6 
#
# 1 58.4751 -4.4267 2.7538 0.0000 11.6832 0.0000
# 2 -4.4267 34.1557 21.1276 0.0000 1.5932 0.0000
# 3 2.7538 21.1276 106.0603 0.0000 20.5373 0.0000
# 4 0.0000 0.0000 0.0000 25.6306 0.0000 13.9238
# 5 11.6832 1.5932 20.5373 0.0000 39.8630 0.0000
# 6 0.0000 0.0000 0.0000 13.9238 0.0000 29.8037
#
#
#
# Elastic Compliance Matrix: (Units=1/GPa)
#
#
# Indices 1 2 3 4 5 6 
#
# 1 0.018400 0.002595 0.000077 0.000000 -0.005536 0.000000
# 2 0.002595 0.033953 -0.007133 0.000000 0.001557 0.000000
# 3 0.000077 -0.007133 0.011993 0.000000 -0.005916 0.000000
# 4 0.000000 0.000000 0.000000 0.052286 0.000000 -0.024427
# 5 -0.005536 0.001557 -0.005916 0.000000 0.029694 0.000000
# 6 0.000000 0.000000 0.000000 -0.024427 0.000000 0.044965
#
#
# Mechanical properties :
#
#
# Convention : Reuss Voigt Hill
#
# Bulk Modulus (GPa) = 18.04186 26.40005 22.22096
# Shear Modulus (GPa) = 22.86369 31.00855 26.93612
#
# Velocity S-wave (km/s) = 3.12489 3.63917 3.39180
# Velocity P-wave (km/s) = 4.55253 5.37898 4.98292
#
# Compressibility (1/GPa) = 0.05542666
#
# Stress axis : x y z
#
# Youngs Moduli (GPa) = 54.34699 29.45216 83.38167
#
# Poissons Ratio (x) = -0.07643 -0.00645
# Poissons Ratio (y) = -0.14104 0.59472
# Poissons Ratio (z) = -0.00420 0.21007
#
# Static dielectric constant tensor:
#      x y z
#    x 1.961180 0.000000 0.003030 
#    y 0.000000 1.782590 0.000000 
#    z 0.003030 0.000000 1.871660 
# 
# From -- ./inp_files/295368.got.cif
#   From: 2010.05.17/outbox.cif.g08.bks.cpg/sg12_148_cif.got.tgz:295368.got - 2010.06.03 13:09:07.
