data_PCOD9199403
_publ_section_title
;
Structure prediction by ZEFSAII (Michael W. Deem and Ramdas Pophale) SiO2 
 PCOD9199403
Probable space group: C 2/M
;
_chemical_formula_sum "Si O2"
_cell_formula_units_Z 58
_cell_length_a 24.194785
_cell_length_b 7.706875
_cell_length_c 14.333958
_cell_angle_alpha 90.000000
_cell_angle_beta 124.008860
_cell_angle_gamma 90.000000
_cell_volume 2215.619187
_symmetry_space_group_name_H-M "C 2/M"
_symmetry_group_IT_number 12
_symmetry_cell_setting 'monoclinic'
loop_
_space_group_symop_operation_xyz
x,y,z
-x,y,-z
-x,-y,-z
x,-y,z
1/2+x,1/2+y,z
1/2-x,1/2+y,-z
1/2-x,1/2-y,-z
1/2+x,1/2-y,z
loop_
_atom_site_type_symbol
_atom_site_label
_atom_site_fract_x
_atom_site_fract_y
_atom_site_fract_z
Si Si1 0.029090 0.186968 0.809970
Si Si2 0.615950 0.291832 0.061995
Si Si3 0.596356 0.197799 0.699235
Si Si4 0.104425 0.304806 0.313720
Si Si5 0.236104 0.706865 0.377628
Si Si6 0.745157 0.208203 0.884936
Si Si7 0.000000 0.500000 0.000000
Si Si8 0.625337 0.299104 0.540784
O O1 0.094780 0.208162 0.931705
O O2 0.046566 0.202604 0.718877
O O3 0.971567 0.314402 0.787699
O O4 0.999334 0.000000 0.803728
O O5 0.609595 0.500000 0.083080
O O6 0.561003 0.155434 0.049910
O O7 0.693513 0.231247 0.124022
O O8 0.671522 0.267845 0.784141
O O9 0.581608 0.205070 0.576035
O O10 0.594523 0.000000 0.731352
O O11 0.126868 0.500000 0.354907
O O12 0.159585 0.233191 0.294046
O O13 0.105223 0.211768 0.413922
O O14 0.240986 0.500000 0.367642
O O15 0.250000 0.750000 0.500000
O O16 0.299870 0.781545 0.385863
O O17 0.747298 0.000000 0.878508
O O18 0.750000 0.250000 0.000000
O O19 0.624805 0.500000 0.566684
#
# Coordination Sequence:
#
# PCOD9199403 Si02
#       8
#     8   8   8   8   8   8   2   8
#     4  11  23  40  62  89 124 166 209 262 320 385
#     4  10  24  46  68 101 139 175 223 275 329 400
#     4  11  23  38  61  91 123 159 209 264 324 385
#     4  10  20  36  60  86 120 162 214 258 305 381
#     4   8  16  32  54  79 108 149 195 247 298 361
#     4  10  21  39  67  95 126 164 213 274 328 393
#     4  12  26  44  76  98 136 190 214 272 344 398
#     4  10  20  37  57  86 124 160 202 259 321 374
#
# _framework density 26.177785
#
# number of rings (size 3 to 8) (size 9 to 14) (size 15 to 20)
#    0.000    1.931    1.379    1.862    2.897    2.207 
#    2.483    2.759    0.000    0.000    0.000    0.000 
#    0.000    0.000    0.000    0.000    0.000    0.000 
#
# Total GULP energy -161741.953871 kJ/mol
# GULP energy per Si atom -5577.308754 kJ/mol
# Density = 2.611820 g / cm^3
# Si number density = 26.177785 Si / 1000 Ang^3
#
#
#
# Elastic Constant Matrix: (Units=GPa)
#
#
# Indices 1 2 3 4 5 6 
#
# 1 174.0099 32.9628 22.9500 0.0000 9.1109 0.0000
# 2 32.9628 117.6101 -2.5029 0.0000 6.8848 0.0000
# 3 22.9500 -2.5029 37.8075 0.0000 8.6976 0.0000
# 4 0.0000 0.0000 0.0000 14.5490 0.0000 5.6876
# 5 9.1109 6.8848 8.6976 0.0000 57.0303 0.0000
# 6 0.0000 0.0000 0.0000 5.6876 0.0000 18.6841
#
#
#
# Elastic Compliance Matrix: (Units=1/GPa)
#
#
# Indices 1 2 3 4 5 6 
#
# 1 0.006671 -0.001946 -0.004132 0.000000 -0.000201 0.000000
# 2 -0.001946 0.009156 0.002042 0.000000 -0.001106 0.000000
# 3 -0.004132 0.002042 0.030052 0.000000 -0.004170 0.000000
# 4 0.000000 0.000000 0.000000 0.078017 0.000000 -0.023749
# 5 -0.000201 -0.001106 -0.004170 0.000000 0.018336 0.000000
# 6 0.000000 0.000000 0.000000 -0.023749 0.000000 0.060751
#
#
# Mechanical properties :
#
#
# Convention : Reuss Voigt Hill
#
# Bulk Modulus (GPa) = 26.44998 48.47192 37.46095
# Shear Modulus (GPa) = 22.35550 36.45384 29.40467
#
# Velocity S-wave (km/s) = 2.92548 3.73574 3.35516
# Velocity P-wave (km/s) = 4.64081 6.09625 5.41763
#
# Compressibility (1/GPa) = 0.03780722
#
# Stress axis : x y z
#
# Youngs Moduli (GPa) = 149.90531 109.21531 33.27518
#
# Poissons Ratio (x) = 0.21252 0.13749
# Poissons Ratio (y) = 0.29169 -0.06794
# Poissons Ratio (z) = 0.61941 -0.22299
#
# Static dielectric constant tensor:
#      x y z
#    x 2.053620 0.000000 0.020200 
#    y 0.000000 1.961280 0.000000 
#    z 0.020200 0.000000 2.162300 
# 
# From -- ./inp_files/282219.got.cif
#   From: 2010.05.17/outbox.cif.g08.bks.cpg/sg12_142_cif.got.tgz:282219.got - 2010.06.03 13:09:07.
