data_PCOD9199135
_publ_section_title
;
Structure prediction by ZEFSAII (Michael W. Deem and Ramdas Pophale) SiO2 
 PCOD9199135
Probable space group: C 2/M
;
_chemical_formula_sum "Si O2"
_cell_formula_units_Z 64
_cell_length_a 19.123204
_cell_length_b 12.332148
_cell_length_c 29.856783
_cell_angle_alpha 90.000000
_cell_angle_beta 26.888694
_cell_angle_gamma 90.000000
_cell_volume 3184.412732
_symmetry_space_group_name_H-M "C 2/M"
_symmetry_group_IT_number 12
_symmetry_cell_setting 'monoclinic'
loop_
_space_group_symop_operation_xyz
x,y,z
-x,y,-z
-x,-y,-z
x,-y,z
1/2+x,1/2+y,z
1/2-x,1/2+y,-z
1/2-x,1/2-y,-z
1/2+x,1/2-y,z
loop_
_atom_site_type_symbol
_atom_site_label
_atom_site_fract_x
_atom_site_fract_y
_atom_site_fract_z
Si Si1 0.355161 0.277931 0.841259
Si Si2 0.054372 0.626156 0.791767
Si Si3 0.914902 0.212437 0.363419
Si Si4 0.897906 0.214450 0.601780
Si Si5 0.889692 0.377870 0.685353
Si Si6 0.362789 0.324240 0.105366
Si Si7 0.036699 0.376619 0.051717
Si Si8 0.167882 0.883266 0.499328
O O1 0.447586 0.207432 0.824483
O O2 0.477777 0.333075 0.737213
O O3 0.264496 0.197850 0.859616
O O4 0.218262 0.350420 0.940125
O O5 0.036527 0.500000 0.788196
O O6 0.232346 0.662850 0.685780
O O7 0.006308 0.633620 0.871480
O O8 0.851841 0.128375 0.435814
O O9 0.775324 0.283529 0.423255
O O10 0.007315 0.299400 0.341939
O O11 0.878781 0.320254 0.643711
O O12 0.000000 0.237410 0.500000
O O13 0.000824 0.131670 0.572540
O O14 0.950459 0.500000 0.648636
O O15 0.721816 0.378492 0.804789
O O16 0.434329 0.210846 0.083195
O O17 0.500000 0.380299 0.000000
O O18 0.003205 0.500000 0.056671
O O19 0.234385 0.000000 0.449266
#
# Coordination Sequence:
#
# PCOD9199135 Si02
#       8
#     8   8   8   8   8   8   8   8
#     4  10  21  36  59  88 122 153 200 246 294 363
#     4  11  23  40  62  86 123 165 200 249 308 360
#     4   9  20  36  55  87 120 154 195 253 304 357
#     4  11  23  38  58  86 119 157 208 252 294 361
#     4  10  20  37  58  81 116 158 199 248 301 355
#     4   9  19  37  61  91 118 151 199 248 294 356
#     4  10  21  40  65  90 121 162 198 244 310 365
#     4  10  20  36  59  86 118 157 202 250 305 356
#
# _framework density 20.097897
#
# number of rings (size 3 to 8) (size 9 to 14) (size 15 to 20)
#    0.000    2.000    1.250    1.875    0.000    7.750 
#    0.000    2.500    0.000    3.000    0.000    0.000 
#    0.000    0.000    0.000    0.000    0.000    0.000 
#
# Total GULP energy -178546.994558 kJ/mol
# GULP energy per Si atom -5579.593580 kJ/mol
# Density = 2.005215 g / cm^3
# Si number density = 20.097897 Si / 1000 Ang^3
#
#
#
# Elastic Constant Matrix: (Units=GPa)
#
#
# Indices 1 2 3 4 5 6 
#
# 1 78.4058 24.4824 24.4666 -0.0002 -0.3062 -0.0001
# 2 24.4824 80.9840 10.8797 -0.0002 2.0617 0.0000
# 3 24.4666 10.8797 115.2393 -0.0016 18.2974 -0.0003
# 4 -0.0002 -0.0002 -0.0016 -8.9281 0.0008 -20.8645
# 5 -0.3062 2.0617 18.2974 0.0008 42.8810 0.0002
# 6 -0.0001 0.0000 -0.0003 -20.8645 0.0002 -4.2382
#
#
#
# Elastic Compliance Matrix: (Units=1/GPa)
#
#
# Indices 1 2 3 4 5 6 
#
# 1 0.015014 -0.004170 -0.003049 0.000000 0.001609 0.000000
# 2 -0.004170 0.013665 -0.000317 0.000000 -0.000551 0.000000
# 3 -0.003049 -0.000317 0.010036 0.000000 -0.004289 -0.000001
# 4 0.000000 0.000000 0.000000 0.010663 0.000000 -0.052491
# 5 0.001609 -0.000551 -0.004289 0.000000 0.025188 0.000001
# 6 0.000000 0.000000 -0.000001 -0.052491 0.000001 0.022461
#
#
# Mechanical properties :
#
#
# Convention : Reuss Voigt Hill
#
# Bulk Modulus (GPa) = 42.29785 43.80961 43.05373
# Shear Modulus (GPa) = 41.67277 20.26295 30.96786
#
# Velocity S-wave (km/s) = 4.55850 3.17868 3.92963
# Velocity P-wave (km/s) = 6.98557 5.94285 6.48520
#
# Compressibility (1/GPa) = 0.02364186
#
# Stress axis : x y z
#
# Youngs Moduli (GPa) = 66.60362 73.17708 99.64176
#
# Poissons Ratio (x) = 0.30517 0.30385
# Poissons Ratio (y) = 0.27775 0.03161
# Poissons Ratio (z) = 0.20310 0.02321
#
# Static dielectric constant tensor:
#      x y z
#    x 1.697610 0.000000 0.006890 
#    y 0.000000 1.701700 0.000000 
#    z 0.006890 0.000000 1.767660 
# 
# From -- ./inp_files/379087.got.cif
#   From: 2010.05.17/outbox.cif.g08.bks.cpg/sg12_190_cif.got.tgz:379087.got - 2010.06.03 13:09:07.
