data_PCOD9199788
_publ_section_title
;
Structure prediction by ZEFSAII (Michael W. Deem and Ramdas Pophale) SiO2 
 PCOD9199788
Probable space group: C 2/M
;
_chemical_formula_sum "Si O2"
_cell_formula_units_Z 56
_cell_length_a 31.709461
_cell_length_b 8.831089
_cell_length_c 10.296067
_cell_angle_alpha 90.000000
_cell_angle_beta 109.132207
_cell_angle_gamma 90.000000
_cell_volume 2723.944147
_symmetry_space_group_name_H-M "C 2/M"
_symmetry_group_IT_number 12
_symmetry_cell_setting 'monoclinic'
loop_
_space_group_symop_operation_xyz
x,y,z
-x,y,-z
-x,-y,-z
x,-y,z
1/2+x,1/2+y,z
1/2-x,1/2+y,-z
1/2-x,1/2-y,-z
1/2+x,1/2-y,z
loop_
_atom_site_type_symbol
_atom_site_label
_atom_site_fract_x
_atom_site_fract_y
_atom_site_fract_z
Si Si1 0.783004 0.177132 0.227501
Si Si2 0.718944 0.320265 0.357530
Si Si3 0.034892 0.180740 0.146178
Si Si4 0.630657 0.181408 0.179987
Si Si5 0.629143 0.176238 0.617093
Si Si6 0.160978 0.675676 0.923097
Si Si7 0.032700 0.682155 0.415086
O O1 0.742244 0.269699 0.245755
O O2 0.826916 0.222410 0.357668
O O3 0.700733 0.272044 0.898950
O O4 0.773904 0.000000 0.225410
O O5 0.717717 0.500000 0.367609
O O6 0.750000 0.250000 0.500000
O O7 0.669656 0.250629 0.307244
O O8 0.082638 0.256132 0.168514
O O9 0.018770 0.236819 0.269729
O O10 0.039575 0.000000 0.149347
O O11 0.000000 0.225871 0.000000
O O12 0.642309 0.223679 0.042336
O O13 0.631154 0.000000 0.191093
O O14 0.583841 0.223209 0.502581
O O15 0.639129 0.000000 0.594094
O O16 0.624153 0.181082 0.769893
O O17 0.175460 0.500000 0.947943
O O18 0.031728 0.500000 0.397101
O O19 0.000000 0.720524 0.500000
#
# Coordination Sequence:
#
# PCOD9199788 Si02
#       7
#     8   8   8   8   8   8   8
#     4  10  20  36  61  91 123 164 210 259 316 377
#     4  12  26  44  65  91 129 171 218 273 329 396
#     4  11  27  47  66  95 139 182 223 277 339 405
#     4  11  24  43  69  97 128 172 222 273 335 398
#     4   8  17  36  59  90 128 164 208 268 328 385
#     4   8  18  37  61  89 125 167 212 266 325 388
#     4  10  22  40  68  99 128 167 223 282 336 400
#
# _framework density 20.558425
#
# number of rings (size 3 to 8) (size 9 to 14) (size 15 to 20)
#    0.857    1.143    0.000    3.000    4.000    3.714 
#    0.000    0.000    0.000    0.000    0.000    0.000 
#    0.000    0.000    0.000    0.000    0.000    0.000 
#
# Total GULP energy -156392.267848 kJ/mol
# GULP energy per Si atom -5585.438137 kJ/mol
# Density = 2.051163 g / cm^3
# Si number density = 20.558425 Si / 1000 Ang^3
#
#
#
# Elastic Constant Matrix: (Units=GPa)
#
#
# Indices 1 2 3 4 5 6 
#
# 1 106.6860 50.7898 50.3862 0.0000 6.3749 0.0000
# 2 50.7898 74.4026 48.4082 0.0000 3.7771 0.0000
# 3 50.3862 48.4082 120.9823 0.0000 5.3872 0.0000
# 4 0.0000 0.0000 0.0000 23.7230 0.0000 -1.6430
# 5 6.3749 3.7771 5.3872 0.0000 33.1814 0.0000
# 6 0.0000 0.0000 0.0000 -1.6430 0.0000 22.6461
#
#
#
# Elastic Compliance Matrix: (Units=1/GPa)
#
#
# Indices 1 2 3 4 5 6 
#
# 1 0.014633 -0.008102 -0.002789 0.000000 -0.001436 0.000000
# 2 -0.008102 0.022683 -0.005697 0.000000 -0.000101 0.000000
# 3 -0.002789 -0.005697 0.011739 0.000000 -0.000722 0.000000
# 4 0.000000 0.000000 0.000000 0.042366 0.000000 0.003074
# 5 -0.001436 -0.000101 -0.000722 0.000000 0.030542 0.000000
# 6 0.000000 0.000000 0.000000 0.003074 0.000000 0.044381
#
#
# Mechanical properties :
#
#
# Convention : Reuss Voigt Hill
#
# Bulk Modulus (GPa) = 62.97497 66.80434 64.88966
# Shear Modulus (GPa) = 24.41259 26.07589 25.24424
#
# Velocity S-wave (km/s) = 3.44971 3.56530 3.50798
# Velocity P-wave (km/s) = 6.82393 7.03661 6.93109
#
# Compressibility (1/GPa) = 0.01587932
#
# Stress axis : x y z
#
# Youngs Moduli (GPa) = 68.33785 44.08602 85.18713
#
# Poissons Ratio (x) = 0.35718 0.23756
# Poissons Ratio (y) = 0.55366 0.48534
# Poissons Ratio (z) = 0.19057 0.25117
#
# Static dielectric constant tensor:
#      x y z
#    x 1.720440 0.000000 -0.012420 
#    y 0.000000 1.684360 0.000000 
#    z -0.012420 0.000000 1.782940 
# 
# From -- ./inp_files/186867.got.cif
#   From: 2010.05.17/outbox.cif.g08.bks.cpg/sg12_94_cif.got.tgz:186867.got - 2010.06.03 13:09:07.
