data_PCOD9199077
_publ_section_title
;
Structure prediction by ZEFSAII (Michael W. Deem and Ramdas Pophale) SiO2 
 PCOD9199077
Probable space group: C 2/M
;
_chemical_formula_sum "Si O2"
_cell_formula_units_Z 56
_cell_length_a 28.074405
_cell_length_b 8.411238
_cell_length_c 14.052026
_cell_angle_alpha 90.000000
_cell_angle_beta 59.985047
_cell_angle_gamma 90.000000
_cell_volume 2873.257845
_symmetry_space_group_name_H-M "C 2/M"
_symmetry_group_IT_number 12
_symmetry_cell_setting 'monoclinic'
loop_
_space_group_symop_operation_xyz
x,y,z
-x,y,-z
-x,-y,-z
x,-y,z
1/2+x,1/2+y,z
1/2-x,1/2+y,-z
1/2-x,1/2-y,-z
1/2+x,1/2-y,z
loop_
_atom_site_type_symbol
_atom_site_label
_atom_site_fract_x
_atom_site_fract_y
_atom_site_fract_z
Si Si1 0.916401 0.694044 0.333716
Si Si2 0.939416 0.692448 0.526895
Si Si3 0.844697 0.190554 0.762596
Si Si4 0.012827 0.307671 0.094743
Si Si5 0.703429 0.809367 0.618530
Si Si6 0.727156 0.690612 0.806937
Si Si7 0.631145 0.307878 0.046189
O O1 0.916503 0.500000 0.333385
O O2 0.927427 0.745021 0.430896
O O3 0.856763 0.745992 0.356154
O O4 0.964955 0.745970 0.214625
O O5 0.938330 0.500000 0.529163
O O6 0.892859 0.752760 0.644660
O O7 0.000000 0.743653 0.500000
O O8 0.786216 0.252635 0.784659
O O9 0.856592 0.246165 0.858468
O O10 0.843335 0.000000 0.764146
O O11 0.012981 0.500000 0.094830
O O12 0.072066 0.250300 0.070074
O O13 0.000000 0.254707 0.000000
O O14 0.750000 0.750000 0.500000
O O15 0.715674 0.751515 0.712491
O O16 0.703396 0.000000 0.617794
O O17 0.726892 0.500000 0.805756
O O18 0.679148 0.746091 0.926575
O O19 0.631037 0.500000 0.046247
#
# Coordination Sequence:
#
# PCOD9199077 Si02
#       7
#     8   8   8   8   8   8   8
#     4   9  19  35  55  82 115 149 187 231 279 337
#     4  10  20  36  59  85 115 153 192 231 283 345
#     4  11  23  39  59  85 115 148 193 244 293 345
#     4  10  20  36  60  87 113 147 192 236 280 337
#     4  11  22  38  60  86 118 154 194 239 286 338
#     4  11  23  40  60  83 114 151 192 237 291 351
#     4  10  23  40  58  84 117 151 188 237 293 346
#
# _framework density 19.490072000000001
#
# number of rings (size 3 to 8) (size 9 to 14) (size 15 to 20)
#    0.000    1.714    0.000    4.286    0.000    6.286 
#    0.000    2.857    0.000    0.000    0.000    0.000 
#    0.000    0.000    0.000    0.000    0.000    0.000 
#
# Total GULP energy -156550.252043 kJ/mol
# GULP energy per Si atom -5591.080430 kJ/mol
# Density = 1.944571 g / cm^3
# Si number density = 19.490072 Si / 1000 Ang^3
#
#
#
# Elastic Constant Matrix: (Units=GPa)
#
#
# Indices 1 2 3 4 5 6 
#
# 1 244.1872 32.9225 151.8511 0.0000 0.3574 0.0000
# 2 32.9225 21.3797 34.3058 0.0000 0.5946 0.0000
# 3 151.8511 34.3058 247.8455 0.0000 0.3376 0.0000
# 4 0.0000 0.0000 0.0000 23.6348 0.0000 -7.3457
# 5 0.3574 0.5946 0.3376 0.0000 47.4634 0.0000
# 6 0.0000 0.0000 0.0000 -7.3457 0.0000 18.4960
#
#
#
# Elastic Compliance Matrix: (Units=1/GPa)
#
#
# Indices 1 2 3 4 5 6 
#
# 1 0.007011 -0.005019 -0.003601 0.000000 0.000036 0.000000
# 2 -0.005019 0.063745 -0.005747 0.000000 -0.000720 0.000000
# 3 -0.003601 -0.005747 0.007036 0.000000 0.000049 0.000000
# 4 0.000000 0.000000 0.000000 0.048268 0.000000 0.019170
# 5 0.000036 -0.000720 0.000049 0.000000 0.021077 0.000000
# 6 0.000000 0.000000 0.000000 0.019170 0.000000 0.061679
#
#
# Mechanical properties :
#
#
# Convention : Reuss Voigt Hill
#
# Bulk Modulus (GPa) = 20.38427 105.73015 63.05721
# Shear Modulus (GPa) = 19.69250 37.54105 28.61677
#
# Velocity S-wave (km/s) = 3.18211 4.39357 3.83596
# Velocity P-wave (km/s) = 4.89720 8.95008 7.21410
#
# Compressibility (1/GPa) = 0.04905743
#
# Stress axis : x y z
#
# Youngs Moduli (GPa) = 142.62888 15.68762 142.11803
#
# Poissons Ratio (x) = 0.07874 0.51176
# Poissons Ratio (y) = 0.71593 0.81674
# Poissons Ratio (z) = 0.51360 0.09016
#
# Static dielectric constant tensor:
#      x y z
#    x 1.638600 0.000000 0.003850 
#    y 0.000000 1.677460 0.000000 
#    z 0.003850 0.000000 1.650180 
# 
# From -- ./inp_files/180639.got.cif
#   From: 2010.05.17/outbox.cif.g08.bks.cpg/sg12_91_cif.got.tgz:180639.got - 2010.06.03 13:09:07.
