data_PCOD9199153
_publ_section_title
;
Structure prediction by ZEFSAII (Michael W. Deem and Ramdas Pophale) SiO2 
 PCOD9199153
Probable space group: C 2/M
;
_chemical_formula_sum "Si O2"
_cell_formula_units_Z 56
_cell_length_a 24.407082
_cell_length_b 8.675052
_cell_length_c 15.079851
_cell_angle_alpha 90.000000
_cell_angle_beta 68.952506
_cell_angle_gamma 90.000000
_cell_volume 2979.877242
_symmetry_space_group_name_H-M "C 2/M"
_symmetry_group_IT_number 12
_symmetry_cell_setting 'monoclinic'
loop_
_space_group_symop_operation_xyz
x,y,z
-x,y,-z
-x,-y,-z
x,-y,z
1/2+x,1/2+y,z
1/2-x,1/2+y,-z
1/2-x,1/2-y,-z
1/2+x,1/2-y,z
loop_
_atom_site_type_symbol
_atom_site_label
_atom_site_fract_x
_atom_site_fract_y
_atom_site_fract_z
Si Si1 0.822275 0.815655 0.863283
Si Si2 0.387346 0.315778 0.541009
Si Si3 0.739660 0.185136 0.407710
Si Si4 0.306668 0.314102 0.075606
Si Si5 0.068945 0.317230 0.307780
Si Si6 0.354582 0.312682 0.230275
Si Si7 0.052434 0.186349 0.680735
O O1 0.757477 0.759184 0.874105
O O2 0.872725 0.737237 0.776923
O O3 0.826218 0.000000 0.851309
O O4 0.828291 0.775273 0.964311
O O5 0.383775 0.500000 0.547566
O O6 0.322533 0.246294 0.590265
O O7 0.428352 0.255366 0.595658
O O8 0.411921 0.273572 0.429744
O O9 0.750000 0.250000 0.500000
O O10 0.794397 0.232875 0.314775
O O11 0.738515 0.000000 0.411393
O O12 0.299940 0.500000 0.082923
O O13 0.348994 0.265711 0.131222
O O14 0.067840 0.500000 0.315630
O O15 0.011695 0.257209 0.290181
O O16 0.356320 0.500000 0.231064
O O17 0.409783 0.260737 0.256512
O O18 0.047540 0.000000 0.686018
#
# Coordination Sequence:
#
# PCOD9199153 Si02
#       7
#     8   8   8   8   8   8   8
#     4  10  20  36  59  87 115 146 184 230 283 336
#     4  11  22  38  59  84 111 147 189 236 289 339
#     4  11  20  33  54  83 118 153 186 226 274 329
#     4   9  18  35  62  90 115 143 181 231 283 336
#     4  12  25  39  56  80 110 149 192 237 281 333
#     4   9  18  35  57  82 112 148 185 224 278 332
#     4  10  21  39  58  78 110 150 188 231 280 339
#
# _framework density 18.792721
#
# number of rings (size 3 to 8) (size 9 to 14) (size 15 to 20)
#    0.000    1.714    1.429    3.857    0.000    4.571 
#    0.000    2.143    0.000    4.286    0.000    0.000 
#    0.000    0.000    0.000    0.000    0.000    0.000 
#
# Total GULP energy -156449.318824 kJ/mol
# GULP energy per Si atom -5587.475672 kJ/mol
# Density = 1.874995 g / cm^3
# Si number density = 18.792721 Si / 1000 Ang^3
#
#
#
# Elastic Constant Matrix: (Units=GPa)
#
#
# Indices 1 2 3 4 5 6 
#
# 1 99.7984 19.5434 40.8605 0.0000 28.2028 0.0000
# 2 19.5434 34.5825 20.2409 0.0000 3.8302 0.0000
# 3 40.8605 20.2409 62.7796 0.0000 29.2771 0.0000
# 4 0.0000 0.0000 0.0000 19.7353 0.0000 -1.6625
# 5 28.2028 3.8302 29.2771 0.0000 32.8343 0.0000
# 6 0.0000 0.0000 0.0000 -1.6625 0.0000 33.3124
#
#
#
# Elastic Compliance Matrix: (Units=1/GPa)
#
#
# Indices 1 2 3 4 5 6 
#
# 1 0.015210 -0.005208 -0.004128 0.000000 -0.008777 0.000000
# 2 -0.005208 0.039638 -0.015954 0.000000 0.014075 0.000000
# 3 -0.004128 -0.015954 0.036355 0.000000 -0.027010 0.000000
# 4 0.000000 0.000000 0.000000 0.050884 0.000000 0.002539
# 5 -0.008777 0.014075 -0.027010 0.000000 0.060437 0.000000
# 6 0.000000 0.000000 0.000000 0.002539 0.000000 0.030146
#
#
# Mechanical properties :
#
#
# Convention : Reuss Voigt Hill
#
# Bulk Modulus (GPa) = 24.61570 39.82779 32.22175
# Shear Modulus (GPa) = 16.84685 24.94412 20.89549
#
# Velocity S-wave (km/s) = 2.99734 3.64721 3.33812
# Velocity P-wave (km/s) = 5.01056 6.24302 5.66043
#
# Compressibility (1/GPa) = 0.04062447
#
# Stress axis : x y z
#
# Youngs Moduli (GPa) = 65.74480 25.22804 27.50645
#
# Poissons Ratio (x) = 0.13138 0.11354
# Poissons Ratio (y) = 0.34238 0.43885
# Poissons Ratio (z) = 0.27137 0.40250
#
# Static dielectric constant tensor:
#      x y z
#    x 1.638710 0.000000 0.025450 
#    y 0.000000 1.631420 0.000000 
#    z 0.025450 0.000000 1.651660 
# 
# From -- ./inp_files/237428.got.cif
#   From: 2010.05.17/outbox.cif.g08.bks.cpg/sg12_119_cif.got.tgz:237428.got - 2010.06.03 13:09:07.
