data_PCOD9199122
_publ_section_title
;
Structure prediction by ZEFSAII (Michael W. Deem and Ramdas Pophale) SiO2 
 PCOD9199122
Probable space group: C 2/M
;
_chemical_formula_sum "Si O2"
_cell_formula_units_Z 48
_cell_length_a 14.624583
_cell_length_b 15.007284
_cell_length_c 17.544854
_cell_angle_alpha 90.000000
_cell_angle_beta 144.636887
_cell_angle_gamma 90.000000
_cell_volume 2228.594544
_symmetry_space_group_name_H-M "C 2/M"
_symmetry_group_IT_number 12
_symmetry_cell_setting 'monoclinic'
loop_
_space_group_symop_operation_xyz
x,y,z
-x,y,-z
-x,-y,-z
x,-y,z
1/2+x,1/2+y,z
1/2-x,1/2+y,-z
1/2-x,1/2-y,-z
1/2+x,1/2-y,z
loop_
_atom_site_type_symbol
_atom_site_label
_atom_site_fract_x
_atom_site_fract_y
_atom_site_fract_z
Si Si1 0.341333 0.399201 0.924160
Si Si2 0.894791 0.203602 0.555978
Si Si3 0.638435 0.108658 0.927021
Si Si4 0.299389 0.811700 0.714238
Si Si5 0.312996 0.605440 0.203384
Si Si6 0.624252 0.147051 0.641796
O O1 0.387259 0.500000 0.978595
O O2 0.255468 0.360242 0.939360
O O3 0.215495 0.403019 0.770145
O O4 0.500000 0.353788 0.000000
O O5 0.750000 0.250000 0.500000
O O6 0.823287 0.154330 0.433303
O O7 0.007491 0.140093 0.681049
O O8 0.011745 0.280421 0.605855
O O9 0.473277 0.159608 0.808745
O O10 0.614663 0.000000 0.903725
O O11 0.714959 0.126367 0.061070
O O12 0.263354 0.851221 0.773056
O O13 0.258053 0.706304 0.689969
O O14 0.311335 0.500000 0.212401
O O15 0.500000 0.101154 0.500000
#
# Coordination Sequence:
#
# PCOD9199122 Si02
#       6
#     8   8   8   8   8   8
#     4  10  22  40  59  81 112 150 193 239 286 338
#     4  10  21  37  55  81 117 153 190 230 276 336
#     4  10  21  37  58  86 117 149 188 234 285 344
#     4  10  20  36  59  86 117 148 184 234 288 343
#     4  10  21  37  58  86 118 151 189 235 289 344
#     4   9  20  37  56  81 111 145 187 233 282 335
#
# _framework density 21.538239999999998
#
# number of rings (size 3 to 8) (size 9 to 14) (size 15 to 20)
#    0.000    2.167    0.000    3.500    0.000    9.000 
#    0.000    5.833    0.000    0.000    0.000    0.000 
#    0.000    0.000    0.000    0.000    0.000    0.000 
#
# Total GULP energy -133970.335990 kJ/mol
# GULP energy per Si atom -5582.097333 kJ/mol
# Density = 2.148922 g / cm^3
# Si number density = 21.538240 Si / 1000 Ang^3
#
#
#
# Elastic Constant Matrix: (Units=GPa)
#
#
# Indices 1 2 3 4 5 6 
#
# 1 128.9804 25.0879 49.7071 -0.0002 32.7517 0.0001
# 2 25.0879 46.3556 26.4528 -0.0006 2.8432 -0.0002
# 3 49.7071 26.4528 126.5520 -0.0017 6.7352 -0.0006
# 4 -0.0002 -0.0006 -0.0017 27.5595 -0.0003 -4.2401
# 5 32.7517 2.8432 6.7352 -0.0003 34.9836 -0.0001
# 6 0.0001 -0.0002 -0.0006 -4.2401 -0.0001 16.1289
#
#
#
# Elastic Compliance Matrix: (Units=1/GPa)
#
#
# Indices 1 2 3 4 5 6 
#
# 1 0.012684 -0.004185 -0.003529 0.000000 -0.010855 0.000000
# 2 -0.004185 0.025910 -0.003909 0.000000 0.002564 0.000000
# 3 -0.003529 -0.003909 0.010015 0.000001 0.001694 0.000001
# 4 0.000000 0.000000 0.000001 0.037815 0.000001 0.009941
# 5 -0.010855 0.002564 0.001694 0.000001 0.038213 0.000001
# 6 0.000000 0.000000 0.000001 0.009941 0.000001 0.064614
#
#
# Mechanical properties :
#
#
# Convention : Reuss Voigt Hill
#
# Bulk Modulus (GPa) = 39.42705 56.04263 47.73484
# Shear Modulus (GPa) = 22.62951 29.11040 25.86996
#
# Velocity S-wave (km/s) = 3.24492 3.68036 3.46947
# Velocity P-wave (km/s) = 5.69075 6.64354 6.18552
#
# Compressibility (1/GPa) = 0.02536330
#
# Stress axis : x y z
#
# Youngs Moduli (GPa) = 78.84202 38.59463 99.84921
#
# Poissons Ratio (x) = 0.16150 0.35241
# Poissons Ratio (y) = 0.32992 0.39029
# Poissons Ratio (z) = 0.27827 0.15086
#
# Static dielectric constant tensor:
#      x y z
#    x 1.802840 0.000000 -0.010570 
#    y 0.000000 1.795290 0.000000 
#    z -0.010570 0.000000 1.796330 
# 
# From -- ./inp_files/271780.got.cif
#   From: 2010.05.17/outbox.cif.g08.bks.cpg/sg12_136_cif.got.tgz:271780.got - 2010.06.03 13:09:07.
