data_PCOD9199495
_publ_section_title
;
Structure prediction by ZEFSAII (Michael W. Deem and Ramdas Pophale) SiO2 
 PCOD9199495
Probable space group: C 2/M
;
_chemical_formula_sum "Si O2"
_cell_formula_units_Z 64
_cell_length_a 12.723073
_cell_length_b 15.977053
_cell_length_c 14.446768
_cell_angle_alpha 90.000000
_cell_angle_beta 69.824973
_cell_angle_gamma 90.000000
_cell_volume 2756.512973
_symmetry_space_group_name_H-M "C 2/M"
_symmetry_group_IT_number 12
_symmetry_cell_setting 'monoclinic'
loop_
_space_group_symop_operation_xyz
x,y,z
-x,y,-z
-x,-y,-z
x,-y,z
1/2+x,1/2+y,z
1/2-x,1/2+y,-z
1/2-x,1/2-y,-z
1/2+x,1/2-y,z
loop_
_atom_site_type_symbol
_atom_site_label
_atom_site_fract_x
_atom_site_fract_y
_atom_site_fract_z
Si Si1 0.519260 0.600769 0.101499
Si Si2 0.023393 0.674353 0.600542
Si Si3 0.771062 0.397817 0.005441
Si Si4 0.339893 0.403323 0.668675
Si Si5 0.934039 0.150982 0.310278
Si Si6 0.599796 0.899594 0.204514
Si Si7 0.736952 0.349685 0.495620
Si Si8 0.377827 0.102079 0.156360
O O1 0.507731 0.500000 0.117972
O O2 0.438114 0.645130 0.198928
O O3 0.500000 0.618491 0.000000
O O4 0.648481 0.625813 0.078088
O O5 0.137888 0.619319 0.566034
O O6 0.000000 0.690969 0.500000
O O7 0.047882 0.757302 0.652487
O O8 0.919903 0.633867 0.686685
O O9 0.771228 0.500000 0.002393
O O10 0.800323 0.369551 0.892745
O O11 0.862086 0.371793 0.054446
O O12 0.314964 0.500000 0.661135
O O13 0.454711 0.396380 0.688998
O O14 0.344211 0.364101 0.566218
O O15 0.233254 0.367704 0.756144
O O16 0.822849 0.117260 0.394180
O O17 0.488330 0.875783 0.179329
O O18 0.605623 0.000000 0.207968
O O19 0.750000 0.250000 0.500000
O O20 0.376856 0.000000 0.154498
#
# Coordination Sequence:
#
# PCOD9199495 Si02
#       8
#     8   8   8   8   8   8   8   8
#     4  10  21  38  59  85 120 159 199 246 300 362
#     4  11  24  42  60  82 120 165 207 247 303 366
#     4   9  17  33  58  87 119 153 190 245 311 358
#     4  11  20  35  64  97 120 147 200 263 308 351
#     4  11  22  39  61  85 118 161 200 245 313 369
#     4  10  20  36  60  88 118 157 205 249 295 361
#     4  10  22  39  58  83 121 164 198 242 310 369
#     4   9  16  30  57  89 118 147 184 245 307 346
#
# _framework density 23.217738000000001
#
# number of rings (size 3 to 8) (size 9 to 14) (size 15 to 20)
#    0.000    1.875    2.500    2.625    0.000    4.250 
#    0.000    1.875    0.000    0.000    0.000    0.000 
#    0.000    0.000    0.000    0.000    0.000    0.000 
#
# Total GULP energy -178712.230618 kJ/mol
# GULP energy per Si atom -5584.757207 kJ/mol
# Density = 2.316489 g / cm^3
# Si number density = 23.217738 Si / 1000 Ang^3
#
#
#
# Elastic Constant Matrix: (Units=GPa)
#
#
# Indices 1 2 3 4 5 6 
#
# 1 31.6441 -1.4721 24.0438 0.0000 -1.1002 0.0000
# 2 -1.4721 18.8115 26.8802 0.0000 1.9474 0.0000
# 3 24.0438 26.8802 208.5461 0.0000 -12.8350 0.0000
# 4 0.0000 0.0000 0.0000 21.0418 0.0000 -3.4139
# 5 -1.1002 1.9474 -12.8350 0.0000 40.4096 0.0000
# 6 0.0000 0.0000 0.0000 -3.4139 0.0000 12.6559
#
#
#
# Elastic Compliance Matrix: (Units=1/GPa)
#
#
# Indices 1 2 3 4 5 6 
#
# 1 0.036422 0.011169 -0.005723 0.000000 -0.001364 0.000000
# 2 0.011169 0.070005 -0.010709 0.000000 -0.006471 0.000000
# 3 -0.005723 -0.010709 0.006994 0.000000 0.002582 0.000000
# 4 0.000000 0.000000 0.000000 0.049700 0.000000 0.013406
# 5 -0.001364 -0.006471 0.002582 0.000000 0.025841 0.000000
# 6 0.000000 0.000000 0.000000 0.013406 0.000000 0.082631
#
#
# Mechanical properties :
#
#
# Convention : Reuss Voigt Hill
#
# Bulk Modulus (GPa) = 9.71867 39.76729 24.74298
# Shear Modulus (GPa) = 15.80193 28.79145 22.29669
#
# Velocity S-wave (km/s) = 2.61166 3.52527 3.10228
# Velocity P-wave (km/s) = 3.64545 5.80820 4.84894
#
# Compressibility (1/GPa) = 0.10289470
#
# Stress axis : x y z
#
# Youngs Moduli (GPa) = 27.45607 14.28467 142.97747
#
# Poissons Ratio (x) = -0.15954 0.81822
# Poissons Ratio (y) = -0.30665 1.53116
# Poissons Ratio (z) = 0.15712 0.15298
#
# Static dielectric constant tensor:
#      x y z
#    x 1.925030 0.000000 -0.027590 
#    y 0.000000 1.879220 0.000000 
#    z -0.027590 0.000000 1.917250 
# 
# From -- ./inp_files/147616.got.cif
#   From: 2010.05.17/outbox.cif.g08.bks.cpg/sg12_74_cif.got.tgz:147616.got - 2010.06.03 13:09:07.
