data_PCOD9199601
_publ_section_title
;
Structure prediction by ZEFSAII (Michael W. Deem and Ramdas Pophale) SiO2 
 PCOD9199601
Probable space group: C 2/M
;
_chemical_formula_sum "Si O2"
_cell_formula_units_Z 50
_cell_length_a 29.710851
_cell_length_b 7.587241
_cell_length_c 12.354218
_cell_angle_alpha 90.000000
_cell_angle_beta 128.216840
_cell_angle_gamma 90.000000
_cell_volume 2188.049894
_symmetry_space_group_name_H-M "C 2/M"
_symmetry_group_IT_number 12
_symmetry_cell_setting 'monoclinic'
loop_
_space_group_symop_operation_xyz
x,y,z
-x,y,-z
-x,-y,-z
x,-y,z
1/2+x,1/2+y,z
1/2-x,1/2+y,-z
1/2-x,1/2-y,-z
1/2+x,1/2-y,z
loop_
_atom_site_type_symbol
_atom_site_label
_atom_site_fract_x
_atom_site_fract_y
_atom_site_fract_z
Si Si1 0.000000 0.500000 0.000000
Si Si2 0.517553 0.713826 0.647140
Si Si3 0.918518 0.205847 0.904978
Si Si4 0.304953 0.788084 0.866385
Si Si5 0.920192 0.796029 0.662001
Si Si6 0.649473 0.791844 0.842251
Si Si7 0.323191 0.793445 0.355287
O O1 0.965472 0.342617 0.016266
O O2 0.500000 0.772104 0.500000
O O3 0.515685 0.500000 0.644405
O O4 0.470627 0.780599 0.662671
O O5 0.582454 0.766961 0.767890
O O6 0.858685 0.224271 0.877074
O O7 0.911496 0.273937 0.769963
O O8 0.935380 0.000000 0.936950
O O9 0.244259 0.729637 0.729453
O O10 0.306259 0.000000 0.869453
O O11 0.313453 0.721780 0.002500
O O12 0.862405 0.787199 0.506340
O O13 0.934994 0.000000 0.700871
O O14 0.661941 0.717374 0.741609
O O15 0.661578 0.000000 0.853622
O O16 0.337505 0.000000 0.376616
#
# Coordination Sequence:
#
# PCOD9199601 Si02
#       7
#     2   8   8   8   8   8   8
#     4  12  26  48  72  98 142 180 222 274 342 392
#     4  10  20  36  60  90 125 164 210 259 326 399
#     4  11  26  46  70 103 138 180 228 275 334 403
#     4  11  24  44  66  93 132 178 229 277 341 401
#     4  10  23  42  64  95 132 173 221 276 339 400
#     4  10  23  39  61  95 130 171 220 277 340 403
#     4  11  23  40  65  95 130 173 223 282 339 406
#
# _framework density 22.851399000000001
#
# number of rings (size 3 to 8) (size 9 to 14) (size 15 to 20)
#    0.000    1.440    2.400    1.680    3.360    3.520 
#    0.000    0.000    0.000    0.000    0.000    0.000 
#    0.000    0.000    0.000    0.000    0.000    0.000 
#
# Total GULP energy -139598.788800 kJ/mol
# GULP energy per Si atom -5583.951552 kJ/mol
# Density = 2.279939 g / cm^3
# Si number density = 22.851399 Si / 1000 Ang^3
#
#
#
# Elastic Constant Matrix: (Units=GPa)
#
#
# Indices 1 2 3 4 5 6 
#
# 1 83.0204 -3.3144 29.1148 0.0000 5.0385 0.0000
# 2 -3.3144 91.6481 -5.7518 0.0000 -8.0888 0.0000
# 3 29.1148 -5.7518 91.1437 0.0000 -11.2899 0.0000
# 4 0.0000 0.0000 0.0000 7.4065 0.0000 7.3280
# 5 5.0385 -8.0888 -11.2899 0.0000 40.3765 0.0000
# 6 0.0000 0.0000 0.0000 7.3280 0.0000 19.3305
#
#
#
# Elastic Compliance Matrix: (Units=1/GPa)
#
#
# Indices 1 2 3 4 5 6 
#
# 1 0.013928 -0.000074 -0.004838 0.000000 -0.003106 0.000000
# 2 -0.000074 0.011199 0.001046 0.000000 0.002545 0.000000
# 3 -0.004838 0.001046 0.013139 0.000000 0.004487 0.000000
# 4 0.000000 0.000000 0.000000 0.216049 0.000000 -0.081902
# 5 -0.003106 0.002545 0.004487 0.000000 0.026919 0.000000
# 6 0.000000 0.000000 0.000000 -0.081902 0.000000 0.082780
#
#
# Mechanical properties :
#
#
# Convention : Reuss Voigt Hill
#
# Bulk Modulus (GPa) = 32.75263 33.98993 33.37128
# Shear Modulus (GPa) = 13.09158 29.80694 21.44926
#
# Velocity S-wave (km/s) = 2.39613 3.61554 3.06705
# Velocity P-wave (km/s) = 4.69247 5.68649 5.21322
#
# Compressibility (1/GPa) = 0.03053190
#
# Stress axis : x y z
#
# Youngs Moduli (GPa) = 71.80013 89.29461 76.10895
#
# Poissons Ratio (x) = 0.00662 0.36824
# Poissons Ratio (y) = 0.00532 -0.07958
# Poissons Ratio (z) = 0.34740 -0.09337
#
# Static dielectric constant tensor:
#      x y z
#    x 1.832160 0.000000 -0.032780 
#    y 0.000000 1.871040 0.000000 
#    z -0.032780 0.000000 1.899540 
# 
# From -- ./inp_files/181246.got.cif
#   From: 2010.05.17/outbox.cif.g08.bks.cpg/sg12_91_cif.got.tgz:181246.got - 2010.06.03 13:09:07.
