data_PCOD9199033
_publ_section_title
;
Structure prediction by ZEFSAII (Michael W. Deem and Ramdas Pophale) SiO2 
 PCOD9199033
Probable space group: C 2/M
;
_chemical_formula_sum "Si O2"
_cell_formula_units_Z 48
_cell_length_a 9.442668
_cell_length_b 21.890379
_cell_length_c 13.391104
_cell_angle_alpha 90.000000
_cell_angle_beta 68.346119
_cell_angle_gamma 90.000000
_cell_volume 2572.651856
_symmetry_space_group_name_H-M "C 2/M"
_symmetry_group_IT_number 12
_symmetry_cell_setting 'monoclinic'
loop_
_space_group_symop_operation_xyz
x,y,z
-x,y,-z
-x,-y,-z
x,-y,z
1/2+x,1/2+y,z
1/2-x,1/2+y,-z
1/2-x,1/2-y,-z
1/2+x,1/2-y,z
loop_
_atom_site_type_symbol
_atom_site_label
_atom_site_fract_x
_atom_site_fract_y
_atom_site_fract_z
Si Si1 0.951929 0.568934 0.397712
Si Si2 0.660388 0.763709 0.420244
Si Si3 0.181881 0.070260 0.969473
Si Si4 0.351731 0.375955 0.602030
Si Si5 0.920646 0.072131 0.794028
Si Si6 0.246137 0.868066 0.756054
O O1 0.914947 0.500000 0.374515
O O2 0.802687 0.609284 0.416916
O O3 0.000000 0.567153 0.500000
O O4 0.102724 0.593429 0.306027
O O5 0.500000 0.790647 0.500000
O O6 0.750000 0.750000 0.500000
O O7 0.632574 0.696366 0.383103
O O8 0.732220 0.806563 0.315914
O O9 0.189974 0.087255 0.084031
O O10 0.240981 0.000000 0.936192
O O11 0.236329 0.122700 0.878992
O O12 0.000000 0.065881 0.000000
O O13 0.500000 0.395177 0.500000
O O14 0.349940 0.409856 0.707432
O O15 0.086101 0.103583 0.760773
O O16 0.947297 0.000000 0.792672
#
# Coordination Sequence:
#
# PCOD9199033 Si02
#       6
#     8   8   8   8   8   8
#     4  11  22  34  52  81 111 138 176 227 278 327
#     4  11  22  37  55  77 108 146 185 224 268 322
#     4   8  16  32  55  82 109 140 180 223 270 325
#     4  11  23  38  55  78 110 149 186 221 272 333
#     4  10  20  36  59  85 111 140 179 228 277 327
#     4  11  19  34  58  81 106 143 185 225 268 320
#
# _framework density 18.657792000000001
#
# number of rings (size 3 to 8) (size 9 to 14) (size 15 to 20)
#    0.000    1.667    0.000    8.500    0.000    2.667 
#    0.000    1.667    0.000    5.000    0.000    0.000 
#    0.000    0.000    0.000    0.000    0.000    0.000 
#
# Total GULP energy -133750.956113 kJ/mol
# GULP energy per Si atom -5572.956505 kJ/mol
# Density = 1.861533 g / cm^3
# Si number density = 18.657792 Si / 1000 Ang^3
#
#
#
# Elastic Constant Matrix: (Units=GPa)
#
#
# Indices 1 2 3 4 5 6 
#
# 1 72.1790 17.7966 41.5997 0.0000 2.6768 0.0000
# 2 17.7966 73.5839 45.1111 0.0000 -3.0866 0.0000
# 3 41.5997 45.1111 142.5704 0.0000 10.1688 0.0000
# 4 0.0000 0.0000 0.0000 30.8848 0.0000 -0.3285
# 5 2.6768 -3.0866 10.1688 0.0000 26.2759 0.0000
# 6 0.0000 0.0000 0.0000 -0.3285 0.0000 12.6832
#
#
#
# Elastic Compliance Matrix: (Units=1/GPa)
#
#
# Indices 1 2 3 4 5 6 
#
# 1 0.016757 -0.001324 -0.004461 0.000000 -0.000136 0.000000
# 2 -0.001324 0.017419 -0.005431 0.000000 0.004283 0.000000
# 3 -0.004461 -0.005431 0.010332 0.000000 -0.004182 0.000000
# 4 0.000000 0.000000 0.000000 0.032387 0.000000 0.000839
# 5 -0.000136 0.004283 -0.004182 0.000000 0.040193 0.000000
# 6 0.000000 0.000000 0.000000 0.000839 0.000000 0.078866
#
#
# Mechanical properties :
#
#
# Convention : Reuss Voigt Hill
#
# Bulk Modulus (GPa) = 45.29483 55.26090 50.27786
# Shear Modulus (GPa) = 22.14892 26.22386 24.18639
#
# Velocity S-wave (km/s) = 3.44919 3.75309 3.60434
# Velocity P-wave (km/s) = 6.33971 6.96156 6.65790
#
# Compressibility (1/GPa) = 0.02207757
#
# Stress axis : x y z
#
# Youngs Moduli (GPa) = 59.67716 57.40799 96.78320
#
# Poissons Ratio (x) = 0.07599 0.43173
# Poissons Ratio (y) = 0.07899 0.52562
# Poissons Ratio (z) = 0.26621 0.31178
#
# Static dielectric constant tensor:
#      x y z
#    x 1.636670 0.000000 0.023430 
#    y 0.000000 1.677680 0.000000 
#    z 0.023430 0.000000 1.786650 
# 
# From -- ./inp_files/122409.got.cif
#   From: 2010.05.17/outbox.cif.g08.bks.cpg/sg12_62_cif.got.tgz:122409.got - 2010.06.03 13:09:07.
