data_PCOD9199414
_publ_section_title
;
Structure prediction by ZEFSAII (Michael W. Deem and Ramdas Pophale) SiO2 
 PCOD9199414
Probable space group: C 2/M
;
_chemical_formula_sum "Si O2"
_cell_formula_units_Z 40
_cell_length_a 18.452504
_cell_length_b 15.691891
_cell_length_c 13.909426
_cell_angle_alpha 90.000000
_cell_angle_beta 151.310675
_cell_angle_gamma 90.000000
_cell_volume 1933.460831
_symmetry_space_group_name_H-M "C 2/M"
_symmetry_group_IT_number 12
_symmetry_cell_setting 'monoclinic'
loop_
_space_group_symop_operation_xyz
x,y,z
-x,y,-z
-x,-y,-z
x,-y,z
1/2+x,1/2+y,z
1/2-x,1/2+y,-z
1/2-x,1/2-y,-z
1/2+x,1/2-y,z
loop_
_atom_site_type_symbol
_atom_site_label
_atom_site_fract_x
_atom_site_fract_y
_atom_site_fract_z
Si Si1 0.771495 0.662201 0.406765
Si Si2 0.318001 0.595883 0.181906
Si Si3 0.729594 0.730428 0.156201
Si Si4 0.415031 0.908236 0.264477
Si Si5 0.956412 0.176932 0.702454
O O1 0.692976 0.692451 0.217341
O O2 0.858950 0.747137 0.544141
O O3 0.654578 0.631494 0.351123
O O4 0.907442 0.597983 0.545245
O O5 0.331680 0.500000 0.236712
O O6 0.285823 0.672095 0.218815
O O7 0.462581 0.620973 0.284744
O O8 0.177771 0.596933 0.943275
O O9 0.860290 0.670625 0.264167
O O10 0.590123 0.718427 0.921550
O O11 0.374085 0.000000 0.260977
#
# Coordination Sequence:
#
# PCOD9199414 Si02
#       5
#     8   8   8   8   8
#     4  11  21  34  60  84 116 150 190 235 291 338
#     4  10  20  38  62  84 116 158 194 237 288 339
#     4  11  20  38  59  86 116 152 192 239 285 345
#     4  10  20  36  60  87 114 148 194 241 285 340
#     4  10  21  38  54  85 115 154 189 234 289 341
#
# _framework density 20.688291
#
# number of rings (size 3 to 8) (size 9 to 14) (size 15 to 20)
#    0.000    1.600    4.000    2.400    0.000    2.400 
#    0.000    2.000    0.000    9.600    0.000    0.000 
#    0.000    0.000    0.000    0.000    0.000    0.000 
#
# Total GULP energy -111686.459618 kJ/mol
# GULP energy per Si atom -5584.322981 kJ/mol
# Density = 2.064120 g / cm^3
# Si number density = 20.688291 Si / 1000 Ang^3
#
#
#
# Elastic Constant Matrix: (Units=GPa)
#
#
# Indices 1 2 3 4 5 6 
#
# 1 25.1136 -9.8326 5.4170 0.0000 9.5242 0.0000
# 2 -9.8326 96.4880 8.8447 0.0000 4.5215 0.0000
# 3 5.4170 8.8447 39.2677 0.0000 11.4793 0.0000
# 4 0.0000 0.0000 0.0000 11.9268 0.0000 5.4371
# 5 9.5242 4.5215 11.4793 0.0000 30.6386 0.0000
# 6 0.0000 0.0000 0.0000 5.4371 0.0000 4.0851
#
#
#
# Elastic Compliance Matrix: (Units=1/GPa)
#
#
# Indices 1 2 3 4 5 6 
#
# 1 0.048484 0.005969 -0.003784 0.000000 -0.014535 0.000000
# 2 0.005969 0.011333 -0.002633 0.000000 -0.002541 0.000000
# 3 -0.003784 -0.002633 0.029337 0.000000 -0.009427 0.000000
# 4 0.000000 0.000000 0.000000 0.213205 0.000000 -0.283765
# 5 -0.014535 -0.002541 -0.009427 0.000000 0.041064 0.000000
# 6 0.000000 0.000000 0.000000 -0.283765 0.000000 0.622465
#
#
# Mechanical properties :
#
#
# Convention : Reuss Voigt Hill
#
# Bulk Modulus (GPa) = 11.33043 18.85862 15.09453
# Shear Modulus (GPa) = 5.01905 19.75945 12.38925
#
# Velocity S-wave (km/s) = 1.55926 3.09383 2.44980
# Velocity P-wave (km/s) = 2.95472 4.67950 3.91332
#
# Compressibility (1/GPa) = 0.08825791
#
# Stress axis : x y z
#
# Youngs Moduli (GPa) = 20.62520 88.24035 34.08655
#
# Poissons Ratio (x) = -0.52669 0.12898
# Poissons Ratio (y) = -0.12311 0.08975
# Poissons Ratio (z) = 0.07804 0.23234
#
# Static dielectric constant tensor:
#      x y z
#    x 1.751150 0.000000 -0.005770 
#    y 0.000000 1.741440 0.000000 
#    z -0.005770 0.000000 1.750100 
# 
# From -- ./inp_files/58908.got.cif
#   From: 2010.05.17/outbox.cif.g08.bks.cpg/sg12_30_cif.got.tgz:58908.got - 2010.06.03 13:09:07.
