data_PCOD9199448
_publ_section_title
;
Structure prediction by ZEFSAII (Michael W. Deem and Ramdas Pophale) SiO2 
 PCOD9199448
Probable space group: C 2/M
;
_chemical_formula_sum "Si O2"
_cell_formula_units_Z 36
_cell_length_a 15.975335
_cell_length_b 7.542920
_cell_length_c 12.933685
_cell_angle_alpha 90.000000
_cell_angle_beta 68.472746
_cell_angle_gamma 90.000000
_cell_volume 1449.800435
_symmetry_space_group_name_H-M "C 2/M"
_symmetry_group_IT_number 12
_symmetry_cell_setting 'monoclinic'
loop_
_space_group_symop_operation_xyz
x,y,z
-x,y,-z
-x,-y,-z
x,-y,z
1/2+x,1/2+y,z
1/2-x,1/2+y,-z
1/2-x,1/2-y,-z
1/2+x,1/2-y,z
loop_
_atom_site_type_symbol
_atom_site_label
_atom_site_fract_x
_atom_site_fract_y
_atom_site_fract_z
Si Si1 0.500000 0.248410 0.500000
Si Si2 0.851659 0.286478 0.419744
Si Si3 0.643152 0.210614 0.034989
Si Si4 0.621790 0.292922 0.270490
Si Si5 0.331814 0.215497 0.197966
O O1 0.582909 0.313029 0.531997
O O2 0.559356 0.183480 0.375258
O O3 0.867313 0.500000 0.422144
O O4 0.750000 0.250000 0.500000
O O5 0.865743 0.230041 0.294717
O O6 0.598665 0.279973 0.159671
O O7 0.629884 0.000000 0.041896
O O8 0.750000 0.250000 0.000000
O O9 0.620781 0.276559 0.929518
O O10 0.613276 0.500000 0.304090
O O11 0.725833 0.237862 0.237603
O O12 0.334922 0.000000 0.195331
#
# Coordination Sequence:
#
# PCOD9199448 Si02
#       5
#     4   8   8   8   8
#     4  12  24  38  62  94 128 162 208 260 310 362
#     4  11  23  41  62  90 125 163 207 255 307 371
#     4   9  17  32  57  87 118 156 203 254 307 365
#     4  10  20  36  60  87 120 164 207 250 307 371
#     4   8  16  35  59  83 115 158 202 244 301 367
#
# _framework density 24.831005000000001
#
# number of rings (size 3 to 8) (size 9 to 14) (size 15 to 20)
#    0.000    2.222    2.222    2.667    0.000    2.667 
#    0.000    2.222    0.000    5.333    0.000    0.000 
#    0.000    0.000    0.000    0.000    0.000    0.000 
#
# Total GULP energy -100351.944557 kJ/mol
# GULP energy per Si atom -5575.108031 kJ/mol
# Density = 2.477449 g / cm^3
# Si number density = 24.831005 Si / 1000 Ang^3
#
#
#
# Elastic Constant Matrix: (Units=GPa)
#
#
# Indices 1 2 3 4 5 6 
#
# 1 121.9214 14.2142 72.5140 0.0000 28.3874 0.0000
# 2 14.2142 111.8962 33.7288 0.0000 3.3502 0.0000
# 3 72.5140 33.7288 291.2538 0.0000 35.2010 0.0000
# 4 0.0000 0.0000 0.0000 -6.7863 0.0000 2.5059
# 5 28.3874 3.3502 35.2010 0.0000 46.9544 0.0000
# 6 0.0000 0.0000 0.0000 2.5059 0.0000 -11.1200
#
#
#
# Elastic Compliance Matrix: (Units=1/GPa)
#
#
# Indices 1 2 3 4 5 6 
#
# 1 0.010582 -0.000603 -0.001976 0.000000 -0.004873 0.000000
# 2 -0.000603 0.009295 -0.000979 0.000000 0.000435 0.000000
# 3 -0.001976 -0.000979 0.004273 0.000000 -0.001939 0.000000
# 4 0.000000 0.000000 0.000000 -0.160732 0.000000 -0.036221
# 5 -0.004873 0.000435 -0.001939 0.000000 0.025666 0.000000
# 6 0.000000 0.000000 0.000000 -0.036221 0.000000 -0.098091
#
#
# Mechanical properties :
#
#
# Convention : Reuss Voigt Hill
#
# Bulk Modulus (GPa) = 58.70090 85.10951 71.90521
# Shear Modulus (GPa) = -25.48267 32.78392 3.65063
#
# Velocity S-wave (km/s) = -3.20698 3.63751 1.21383
# Velocity P-wave (km/s) = 3.15888 7.21054 5.56644
#
# Compressibility (1/GPa) = 0.01703551
#
# Stress axis : x y z
#
# Youngs Moduli (GPa) = 94.49896 107.57906 234.02267
#
# Poissons Ratio (x) = 0.06484 0.46239
# Poissons Ratio (y) = 0.05696 0.22911
# Poissons Ratio (z) = 0.18672 0.10532
#
# Static dielectric constant tensor:
#      x y z
#    x 1.909840 0.000000 0.013450 
#    y 0.000000 2.076020 0.000000 
#    z 0.013450 0.000000 1.965670 
# 
# From -- ./inp_files/151507.got.cif
#   From: 2010.05.17/outbox.cif.g08.bks.cpg/sg12_76_cif.got.tgz:151507.got - 2010.06.03 13:09:07.
