data_PCOD9199787
_publ_section_title
;
Structure prediction by ZEFSAII (Michael W. Deem and Ramdas Pophale) SiO2 
 PCOD9199787
Probable space group: C 2/M
;
_chemical_formula_sum "Si O2"
_cell_formula_units_Z 56
_cell_length_a 29.768727
_cell_length_b 8.833850
_cell_length_c 12.894178
_cell_angle_alpha 90.000000
_cell_angle_beta 58.581604
_cell_angle_gamma 90.000000
_cell_volume 2893.664476
_symmetry_space_group_name_H-M "C 2/M"
_symmetry_group_IT_number 12
_symmetry_cell_setting 'monoclinic'
loop_
_space_group_symop_operation_xyz
x,y,z
-x,y,-z
-x,-y,-z
x,-y,z
1/2+x,1/2+y,z
1/2-x,1/2+y,-z
1/2-x,1/2-y,-z
1/2+x,1/2-y,z
loop_
_atom_site_type_symbol
_atom_site_label
_atom_site_fract_x
_atom_site_fract_y
_atom_site_fract_z
Si Si1 0.391613 0.319049 0.717354
Si Si2 0.802107 0.182464 0.987251
Si Si3 0.154340 0.180248 0.846903
Si Si4 0.005688 0.681229 0.313175
Si Si5 0.114226 0.317253 0.494311
Si Si6 0.043831 0.320896 0.034812
Si Si7 0.192461 0.681550 0.586093
O O1 0.392657 0.500000 0.711994
O O2 0.352818 0.271727 0.857613
O O3 0.449994 0.257587 0.669715
O O4 0.371216 0.253098 0.633552
O O5 0.799402 0.000000 0.987656
O O6 0.750000 0.250000 0.000000
O O7 0.810461 0.227913 0.096599
O O8 0.170207 0.261993 0.722386
O O9 0.159419 0.000000 0.827521
O O10 0.094966 0.223332 0.948899
O O11 0.008736 0.500000 0.324967
O O12 0.020337 0.713567 0.176095
O O13 0.945965 0.728386 0.408083
O O14 0.115441 0.500000 0.485220
O O15 0.153262 0.272353 0.539945
O O16 0.057971 0.500000 0.015900
O O17 0.000000 0.296310 0.000000
O O18 0.195293 0.500000 0.582532
O O19 0.250000 0.750000 0.500000
#
# Coordination Sequence:
#
# PCOD9199787 Si02
#       7
#     8   8   8   8   8   8   8
#     4  11  23  40  61  92 128 160 200 253 308 364
#     4  10  24  42  62  90 124 160 205 255 307 364
#     4  11  23  42  64  92 127 161 203 254 309 368
#     4  10  20  37  61  89 122 162 206 248 301 364
#     4  10  23  42  63  89 123 163 207 253 300 361
#     4  10  20  36  61  91 123 163 209 254 302 362
#     4  11  25  45  67  92 124 162 207 258 308 365
#
# _framework density 19.352623000000001
#
# number of rings (size 3 to 8) (size 9 to 14) (size 15 to 20)
#    0.000    1.571    1.429    2.571    2.000    8.286 
#    0.000    1.429    0.000    0.000    0.000    0.000 
#    0.000    0.000    0.000    0.000    0.000    0.000 
#
# Total GULP energy -156546.191566 kJ/mol
# GULP energy per Si atom -5590.935413 kJ/mol
# Density = 1.930858 g / cm^3
# Si number density = 19.352623 Si / 1000 Ang^3
#
#
#
# Elastic Constant Matrix: (Units=GPa)
#
#
# Indices 1 2 3 4 5 6 
#
# 1 129.5157 33.3553 40.5077 0.0000 25.2410 0.0000
# 2 33.3553 22.9048 26.1707 0.0000 11.0470 0.0000
# 3 40.5077 26.1707 89.5660 0.0000 28.9340 0.0000
# 4 0.0000 0.0000 0.0000 33.3344 0.0000 -0.5582
# 5 25.2410 11.0470 28.9340 0.0000 38.3251 0.0000
# 6 0.0000 0.0000 0.0000 -0.5582 0.0000 29.9314
#
#
#
# Elastic Compliance Matrix: (Units=1/GPa)
#
#
# Indices 1 2 3 4 5 6 
#
# 1 0.012769 -0.017363 0.000527 0.000000 -0.003803 0.000000
# 2 -0.017363 0.090161 -0.018239 0.000000 -0.000784 0.000000
# 3 0.000527 -0.018239 0.019402 0.000000 -0.009737 0.000000
# 4 0.000000 0.000000 0.000000 0.030008 0.000000 0.000560
# 5 -0.003803 -0.000784 -0.009737 0.000000 0.036174 0.000000
# 6 0.000000 0.000000 0.000000 0.000560 0.000000 0.033420
#
#
# Mechanical properties :
#
#
# Convention : Reuss Voigt Hill
#
# Bulk Modulus (GPa) = 19.16371 49.11709 34.14040
# Shear Modulus (GPa) = 16.15623 29.78169 22.96896
#
# Velocity S-wave (km/s) = 2.89248 3.92713 3.44883
# Velocity P-wave (km/s) = 4.59121 6.78221 5.79127
#
# Compressibility (1/GPa) = 0.05218196
#
# Stress axis : x y z
#
# Youngs Moduli (GPa) = 78.31463 11.09124 51.54227
#
# Poissons Ratio (x) = 0.19258 -0.02715
# Poissons Ratio (y) = 1.35976 0.94007
# Poissons Ratio (z) = -0.04125 0.20229
#
# Static dielectric constant tensor:
#      x y z
#    x 1.648770 0.000000 0.006270 
#    y 0.000000 1.661760 0.000000 
#    z 0.006270 0.000000 1.665710 
# 
# From -- ./inp_files/180695.got.cif
#   From: 2010.05.17/outbox.cif.g08.bks.cpg/sg12_91_cif.got.tgz:180695.got - 2010.06.03 13:09:07.
