data_PCOD9199205
_publ_section_title
;
Structure prediction by ZEFSAII (Michael W. Deem and Ramdas Pophale) SiO2 
 PCOD9199205
Probable space group: C 2/M
;
_chemical_formula_sum "Si O2"
_cell_formula_units_Z 60
_cell_length_a 29.873425
_cell_length_b 9.454936
_cell_length_c 11.983464
_cell_angle_alpha 90.000000
_cell_angle_beta 116.063557
_cell_angle_gamma 90.000000
_cell_volume 3040.541081
_symmetry_space_group_name_H-M "C 2/M"
_symmetry_group_IT_number 12
_symmetry_cell_setting 'monoclinic'
loop_
_space_group_symop_operation_xyz
x,y,z
-x,y,-z
-x,-y,-z
x,-y,z
1/2+x,1/2+y,z
1/2-x,1/2+y,-z
1/2-x,1/2-y,-z
1/2+x,1/2-y,z
loop_
_atom_site_type_symbol
_atom_site_label
_atom_site_fract_x
_atom_site_fract_y
_atom_site_fract_z
Si Si1 0.418527 0.333480 0.153689
Si Si2 0.059046 0.836476 0.562952
Si Si3 0.611215 0.668009 0.272077
Si Si4 0.991114 0.335394 0.857368
Si Si5 0.332120 0.667058 0.899065
Si Si6 0.243941 0.742634 0.670198
Si Si7 0.137624 0.332609 0.511748
Si Si8 0.761085 0.000000 0.507419
O O1 0.427702 0.500000 0.133312
O O2 0.420727 0.324710 0.289233
O O3 0.461756 0.235431 0.150894
O O4 0.365915 0.291786 0.041366
O O5 0.089159 0.731160 0.517433
O O6 0.000000 0.808305 0.500000
O O7 0.065889 0.000000 0.532292
O O8 0.611686 0.500000 0.298044
O O9 0.556746 0.737810 0.218415
O O10 0.632814 0.686902 0.171949
O O11 0.642493 0.752573 0.398785
O O12 0.983386 0.500000 0.815008
O O13 0.000000 0.334186 0.000000
O O14 0.321149 0.500000 0.897367
O O15 0.281293 0.747263 0.815359
O O16 0.186872 0.703869 0.635855
O O17 0.263034 0.620175 0.608662
O O18 0.243709 0.880039 0.595021
O O19 0.135023 0.500000 0.490577
#
# Coordination Sequence:
#
# PCOD9199205 Si02
#       8
#     8   8   8   8   8   8   8   4
#     4  10  21  40  65  88 117 166 217 257 310 374
#     4  10  23  44  68  91 118 159 215 271 315 368
#     4  11  22  35  60  88 122 162 206 251 307 374
#     4  11  22  37  54  87 129 161 194 252 314 378
#     4  10  20  36  59  87 124 165 201 250 308 368
#     4  11  22  38  58  91 128 168 210 254 306 375
#     4  12  25  39  62  94 127 164 207 261 316 373
#     4  10  20  36  60  86 128 172 204 250 308 364
#
# _framework density 19.733329000000001
#
# number of rings (size 3 to 8) (size 9 to 14) (size 15 to 20)
#    0.000    1.333    2.667    3.600    3.733    2.400 
#    2.400    0.667    0.000    0.000    0.000    0.000 
#    0.000    0.000    0.000    0.000    0.000    0.000 
#
# Total GULP energy -167119.094723 kJ/mol
# GULP energy per Si atom -5570.636491 kJ/mol
# Density = 1.968841 g / cm^3
# Si number density = 19.733329 Si / 1000 Ang^3
#
#
#
# Elastic Constant Matrix: (Units=GPa)
#
#
# Indices 1 2 3 4 5 6 
#
# 1 50.5928 28.5888 25.8413 0.0000 20.6811 0.0000
# 2 28.5888 130.0138 21.3695 0.0000 1.8046 0.0000
# 3 25.8413 21.3695 92.8010 0.0000 23.7449 0.0000
# 4 0.0000 0.0000 0.0000 41.3335 0.0000 87.8423
# 5 20.6811 1.8046 23.7449 0.0000 32.4439 0.0000
# 6 0.0000 0.0000 0.0000 87.8423 0.0000 462.1189
#
#
#
# Elastic Compliance Matrix: (Units=1/GPa)
#
#
# Indices 1 2 3 4 5 6 
#
# 1 0.032221 -0.006360 -0.002883 0.000000 -0.018075 0.000000
# 2 -0.006360 0.009282 -0.001565 0.000000 0.004683 0.000000
# 3 -0.002883 -0.001565 0.014084 0.000000 -0.008383 0.000000
# 4 0.000000 0.000000 0.000000 0.040591 0.000000 -0.007716
# 5 -0.018075 0.004683 -0.008383 0.000000 0.048219 0.000000
# 6 0.000000 0.000000 0.000000 -0.007716 0.000000 0.003631
#
#
# Mechanical properties :
#
#
# Convention : Reuss Voigt Hill
#
# Bulk Modulus (GPa) = 29.43641 47.22299 38.32970
# Shear Modulus (GPa) = 27.62932 120.35311 73.99121
#
# Velocity S-wave (km/s) = 3.74590 7.81807 6.13000
# Velocity P-wave (km/s) = 5.80159 10.27028 8.34078
#
# Compressibility (1/GPa) = 0.03397154
#
# Stress axis : x y z
#
# Youngs Moduli (GPa) = 31.03570 107.73257 71.00420
#
# Poissons Ratio (x) = 0.68522 0.20468
# Poissons Ratio (y) = 0.19740 0.11109
# Poissons Ratio (z) = 0.08947 0.16856
#
# Static dielectric constant tensor:
#      x y z
#    x 1.725910 0.000000 0.054820 
#    y 0.000000 1.671560 0.000000 
#    z 0.054820 0.000000 1.713780 
# 
# From -- ./inp_files/187636.got.cif
#   From: 2010.05.17/outbox.cif.g08.bks.cpg/sg12_94_cif.got.tgz:187636.got - 2010.06.03 13:09:07.
