data_PCOD9199090
_publ_section_title
;
Structure prediction by ZEFSAII (Michael W. Deem and Ramdas Pophale) SiO2 
 PCOD9199090
Probable space group: C 2/M
;
_chemical_formula_sum "Si O2"
_cell_formula_units_Z 56
_cell_length_a 12.758222
_cell_length_b 26.976199
_cell_length_c 8.654190
_cell_angle_alpha 90.000000
_cell_angle_beta 103.354302
_cell_angle_gamma 90.000000
_cell_volume 2897.960788
_symmetry_space_group_name_H-M "C 2/M"
_symmetry_group_IT_number 12
_symmetry_cell_setting 'monoclinic'
loop_
_space_group_symop_operation_xyz
x,y,z
-x,y,-z
-x,-y,-z
x,-y,z
1/2+x,1/2+y,z
1/2-x,1/2+y,-z
1/2-x,1/2-y,-z
1/2+x,1/2-y,z
loop_
_atom_site_type_symbol
_atom_site_label
_atom_site_fract_x
_atom_site_fract_y
_atom_site_fract_z
Si Si1 0.527861 0.555624 0.176438
Si Si2 0.693237 0.125938 0.960960
Si Si3 0.880407 0.877301 0.531674
Si Si4 0.037707 0.655927 0.673052
Si Si5 0.229532 0.810580 0.271214
Si Si6 0.102651 0.286653 0.139877
Si Si7 0.291163 0.444109 0.240231
O O1 0.571563 0.500000 0.164281
O O2 0.601056 0.585337 0.319164
O O3 0.413933 0.551812 0.224015
O O4 0.500000 0.577966 0.000000
O O5 0.588106 0.118545 0.816744
O O6 0.780773 0.148251 0.870540
O O7 0.664461 0.171468 0.063901
O O8 0.726679 0.079996 0.076117
O O9 0.825348 0.829866 0.590961
O O10 0.802307 0.904848 0.383679
O O11 0.000000 0.867524 0.500000
O O12 0.859123 0.690998 0.329152
O O13 0.946120 0.687568 0.724926
O O14 0.000000 0.633054 0.500000
O O15 0.177416 0.759542 0.202077
O O16 0.000000 0.271036 0.000000
O O17 0.255301 0.500000 0.269708
#
# Coordination Sequence:
#
# PCOD9199090 Si02
#       7
#     8   8   8   8   8   8   8
#     4   9  17  31  52  79 116 153 189 236 299 356
#     4   9  21  37  61  86 114 155 202 241 298 353
#     4  10  21  35  52  88 124 158 194 242 293 350
#     4   9  22  40  59  86 116 161 196 246 300 350
#     4  10  22  38  59  89 120 159 198 239 293 357
#     4  10  21  39  61  87 121 159 194 242 295 355
#     4  10  20  36  59  85 117 156 201 249 300 358
#
# _framework density 19.323933
#
# number of rings (size 3 to 8) (size 9 to 14) (size 15 to 20)
#    0.857    1.571    0.000    1.714    2.000    5.714 
#    0.000    0.714    0.000    4.286    0.000    0.000 
#    0.000    0.000    0.000    0.000    0.000    0.000 
#
# Total GULP energy -155927.236333 kJ/mol
# GULP energy per Si atom -5568.829869 kJ/mol
# Density = 1.927995 g / cm^3
# Si number density = 19.323933 Si / 1000 Ang^3
#
#
#
# Elastic Constant Matrix: (Units=GPa)
#
#
# Indices 1 2 3 4 5 6 
#
# 1 52.2241 22.5080 15.8317 0.0000 -15.1763 0.0000
# 2 22.5080 47.9359 29.2569 0.0000 -0.3081 0.0000
# 3 15.8317 29.2569 113.3541 0.0000 -4.1836 0.0000
# 4 0.0000 0.0000 0.0000 -13.2487 0.0000 -8.5289
# 5 -15.1763 -0.3081 -4.1836 0.0000 28.3293 0.0000
# 6 0.0000 0.0000 0.0000 -8.5289 0.0000 -39.4840
#
#
#
# Elastic Compliance Matrix: (Units=1/GPa)
#
#
# Indices 1 2 3 4 5 6 
#
# 1 0.029692 -0.013845 0.000008 0.000000 0.015757 0.000000
# 2 -0.013845 0.031231 -0.006423 0.000000 -0.008026 0.000000
# 3 0.000008 -0.006423 0.010534 0.000000 0.001490 0.000000
# 4 0.000000 0.000000 0.000000 -0.087670 0.000000 0.018938
# 5 0.015757 -0.008026 0.001490 0.000000 0.043873 0.000000
# 6 0.000000 0.000000 0.000000 0.018938 0.000000 -0.029417
#
#
# Mechanical properties :
#
#
# Convention : Reuss Voigt Hill
#
# Bulk Modulus (GPa) = 32.32532 38.74526 35.53529
# Shear Modulus (GPa) = 101.88460 4.84713 53.36587
#
# Velocity S-wave (km/s) = 7.26905 1.58550 5.26084
# Velocity P-wave (km/s) = 9.33898 4.84207 7.43849
#
# Compressibility (1/GPa) = 0.03093550
#
# Stress axis : x y z
#
# Youngs Moduli (GPa) = 33.67912 32.01948 94.93399
#
# Poissons Ratio (x) = 0.44332 -0.00077
# Poissons Ratio (y) = 0.46630 0.60979
# Poissons Ratio (z) = -0.00027 0.20567
#
# Static dielectric constant tensor:
#      x y z
#    x 1.690780 0.000000 -0.001810 
#    y 0.000000 1.671300 0.000000 
#    z -0.001810 0.000000 1.711400 
# 
# From -- ./inp_files/65463.got.cif
#   From: 2010.05.17/outbox.cif.g08.bks.cpg/sg12_33_cif.got.tgz:65463.got - 2010.06.03 13:09:07.
