data_PCOD9199006
_publ_section_title
;
Structure prediction by ZEFSAII (Michael W. Deem and Ramdas Pophale) SiO2 
 PCOD9199006
Probable space group: C 2/M
;
_chemical_formula_sum "Si O2"
_cell_formula_units_Z 58
_cell_length_a 20.289802
_cell_length_b 7.326355
_cell_length_c 23.801197
_cell_angle_alpha 90.000000
_cell_angle_beta 138.170239
_cell_angle_gamma 90.000000
_cell_volume 2359.598157
_symmetry_space_group_name_H-M "C 2/M"
_symmetry_group_IT_number 12
_symmetry_cell_setting 'monoclinic'
loop_
_space_group_symop_operation_xyz
x,y,z
-x,y,-z
-x,-y,-z
x,-y,z
1/2+x,1/2+y,z
1/2-x,1/2+y,-z
1/2-x,1/2-y,-z
1/2+x,1/2-y,z
loop_
_atom_site_type_symbol
_atom_site_label
_atom_site_fract_x
_atom_site_fract_y
_atom_site_fract_z
Si Si1 0.394251 0.719612 0.018880
Si Si2 0.529838 0.289517 0.304515
Si Si3 0.342100 0.716631 0.517746
Si Si4 0.437032 0.278649 0.793830
Si Si5 0.115156 0.779552 0.576832
Si Si6 0.500000 0.000000 0.000000
Si Si7 0.302242 0.219433 0.156548
Si Si8 0.231524 0.208313 0.231536
O O1 0.404410 0.500000 0.014819
O O2 0.453727 0.760301 0.113648
O O3 0.278091 0.764050 0.941792
O O4 0.447544 0.839618 0.005621
O O5 0.562289 0.500000 0.326717
O O6 0.565200 0.212886 0.386614
O O7 0.577247 0.208124 0.278273
O O8 0.413051 0.287275 0.221947
O O9 0.353527 0.500000 0.516584
O O10 0.250000 0.750000 0.500000
O O11 0.335619 0.786831 0.450205
O O12 0.426988 0.500000 0.785236
O O13 0.357436 0.209158 0.788415
O O14 0.173339 0.710020 0.667829
O O15 0.000000 0.729755 0.500000
O O16 0.120005 0.000000 0.584403
O O17 0.257534 0.287942 0.187676
O O18 0.310611 0.000000 0.164910
O O19 0.201326 0.000000 0.200843
#
# Coordination Sequence:
#
# PCOD9199006 Si02
#       8
#     8   8   8   8   8   2   8   8
#     4  10  22  41  62  90 131 167 205 261 305 365
#     4  10  21  38  62  87 117 158 205 249 304 369
#     4  10  21  37  59  85 115 154 197 247 302 364
#     4   9  19  39  62  85 118 160 196 249 309 354
#     4  10  21  37  55  80 114 150 187 238 304 356
#     4  12  22  36  64  98 120 164 216 246 314 370
#     4  10  22  39  60  87 121 163 198 247 312 364
#     4  10  20  36  59  84 111 149 199 244 297 362
#
# _framework density 24.580456000000002
#
# number of rings (size 3 to 8) (size 9 to 14) (size 15 to 20)
#    0.000    2.069    0.000    2.690    0.966    6.897 
#    4.966    0.000    0.000    0.000    0.000    0.000 
#    0.000    0.000    0.000    0.000    0.000    0.000 
#
# Total GULP energy -161871.187425 kJ/mol
# GULP energy per Si atom -5581.765084 kJ/mol
# Density = 2.452451 g / cm^3
# Si number density = 24.580456 Si / 1000 Ang^3
#
#
#
# Elastic Constant Matrix: (Units=GPa)
#
#
# Indices 1 2 3 4 5 6 
#
# 1 80.8170 -23.3438 6.7781 0.0000 20.2270 -0.0001
# 2 -23.3438 109.3478 -8.5259 0.0000 -19.6343 -0.0001
# 3 6.7781 -8.5259 99.1279 0.0000 11.4952 0.0000
# 4 0.0000 0.0000 0.0000 1.1585 0.0000 15.7132
# 5 20.2270 -19.6343 11.4952 0.0000 71.2850 0.0000
# 6 -0.0001 -0.0001 0.0000 15.7132 0.0000 9.5835
#
#
#
# Elastic Compliance Matrix: (Units=1/GPa)
#
#
# Indices 1 2 3 4 5 6 
#
# 1 0.013895 0.002357 -0.000372 0.000000 -0.003233 0.000000
# 2 0.002357 0.010048 0.000468 0.000000 0.002023 0.000000
# 3 -0.000372 0.000468 0.010319 0.000000 -0.001429 0.000000
# 4 0.000000 0.000000 0.000000 -0.040642 0.000000 0.066637
# 5 -0.003233 0.002023 -0.001429 0.000000 0.015733 0.000000
# 6 0.000000 0.000000 0.000000 0.066637 0.000000 -0.004913
#
#
# Mechanical properties :
#
#
# Convention : Reuss Voigt Hill
#
# Bulk Modulus (GPa) = 25.53115 26.56770 26.04943
# Shear Modulus (GPa) = 397.09196 37.36435 217.22816
#
# Velocity S-wave (km/s) = 12.72394 3.90305 9.41096
# Velocity P-wave (km/s) = 15.04241 5.58066 11.34499
#
# Compressibility (1/GPa) = 0.03916783
#
# Stress axis : x y z
#
# Youngs Moduli (GPa) = 71.96898 99.52161 96.90398
#
# Poissons Ratio (x) = -0.23454 0.03609
# Poissons Ratio (y) = -0.16961 -0.04539
# Poissons Ratio (z) = 0.02680 -0.04662
#
# Static dielectric constant tensor:
#      x y z
#    x 1.869230 0.000000 0.079020 
#    y 0.000000 1.976870 0.000000 
#    z 0.079020 0.000000 1.858250 
# 
# From -- ./inp_files/346551.got.cif
#   From: 2010.05.17/outbox.cif.g08.bks.cpg/sg12_174_cif.got.tgz:346551.got - 2010.06.03 13:09:07.
