data_PCOD9199536
_publ_section_title
;
Structure prediction by ZEFSAII (Michael W. Deem and Ramdas Pophale) SiO2 
 PCOD9199536
Probable space group: C 2/M
;
_chemical_formula_sum "Si O2"
_cell_formula_units_Z 32
_cell_length_a 9.315656
_cell_length_b 15.502950
_cell_length_c 14.384787
_cell_angle_alpha 90.000000
_cell_angle_beta 43.366036
_cell_angle_gamma 90.000000
_cell_volume 1426.497056
_symmetry_space_group_name_H-M "C 2/M"
_symmetry_group_IT_number 12
_symmetry_cell_setting 'monoclinic'
loop_
_space_group_symop_operation_xyz
x,y,z
-x,y,-z
-x,-y,-z
x,-y,z
1/2+x,1/2+y,z
1/2-x,1/2+y,-z
1/2-x,1/2-y,-z
1/2+x,1/2-y,z
loop_
_atom_site_type_symbol
_atom_site_label
_atom_site_fract_x
_atom_site_fract_y
_atom_site_fract_z
Si Si1 0.230281 0.596001 0.384207
Si Si2 0.712067 0.335204 0.457228
Si Si3 0.453407 0.895445 0.172222
Si Si4 0.833584 0.894674 0.868969
O O1 0.198962 0.500000 0.359122
O O2 0.302961 0.592437 0.456659
O O3 0.427656 0.637916 0.239388
O O4 0.000000 0.636244 0.500000
O O5 0.500000 0.332382 0.500000
O O6 0.750000 0.250000 0.500000
O O7 0.106242 0.354628 0.701783
O O8 0.285108 0.871107 0.171035
O O9 0.446808 0.000000 0.183414
O O10 0.680274 0.870707 0.025103
O O11 0.845380 0.000000 0.862681
#
# Coordination Sequence:
#
# PCOD9199536 Si02
#       4
#     8   8   8   8
#     4  10  20  36  60  89 119 149 190 241 294 345
#     4  12  24  38  56  81 118 158 199 239 288 343
#     4   9  17  33  61  90 113 145 194 241 289 346
#     4   8  15  31  59  91 116 143 184 242 295 341
#
# _framework density 22.432572
#
# number of rings (size 3 to 8) (size 9 to 14) (size 15 to 20)
#    0.000    2.250    2.500    3.000    0.000    1.000 
#    0.000    2.500    0.000    6.000    0.000    0.000 
#    0.000    0.000    0.000    0.000    0.000    0.000 
#
# Total GULP energy -89264.675470 kJ/mol
# GULP energy per Si atom -5579.042217 kJ/mol
# Density = 2.238151 g / cm^3
# Si number density = 22.432572 Si / 1000 Ang^3
#
#
#
# Elastic Constant Matrix: (Units=GPa)
#
#
# Indices 1 2 3 4 5 6 
#
# 1 70.4470 6.1291 47.2033 0.0001 -24.0949 0.0002
# 2 6.1291 49.9693 11.6369 0.0004 1.3789 0.0001
# 3 47.2033 11.6369 238.9506 0.0013 -21.9615 0.0010
# 4 0.0001 0.0004 0.0013 11.9712 -0.0005 12.0043
# 5 -24.0949 1.3789 -21.9615 -0.0005 50.5882 -0.0003
# 6 0.0002 0.0001 0.0010 12.0043 -0.0003 3.2907
#
#
#
# Elastic Compliance Matrix: (Units=1/GPa)
#
#
# Indices 1 2 3 4 5 6 
#
# 1 0.019007 -0.001861 -0.002945 0.000000 0.007825 0.000001
# 2 -0.001861 0.020475 -0.000794 0.000000 -0.001789 -0.000001
# 3 -0.002945 -0.000794 0.004873 0.000000 0.000734 0.000000
# 4 0.000000 0.000000 0.000000 -0.031427 0.000000 0.114644
# 5 0.007825 -0.001789 0.000734 0.000000 0.023862 0.000001
# 6 0.000001 -0.000001 0.000000 0.114644 0.000001 -0.114328
#
#
# Mechanical properties :
#
#
# Convention : Reuss Voigt Hill
#
# Bulk Modulus (GPa) = 30.16218 54.36728 42.26473
# Shear Modulus (GPa) = -90.43753 32.79652 -28.82051
#
# Velocity S-wave (km/s) = -6.35632 3.82776 -3.58825
# Velocity P-wave (km/s) = 6.35575 6.61998 1.30933
#
# Compressibility (1/GPa) = 0.03315410
#
# Stress axis : x y z
#
# Youngs Moduli (GPa) = 52.61331 48.84034 205.21842
#
# Poissons Ratio (x) = 0.09091 0.60433
# Poissons Ratio (y) = 0.09794 0.16292
# Poissons Ratio (z) = 0.15494 0.03877
#
# Static dielectric constant tensor:
#      x y z
#    x 1.816550 0.000000 -0.052750 
#    y 0.000000 1.898010 0.000000 
#    z -0.052750 0.000000 1.870280 
# 
# From -- ./inp_files/120515.got.cif
#   From: 2010.05.17/outbox.cif.g08.bks.cpg/sg12_61_cif.got.tgz:120515.got - 2010.06.03 13:09:07.
