data_PCOD9199789
_publ_section_title
;
Structure prediction by ZEFSAII (Michael W. Deem and Ramdas Pophale) SiO2 
 PCOD9199789
Probable space group: C 2/M
;
_chemical_formula_sum "Si O2"
_cell_formula_units_Z 58
_cell_length_a 15.010392
_cell_length_b 18.058232
_cell_length_c 12.456529
_cell_angle_alpha 90.000000
_cell_angle_beta 72.940882
_cell_angle_gamma 90.000000
_cell_volume 3227.924503
_symmetry_space_group_name_H-M "C 2/M"
_symmetry_group_IT_number 12
_symmetry_cell_setting 'monoclinic'
loop_
_space_group_symop_operation_xyz
x,y,z
-x,y,-z
-x,-y,-z
x,-y,z
1/2+x,1/2+y,z
1/2-x,1/2+y,-z
1/2-x,1/2-y,-z
1/2+x,1/2-y,z
loop_
_atom_site_type_symbol
_atom_site_label
_atom_site_fract_x
_atom_site_fract_y
_atom_site_fract_z
Si Si1 0.687352 0.581284 0.993506
Si Si2 0.995995 0.410989 0.627139
Si Si3 0.986273 0.085324 0.632803
Si Si4 0.000000 0.000000 0.000000
Si Si5 0.802999 0.412188 0.346110
Si Si6 0.303524 0.843941 0.763390
Si Si7 0.698719 0.413184 0.605121
Si Si8 0.687843 0.669509 0.211584
O O1 0.724818 0.500000 0.013943
O O2 0.581263 0.563373 0.995275
O O3 0.692142 0.636616 0.091064
O O4 0.746720 0.612115 0.873950
O O5 0.983965 0.500000 0.633825
O O6 0.908440 0.373427 0.714144
O O7 0.000000 0.389242 0.500000
O O8 0.093603 0.393408 0.649707
O O9 0.909386 0.140697 0.703280
O O10 0.000000 0.091567 0.500000
O O11 0.087632 0.096011 0.649331
O O12 0.956251 0.000000 0.666206
O O13 0.799405 0.500000 0.323348
O O14 0.734215 0.399739 0.471793
O O15 0.767617 0.365998 0.258219
O O16 0.252434 0.862145 0.669156
O O17 0.304683 0.757352 0.787633
O O18 0.720181 0.500000 0.622057
#
# Coordination Sequence:
#
# PCOD9199789 Si02
#       8
#     8   8   8   2   8   8   8   8
#     4  10  23  45  69  93 117 155 216 255 310 370
#     4  10  20  39  63  86 117 166 223 261 287 350
#     4  10  20  36  61  91 123 164 215 263 316 373
#     4   8  24  44  76 100  98 156 216 276 296 358
#     4  10  20  39  61  87 120 167 218 256 302 360
#     4  12  25  39  61  92 131 165 202 259 324 380
#     4  10  20  36  63  90 120 163 219 267 304 364
#     4  12  25  39  60  91 137 166 192 257 335 393
#
# _framework density 17.968201000000001
#
# number of rings (size 3 to 8) (size 9 to 14) (size 15 to 20)
#    0.414    1.103    2.759    2.897    1.931    2.207 
#    0.000    0.690    0.000    2.483    0.000    0.000 
#    0.000    0.000    0.000    0.000    0.000    0.000 
#
# Total GULP energy -161705.368068 kJ/mol
# GULP energy per Si atom -5576.047175 kJ/mol
# Density = 1.792730 g / cm^3
# Si number density = 17.968201 Si / 1000 Ang^3
#
#
#
# Elastic Constant Matrix: (Units=GPa)
#
#
# Indices 1 2 3 4 5 6 
#
# 1 114.1988 46.9261 42.6645 0.0000 2.4324 0.0000
# 2 46.9261 68.3047 31.1655 0.0000 -0.4253 0.0000
# 3 42.6645 31.1655 69.4402 0.0000 -3.4294 0.0000
# 4 0.0000 0.0000 0.0000 143.8783 0.0000 2.9180
# 5 2.4324 -0.4253 -3.4294 0.0000 11.9685 0.0000
# 6 0.0000 0.0000 0.0000 2.9180 0.0000 7.9040
#
#
#
# Elastic Compliance Matrix: (Units=1/GPa)
#
#
# Indices 1 2 3 4 5 6 
#
# 1 0.013804 -0.006964 -0.005586 0.000000 -0.004653 0.000000
# 2 -0.006964 0.021959 -0.005547 0.000000 0.000606 0.000000
# 3 -0.005586 -0.005547 0.020661 0.000000 0.006858 0.000000
# 4 0.000000 0.000000 0.000000 0.007003 0.000000 -0.002585
# 5 -0.004653 0.000606 0.006858 0.000000 0.086485 0.000000
# 6 0.000000 0.000000 0.000000 -0.002585 0.000000 0.127473
#
#
# Mechanical properties :
#
#
# Convention : Reuss Voigt Hill
#
# Bulk Modulus (GPa) = 49.42841 54.82842 52.12842
# Shear Modulus (GPa) = 15.60929 41.49600 28.55264
#
# Velocity S-wave (km/s) = 2.95060 4.81085 3.99063
# Velocity P-wave (km/s) = 6.25912 7.83833 7.09281
#
# Compressibility (1/GPa) = 0.02023128
#
# Stress axis : x y z
#
# Youngs Moduli (GPa) = 72.44177 45.53881 48.40055
#
# Poissons Ratio (x) = 0.31713 0.27035
# Poissons Ratio (y) = 0.50449 0.26847
# Poissons Ratio (z) = 0.40463 0.25260
#
# Static dielectric constant tensor:
#      x y z
#    x 1.607510 0.000000 0.005500 
#    y 0.000000 1.598800 0.000000 
#    z 0.005500 0.000000 1.618040 
# 
# From -- ./inp_files/145541.got.cif
#   From: 2010.05.17/outbox.cif.g08.bks.cpg/sg12_73_cif.got.tgz:145541.got - 2010.06.03 13:09:07.
