data_PCOD9199662
_publ_section_title
;
Structure prediction by ZEFSAII (Michael W. Deem and Ramdas Pophale) SiO2 
 PCOD9199662
Probable space group: C 2/M
;
_chemical_formula_sum "Si O2"
_cell_formula_units_Z 40
_cell_length_a 22.257525
_cell_length_b 18.306205
_cell_length_c 13.876321
_cell_angle_alpha 90.000000
_cell_angle_beta 160.689434
_cell_angle_gamma 90.000000
_cell_volume 1869.685396
_symmetry_space_group_name_H-M "C 2/M"
_symmetry_group_IT_number 12
_symmetry_cell_setting 'monoclinic'
loop_
_space_group_symop_operation_xyz
x,y,z
-x,y,-z
-x,-y,-z
x,-y,z
1/2+x,1/2+y,z
1/2-x,1/2+y,-z
1/2-x,1/2-y,-z
1/2+x,1/2-y,z
loop_
_atom_site_type_symbol
_atom_site_label
_atom_site_fract_x
_atom_site_fract_y
_atom_site_fract_z
Si Si1 0.246703 0.086230 0.570825
Si Si2 0.605709 0.382394 0.069286
Si Si3 0.960202 0.580937 0.693118
Si Si4 0.329559 0.217364 0.023623
Si Si5 0.222670 0.227205 0.654702
O O1 0.357789 0.102024 0.639133
O O2 0.290641 0.150092 0.714486
O O3 0.277176 0.000000 0.641708
O O4 0.031570 0.098617 0.223648
O O5 0.806006 0.415205 0.376833
O O6 0.643401 0.296853 0.149774
O O7 0.500000 0.415088 0.000000
O O8 0.026657 0.500000 0.808725
O O9 0.119913 0.632701 0.901036
O O10 0.531223 0.252696 0.315500
O O11 0.250000 0.250000 0.000000
O O12 0.200941 0.226304 0.737060
#
# Coordination Sequence:
#
# PCOD9199662 Si02
#       5
#     8   8   8   8   8
#     4  10  20  36  61 100 136 162 196 257 333 390
#     4   9  18  32  60  90 129 164 204 243 310 384
#     4   9  20  37  62  93 128 165 206 258 319 380
#     4  11  24  41  62  84 123 167 224 259 303 364
#     4  11  22  38  63  91 122 164 209 263 311 370
#
# _framework density 21.393974
#
# number of rings (size 3 to 8) (size 9 to 14) (size 15 to 20)
#    0.000    2.000    2.000    1.200    2.800    5.600 
#    0.000    3.000    0.000    4.800    0.000    0.000 
#    0.000    0.000    0.000    0.000    0.000    0.000 
#
# Total GULP energy -111422.426325 kJ/mol
# GULP energy per Si atom -5571.121316 kJ/mol
# Density = 2.134528 g / cm^3
# Si number density = 21.393974 Si / 1000 Ang^3
#
#
#
# Elastic Constant Matrix: (Units=GPa)
#
#
# Indices 1 2 3 4 5 6 
#
# 1 77.2332 60.9108 3.7209 0.0000 -7.5331 0.0000
# 2 60.9108 160.3808 14.5341 0.0000 -1.8978 0.0000
# 3 3.7209 14.5341 60.6342 0.0000 -16.1970 0.0000
# 4 0.0000 0.0000 0.0000 7.8163 0.0000 11.8249
# 5 -7.5331 -1.8978 -16.1970 0.0000 28.4331 0.0000
# 6 0.0000 0.0000 0.0000 11.8249 0.0000 20.0940
#
#
#
# Elastic Compliance Matrix: (Units=1/GPa)
#
#
# Indices 1 2 3 4 5 6 
#
# 1 0.019293 -0.007454 0.002165 0.000000 0.005847 0.000000
# 2 -0.007454 0.009260 -0.002506 0.000000 -0.002784 0.000000
# 3 0.002165 -0.002506 0.020132 0.000000 0.011875 0.000000
# 4 0.000000 0.000000 0.000000 1.166027 0.000000 -0.686182
# 5 0.005847 -0.002784 0.011875 0.000000 0.043298 0.000000
# 6 0.000000 0.000000 0.000000 -0.686182 0.000000 0.453570
#
#
# Mechanical properties :
#
#
# Convention : Reuss Voigt Hill
#
# Bulk Modulus (GPa) = 30.21666 50.73107 40.47386
# Shear Modulus (GPa) = 2.87654 25.87420 14.37537
#
# Velocity S-wave (km/s) = 1.16081 3.48144 2.59498
# Velocity P-wave (km/s) = 3.99390 6.31861 5.28564
#
# Compressibility (1/GPa) = 0.03309433
#
# Stress axis : x y z
#
# Youngs Moduli (GPa) = 51.83351 107.98795 49.67150
#
# Poissons Ratio (x) = 0.80495 -0.10753
# Poissons Ratio (y) = 0.38637 0.12448
# Poissons Ratio (z) = -0.11221 0.27062
#
# Static dielectric constant tensor:
#      x y z
#    x 1.788210 0.000000 -0.048260 
#    y 0.000000 1.842480 0.000000 
#    z -0.048260 0.000000 1.842240 
# 
# From -- ./inp_files/130401.got.cif
#   From: 2010.05.17/outbox.cif.g08.bks.cpg/sg12_66_cif.got.tgz:130401.got - 2010.06.03 13:09:07.
