data_PCOD9199714
_publ_section_title
;
Structure prediction by ZEFSAII (Michael W. Deem and Ramdas Pophale) SiO2 
 PCOD9199714
Probable space group: C 2/M
;
_chemical_formula_sum "Si O2"
_cell_formula_units_Z 40
_cell_length_a 17.701420
_cell_length_b 13.919793
_cell_length_c 6.944015
_cell_angle_alpha 90.000000
_cell_angle_beta 68.012451
_cell_angle_gamma 90.000000
_cell_volume 1586.556392
_symmetry_space_group_name_H-M "C 2/M"
_symmetry_group_IT_number 12
_symmetry_cell_setting 'monoclinic'
loop_
_space_group_symop_operation_xyz
x,y,z
-x,y,-z
-x,-y,-z
x,-y,z
1/2+x,1/2+y,z
1/2-x,1/2+y,-z
1/2-x,1/2-y,-z
1/2+x,1/2-y,z
loop_
_atom_site_type_symbol
_atom_site_label
_atom_site_fract_x
_atom_site_fract_y
_atom_site_fract_z
Si Si1 0.623782 0.790197 0.745289
Si Si2 0.038529 0.210354 0.281265
Si Si3 0.792138 0.852167 0.919289
Si Si4 0.876403 0.605203 0.838349
Si Si5 0.728450 0.389823 0.519750
O O1 0.536599 0.749192 0.769101
O O2 0.680708 0.694109 0.678061
O O3 0.675364 0.864875 0.565376
O O4 0.614990 0.849900 0.952589
O O5 0.112540 0.150279 0.118421
O O6 0.083394 0.307332 0.315687
O O7 0.000000 0.156589 0.500000
O O8 0.791679 0.875737 0.690996
O O9 0.750000 0.750000 0.000000
O O10 0.720565 0.908491 0.093446
O O11 0.915180 0.500000 0.783719
O O12 0.709729 0.500000 0.585798
#
# Coordination Sequence:
#
# PCOD9199714 Si02
#       5
#     8   8   8   8   8
#     4  10  20  36  61  88 118 161 198 249 298 358
#     4  11  21  36  60  91 124 154 196 251 310 351
#     4   9  18  35  58  81 117 156 196 235 293 358
#     4  10  22  40  64  88 120 165 204 241 299 370
#     4  10  20  37  62  87 117 162 207 245 298 364
#
# _framework density 25.211835000000001
#
# number of rings (size 3 to 8) (size 9 to 14) (size 15 to 20)
#    0.000    2.000    2.000    3.000    0.000    2.800 
#    0.000    3.000    0.000   13.200    0.000    0.000 
#    0.000    0.000    0.000    0.000    0.000    0.000 
#
# Total GULP energy -111484.477079 kJ/mol
# GULP energy per Si atom -5574.223854 kJ/mol
# Density = 2.515445 g / cm^3
# Si number density = 25.211835 Si / 1000 Ang^3
#
#
#
# Elastic Constant Matrix: (Units=GPa)
#
#
# Indices 1 2 3 4 5 6 
#
# 1 143.6079 -15.9658 10.6393 0.0000 -34.8483 0.0000
# 2 -15.9658 115.7464 -13.4197 0.0000 3.6152 0.0000
# 3 10.6393 -13.4197 110.7718 0.0000 -19.5122 0.0000
# 4 0.0000 0.0000 0.0000 4.7933 0.0000 3.0022
# 5 -34.8483 3.6152 -19.5122 0.0000 41.6800 0.0000
# 6 0.0000 0.0000 0.0000 3.0022 0.0000 16.3750
#
#
#
# Elastic Compliance Matrix: (Units=1/GPa)
#
#
# Indices 1 2 3 4 5 6 
#
# 1 0.008886 0.001059 0.000618 0.000000 0.007627 0.000000
# 2 0.001059 0.008892 0.001085 0.000000 0.000622 0.000000
# 3 0.000618 0.001085 0.009999 0.000000 0.005104 0.000000
# 4 0.000000 0.000000 0.000000 0.235689 0.000000 -0.043212
# 5 0.007627 0.000622 0.005104 0.000000 0.032705 0.000000
# 6 0.000000 0.000000 0.000000 -0.043212 0.000000 0.068991
#
#
# Mechanical properties :
#
#
# Convention : Reuss Voigt Hill
#
# Bulk Modulus (GPa) = 30.02793 36.95929 33.49361
# Shear Modulus (GPa) = 13.48666 38.49448 25.99057
#
# Velocity S-wave (km/s) = 2.31537 3.91172 3.21423
# Velocity P-wave (km/s) = 4.36853 5.92397 5.20468
#
# Compressibility (1/GPa) = 0.03330233
#
# Stress axis : x y z
#
# Youngs Moduli (GPa) = 112.53383 112.45990 100.01359
#
# Poissons Ratio (x) = -0.11912 -0.06184
# Poissons Ratio (y) = -0.11920 -0.10853
# Poissons Ratio (z) = -0.06959 -0.12203
#
# Static dielectric constant tensor:
#      x y z
#    x 2.141130 0.000000 0.085880 
#    y 0.000000 2.162270 0.000000 
#    z 0.085880 0.000000 2.086930 
# 
# From -- ./inp_files/72842.got.cif
#   From: 2010.05.17/outbox.cif.g08.bks.cpg/sg12_37_cif.got.tgz:72842.got - 2010.06.03 13:09:07.
