data_PCOD9199864
_publ_section_title
;
Structure prediction by ZEFSAII (Michael W. Deem and Ramdas Pophale) SiO2 
 PCOD9199864
Probable space group: C 2/M
;
_chemical_formula_sum "Si O2"
_cell_formula_units_Z 42
_cell_length_a 12.469554
_cell_length_b 21.345391
_cell_length_c 7.646785
_cell_angle_alpha 90.000000
_cell_angle_beta 72.915865
_cell_angle_gamma 90.000000
_cell_volume 1945.515717
_symmetry_space_group_name_H-M "C 2/M"
_symmetry_group_IT_number 12
_symmetry_cell_setting 'monoclinic'
loop_
_space_group_symop_operation_xyz
x,y,z
-x,y,-z
-x,-y,-z
x,-y,z
1/2+x,1/2+y,z
1/2-x,1/2+y,-z
1/2-x,1/2-y,-z
1/2+x,1/2-y,z
loop_
_atom_site_type_symbol
_atom_site_label
_atom_site_fract_x
_atom_site_fract_y
_atom_site_fract_z
Si Si1 0.636222 0.881405 0.088347
Si Si2 0.374617 0.574043 0.104070
Si Si3 0.500000 0.000000 0.000000
Si Si4 0.368500 0.570201 0.522151
Si Si5 0.719598 0.180627 0.726102
Si Si6 0.883648 0.288192 0.599706
O O1 0.768213 0.895102 0.063046
O O2 0.364750 0.836025 0.079355
O O3 0.593554 0.845649 0.281239
O O4 0.570347 0.944424 0.072894
O O5 0.374686 0.500000 0.058475
O O6 0.355915 0.579894 0.320871
O O7 0.500000 0.598281 0.000000
O O8 0.500000 0.572885 0.500000
O O9 0.327472 0.500000 0.585982
O O10 0.300792 0.621411 0.659615
O O11 0.793765 0.241759 0.728041
O O12 0.663716 0.190584 0.564286
O O13 0.000000 0.253739 0.500000
#
# Coordination Sequence:
#
# PCOD9199864 Si02
#       6
#     8   8   2   8   8   8
#     4  12  24  46  67 106 140 188 238 289 355 427
#     4  10  20  37  63  96 140 181 222 291 355 413
#     4  12  28  44  76 104 152 194 236 288 356 432
#     4  10  20  36  62 101 134 175 227 285 358 424
#     4  11  24  43  71  97 136 183 237 293 353 416
#     4  11  25  47  69  97 139 186 241 296 345 423
#
# _framework density 21.588107999999998
#
# number of rings (size 3 to 8) (size 9 to 14) (size 15 to 20)
#    0.000    1.143    2.857    3.429    1.333    1.524 
#    0.000    1.429    0.000    0.000    0.000    0.000 
#    0.000    0.000    0.000    0.000    0.000    0.000 
#
# Total GULP energy -117178.580975 kJ/mol
# GULP energy per Si atom -5579.932427 kJ/mol
# Density = 2.153897 g / cm^3
# Si number density = 21.588108 Si / 1000 Ang^3
#
#
#
# Elastic Constant Matrix: (Units=GPa)
#
#
# Indices 1 2 3 4 5 6 
#
# 1 80.2721 46.0835 23.0218 0.0000 2.9509 0.0000
# 2 46.0835 72.9474 31.5248 0.0000 16.7279 0.0000
# 3 23.0218 31.5248 65.1679 0.0000 14.3314 0.0000
# 4 0.0000 0.0000 0.0000 -1.0447 0.0000 -12.8257
# 5 2.9509 16.7279 14.3314 0.0000 27.6160 0.0000
# 6 0.0000 0.0000 0.0000 -12.8257 0.0000 19.3204
#
#
#
# Elastic Compliance Matrix: (Units=1/GPa)
#
#
# Indices 1 2 3 4 5 6 
#
# 1 0.020775 -0.013828 -0.002262 0.000000 0.007330 0.000000
# 2 -0.013828 0.027799 -0.005853 0.000000 -0.012324 0.000000
# 3 -0.002262 -0.005853 0.020480 0.000000 -0.006841 0.000000
# 4 0.000000 0.000000 0.000000 -0.104615 0.000000 -0.069447
# 5 0.007330 -0.012324 -0.006841 0.000000 0.046443 0.000000
# 6 0.000000 0.000000 0.000000 -0.069447 0.000000 0.005657
#
#
# Mechanical properties :
#
#
# Convention : Reuss Voigt Hill
#
# Bulk Modulus (GPa) = 39.73077 46.62752 43.17915
# Shear Modulus (GPa) = 72.65899 17.02883 44.84391
#
# Velocity S-wave (km/s) = 5.80776 2.81162 4.56263
# Velocity P-wave (km/s) = 7.96350 5.67326 6.91387
#
# Compressibility (1/GPa) = 0.02516941
#
# Stress axis : x y z
#
# Youngs Moduli (GPa) = 48.13405 35.97203 48.82852
#
# Poissons Ratio (x) = 0.49741 0.11045
# Poissons Ratio (y) = 0.66559 0.28578
# Poissons Ratio (z) = 0.10888 0.21053
#
# Static dielectric constant tensor:
#      x y z
#    x 1.807210 0.000000 -0.008220 
#    y 0.000000 1.763010 0.000000 
#    z -0.008220 0.000000 1.803950 
# 
# From -- ./inp_files/49149.got.cif
#   From: 2010.05.17/outbox.cif.g08.bks.cpg/sg12_25_cif.got.tgz:49149.got - 2010.06.03 13:09:07.
