data_PCOD9199147
_publ_section_title
;
Structure prediction by ZEFSAII (Michael W. Deem and Ramdas Pophale) SiO2 
 PCOD9199147
Probable space group: C 2/M
;
_chemical_formula_sum "Si O2"
_cell_formula_units_Z 64
_cell_length_a 30.525502
_cell_length_b 14.536783
_cell_length_c 9.269705
_cell_angle_alpha 90.000000
_cell_angle_beta 129.590013
_cell_angle_gamma 90.000000
_cell_volume 3169.857626
_symmetry_space_group_name_H-M "C 2/M"
_symmetry_group_IT_number 12
_symmetry_cell_setting 'monoclinic'
loop_
_space_group_symop_operation_xyz
x,y,z
-x,y,-z
-x,-y,-z
x,-y,z
1/2+x,1/2+y,z
1/2-x,1/2+y,-z
1/2-x,1/2-y,-z
1/2+x,1/2-y,z
loop_
_atom_site_type_symbol
_atom_site_label
_atom_site_fract_x
_atom_site_fract_y
_atom_site_fract_z
Si Si1 0.973850 0.099510 0.165550
Si Si2 0.132705 0.863507 0.240458
Si Si3 0.342671 0.836513 0.824618
Si Si4 0.214968 0.773622 0.068774
Si Si5 0.743938 0.100992 0.601639
Si Si6 0.417539 0.715149 0.602148
Si Si7 0.889908 0.890996 0.257640
Si Si8 0.435146 0.103583 0.818391
O O1 0.939807 0.112021 0.243266
O O2 0.018779 0.178924 0.233576
O O3 0.003741 0.000000 0.233736
O O4 0.925125 0.095902 0.942903
O O5 0.136630 0.764562 0.174497
O O6 0.191495 0.907101 0.318388
O O7 0.125665 0.845699 0.393556
O O8 0.315923 0.816410 0.925672
O O9 0.293491 0.868365 0.612485
O O10 0.396947 0.893875 0.884699
O O11 0.255169 0.820261 0.274787
O O12 0.250000 0.750000 0.000000
O O13 0.167805 0.851490 0.933776
O O14 0.725126 0.000000 0.614290
O O15 0.405031 0.682354 0.414079
O O16 0.414759 0.818954 0.659817
O O17 0.884133 0.000000 0.286740
O O18 0.431372 0.000000 0.750578
O O19 0.500000 0.122315 0.000000
#
# Coordination Sequence:
#
# PCOD9199147 Si02
#       8
#     8   8   8   8   8   8   8   8
#     4  11  21  38  59  88 127 170 209 253 313 385
#     4  10  20  36  59  86 120 159 204 257 314 362
#     4  10  21  40  64  90 119 160 216 265 319 380
#     4  11  24  40  64  90 129 171 211 259 325 390
#     4  11  22  39  63  88 121 162 210 265 318 375
#     4  11  23  36  62  95 126 165 209 263 311 377
#     4  11  24  41  60  89 132 176 210 247 316 396
#     4  10  22  42  70  96 123 163 218 278 332 375
#
# _framework density 20.190180999999999
#
# number of rings (size 3 to 8) (size 9 to 14) (size 15 to 20)
#    0.000    1.375    2.500    5.250    5.250    3.500 
#    0.000    1.875    0.000    3.000    0.000    0.000 
#    0.000    0.000    0.000    0.000    0.000    0.000 
#
# Total GULP energy -178408.844459 kJ/mol
# GULP energy per Si atom -5575.276389 kJ/mol
# Density = 2.014423 g / cm^3
# Si number density = 20.190181 Si / 1000 Ang^3
#
#
#
# Elastic Constant Matrix: (Units=GPa)
#
#
# Indices 1 2 3 4 5 6 
#
# 1 101.1278 32.0392 26.4412 0.0000 -12.6619 0.0000
# 2 32.0392 101.2213 24.1795 0.0000 -13.5485 0.0000
# 3 26.4412 24.1795 65.0746 0.0000 4.2685 0.0000
# 4 0.0000 0.0000 0.0000 5.5351 0.0000 -22.5591
# 5 -12.6619 -13.5485 4.2685 0.0000 28.4960 0.0000
# 6 0.0000 0.0000 0.0000 -22.5591 0.0000 -5.8498
#
#
#
# Elastic Compliance Matrix: (Units=1/GPa)
#
#
# Indices 1 2 3 4 5 6 
#
# 1 0.012416 -0.002139 -0.004590 0.000000 0.005187 0.000000
# 2 -0.002139 0.012256 -0.004045 0.000000 0.005483 0.000000
# 3 -0.004590 -0.004045 0.019183 0.000000 -0.006836 0.000000
# 4 0.000000 0.000000 0.000000 0.010807 0.000000 -0.041676
# 5 0.005187 0.005483 -0.006836 0.000000 0.041028 0.000000
# 6 0.000000 0.000000 0.000000 -0.041676 0.000000 -0.010226
#
#
# Mechanical properties :
#
#
# Convention : Reuss Voigt Hill
#
# Bulk Modulus (GPa) = 44.82737 48.08260 46.45499
# Shear Modulus (GPa) = 43.68746 17.95384 30.82065
#
# Velocity S-wave (km/s) = 4.65671 2.98524 3.91131
# Velocity P-wave (km/s) = 7.15290 5.97903 6.59215
#
# Compressibility (1/GPa) = 0.02230780
#
# Stress axis : x y z
#
# Youngs Moduli (GPa) = 80.54199 81.58975 52.12862
#
# Poissons Ratio (x) = 0.17453 0.23929
# Poissons Ratio (y) = 0.17229 0.21084
# Poissons Ratio (z) = 0.36971 0.32999
#
# Static dielectric constant tensor:
#      x y z
#    x 1.753610 0.000000 0.000700 
#    y 0.000000 1.821140 0.000000 
#    z 0.000700 0.000000 1.743930 
# 
# From -- ./inp_files/112016.got.cif
#   From: 2010.05.17/outbox.cif.g08.bks.cpg/sg12_57_cif.got.tgz:112016.got - 2010.06.03 13:09:07.
