data_PCOD9199252
_publ_section_title
;
Structure prediction by ZEFSAII (Michael W. Deem and Ramdas Pophale) SiO2 
 PCOD9199252
Probable space group: C 2/M
;
_chemical_formula_sum "Si O2"
_cell_formula_units_Z 58
_cell_length_a 18.865437
_cell_length_b 8.166575
_cell_length_c 23.752966
_cell_angle_alpha 90.000000
_cell_angle_beta 50.884335
_cell_angle_gamma 90.000000
_cell_volume 2839.329803
_symmetry_space_group_name_H-M "C 2/M"
_symmetry_group_IT_number 12
_symmetry_cell_setting 'monoclinic'
loop_
_space_group_symop_operation_xyz
x,y,z
-x,y,-z
-x,-y,-z
x,-y,z
1/2+x,1/2+y,z
1/2-x,1/2+y,-z
1/2-x,1/2-y,-z
1/2+x,1/2-y,z
loop_
_atom_site_type_symbol
_atom_site_label
_atom_site_fract_x
_atom_site_fract_y
_atom_site_fract_z
Si Si1 0.825251 0.694340 0.507915
Si Si2 0.682774 0.188782 0.796055
Si Si3 0.828041 0.307554 0.918621
Si Si4 0.974587 0.307072 0.937041
Si Si5 0.847996 0.309009 0.783835
Si Si6 0.000000 0.000000 0.000000
Si Si7 0.040677 0.192617 0.646061
Si Si8 0.813170 0.801081 0.333872
O O1 0.825459 0.500000 0.509914
O O2 0.750000 0.750000 0.500000
O O3 0.920773 0.747403 0.433245
O O4 0.782523 0.750967 0.588575
O O5 0.582768 0.208996 0.872874
O O6 0.758012 0.291518 0.791387
O O7 0.677632 0.234294 0.733168
O O8 0.709689 0.000000 0.788326
O O9 0.812661 0.500000 0.919307
O O10 0.830060 0.234956 0.854967
O O11 0.923105 0.284630 0.903647
O O12 0.750000 0.250000 0.000000
O O13 0.955009 0.500000 0.964563
O O14 0.949706 0.150992 0.988413
O O15 0.870626 0.500000 0.778884
O O16 0.936164 0.231290 0.710536
O O17 0.105291 0.256028 0.665037
O O18 0.054749 0.000000 0.639007
O O19 0.815747 0.000000 0.329649
#
# Coordination Sequence:
#
# PCOD9199252 Si02
#       8
#     8   8   8   8   8   2   8   8
#     4   9  17  31  54  87 120 155 198 247 299 355
#     4  11  24  41  61  87 123 161 202 253 307 359
#     4  10  24  43  65  93 125 157 203 255 307 366
#     4  10  25  45  65  98 130 161 211 259 305 375
#     4  11  24  41  62  87 119 160 204 250 306 368
#     4  12  26  40  76  94 124 172 206 252 326 362
#     4  10  20  36  59  89 121 156 200 249 304 360
#     4   9  19  35  59  88 120 157 202 248 295 364
#
# _framework density 20.427356
#
# number of rings (size 3 to 8) (size 9 to 14) (size 15 to 20)
#    0.000    1.931    0.000    3.517    4.828    5.517 
#    0.000    0.690    0.000    4.138    0.000    0.000 
#    0.000    0.000    0.000    0.000    0.000    0.000 
#
# Total GULP energy -161515.363651 kJ/mol
# GULP energy per Si atom -5569.495298 kJ/mol
# Density = 2.038086 g / cm^3
# Si number density = 20.427356 Si / 1000 Ang^3
#
#
#
# Elastic Constant Matrix: (Units=GPa)
#
#
# Indices 1 2 3 4 5 6 
#
# 1 54.2477 6.2240 12.1802 0.0001 -6.5759 0.0005
# 2 6.2240 65.2679 26.0705 0.0002 1.5751 0.0010
# 3 12.1802 26.0705 66.8940 0.0000 -9.9888 0.0001
# 4 0.0001 0.0002 0.0000 20.5612 0.0000 6.2259
# 5 -6.5759 1.5751 -9.9888 0.0000 28.0810 0.0001
# 6 0.0005 0.0010 0.0001 6.2259 0.0001 24.4306
#
#
#
# Elastic Compliance Matrix: (Units=1/GPa)
#
#
# Indices 1 2 3 4 5 6 
#
# 1 0.019582 -0.000891 -0.002668 0.000000 0.003687 0.000000
# 2 -0.000891 0.018565 -0.007667 0.000000 -0.003977 -0.000001
# 3 -0.002668 -0.007667 0.019426 0.000000 0.006715 0.000000
# 4 0.000000 0.000000 0.000000 0.052702 0.000000 -0.013431
# 5 0.003687 -0.003977 0.006715 0.000000 0.039086 0.000000
# 6 0.000000 -0.000001 0.000000 -0.013431 0.000000 0.044355
#
#
# Mechanical properties :
#
#
# Convention : Reuss Voigt Hill
#
# Bulk Modulus (GPa) = 28.47266 30.59544 29.53405
# Shear Modulus (GPa) = 21.94194 24.07689 23.00941
#
# Velocity S-wave (km/s) = 3.28097 3.43688 3.35983
# Velocity P-wave (km/s) = 5.32182 5.54615 5.43514
#
# Compressibility (1/GPa) = 0.03512141
#
# Stress axis : x y z
#
# Youngs Moduli (GPa) = 51.06713 53.86523 51.47858
#
# Poissons Ratio (x) = 0.04797 0.13734
# Poissons Ratio (y) = 0.04548 0.39468
# Poissons Ratio (z) = 0.13624 0.41298
#
# Static dielectric constant tensor:
#      x y z
#    x 1.716520 0.000000 0.003010 
#    y 0.000000 1.734610 0.000000 
#    z 0.003010 0.000000 1.782420 
# 
# From -- ./inp_files/314768.got.cif
#   From: 2010.05.17/outbox.cif.g08.bks.cpg/sg12_158_cif.got.tgz:314768.got - 2010.06.03 13:09:07.
