data_PCOD9199447
_publ_section_title
;
Structure prediction by ZEFSAII (Michael W. Deem and Ramdas Pophale) SiO2 
 PCOD9199447
Probable space group: C 2/M
;
_chemical_formula_sum "Si O2"
_cell_formula_units_Z 64
_cell_length_a 30.643709
_cell_length_b 19.308256
_cell_length_c 16.007231
_cell_angle_alpha 90.000000
_cell_angle_beta 19.557478
_cell_angle_gamma 90.000000
_cell_volume 3170.474024
_symmetry_space_group_name_H-M "C 2/M"
_symmetry_group_IT_number 12
_symmetry_cell_setting 'monoclinic'
loop_
_space_group_symop_operation_xyz
x,y,z
-x,y,-z
-x,-y,-z
x,-y,z
1/2+x,1/2+y,z
1/2-x,1/2+y,-z
1/2-x,1/2-y,-z
1/2+x,1/2-y,z
loop_
_atom_site_type_symbol
_atom_site_label
_atom_site_fract_x
_atom_site_fract_y
_atom_site_fract_z
Si Si1 0.043100 0.324003 0.146958
Si Si2 0.704411 0.919839 0.125090
Si Si3 0.857050 0.920932 0.217967
Si Si4 0.508524 0.422858 0.309966
Si Si5 0.400612 0.677088 0.986472
Si Si6 0.296845 0.347367 0.791206
Si Si7 0.576388 0.917626 0.779334
Si Si8 0.631473 0.803788 0.374797
O O1 0.975603 0.380846 0.210696
O O2 0.969563 0.307172 0.366777
O O3 0.042927 0.252169 0.096211
O O4 0.188617 0.344265 0.913079
O O5 0.617862 0.870793 0.340660
O O6 0.661575 0.000000 0.190878
O O7 0.846207 0.923149 0.914156
O O8 0.728326 0.877950 0.996613
O O9 0.856156 0.866763 0.145139
O O10 0.732956 0.907115 0.501174
O O11 0.840062 0.000000 0.216907
O O12 0.000000 0.916880 0.000000
O O13 0.477707 0.500000 0.335895
O O14 0.410300 0.398765 0.558322
O O15 0.503626 0.368657 0.243112
O O16 0.273783 0.690400 0.159272
O O17 0.360854 0.270666 0.685282
O O18 0.553617 0.000000 0.813086
O O19 0.500000 0.893376 0.000000
#
# Coordination Sequence:
#
# PCOD9199447 Si02
#       8
#     8   8   8   8   8   8   8   8
#     4  11  23  40  63  89 119 161 201 245 305 369
#     4  10  22  39  60  86 118 160 211 255 299 356
#     4  10  21  39  65  94 122 158 205 252 302 366
#     4  10  20  36  60  87 120 159 201 253 306 355
#     4  10  20  38  62  88 117 156 203 248 295 362
#     4  11  22  37  58  89 124 157 199 256 305 361
#     4  10  23  44  66  91 127 164 200 251 315 375
#     4  10  21  40  59  84 120 163 204 243 304 360
#
# _framework density 20.186256
#
# number of rings (size 3 to 8) (size 9 to 14) (size 15 to 20)
#    0.000    1.750    2.500    1.500    0.000    5.000 
#    2.250    3.125    0.000    0.000    0.000    0.000 
#    0.000    0.000    0.000    0.000    0.000    0.000 
#
# Total GULP energy -178633.325411 kJ/mol
# GULP energy per Si atom -5582.291419 kJ/mol
# Density = 2.014031 g / cm^3
# Si number density = 20.186256 Si / 1000 Ang^3
#
#
#
# Elastic Constant Matrix: (Units=GPa)
#
#
# Indices 1 2 3 4 5 6 
#
# 1 33.9136 35.4867 21.2719 -0.0002 5.9717 0.0002
# 2 35.4867 88.1298 30.3049 -0.0001 -1.8200 0.0000
# 3 21.2719 30.3049 89.4603 -0.0002 12.3482 0.0000
# 4 -0.0002 -0.0001 -0.0002 36.4122 0.0001 6.7676
# 5 5.9717 -1.8200 12.3482 0.0001 26.0937 -0.0001
# 6 0.0002 0.0000 0.0000 6.7676 -0.0001 25.2913
#
#
#
# Elastic Compliance Matrix: (Units=1/GPa)
#
#
# Indices 1 2 3 4 5 6 
#
# 1 0.057318 -0.021782 -0.004526 0.000000 -0.012495 0.000000
# 2 -0.021782 0.021369 -0.003160 0.000000 0.007971 0.000000
# 3 -0.004526 -0.003160 0.014135 0.000000 -0.005874 0.000000
# 4 0.000000 0.000000 0.000000 0.028901 0.000000 -0.007733
# 5 -0.012495 0.007971 -0.005874 0.000000 0.044519 0.000000
# 6 0.000000 0.000000 0.000000 -0.007733 0.000000 0.041609
#
#
# Mechanical properties :
#
#
# Convention : Reuss Voigt Hill
#
# Bulk Modulus (GPa) = 29.50918 42.84787 36.17852
# Shear Modulus (GPa) = 17.98048 25.85546 21.91797
#
# Velocity S-wave (km/s) = 2.98775 3.58277 3.29870
# Velocity P-wave (km/s) = 5.15290 6.19575 5.69823
#
# Compressibility (1/GPa) = 0.03388776
#
# Stress axis : x y z
#
# Youngs Moduli (GPa) = 17.44665 46.79755 70.74441
#
# Poissons Ratio (x) = 1.01932 0.32017
# Poissons Ratio (y) = 0.38001 0.22353
# Poissons Ratio (z) = 0.07896 0.14786
#
# Static dielectric constant tensor:
#      x y z
#    x 1.696370 0.000000 -0.006830 
#    y 0.000000 1.725320 0.000000 
#    z -0.006830 0.000000 1.746530 
# 
# From -- ./inp_files/251928.got.cif
#   From: 2010.05.17/outbox.cif.g08.bks.cpg/sg12_126_cif.got.tgz:251928.got - 2010.06.03 13:09:07.
