data_PCOD9199947
_publ_section_title
;
Structure prediction by ZEFSAII (Michael W. Deem and Ramdas Pophale) SiO2 
 PCOD9199947
Probable space group: C 2/M
;
_chemical_formula_sum "Si O2"
_cell_formula_units_Z 58
_cell_length_a 26.013118
_cell_length_b 10.778631
_cell_length_c 9.225400
_cell_angle_alpha 90.000000
_cell_angle_beta 92.721567
_cell_angle_gamma 90.000000
_cell_volume 2583.753583
_symmetry_space_group_name_H-M "C 2/M"
_symmetry_group_IT_number 12
_symmetry_cell_setting 'monoclinic'
loop_
_space_group_symop_operation_xyz
x,y,z
-x,y,-z
-x,-y,-z
x,-y,z
1/2+x,1/2+y,z
1/2-x,1/2+y,-z
1/2-x,1/2-y,-z
1/2+x,1/2-y,z
loop_
_atom_site_type_symbol
_atom_site_label
_atom_site_fract_x
_atom_site_fract_y
_atom_site_fract_z
Si Si1 0.335169 0.144215 0.083771
Si Si2 0.332691 0.776512 0.543990
Si Si3 0.554127 0.223350 0.815345
Si Si4 0.071259 0.859009 0.537988
Si Si5 0.244639 0.357447 0.708357
Si Si6 0.039419 0.865334 0.199470
Si Si7 0.609872 0.866878 0.188772
Si Si8 0.500000 0.000000 0.000000
O O1 0.385635 0.217611 0.141098
O O2 0.282434 0.188223 0.147760
O O3 0.341239 0.000000 0.133211
O O4 0.341783 0.140559 0.912259
O O5 0.368457 0.668471 0.484179
O O6 0.291383 0.719323 0.649385
O O7 0.301285 0.845872 0.415907
O O8 0.370606 0.860241 0.645322
O O9 0.554251 0.246123 0.640669
O O10 0.519085 0.340717 0.853766
O O11 0.526269 0.109094 0.892278
O O12 0.044514 0.859290 0.376610
O O13 0.064983 0.000000 0.595803
O O14 0.260830 0.500000 0.727696
O O15 0.074355 0.750568 0.155629
O O16 0.058613 0.000000 0.158074
O O17 0.582110 0.000000 0.152427
#
# Coordination Sequence:
#
# PCOD9199947 Si02
#       8
#     8   8   8   8   8   8   8   2
#     4  10  21  38  60  87 127 172 213 262 323 385
#     4  10  20  37  63  96 126 160 214 275 321 390
#     4  12  22  40  63  87 126 173 214 263 320 388
#     4  10  21  41  65  93 128 167 212 270 336 395
#     4  10  20  36  62  91 124 166 212 263 332 391
#     4  10  23  41  65  96 130 168 215 274 332 392
#     4  10  22  40  65  92 129 174 215 266 328 387
#     4  12  28  40  60  88 132 172 218 278 320 376
#
# _framework density 22.447960999999999
#
# number of rings (size 3 to 8) (size 9 to 14) (size 15 to 20)
#    0.000    1.655    2.069    2.483    2.897    2.207 
#    4.966    6.897    0.000    0.000    0.000    0.000 
#    0.000    0.000    0.000    0.000    0.000    0.000 
#
# Total GULP energy -161531.261366 kJ/mol
# GULP energy per Si atom -5570.043495 kJ/mol
# Density = 2.239687 g / cm^3
# Si number density = 22.447961 Si / 1000 Ang^3
#
#
#
# Elastic Constant Matrix: (Units=GPa)
#
#
# Indices 1 2 3 4 5 6 
#
# 1 65.4132 32.5459 15.5848 0.0000 -16.6004 0.0000
# 2 32.5459 127.8736 49.8029 0.0000 -8.8125 0.0000
# 3 15.5848 49.8029 91.5109 0.0000 -25.3226 0.0000
# 4 0.0000 0.0000 0.0000 35.0577 0.0000 -5.7986
# 5 -16.6004 -8.8125 -25.3226 0.0000 38.3565 0.0000
# 6 0.0000 0.0000 0.0000 -5.7986 0.0000 18.1725
#
#
#
# Elastic Compliance Matrix: (Units=1/GPa)
#
#
# Indices 1 2 3 4 5 6 
#
# 1 0.019541 -0.005084 0.001781 0.000000 0.008465 0.000000
# 2 -0.005084 0.011324 -0.006345 0.000000 -0.003788 0.000000
# 3 0.001781 -0.006345 0.016992 0.000000 0.010531 0.000000
# 4 0.000000 0.000000 0.000000 0.030114 0.000000 0.009609
# 5 0.008465 -0.003788 0.010531 0.000000 0.035817 0.000000
# 6 0.000000 0.000000 0.000000 0.009609 0.000000 0.058094
#
#
# Mechanical properties :
#
#
# Convention : Reuss Voigt Hill
#
# Bulk Modulus (GPa) = 35.01281 53.40721 44.21001
# Shear Modulus (GPa) = 24.91310 30.77495 27.84403
#
# Velocity S-wave (km/s) = 3.33500 3.70665 3.52573
# Velocity P-wave (km/s) = 5.51914 6.49324 6.02590
#
# Compressibility (1/GPa) = 0.02856098
#
# Stress axis : x y z
#
# Youngs Moduli (GPa) = 51.17534 88.30466 58.85240
#
# Poissons Ratio (x) = 0.44892 -0.10483
# Poissons Ratio (y) = 0.26016 0.37344
# Poissons Ratio (z) = -0.09116 0.56033
#
# Static dielectric constant tensor:
#      x y z
#    x 1.763290 0.000000 -0.074940 
#    y 0.000000 1.820030 0.000000 
#    z -0.074940 0.000000 1.870420 
# 
# From -- ./inp_files/109958.got.cif
#   From: 2010.05.17/outbox.cif.g08.bks.cpg/sg12_55_cif.got.tgz:109958.got - 2010.06.03 13:09:07.
