data_PCOD9199961
_publ_section_title
;
Structure prediction by ZEFSAII (Michael W. Deem and Ramdas Pophale) SiO2 
 PCOD9199961
Probable space group: C 2/M
;
_chemical_formula_sum "Si O2"
_cell_formula_units_Z 56
_cell_length_a 12.964542
_cell_length_b 20.375404
_cell_length_c 12.537822
_cell_angle_alpha 90.000000
_cell_angle_beta 65.889003
_cell_angle_gamma 90.000000
_cell_volume 3023.013614
_symmetry_space_group_name_H-M "C 2/M"
_symmetry_group_IT_number 12
_symmetry_cell_setting 'monoclinic'
loop_
_space_group_symop_operation_xyz
x,y,z
-x,y,-z
-x,-y,-z
x,-y,z
1/2+x,1/2+y,z
1/2-x,1/2+y,-z
1/2-x,1/2-y,-z
1/2+x,1/2-y,z
loop_
_atom_site_type_symbol
_atom_site_label
_atom_site_fract_x
_atom_site_fract_y
_atom_site_fract_z
Si Si1 0.131590 0.783668 0.419457
Si Si2 0.225930 0.647547 0.464630
Si Si3 0.518067 0.077028 0.663385
Si Si4 0.366024 0.319049 0.042574
Si Si5 0.247243 0.578024 0.247223
Si Si6 0.726764 0.311611 0.154359
Si Si7 0.902225 0.575513 0.128249
O O1 0.195833 0.715961 0.419706
O O2 0.192004 0.836920 0.470854
O O3 0.147295 0.799749 0.289003
O O4 0.000000 0.777422 0.500000
O O5 0.108593 0.617479 0.557621
O O6 0.279638 0.600244 0.353019
O O7 0.387015 0.094239 0.703171
O O8 0.547737 0.085820 0.775128
O O9 0.530954 0.000000 0.630499
O O10 0.313452 0.379259 0.131996
O O11 0.306449 0.252317 0.108292
O O12 0.500000 0.315932 0.000000
O O13 0.336450 0.323204 0.930062
O O14 0.260654 0.500000 0.225585
O O15 0.804022 0.373816 0.147201
O O16 0.863592 0.500000 0.137207
O O17 0.000000 0.585145 0.000000
#
# Coordination Sequence:
#
# PCOD9199961 Si02
#       7
#     8   8   8   8   8   8   8
#     4  11  24  39  65  94 124 163 206 258 311 370
#     4  11  22  39  63  92 125 164 205 256 313 370
#     4  10  20  36  62  92 123 159 204 257 311 363
#     4  11  26  42  65  91 124 165 207 253 313 372
#     4  11  23  40  62  93 129 165 209 257 309 367
#     4  11  23  44  64  92 123 160 205 259 307 368
#     4  10  20  37  63  92 122 158 203 256 309 361
#
# _framework density 18.524562
#
# number of rings (size 3 to 8) (size 9 to 14) (size 15 to 20)
#    0.000    1.286    2.857    3.000    2.000    4.286 
#    0.000    0.000    0.000    2.143    0.000    0.000 
#    0.000    0.000    0.000    0.000    0.000    0.000 
#
# Total GULP energy -156518.658010 kJ/mol
# GULP energy per Si atom -5589.952072 kJ/mol
# Density = 1.848240 g / cm^3
# Si number density = 18.524562 Si / 1000 Ang^3
#
#
#
# Elastic Constant Matrix: (Units=GPa)
#
#
# Indices 1 2 3 4 5 6 
#
# 1 48.6624 12.9125 19.4957 0.0000 3.3267 0.0000
# 2 12.9125 50.7405 42.8025 0.0000 3.2051 0.0000
# 3 19.4957 42.8025 137.1875 0.0000 10.4184 0.0000
# 4 0.0000 0.0000 0.0000 74.0774 0.0000 -63.5105
# 5 3.3267 3.2051 10.4184 0.0000 14.7712 0.0000
# 6 0.0000 0.0000 0.0000 -63.5105 0.0000 91.9986
#
#
#
# Elastic Compliance Matrix: (Units=1/GPa)
#
#
# Indices 1 2 3 4 5 6 
#
# 1 0.022523 -0.004118 -0.001689 0.000000 -0.002988 0.000000
# 2 -0.004118 0.027501 -0.008043 0.000000 0.000633 0.000000
# 3 -0.001689 -0.008043 0.010436 0.000000 -0.005235 0.000000
# 4 0.000000 0.000000 0.000000 0.033076 0.000000 0.022834
# 5 -0.002988 0.000633 -0.005235 0.000000 0.071927 0.000000
# 6 0.000000 0.000000 0.000000 0.022834 0.000000 0.026633
#
#
# Mechanical properties :
#
#
# Convention : Reuss Voigt Hill
#
# Bulk Modulus (GPa) = 30.52507 43.00132 36.76320
# Shear Modulus (GPa) = 21.67149 46.92809 34.29979
#
# Velocity S-wave (km/s) = 3.42406 5.03864 4.30767
# Velocity P-wave (km/s) = 5.66976 7.55738 6.68058
#
# Compressibility (1/GPa) = 0.03275995
#
# Stress axis : x y z
#
# Youngs Moduli (GPa) = 44.39819 36.36225 95.81875
#
# Poissons Ratio (x) = 0.14975 0.16184
# Poissons Ratio (y) = 0.18284 0.77069
# Poissons Ratio (z) = 0.07499 0.29247
#
# Static dielectric constant tensor:
#      x y z
#    x 1.605740 0.000000 0.026370 
#    y 0.000000 1.635750 0.000000 
#    z 0.026370 0.000000 1.649510 
# 
# From -- ./inp_files/133856.got.cif
#   From: 2010.05.17/outbox.cif.g08.bks.cpg/sg12_67_cif.got.tgz:133856.got - 2010.06.03 13:09:07.
