data_PCOD9199603
_publ_section_title
;
Structure prediction by ZEFSAII (Michael W. Deem and Ramdas Pophale) SiO2 
 PCOD9199603
Probable space group: C 2/M
;
_chemical_formula_sum "Si O2"
_cell_formula_units_Z 56
_cell_length_a 15.257926
_cell_length_b 22.346087
_cell_length_c 15.351131
_cell_angle_alpha 90.000000
_cell_angle_beta 32.885416
_cell_angle_gamma 90.000000
_cell_volume 2841.880268
_symmetry_space_group_name_H-M "C 2/M"
_symmetry_group_IT_number 12
_symmetry_cell_setting 'monoclinic'
loop_
_space_group_symop_operation_xyz
x,y,z
-x,y,-z
-x,-y,-z
x,-y,z
1/2+x,1/2+y,z
1/2-x,1/2+y,-z
1/2-x,1/2-y,-z
1/2+x,1/2-y,z
loop_
_atom_site_type_symbol
_atom_site_label
_atom_site_fract_x
_atom_site_fract_y
_atom_site_fract_z
Si Si1 0.301360 0.634366 0.416884
Si Si2 0.375134 0.570392 0.807544
Si Si3 0.792089 0.644493 0.907320
Si Si4 0.126499 0.674353 0.719394
Si Si5 0.484819 0.069908 0.616320
Si Si6 0.805440 0.929601 0.674517
Si Si7 0.476698 0.295647 0.120128
O O1 0.450059 0.600507 0.336912
O O2 0.240122 0.682010 0.539541
O O3 0.153108 0.590328 0.519746
O O4 0.365644 0.662069 0.273150
O O5 0.397115 0.500000 0.791400
O O6 0.279984 0.584155 0.798096
O O7 0.285706 0.593981 0.966888
O O8 0.950220 0.665397 0.825813
O O9 0.850144 0.613394 0.769614
O O10 0.657844 0.695585 0.006826
O O11 0.199636 0.616251 0.706724
O O12 0.104683 0.730755 0.800730
O O13 0.500000 0.077067 0.500000
O O14 0.452013 0.000000 0.662479
O O15 0.000000 0.922267 0.500000
O O16 0.769163 0.000000 0.687033
O O17 0.500000 0.311863 0.000000
#
# Coordination Sequence:
#
# PCOD9199603 Si02
#       7
#     8   8   8   8   8   8   8
#     4  10  21  39  61  86 120 159 207 250 304 362
#     4  10  20  36  60  90 127 162 196 244 309 371
#     4  10  23  39  59  88 126 158 204 254 308 363
#     4  11  23  40  63  88 121 161 209 251 307 369
#     4  10  20  36  61  91 122 155 201 252 307 365
#     4  10  21  38  62  95 128 159 198 254 308 371
#     4  11  24  42  62  84 118 163 209 259 307 357
#
# _framework density 19.705264
#
# number of rings (size 3 to 8) (size 9 to 14) (size 15 to 20)
#    0.000    1.714    1.429    2.571    2.000    2.857 
#    0.000    3.571    0.000    6.857    0.000    0.000 
#    0.000    0.000    0.000    0.000    0.000    0.000 
#
# Total GULP energy -156224.201914 kJ/mol
# GULP energy per Si atom -5579.435783 kJ/mol
# Density = 1.966041 g / cm^3
# Si number density = 19.705264 Si / 1000 Ang^3
#
#
#
# Elastic Constant Matrix: (Units=GPa)
#
#
# Indices 1 2 3 4 5 6 
#
# 1 74.1077 34.1237 24.1113 0.0026 11.5478 -0.0023
# 2 34.1237 88.7944 28.8294 0.0137 -4.1857 0.0027
# 3 24.1113 28.8294 95.6062 -0.0004 6.1282 -0.0008
# 4 0.0026 0.0137 -0.0004 6.0745 -0.0037 2.6339
# 5 11.5478 -4.1857 6.1282 -0.0037 36.6187 0.0008
# 6 -0.0023 0.0027 -0.0008 2.6339 0.0008 27.9324
#
#
#
# Elastic Compliance Matrix: (Units=1/GPa)
#
#
# Indices 1 2 3 4 5 6 
#
# 1 0.018188 -0.006558 -0.002217 0.000002 -0.006114 0.000002
# 2 -0.006558 0.015007 -0.003148 -0.000029 0.004310 0.000001
# 3 -0.002217 -0.003148 0.012076 0.000008 -0.001681 0.000000
# 4 0.000002 -0.000029 0.000008 0.171640 0.000012 -0.016185
# 5 -0.006114 0.004310 -0.001681 0.000012 0.030011 -0.000003
# 6 0.000002 0.000001 0.000000 -0.016185 -0.000003 0.037327
#
#
# Mechanical properties :
#
#
# Convention : Reuss Voigt Hill
#
# Bulk Modulus (GPa) = 46.67516 48.07080 47.37298
# Shear Modulus (GPa) = 15.86114 25.55471 20.70792
#
# Velocity S-wave (km/s) = 2.84019 3.60508 3.24525
# Velocity P-wave (km/s) = 5.87313 6.46349 6.17537
#
# Compressibility (1/GPa) = 0.02142467
#
# Stress axis : x y z
#
# Youngs Moduli (GPa) = 54.98231 66.63411 82.81040
#
# Poissons Ratio (x) = 0.43697 0.18363
# Poissons Ratio (y) = 0.36056 0.26067
# Poissons Ratio (z) = 0.12192 0.20975
#
# Static dielectric constant tensor:
#      x y z
#    x 1.739610 0.000010 -0.029510 
#    y 0.000010 1.674870 -0.000010 
#    z -0.029510 -0.000010 1.757170 
# 
# From -- ./inp_files/218662.got.cif
#   From: 2010.05.17/outbox.cif.g08.bks.cpg/sg12_110_cif.got.tgz:218662.got - 2010.06.03 13:09:07.
