data_PCOD9199886
_publ_section_title
;
Structure prediction by ZEFSAII (Michael W. Deem and Ramdas Pophale) SiO2 
 PCOD9199886
Probable space group: C 2/M
;
_chemical_formula_sum "Si O2"
_cell_formula_units_Z 64
_cell_length_a 9.470622
_cell_length_b 18.964502
_cell_length_c 22.142150
_cell_angle_alpha 90.000000
_cell_angle_beta 52.314399
_cell_angle_gamma 90.000000
_cell_volume 3147.192178
_symmetry_space_group_name_H-M "C 2/M"
_symmetry_group_IT_number 12
_symmetry_cell_setting 'monoclinic'
loop_
_space_group_symop_operation_xyz
x,y,z
-x,y,-z
-x,-y,-z
x,-y,z
1/2+x,1/2+y,z
1/2-x,1/2+y,-z
1/2-x,1/2-y,-z
1/2+x,1/2-y,z
loop_
_atom_site_type_symbol
_atom_site_label
_atom_site_fract_x
_atom_site_fract_y
_atom_site_fract_z
Si Si1 0.718769 0.708225 0.793555
Si Si2 0.351643 0.790187 0.891894
Si Si3 0.915680 0.171231 0.582501
Si Si4 0.691565 0.858638 0.974825
Si Si5 0.021528 0.083670 0.317560
Si Si6 0.519266 0.581418 0.185085
Si Si7 0.104058 0.581771 0.409649
Si Si8 0.044879 0.709713 0.624580
O O1 0.557091 0.764274 0.839257
O O2 0.790312 0.690743 0.841242
O O3 0.635913 0.637448 0.786555
O O4 0.884170 0.733439 0.710453
O O5 0.238277 0.720440 0.939331
O O6 0.314092 0.849647 0.951612
O O7 0.900765 0.120473 0.643807
O O8 0.044603 0.234279 0.570548
O O9 0.726293 0.203803 0.613855
O O10 0.000000 0.137708 0.500000
O O11 0.840234 0.907063 0.905347
O O12 0.500000 0.879671 0.000000
O O13 0.099569 0.099664 0.230426
O O14 0.810611 0.102027 0.366837
O O15 0.033902 0.000000 0.323026
O O16 0.460833 0.500000 0.202935
O O17 0.100330 0.500000 0.390669
O O18 0.008958 0.634132 0.388405
O O19 0.000000 0.586429 0.500000
#
# Coordination Sequence:
#
# PCOD9199886 Si02
#       8
#     8   8   8   8   8   8   8   8
#     4  11  22  38  63  89 125 159 205 258 307 368
#     4  10  21  36  58  94 121 157 201 254 310 357
#     4  12  26  41  61  92 132 168 207 265 323 374
#     4  10  20  36  62  87 126 159 202 251 303 367
#     4  10  22  43  65  88 124 167 213 257 314 378
#     4  10  23  41  64  89 122 167 206 251 310 371
#     4  10  20  38  65  91 119 162 212 256 306 374
#     4  12  24  38  62  92 127 165 209 259 318 380
#
# _framework density 20.335585999999999
#
# number of rings (size 3 to 8) (size 9 to 14) (size 15 to 20)
#    0.000    1.375    2.500    3.000    3.500    2.000 
#    0.000    1.250    0.000    0.000    0.000    0.000 
#    0.000    0.000    0.000    0.000    0.000    0.000 
#
# Total GULP energy -178864.290357 kJ/mol
# GULP energy per Si atom -5589.509074 kJ/mol
# Density = 2.028930 g / cm^3
# Si number density = 20.335586 Si / 1000 Ang^3
#
#
#
# Elastic Constant Matrix: (Units=GPa)
#
#
# Indices 1 2 3 4 5 6 
#
# 1 116.3235 30.6154 40.5548 0.0001 24.0405 -0.0001
# 2 30.6154 54.9808 25.6012 0.0001 19.9697 -0.0001
# 3 40.5548 25.6012 116.0583 0.0002 19.1723 -0.0003
# 4 0.0001 0.0001 0.0002 25.3952 -0.0002 10.5041
# 5 24.0405 19.9697 19.1723 -0.0002 41.5713 0.0002
# 6 -0.0001 -0.0001 -0.0003 10.5041 0.0002 23.6646
#
#
#
# Elastic Compliance Matrix: (Units=1/GPa)
#
#
# Indices 1 2 3 4 5 6 
#
# 1 0.011189 -0.003799 -0.002494 0.000000 -0.003495 0.000000
# 2 -0.003799 0.024610 -0.002718 0.000000 -0.008371 0.000000
# 3 -0.002494 -0.002718 0.010428 0.000000 -0.002061 0.000000
# 4 0.000000 0.000000 0.000000 0.048233 0.000000 -0.021409
# 5 -0.003495 -0.008371 -0.002061 0.000000 0.031048 0.000000
# 6 0.000000 0.000000 0.000000 -0.021409 0.000000 0.051760
#
#
# Mechanical properties :
#
#
# Convention : Reuss Voigt Hill
#
# Bulk Modulus (GPa) = 35.45727 53.43391 44.44559
# Shear Modulus (GPa) = 24.42687 30.83230 27.62959
#
# Velocity S-wave (km/s) = 3.46958 3.89803 3.69003
# Velocity P-wave (km/s) = 5.79004 6.82588 6.32919
#
# Compressibility (1/GPa) = 0.02820296
#
# Stress axis : x y z
#
# Youngs Moduli (GPa) = 89.37705 40.63387 95.89549
#
# Poissons Ratio (x) = 0.15439 0.23918
# Poissons Ratio (y) = 0.33958 0.26066
# Poissons Ratio (z) = 0.22293 0.11045
#
# Static dielectric constant tensor:
#      x y z
#    x 1.687130 0.000000 -0.006020 
#    y 0.000000 1.716870 0.000000 
#    z -0.006020 0.000000 1.761810 
# 
# From -- ./inp_files/301693.got.cif
#   From: 2010.05.17/outbox.cif.g08.bks.cpg/sg12_151_cif.got.tgz:301693.got - 2010.06.03 13:09:07.
