data_PCOD9199762
_publ_section_title
;
Structure prediction by ZEFSAII (Michael W. Deem and Ramdas Pophale) SiO2 
 PCOD9199762
Probable space group: C 2/M
;
_chemical_formula_sum "Si O2"
_cell_formula_units_Z 58
_cell_length_a 11.259047
_cell_length_b 24.302804
_cell_length_c 10.559835
_cell_angle_alpha 90.000000
_cell_angle_beta 111.017312
_cell_angle_gamma 90.000000
_cell_volume 2697.220749
_symmetry_space_group_name_H-M "C 2/M"
_symmetry_group_IT_number 12
_symmetry_cell_setting 'monoclinic'
loop_
_space_group_symop_operation_xyz
x,y,z
-x,y,-z
-x,-y,-z
x,-y,z
1/2+x,1/2+y,z
1/2-x,1/2+y,-z
1/2-x,1/2-y,-z
1/2+x,1/2-y,z
loop_
_atom_site_type_symbol
_atom_site_label
_atom_site_fract_x
_atom_site_fract_y
_atom_site_fract_z
Si Si1 0.500000 0.000000 0.500000
Si Si2 0.958514 0.198672 0.761161
Si Si3 0.940043 0.321464 0.782277
Si Si4 0.152523 0.938026 0.571317
Si Si5 0.723953 0.160089 0.529085
Si Si6 0.867994 0.896746 0.920932
Si Si7 0.705798 0.634574 0.826452
Si Si8 0.889414 0.597408 0.290399
O O1 0.530751 0.951225 0.617542
O O2 0.988780 0.259769 0.820078
O O3 0.841066 0.197522 0.618224
O O4 0.911834 0.156351 0.853551
O O5 0.085963 0.173910 0.748418
O O6 0.857140 0.320282 0.620530
O O7 0.839664 0.337021 0.851634
O O8 0.040174 0.370144 0.795503
O O9 0.213123 0.897202 0.493197
O O10 0.192178 0.916461 0.724905
O O11 0.000000 0.936407 0.500000
O O12 0.197299 0.000000 0.565746
O O13 0.637735 0.144899 0.615690
O O14 0.750937 0.923647 0.802691
O O15 0.813262 0.880207 0.035709
O O16 0.000000 0.928022 0.000000
#
# Coordination Sequence:
#
# PCOD9199762 Si02
#       8
#     2   8   8   8   8   8   8   8
#     4  12  24  48  70  98 130 180 208 276 336 386
#     4  10  21  38  62  90 132 175 212 269 324 388
#     4  11  23  37  62  99 126 171 216 270 327 388
#     4  10  20  36  61  90 122 160 211 274 330 373
#     4  10  20  39  59  91 128 170 213 272 324 395
#     4   9  22  46  66  93 133 174 219 269 313 395
#     4  10  22  41  60  92 129 169 220 266 321 392
#     4  11  24  43  68  95 134 167 227 266 325 396
#
# _framework density 21.503615
#
# number of rings (size 3 to 8) (size 9 to 14) (size 15 to 20)
#    0.000    1.793    2.759    0.414    4.828    1.103 
#   11.172    0.345    0.000    0.828    0.000    0.000 
#    0.000    0.000    0.000    0.000    0.000    0.000 
#
# Total GULP energy -161708.582406 kJ/mol
# GULP energy per Si atom -5576.158014 kJ/mol
# Density = 2.145467 g / cm^3
# Si number density = 21.503615 Si / 1000 Ang^3
#
#
#
# Elastic Constant Matrix: (Units=GPa)
#
#
# Indices 1 2 3 4 5 6 
#
# 1 97.5919 18.6324 10.2193 0.0000 -9.8293 0.0000
# 2 18.6324 98.7157 -13.8614 0.0000 4.7637 0.0000
# 3 10.2193 -13.8614 50.0959 0.0000 6.0358 0.0000
# 4 0.0000 0.0000 0.0000 -3.0562 0.0000 -2.7945
# 5 -9.8293 4.7637 6.0358 0.0000 35.3772 0.0000
# 6 0.0000 0.0000 0.0000 -2.7945 0.0000 -11.5535
#
#
#
# Elastic Compliance Matrix: (Units=1/GPa)
#
#
# Indices 1 2 3 4 5 6 
#
# 1 0.011618 -0.002916 -0.003689 0.000000 0.004250 0.000000
# 2 -0.002916 0.011406 0.004118 0.000000 -0.003049 0.000000
# 3 -0.003689 0.004118 0.022507 0.000000 -0.005419 0.000000
# 4 0.000000 0.000000 0.000000 -0.420120 0.000000 0.101616
# 5 0.004250 -0.003049 -0.005419 0.000000 0.030783 0.000000
# 6 0.000000 0.000000 0.000000 0.101616 0.000000 -0.111132
#
#
# Mechanical properties :
#
#
# Convention : Reuss Voigt Hill
#
# Bulk Modulus (GPa) = 24.65665 30.70933 27.68299
# Shear Modulus (GPa) = -11.45613 19.58107 4.06247
#
# Velocity S-wave (km/s) = -2.31065 3.02088 1.37597
# Velocity P-wave (km/s) = 2.09102 5.14584 3.92759
#
# Compressibility (1/GPa) = 0.04055701
#
# Stress axis : x y z
#
# Youngs Moduli (GPa) = 86.07500 87.67442 44.43136
#
# Poissons Ratio (x) = 0.25565 0.16390
# Poissons Ratio (y) = 0.25099 -0.18297
# Poissons Ratio (z) = 0.31752 -0.36105
#
# Static dielectric constant tensor:
#      x y z
#    x 1.823250 0.000000 0.033490 
#    y 0.000000 1.407010 0.000000 
#    z 0.033490 0.000000 1.813560 
# 
# From -- ./inp_files/135445.got.cif
#   From: 2010.05.17/outbox.cif.g08.bks.cpg/sg12_68_cif.got.tgz:135445.got - 2010.06.03 13:09:07.
