data_PCOD9199763
_publ_section_title
;
Structure prediction by ZEFSAII (Michael W. Deem and Ramdas Pophale) SiO2 
 PCOD9199763
Probable space group: C 2/M
;
_chemical_formula_sum "Si O2"
_cell_formula_units_Z 48
_cell_length_a 28.977711
_cell_length_b 8.557956
_cell_length_c 10.363286
_cell_angle_alpha 90.000000
_cell_angle_beta 89.277140
_cell_angle_gamma 90.000000
_cell_volume 2569.786513
_symmetry_space_group_name_H-M "C 2/M"
_symmetry_group_IT_number 12
_symmetry_cell_setting 'monoclinic'
loop_
_space_group_symop_operation_xyz
x,y,z
-x,y,-z
-x,-y,-z
x,-y,z
1/2+x,1/2+y,z
1/2-x,1/2+y,-z
1/2-x,1/2-y,-z
1/2+x,1/2-y,z
loop_
_atom_site_type_symbol
_atom_site_label
_atom_site_fract_x
_atom_site_fract_y
_atom_site_fract_z
Si Si1 0.026667 0.310484 0.368461
Si Si2 0.223131 0.685570 0.376489
Si Si3 0.274935 0.813317 0.125929
Si Si4 0.126139 0.813794 0.282105
Si Si5 0.530905 0.810315 0.876658
Si Si6 0.626373 0.811745 0.988177
O O1 0.029877 0.500000 0.364976
O O2 0.078330 0.246976 0.346173
O O3 0.000000 0.266507 0.500000
O O4 0.994513 0.256360 0.250935
O O5 0.219561 0.500000 0.386376
O O6 0.250000 0.750000 0.500000
O O7 0.253103 0.733085 0.250766
O O8 0.171641 0.752252 0.354462
O O9 0.268698 0.000000 0.137156
O O10 0.250000 0.750000 0.000000
O O11 0.328420 0.779364 0.097215
O O12 0.128324 0.757839 0.132224
O O13 0.126618 0.000000 0.284121
O O14 0.532524 0.000000 0.868420
O O15 0.500000 0.768588 0.000000
O O16 0.582049 0.756451 0.909557
O O17 0.623187 0.000000 0.005817
#
# Coordination Sequence:
#
# PCOD9199763 Si02
#       6
#     8   8   8   8   8   8
#     4  10  21  38  62  90 121 161 207 255 311 377
#     4  12  26  45  67  92 127 166 211 265 321 386
#     4  11  22  37  62  95 129 166 211 260 313 372
#     4  12  24  39  62  90 124 163 206 256 319 383
#     4   9  16  31  58  87 116 151 200 251 294 353
#     4  10  20  36  61  90 122 164 212 259 306 366
#
# _framework density 18.678595000000001
#
# number of rings (size 3 to 8) (size 9 to 14) (size 15 to 20)
#    0.000    1.333    3.333    3.500    0.000    2.333 
#    0.000    5.000    0.000    0.000    0.000    0.000 
#    0.000    0.000    0.000    0.000    0.000    0.000 
#
# Total GULP energy -134063.174806 kJ/mol
# GULP energy per Si atom -5585.965617 kJ/mol
# Density = 1.863608 g / cm^3
# Si number density = 18.678595 Si / 1000 Ang^3
#
#
#
# Elastic Constant Matrix: (Units=GPa)
#
#
# Indices 1 2 3 4 5 6 
#
# 1 198.5025 66.5001 96.9216 0.0000 21.2327 0.0000
# 2 66.5001 68.5018 46.1651 0.0000 -2.3036 0.0000
# 3 96.9216 46.1651 166.6786 0.0000 15.5350 0.0000
# 4 0.0000 0.0000 0.0000 25.8905 0.0000 -2.3300
# 5 21.2327 -2.3036 15.5350 0.0000 28.5283 0.0000
# 6 0.0000 0.0000 0.0000 -2.3300 0.0000 28.6755
#
#
#
# Elastic Compliance Matrix: (Units=1/GPa)
#
#
# Indices 1 2 3 4 5 6 
#
# 1 0.009703 -0.007646 -0.002943 0.000000 -0.006237 0.000000
# 2 -0.007646 0.024508 -0.003220 0.000000 0.009423 0.000000
# 3 -0.002943 -0.003220 0.008873 0.000000 -0.002901 0.000000
# 4 0.000000 0.000000 0.000000 0.038909 0.000000 0.003162
# 5 -0.006237 0.009423 -0.002901 0.000000 0.042035 0.000000
# 6 0.000000 0.000000 0.000000 0.003162 0.000000 0.035130
#
#
# Mechanical properties :
#
#
# Convention : Reuss Voigt Hill
#
# Bulk Modulus (GPa) = 64.66019 94.76184 79.71101
# Shear Modulus (GPa) = 26.05077 31.55861 28.80469
#
# Velocity S-wave (km/s) = 3.73860 4.11489 3.93125
# Velocity P-wave (km/s) = 7.30264 8.56851 7.96078
#
# Compressibility (1/GPa) = 0.01546547
#
# Stress axis : x y z
#
# Youngs Moduli (GPa) = 103.05594 40.80348 112.69559
#
# Poissons Ratio (x) = 0.31198 0.33172
# Poissons Ratio (y) = 0.78796 0.36290
# Poissons Ratio (z) = 0.30334 0.13139
#
# Static dielectric constant tensor:
#      x y z
#    x 1.614170 0.000000 0.011480 
#    y 0.000000 1.642140 0.000000 
#    z 0.011480 0.000000 1.613410 
# 
# From -- ./inp_files/108630.got.cif
#   From: 2010.05.17/outbox.cif.g08.bks.cpg/sg12_55_cif.got.tgz:108630.got - 2010.06.03 13:09:07.
