data_PCOD9199616
_publ_section_title
;
Structure prediction by ZEFSAII (Michael W. Deem and Ramdas Pophale) SiO2 
 PCOD9199616
Probable space group: C 2/M
;
_chemical_formula_sum "Si O2"
_cell_formula_units_Z 48
_cell_length_a 12.387028
_cell_length_b 18.944770
_cell_length_c 13.032120
_cell_angle_alpha 90.000000
_cell_angle_beta 136.738030
_cell_angle_gamma 90.000000
_cell_volume 2095.919168
_symmetry_space_group_name_H-M "C 2/M"
_symmetry_group_IT_number 12
_symmetry_cell_setting 'monoclinic'
loop_
_space_group_symop_operation_xyz
x,y,z
-x,y,-z
-x,-y,-z
x,-y,z
1/2+x,1/2+y,z
1/2-x,1/2+y,-z
1/2-x,1/2-y,-z
1/2+x,1/2-y,z
loop_
_atom_site_type_symbol
_atom_site_label
_atom_site_fract_x
_atom_site_fract_y
_atom_site_fract_z
Si Si1 0.396096 0.791749 0.517868
Si Si2 0.584195 0.918498 0.179304
Si Si3 0.152244 0.082619 0.791472
Si Si4 0.831452 0.140987 0.493080
Si Si5 0.132485 0.303643 0.858140
Si Si6 0.654481 0.579645 0.037505
O O1 0.500000 0.823062 0.500000
O O2 0.261421 0.843092 0.465565
O O3 0.326367 0.716991 0.432910
O O4 0.505414 0.771234 0.691951
O O5 0.676417 0.900055 0.137733
O O6 0.728882 0.914897 0.360412
O O7 0.467418 0.857801 0.139806
O O8 0.523123 0.000000 0.134955
O O9 0.131165 0.092538 0.899055
O O10 0.009466 0.119229 0.634505
O O11 0.135522 0.000000 0.761213
O O12 0.250000 0.250000 0.000000
O O13 0.234257 0.355926 0.856963
O O14 0.720910 0.500000 0.093688
O O15 0.500000 0.582247 0.000000
#
# Coordination Sequence:
#
# PCOD9199616 Si02
#       6
#     8   8   8   8   8   8
#     4  10  22  38  59  88 126 171 212 262 325 390
#     4  10  21  39  66  97 130 166 214 273 329 392
#     4  10  20  36  63  94 122 162 212 267 328 386
#     4  10  20  36  60  91 127 164 208 265 325 387
#     4  11  24  43  63  95 129 173 216 275 329 390
#     4  10  23  43  63  87 126 175 223 271 323 389
#
# _framework density 22.901646
#
# number of rings (size 3 to 8) (size 9 to 14) (size 15 to 20)
#    0.000    1.833    0.000    3.500    2.333    2.000 
#    6.000    2.500    0.000    3.000    0.000    0.000 
#    0.000    0.000    0.000    0.000    0.000    0.000 
#
# Total GULP energy -134027.994095 kJ/mol
# GULP energy per Si atom -5584.499754 kJ/mol
# Density = 2.284952 g / cm^3
# Si number density = 22.901646 Si / 1000 Ang^3
#
#
#
# Elastic Constant Matrix: (Units=GPa)
#
#
# Indices 1 2 3 4 5 6 
#
# 1 166.7806 36.8011 17.4861 0.0000 18.2025 0.0000
# 2 36.8011 92.5508 44.4970 0.0000 9.8768 0.0000
# 3 17.4861 44.4970 70.9215 0.0000 9.3339 0.0000
# 4 0.0000 0.0000 0.0000 34.0031 0.0000 14.8672
# 5 18.2025 9.8768 9.3339 0.0000 31.5741 0.0000
# 6 0.0000 0.0000 0.0000 14.8672 0.0000 26.0751
#
#
#
# Elastic Compliance Matrix: (Units=1/GPa)
#
#
# Indices 1 2 3 4 5 6 
#
# 1 0.006880 -0.002546 0.000331 0.000000 -0.003268 0.000000
# 2 -0.002546 0.016543 -0.009639 0.000000 -0.000858 0.000000
# 3 0.000331 -0.009639 0.020491 0.000000 -0.003234 0.000000
# 4 0.000000 0.000000 0.000000 0.039175 0.000000 -0.022337
# 5 -0.003268 -0.000858 -0.003234 0.000000 0.034779 0.000000
# 6 0.000000 0.000000 0.000000 -0.022337 0.000000 0.051086
#
#
# Mechanical properties :
#
#
# Convention : Reuss Voigt Hill
#
# Bulk Modulus (GPa) = 49.48768 58.64679 54.06724
# Shear Modulus (GPa) = 25.07552 33.76170 29.41861
#
# Velocity S-wave (km/s) = 3.31255 3.84370 3.58797
# Velocity P-wave (km/s) = 6.02382 6.73516 6.38940
#
# Compressibility (1/GPa) = 0.02020705
#
# Stress axis : x y z
#
# Youngs Moduli (GPa) = 145.35713 60.44886 48.80108
#
# Poissons Ratio (x) = 0.15391 -0.01617
# Poissons Ratio (y) = 0.37010 0.47037
# Poissons Ratio (z) = -0.04816 0.58264
#
# Static dielectric constant tensor:
#      x y z
#    x 1.885300 0.000000 -0.005620 
#    y 0.000000 1.838600 0.000000 
#    z -0.005620 0.000000 1.929930 
# 
# From -- ./inp_files/208011.got.cif
#   From: 2010.05.17/outbox.cif.g08.bks.cpg/sg12_105_cif.got.tgz:208011.got - 2010.06.03 13:09:07.
