data_PCOD9199751
_publ_section_title
;
Structure prediction by ZEFSAII (Michael W. Deem and Ramdas Pophale) SiO2 
 PCOD9199751
Probable space group: C 2/M
;
_chemical_formula_sum "Si O2"
_cell_formula_units_Z 40
_cell_length_a 30.270202
_cell_length_b 18.144698
_cell_length_c 9.861427
_cell_angle_alpha 90.000000
_cell_angle_beta 154.982483
_cell_angle_gamma 90.000000
_cell_volume 2290.539120
_symmetry_space_group_name_H-M "C 2/M"
_symmetry_group_IT_number 12
_symmetry_cell_setting 'monoclinic'
loop_
_space_group_symop_operation_xyz
x,y,z
-x,y,-z
-x,-y,-z
x,-y,z
1/2+x,1/2+y,z
1/2-x,1/2+y,-z
1/2-x,1/2-y,-z
1/2+x,1/2-y,z
loop_
_atom_site_type_symbol
_atom_site_label
_atom_site_fract_x
_atom_site_fract_y
_atom_site_fract_z
Si Si1 0.541695 0.305284 0.260443
Si Si2 0.611508 0.084563 0.883342
Si Si3 0.790333 0.914975 0.150047
Si Si4 0.231532 0.293033 0.807055
Si Si5 0.846995 0.735949 0.870065
O O1 0.610181 0.368015 0.523513
O O2 0.619195 0.236219 0.447449
O O3 0.500000 0.332465 0.000000
O O4 0.447828 0.276643 0.091608
O O5 0.500000 0.096673 0.500000
O O6 0.612760 0.000000 0.938850
O O7 0.702337 0.090755 0.022675
O O8 0.630898 0.149220 0.045076
O O9 0.815831 0.000000 0.201054
O O10 0.744191 0.877107 0.886625
O O11 0.314424 0.268507 0.925602
O O12 0.250000 0.250000 0.000000
O O13 0.750000 0.750000 0.500000
#
# Coordination Sequence:
#
# PCOD9199751 Si02
#       5
#     8   8   8   8   8
#     4  11  21  37  60  87 118 155 201 241 289 349
#     4  10  20  36  61  90 115 151 201 247 288 343
#     4  10  21  38  58  86 122 153 191 244 297 347
#     4  10  20  37  57  87 114 151 199 234 286 347
#     4  12  22  37  61  88 120 158 196 240 295 352
#
# _framework density 17.463137
#
# number of rings (size 3 to 8) (size 9 to 14) (size 15 to 20)
#    0.000    1.400    6.000    1.200    2.800    0.400 
#    0.000    4.000    0.000    1.200    0.000    0.000 
#    0.000    0.000    0.000    0.000    0.000    0.000 
#
# Total GULP energy -111572.056483 kJ/mol
# GULP energy per Si atom -5578.602824 kJ/mol
# Density = 1.742339 g / cm^3
# Si number density = 17.463137 Si / 1000 Ang^3
#
#
#
# Elastic Constant Matrix: (Units=GPa)
#
#
# Indices 1 2 3 4 5 6 
#
# 1 91.5361 36.2024 16.4382 0.0000 22.0337 0.0000
# 2 36.2024 156.1631 61.4492 0.0000 4.6588 0.0000
# 3 16.4382 61.4492 80.6561 0.0000 17.4474 0.0000
# 4 0.0000 0.0000 0.0000 27.4269 0.0000 2.4601
# 5 22.0337 4.6588 17.4474 0.0000 34.2001 0.0000
# 6 0.0000 0.0000 0.0000 2.4601 0.0000 22.5857
#
#
#
# Elastic Compliance Matrix: (Units=1/GPa)
#
#
# Indices 1 2 3 4 5 6 
#
# 1 0.014464 -0.003913 0.002174 0.000000 -0.009894 0.000000
# 2 -0.003913 0.010414 -0.008290 0.000000 0.005332 0.000000
# 3 0.002174 -0.008290 0.020603 0.000000 -0.010782 0.000000
# 4 0.000000 0.000000 0.000000 0.036820 0.000000 -0.004011
# 5 -0.009894 0.005332 -0.010782 0.000000 0.040388 0.000000
# 6 0.000000 0.000000 0.000000 -0.004011 0.000000 0.044713
#
#
# Mechanical properties :
#
#
# Convention : Reuss Voigt Hill
#
# Bulk Modulus (GPa) = 39.33507 61.83720 50.58614
# Shear Modulus (GPa) = 25.51883 31.12690 28.32286
#
# Velocity S-wave (km/s) = 3.82684 4.22647 4.03161
# Velocity P-wave (km/s) = 6.48843 7.70093 7.12054
#
# Compressibility (1/GPa) = 0.02542261
#
# Stress axis : x y z
#
# Youngs Moduli (GPa) = 69.13912 96.02847 48.53619
#
# Poissons Ratio (x) = 0.37578 -0.10551
# Poissons Ratio (y) = 0.27056 0.40234
# Poissons Ratio (z) = -0.15030 0.79603
#
# Static dielectric constant tensor:
#      x y z
#    x 1.583130 0.000000 -0.001850 
#    y 0.000000 1.621060 0.000000 
#    z -0.001850 0.000000 1.611410 
# 
# From -- ./inp_files/60844.got.cif
#   From: 2010.05.17/outbox.cif.g08.bks.cpg/sg12_31_cif.got.tgz:60844.got - 2010.06.03 13:09:07.
