data_PCOD9199611
_publ_section_title
;
Structure prediction by ZEFSAII (Michael W. Deem and Ramdas Pophale) SiO2 
 PCOD9199611
Probable space group: C 2/M
;
_chemical_formula_sum "Si O2"
_cell_formula_units_Z 56
_cell_length_a 25.521197
_cell_length_b 16.699799
_cell_length_c 17.165878
_cell_angle_alpha 90.000000
_cell_angle_beta 22.106678
_cell_angle_gamma 90.000000
_cell_volume 2753.275961
_symmetry_space_group_name_H-M "C 2/M"
_symmetry_group_IT_number 12
_symmetry_cell_setting 'monoclinic'
loop_
_space_group_symop_operation_xyz
x,y,z
-x,y,-z
-x,-y,-z
x,-y,z
1/2+x,1/2+y,z
1/2-x,1/2+y,-z
1/2-x,1/2-y,-z
1/2+x,1/2-y,z
loop_
_atom_site_type_symbol
_atom_site_label
_atom_site_fract_x
_atom_site_fract_y
_atom_site_fract_z
Si Si1 0.300332 0.588434 0.922317
Si Si2 0.505760 0.878678 0.401673
Si Si3 0.285909 0.758208 0.360347
Si Si4 0.772317 0.907666 0.776299
Si Si5 0.551608 0.092315 0.812222
Si Si6 0.275733 0.089133 0.588858
Si Si7 0.535297 0.702143 0.593016
O O1 0.361367 0.500000 0.850184
O O2 0.283832 0.602745 0.852914
O O3 0.403970 0.656063 0.809173
O O4 0.148925 0.590805 0.168079
O O5 0.500000 0.901375 0.500000
O O6 0.375766 0.905409 0.526940
O O7 0.509741 0.782814 0.387357
O O8 0.250000 0.750000 0.500000
O O9 0.384198 0.836618 0.223716
O O10 0.322542 0.668132 0.279872
O O11 0.145455 0.777282 0.507692
O O12 0.881991 0.853347 0.581121
O O13 0.803662 0.000000 0.715120
O O14 0.612477 0.892614 0.972681
O O15 0.625469 0.094590 0.624735
O O16 0.572161 0.000000 0.812492
O O17 0.210847 0.000000 0.676741
#
# Coordination Sequence:
#
# PCOD9199611 Si02
#       7
#     8   8   8   8   8   8   8
#     4  11  22  38  60  86 121 158 190 239 305 366
#     4  11  22  37  57  88 116 156 204 246 291 355
#     4   9  20  37  56  85 116 159 203 244 291 347
#     4  10  20  36  60  91 124 157 193 237 304 378
#     4   9  17  33  59  87 118 157 196 238 295 362
#     4   9  17  34  58  84 113 153 201 247 296 349
#     4  11  23  37  57  88 122 155 194 244 302 360
#
# _framework density 20.339406
#
# number of rings (size 3 to 8) (size 9 to 14) (size 15 to 20)
#    0.000    2.000    1.429    2.571    0.000    4.000 
#    0.000    1.429    0.000    0.000    0.000    3.000 
#    0.000    0.000    0.000    0.000    0.000    0.000 
#
# Total GULP energy -156320.000093 kJ/mol
# GULP energy per Si atom -5582.857146 kJ/mol
# Density = 2.029311 g / cm^3
# Si number density = 20.339406 Si / 1000 Ang^3
#
#
#
# Elastic Constant Matrix: (Units=GPa)
#
#
# Indices 1 2 3 4 5 6 
#
# 1 73.3969 45.7045 8.4858 0.0000 10.4823 0.0001
# 2 45.7045 145.6547 28.3731 0.0000 -20.9483 0.0001
# 3 8.4858 28.3731 38.9266 0.0000 1.9244 0.0003
# 4 0.0000 0.0000 0.0000 19.7272 0.0001 -4.9366
# 5 10.4823 -20.9483 1.9244 0.0001 23.5965 -0.0001
# 6 0.0001 0.0001 0.0003 -4.9366 -0.0001 31.5552
#
#
#
# Elastic Compliance Matrix: (Units=1/GPa)
#
#
# Indices 1 2 3 4 5 6 
#
# 1 0.022725 -0.010756 0.003873 0.000000 -0.019960 0.000000
# 2 -0.010756 0.014732 -0.009314 0.000000 0.018617 0.000000
# 3 0.003873 -0.009314 0.032258 0.000000 -0.012620 0.000000
# 4 0.000000 0.000000 0.000000 0.052757 0.000000 0.008253
# 5 -0.019960 0.018617 -0.012620 0.000000 0.068803 0.000000
# 6 0.000000 0.000000 0.000000 0.008253 0.000000 0.032982
#
#
# Mechanical properties :
#
#
# Convention : Reuss Voigt Hill
#
# Bulk Modulus (GPa) = 26.79450 47.01169 36.90310
# Shear Modulus (GPa) = 18.58103 26.67010 22.62557
#
# Velocity S-wave (km/s) = 3.02578 3.62505 3.33889
# Velocity P-wave (km/s) = 5.04077 6.37849 5.74867
#
# Compressibility (1/GPa) = 0.03732109
#
# Stress axis : x y z
#
# Youngs Moduli (GPa) = 44.00409 67.87738 31.00014
#
# Poissons Ratio (x) = 0.73008 -0.12005
# Poissons Ratio (y) = 0.47330 0.28873
# Poissons Ratio (z) = -0.17041 0.63221
#
# Static dielectric constant tensor:
#      x y z
#    x 1.685970 0.000000 0.003030 
#    y 0.000000 1.795030 0.000000 
#    z 0.003030 0.000000 1.671300 
# 
# From -- ./inp_files/293867.got.cif
#   From: 2010.05.17/outbox.cif.g08.bks.cpg/sg12_147_cif.got.tgz:293867.got - 2010.06.03 13:09:07.
