data_PCOD9199311
_publ_section_title
;
Structure prediction by ZEFSAII (Michael W. Deem and Ramdas Pophale) SiO2 
 PCOD9199311
Probable space group: C 2/M
;
_chemical_formula_sum "Si O2"
_cell_formula_units_Z 48
_cell_length_a 9.249653
_cell_length_b 11.169619
_cell_length_c 22.246577
_cell_angle_alpha 90.000000
_cell_angle_beta 80.109191
_cell_angle_gamma 90.000000
_cell_volume 2264.245851
_symmetry_space_group_name_H-M "C 2/M"
_symmetry_group_IT_number 12
_symmetry_cell_setting 'monoclinic'
loop_
_space_group_symop_operation_xyz
x,y,z
-x,y,-z
-x,-y,-z
x,-y,z
1/2+x,1/2+y,z
1/2-x,1/2+y,-z
1/2-x,1/2-y,-z
1/2+x,1/2-y,z
loop_
_atom_site_type_symbol
_atom_site_label
_atom_site_fract_x
_atom_site_fract_y
_atom_site_fract_z
Si Si1 0.371229 0.500000 0.961493
Si Si2 0.981791 0.214184 0.746670
Si Si3 0.827741 0.138441 0.527410
Si Si4 0.993459 0.239733 0.928135
Si Si5 0.240080 0.633964 0.671537
Si Si6 0.916315 0.500000 0.942535
Si Si7 0.280358 0.638269 0.173760
O O1 0.388033 0.624084 0.923859
O O2 0.500000 0.500000 0.000000
O O3 0.241985 0.500000 0.017727
O O4 0.874136 0.144839 0.709080
O O5 0.864929 0.299346 0.789569
O O6 0.104511 0.282617 0.698897
O O7 0.085204 0.146366 0.787191
O O8 0.750000 0.250000 0.500000
O O9 0.799677 0.155688 0.600408
O O10 0.000000 0.143467 0.500000
O O11 0.778738 0.000000 0.515758
O O12 0.148171 0.204589 0.888206
O O13 0.952420 0.373144 0.909280
O O14 0.000000 0.248353 0.000000
O O15 0.181404 0.500000 0.678389
O O16 0.000000 0.500000 0.000000
O O17 0.253264 0.500000 0.161904
#
# Coordination Sequence:
#
# PCOD9199311 Si02
#       7
#     4   8   8   8   8   4   8
#     4  10  20  36  60  80 112 146 182 224 294 374
#     4  10  23  40  62  89 118 163 214 258 309 360
#     4  10  21  37  61  97 135 169 210 257 308 365
#     4  10  22  42  61  88 117 153 191 249 319 383
#     4  10  20  40  64  88 125 169 209 255 306 361
#     4  10  22  38  58  84 112 142 188 230 290 378
#     4  11  23  42  62  90 121 156 207 263 313 378
#
# _framework density 21.199110999999998
#
# number of rings (size 3 to 8) (size 9 to 14) (size 15 to 20)
#    0.000    1.833    0.833    2.500    0.000    5.667 
#    9.000    4.167    0.000    0.000    0.000    0.000 
#    0.000    0.000    0.000    0.000    0.000    0.000 
#
# Total GULP energy -133960.132981 kJ/mol
# GULP energy per Si atom -5581.672208 kJ/mol
# Density = 2.115086 g / cm^3
# Si number density = 21.199111 Si / 1000 Ang^3
#
#
#
# Elastic Constant Matrix: (Units=GPa)
#
#
# Indices 1 2 3 4 5 6 
#
# 1 89.4078 40.5968 25.8649 0.0000 -11.8259 0.0000
# 2 40.5968 186.6773 53.5745 0.0000 -11.1964 0.0000
# 3 25.8649 53.5745 110.1061 0.0000 -18.9476 0.0000
# 4 0.0000 0.0000 0.0000 31.4628 0.0000 0.4900
# 5 -11.8259 -11.1964 -18.9476 0.0000 40.9545 0.0000
# 6 0.0000 0.0000 0.0000 0.4900 0.0000 31.3625
#
#
#
# Elastic Compliance Matrix: (Units=1/GPa)
#
#
# Indices 1 2 3 4 5 6 
#
# 1 0.012964 -0.002231 -0.001543 0.000000 0.002419 0.000000
# 2 -0.002231 0.006614 -0.002710 0.000000 -0.000090 0.000000
# 3 -0.001543 -0.002710 0.011472 0.000000 0.004121 0.000000
# 4 0.000000 0.000000 0.000000 0.031791 0.000000 -0.000497
# 5 0.002419 -0.000090 0.004121 0.000000 0.026998 0.000000
# 6 0.000000 0.000000 0.000000 -0.000497 0.000000 0.031893
#
#
# Mechanical properties :
#
#
# Convention : Reuss Voigt Hill
#
# Bulk Modulus (GPa) = 55.30242 69.58485 62.44363
# Shear Modulus (GPa) = 35.52913 38.49964 37.01439
#
# Velocity S-wave (km/s) = 4.09831 4.26619 4.18309
# Velocity P-wave (km/s) = 6.96696 7.56061 7.26985
#
# Compressibility (1/GPa) = 0.01808239
#
# Stress axis : x y z
#
# Youngs Moduli (GPa) = 77.13445 151.18672 87.16622
#
# Poissons Ratio (x) = 0.33735 0.13453
# Poissons Ratio (y) = 0.17211 0.23619
# Poissons Ratio (z) = 0.11905 0.40966
#
# Static dielectric constant tensor:
#      x y z
#    x 1.787950 0.000000 0.029010 
#    y 0.000000 1.890860 0.000000 
#    z 0.029010 0.000000 1.781710 
# 
# From -- ./inp_files/332236.got.cif
#   From: 2010.05.17/outbox.cif.g08.bks.cpg/sg12_167_cif.got.tgz:332236.got - 2010.06.03 13:09:07.
