data_PCOD9199676
_publ_section_title
;
Structure prediction by ZEFSAII (Michael W. Deem and Ramdas Pophale) SiO2 
 PCOD9199676
Probable space group: C 2/M
;
_chemical_formula_sum "Si O2"
_cell_formula_units_Z 56
_cell_length_a 29.424772
_cell_length_b 9.536827
_cell_length_c 20.004700
_cell_angle_alpha 90.000000
_cell_angle_beta 31.671670
_cell_angle_gamma 90.000000
_cell_volume 2947.477255
_symmetry_space_group_name_H-M "C 2/M"
_symmetry_group_IT_number 12
_symmetry_cell_setting 'monoclinic'
loop_
_space_group_symop_operation_xyz
x,y,z
-x,y,-z
-x,-y,-z
x,-y,z
1/2+x,1/2+y,z
1/2-x,1/2+y,-z
1/2-x,1/2-y,-z
1/2+x,1/2-y,z
loop_
_atom_site_type_symbol
_atom_site_label
_atom_site_fract_x
_atom_site_fract_y
_atom_site_fract_z
Si Si1 0.144413 0.342141 0.572537
Si Si2 0.004299 0.833909 0.688995
Si Si3 0.602915 0.340617 0.865485
Si Si4 0.206382 0.343850 0.646954
Si Si5 0.565874 0.168818 0.479421
Si Si6 0.259615 0.331365 0.191144
Si Si7 0.306230 0.666439 0.982564
O O1 0.125211 0.500000 0.574103
O O2 0.184072 0.350418 0.596692
O O3 0.216330 0.265252 0.437883
O O4 0.063092 0.240370 0.671351
O O5 0.029834 0.752964 0.588709
O O6 0.022364 0.000000 0.660521
O O7 0.905681 0.816441 0.835771
O O8 0.629671 0.500000 0.811781
O O9 0.625206 0.222877 0.784344
O O10 0.660967 0.302878 0.857629
O O11 0.500000 0.343803 0.000000
O O12 0.228551 0.500000 0.642168
O O13 0.500000 0.191967 0.500000
O O14 0.664140 0.214102 0.336181
O O15 0.566745 0.000000 0.491232
O O16 0.253837 0.500000 0.194960
O O17 0.284215 0.283665 0.085470
O O18 0.286796 0.500000 0.003983
O O19 0.250000 0.750000 0.000000
#
# Coordination Sequence:
#
# PCOD9199676 Si02
#       7
#     8   8   8   8   8   8   8
#     4  10  21  37  58  83 113 152 193 236 289 356
#     4  11  23  36  58  89 119 150 190 246 304 352
#     4  10  21  35  57  83 112 158 204 238 282 349
#     4  10  21  37  57  83 116 150 190 244 298 340
#     4  10  20  36  61  86 112 154 200 244 296 358
#     4   9  19  37  58  83 114 151 198 243 285 343
#     4  10  22  40  61  85 117 153 194 244 295 352
#
# _framework density 18.999299000000001
#
# number of rings (size 3 to 8) (size 9 to 14) (size 15 to 20)
#    0.000    2.000    0.000    3.000    2.000    5.714 
#    0.000    1.429    0.000    0.000    0.000    0.000 
#    0.000    0.000    0.000    0.000    0.000    0.000 
#
# Total GULP energy -156145.466665 kJ/mol
# GULP energy per Si atom -5576.623809 kJ/mol
# Density = 1.895606 g / cm^3
# Si number density = 18.999299 Si / 1000 Ang^3
#
#
#
# Elastic Constant Matrix: (Units=GPa)
#
#
# Indices 1 2 3 4 5 6 
#
# 1 56.6335 25.4318 30.2528 0.0008 -8.7429 0.0000
# 2 25.4318 93.6450 57.3973 0.0033 -2.2391 -0.0014
# 3 30.2528 57.3973 105.7322 0.0052 -4.0358 -0.0026
# 4 0.0008 0.0033 0.0052 25.0674 -0.0021 2.8281
# 5 -8.7429 -2.2391 -4.0358 -0.0021 34.6002 0.0007
# 6 0.0000 -0.0014 -0.0026 2.8281 0.0007 26.2811
#
#
#
# Elastic Compliance Matrix: (Units=1/GPa)
#
#
# Indices 1 2 3 4 5 6 
#
# 1 0.022217 -0.003199 -0.004434 0.000001 0.004890 -0.000001
# 2 -0.003199 0.016464 -0.008048 0.000000 -0.000682 0.000000
# 3 -0.004434 -0.008048 0.015100 -0.000002 0.000120 0.000001
# 4 0.000001 0.000000 -0.000002 0.040383 0.000002 -0.004346
# 5 0.004890 -0.000682 0.000120 0.000002 0.030107 -0.000001
# 6 -0.000001 0.000000 0.000001 -0.004346 -0.000001 0.038518
#
#
# Mechanical properties :
#
#
# Convention : Reuss Voigt Hill
#
# Bulk Modulus (GPa) = 44.60461 53.57494 49.08978
# Shear Modulus (GPa) = 24.79858 26.71832 25.75845
#
# Velocity S-wave (km/s) = 3.61672 3.75411 3.68606
# Velocity P-wave (km/s) = 6.40069 6.85935 6.63399
#
# Compressibility (1/GPa) = 0.02241921
#
# Stress axis : x y z
#
# Youngs Moduli (GPa) = 45.00995 60.73795 66.22500
#
# Poissons Ratio (x) = 0.19432 0.29361
# Poissons Ratio (y) = 0.14400 0.53300
# Poissons Ratio (z) = 0.19955 0.48884
#
# Static dielectric constant tensor:
#      x y z
#    x 1.541430 0.000000 0.511940 
#    y 0.000000 1.652000 0.000000 
#    z 0.511940 0.000000 -0.056780 
# 
# From -- ./inp_files/329555.got.cif
#   From: 2010.05.17/outbox.cif.g08.bks.cpg/sg12_165_cif.got.tgz:329555.got - 2010.06.03 13:09:07.
