data_PCOD9199631
_publ_section_title
;
Structure prediction by ZEFSAII (Michael W. Deem and Ramdas Pophale) SiO2 
 PCOD9199631
Probable space group: C 2/M
;
_chemical_formula_sum "Si O2"
_cell_formula_units_Z 64
_cell_length_a 17.515354
_cell_length_b 8.418564
_cell_length_c 31.813977
_cell_angle_alpha 90.000000
_cell_angle_beta 138.772118
_cell_angle_gamma 90.000000
_cell_volume 3091.696893
_symmetry_space_group_name_H-M "C 2/M"
_symmetry_group_IT_number 12
_symmetry_cell_setting 'monoclinic'
loop_
_space_group_symop_operation_xyz
x,y,z
-x,y,-z
-x,-y,-z
x,-y,z
1/2+x,1/2+y,z
1/2-x,1/2+y,-z
1/2-x,1/2-y,-z
1/2+x,1/2-y,z
loop_
_atom_site_type_symbol
_atom_site_label
_atom_site_fract_x
_atom_site_fract_y
_atom_site_fract_z
Si Si1 0.592940 0.682350 0.639812
Si Si2 0.866114 0.684712 0.427920
Si Si3 0.654330 0.809737 0.491180
Si Si4 0.256517 0.683817 0.772232
Si Si5 0.028092 0.317742 0.194337
Si Si6 0.112914 0.679790 0.018877
Si Si7 0.623076 0.682936 0.939312
Si Si8 0.682565 0.806433 0.836347
O O1 0.601591 0.500000 0.655956
O O2 0.659605 0.713879 0.623529
O O3 0.463948 0.729186 0.572770
O O4 0.641537 0.789917 0.696942
O O5 0.846155 0.500000 0.409136
O O6 0.803551 0.733764 0.444461
O O7 0.000000 0.695856 0.500000
O O8 0.750000 0.750000 0.500000
O O9 0.637534 0.000000 0.484179
O O10 0.285628 0.500000 0.789963
O O11 0.357012 0.749398 0.782004
O O12 0.225956 0.744924 0.807144
O O13 0.055341 0.500000 0.215030
O O14 0.936893 0.295392 0.118910
O O15 0.947926 0.256877 0.200990
O O16 0.139084 0.500000 0.014147
O O17 0.222544 0.742086 0.090968
O O18 0.072731 0.794374 0.964713
O O19 0.000000 0.668359 0.000000
O O20 0.615876 0.500000 0.923001
O O21 0.750000 0.750000 0.000000
O O22 0.682808 0.000000 0.837449
#
# Coordination Sequence:
#
# PCOD9199631 Si02
#       8
#     8   8   8   8   8   8   8   8
#     4  11  22  38  61  89 121 162 207 252 301 359
#     4   8  16  33  57  84 117 155 193 239 292 345
#     4  10  20  36  60  92 128 163 200 248 304 360
#     4  11  24  44  66  90 122 168 214 258 312 372
#     4  11  23  42  65  92 122 158 204 260 318 376
#     4  11  23  37  58  89 121 155 198 251 311 374
#     4  12  23  37  59  87 118 154 195 247 308 371
#     4  10  23  42  64  87 119 161 206 257 313 375
#
# _framework density 20.700604999999999
#
# number of rings (size 3 to 8) (size 9 to 14) (size 15 to 20)
#    0.000    1.500    1.250    5.250    0.000    7.250 
#    2.250    0.000    0.000    0.000    0.000    0.000 
#    0.000    0.000    0.000    0.000    0.000    0.000 
#
# Total GULP energy -178230.893339 kJ/mol
# GULP energy per Si atom -5569.715417 kJ/mol
# Density = 2.065349 g / cm^3
# Si number density = 20.700605 Si / 1000 Ang^3
#
#
#
# Elastic Constant Matrix: (Units=GPa)
#
#
# Indices 1 2 3 4 5 6 
#
# 1 137.5716 18.6366 13.9497 0.0000 -9.0659 0.0000
# 2 18.6366 32.6736 -10.0142 0.0001 0.8451 -0.0001
# 3 13.9497 -10.0142 42.8321 0.0000 -10.4851 0.0000
# 4 0.0000 0.0001 0.0000 23.5734 0.0000 2.8925
# 5 -9.0659 0.8451 -10.4851 0.0000 21.3027 0.0000
# 6 0.0000 -0.0001 0.0000 2.8925 0.0000 30.1893
#
#
#
# Elastic Compliance Matrix: (Units=1/GPa)
#
#
# Indices 1 2 3 4 5 6 
#
# 1 0.008610 -0.006106 -0.003724 0.000000 0.002074 0.000000
# 2 -0.006106 0.037449 0.011080 0.000000 0.001369 0.000000
# 3 -0.003724 0.011080 0.030306 0.000000 0.012892 0.000000
# 4 0.000000 0.000000 0.000000 0.042925 0.000000 -0.004113
# 5 0.002074 0.001369 0.012892 0.000000 0.054116 0.000000
# 6 0.000000 0.000000 0.000000 -0.004113 0.000000 0.033518
#
#
# Mechanical properties :
#
#
# Convention : Reuss Voigt Hill
#
# Bulk Modulus (GPa) = 12.68015 28.69127 20.68571
# Shear Modulus (GPa) = 21.67167 27.71343 24.69255
#
# Velocity S-wave (km/s) = 3.23911 3.66290 3.45750
# Velocity P-wave (km/s) = 4.48641 5.63731 5.09447
#
# Compressibility (1/GPa) = 0.07886342
#
# Stress axis : x y z
#
# Youngs Moduli (GPa) = 116.13764 26.70286 32.99643
#
# Poissons Ratio (x) = 0.16306 0.12289
# Poissons Ratio (y) = 0.70919 -0.36559
# Poissons Ratio (z) = 0.43254 -0.29586
#
# Static dielectric constant tensor:
#      x y z
#    x 1.813920 0.000000 0.009040 
#    y 0.000000 1.768790 0.000000 
#    z 0.009040 0.000000 1.701590 
# 
# From -- ./inp_files/378310.got.cif
#   From: 2010.05.17/outbox.cif.g08.bks.cpg/sg12_190_cif.got.tgz:378310.got - 2010.06.03 13:09:07.
