data_PCOD9199428
_publ_section_title
;
Structure prediction by ZEFSAII (Michael W. Deem and Ramdas Pophale) SiO2 
 PCOD9199428
Probable space group: C 2/M
;
_chemical_formula_sum "Si O2"
_cell_formula_units_Z 48
_cell_length_a 18.512371
_cell_length_b 8.934321
_cell_length_c 27.989268
_cell_angle_alpha 90.000000
_cell_angle_beta 146.453922
_cell_angle_gamma 90.000000
_cell_volume 2558.184461
_symmetry_space_group_name_H-M "C 2/M"
_symmetry_group_IT_number 12
_symmetry_cell_setting 'monoclinic'
loop_
_space_group_symop_operation_xyz
x,y,z
-x,y,-z
-x,-y,-z
x,-y,z
1/2+x,1/2+y,z
1/2-x,1/2+y,-z
1/2-x,1/2-y,-z
1/2+x,1/2-y,z
loop_
_atom_site_type_symbol
_atom_site_label
_atom_site_fract_x
_atom_site_fract_y
_atom_site_fract_z
Si Si1 0.844586 0.821591 0.912291
Si Si2 0.959159 0.322129 0.602130
Si Si3 0.391344 0.322304 0.754401
Si Si4 0.799719 0.821177 0.598876
Si Si5 0.238550 0.177932 0.756458
Si Si6 0.201513 0.178047 0.924023
O O1 0.786056 0.749708 0.832279
O O2 0.775652 0.751701 0.920483
O O3 0.823663 0.000000 0.899989
O O4 0.000000 0.793831 0.000000
O O5 0.981489 0.500000 0.615963
O O6 0.899158 0.265587 0.619200
O O7 0.846028 0.290941 0.500767
O O8 0.093264 0.238133 0.665910
O O9 0.370748 0.500000 0.751929
O O10 0.321902 0.282778 0.666188
O O11 0.333195 0.231627 0.766339
O O12 0.545980 0.297890 0.833962
O O13 0.823588 0.000000 0.606664
O O14 0.238232 0.000000 0.760372
O O15 0.225290 0.000000 0.937551
O O16 0.250000 0.250000 0.000000
#
# Coordination Sequence:
#
# PCOD9199428 Si02
#       6
#     8   8   8   8   8   8
#     4  11  24  42  64  89 118 152 192 240 293 347
#     4  10  20  36  60  87 117 153 193 241 295 349
#     4  10  22  40  59  82 115 153 194 240 291 343
#     4   9  19  37  61  87 115 151 196 244 294 348
#     4  12  25  39  58  85 118 155 196 240 287 346
#     4  11  23  39  62  90 121 156 193 238 289 345
#
# _framework density 18.763307000000001
#
# number of rings (size 3 to 8) (size 9 to 14) (size 15 to 20)
#    0.000    1.500    0.000    5.000    0.000   10.000 
#    0.000    3.333    0.000    0.000    0.000    0.000 
#    0.000    0.000    0.000    0.000    0.000    0.000 
#
# Total GULP energy -134223.611332 kJ/mol
# GULP energy per Si atom -5592.650472 kJ/mol
# Density = 1.872060 g / cm^3
# Si number density = 18.763307 Si / 1000 Ang^3
#
#
#
# Elastic Constant Matrix: (Units=GPa)
#
#
# Indices 1 2 3 4 5 6 
#
# 1 162.0270 92.3222 82.0707 0.0000 -7.1294 0.0000
# 2 92.3222 105.7397 76.3991 0.0000 9.8720 0.0000
# 3 82.0707 76.3991 94.0574 0.0000 -7.2694 0.0000
# 4 0.0000 0.0000 0.0000 27.5018 0.0000 1.2288
# 5 -7.1294 9.8720 -7.2694 0.0000 36.1735 0.0000
# 6 0.0000 0.0000 0.0000 1.2288 0.0000 39.7688
#
#
#
# Elastic Compliance Matrix: (Units=1/GPa)
#
#
# Indices 1 2 3 4 5 6 
#
# 1 0.013896 -0.009849 -0.003764 0.000000 0.004670 0.000000
# 2 -0.009849 0.034233 -0.020401 0.000000 -0.015383 0.000000
# 3 -0.003764 -0.020401 0.031347 0.000000 0.011125 0.000000
# 4 0.000000 0.000000 0.000000 0.036412 0.000000 -0.001125
# 5 0.004670 -0.015383 0.011125 0.000000 0.034999 0.000000
# 6 0.000000 0.000000 0.000000 -0.001125 0.000000 0.025180
#
#
# Mechanical properties :
#
#
# Convention : Reuss Voigt Hill
#
# Bulk Modulus (GPa) = 87.35596 95.93423 91.64510
# Shear Modulus (GPa) = 20.16866 28.09097 24.12982
#
# Velocity S-wave (km/s) = 3.28212 3.87346 3.58999
# Velocity P-wave (km/s) = 7.81159 8.44065 8.13221
#
# Compressibility (1/GPa) = 0.01144742
#
# Stress axis : x y z
#
# Youngs Moduli (GPa) = 71.96460 29.21194 31.90102
#
# Poissons Ratio (x) = 0.28770 0.12008
# Poissons Ratio (y) = 0.70877 0.65081
# Poissons Ratio (z) = 0.27088 0.59595
#
# Static dielectric constant tensor:
#      x y z
#    x 1.603760 0.000000 0.002110 
#    y 0.000000 1.627390 0.000000 
#    z 0.002110 0.000000 1.639170 
# 
# From -- ./inp_files/360309.got.cif
#   From: 2010.05.17/outbox.cif.g08.bks.cpg/sg12_181_cif.got.tgz:360309.got - 2010.06.03 13:09:07.
