data_PCOD9199089
_publ_section_title
;
Structure prediction by ZEFSAII (Michael W. Deem and Ramdas Pophale) SiO2 
 PCOD9199089
Probable space group: C 2/M
;
_chemical_formula_sum "Si O2"
_cell_formula_units_Z 56
_cell_length_a 9.679487
_cell_length_b 19.741416
_cell_length_c 31.684990
_cell_angle_alpha 90.000000
_cell_angle_beta 151.928402
_cell_angle_gamma 90.000000
_cell_volume 2849.132503
_symmetry_space_group_name_H-M "C 2/M"
_symmetry_group_IT_number 12
_symmetry_cell_setting 'monoclinic'
loop_
_space_group_symop_operation_xyz
x,y,z
-x,y,-z
-x,-y,-z
x,-y,z
1/2+x,1/2+y,z
1/2-x,1/2+y,-z
1/2-x,1/2-y,-z
1/2+x,1/2-y,z
loop_
_atom_site_type_symbol
_atom_site_label
_atom_site_fract_x
_atom_site_fract_y
_atom_site_fract_z
Si Si1 0.313130 0.340193 0.580065
Si Si2 0.638540 0.296547 0.581600
Si Si3 0.432474 0.927367 0.098004
Si Si4 0.107620 0.577648 0.241674
Si Si5 0.269904 0.173766 0.211181
Si Si6 0.275604 0.425220 0.105279
Si Si7 0.206045 0.275440 0.941895
O O1 0.415155 0.308571 0.561539
O O2 0.245429 0.278432 0.594698
O O3 0.577443 0.389193 0.663740
O O4 0.000000 0.377768 0.500000
O O5 0.500000 0.324774 0.500000
O O6 0.944886 0.324973 0.682184
O O7 0.564971 0.926984 0.180250
O O8 0.667614 0.925003 0.124013
O O9 0.273629 0.856247 0.051841
O O10 0.273271 0.000000 0.048434
O O11 0.079140 0.500000 0.250718
O O12 0.874366 0.631470 0.198122
O O13 0.016579 0.130435 0.163804
O O14 0.107056 0.245645 0.158612
O O15 0.393756 0.500000 0.126612
O O16 0.000000 0.414387 0.000000
O O17 0.500000 0.247727 0.000000
O O18 0.250000 0.250000 0.000000
#
# Coordination Sequence:
#
# PCOD9199089 Si02
#       7
#     8   8   8   8   8   8   8
#     4  10  20  36  59  85 117 151 192 249 305 360
#     4  10  21  36  58  89 118 153 198 246 309 369
#     4  10  22  39  58  82 117 157 197 242 295 358
#     4  10  22  39  59  86 117 156 200 239 299 369
#     4  11  22  38  61  85 119 157 195 255 304 351
#     4  10  21  38  59  83 114 156 202 244 296 360
#     4  12  24  38  58  88 120 153 200 248 297 352
#
# _framework density 19.655104999999999
#
# number of rings (size 3 to 8) (size 9 to 14) (size 15 to 20)
#    0.000    1.571    0.000    6.000    0.000    6.286 
#    0.000    3.571    0.000   10.714    0.000    0.000 
#    0.000    0.571    0.000    0.000    0.000    0.000 
#
# Total GULP energy -155900.592700 kJ/mol
# GULP energy per Si atom -5567.878311 kJ/mol
# Density = 1.961037 g / cm^3
# Si number density = 19.655105 Si / 1000 Ang^3
#
#
#
# Elastic Constant Matrix: (Units=GPa)
#
#
# Indices 1 2 3 4 5 6 
#
# 1 127.0649 34.9009 35.2280 0.0058 8.2539 0.0055
# 2 34.9009 115.2359 32.8766 0.0007 3.8114 0.0017
# 3 35.2280 32.8766 73.8643 0.0163 2.8722 0.0180
# 4 0.0058 0.0007 0.0163 12.5677 0.0040 -13.0030
# 5 8.2539 3.8114 2.8722 0.0040 36.7087 0.0040
# 6 0.0055 0.0017 0.0180 -13.0030 0.0040 8.4006
#
#
#
# Elastic Compliance Matrix: (Units=1/GPa)
#
#
# Indices 1 2 3 4 5 6 
#
# 1 0.009481 -0.001770 -0.003670 -0.000007 -0.001661 -0.000007
# 2 -0.001770 0.010288 -0.003720 -0.000021 -0.000379 -0.000025
# 3 -0.003670 -0.003720 0.016949 0.000090 -0.000115 0.000107
# 4 -0.000007 -0.000021 0.000090 -0.132286 0.000033 -0.204762
# 5 -0.001661 -0.000379 -0.000115 0.000033 0.027663 0.000040
# 6 -0.000007 -0.000025 0.000107 -0.204762 0.000040 -0.197906
#
#
# Mechanical properties :
#
#
# Convention : Reuss Voigt Hill
#
# Bulk Modulus (GPa) = 54.35169 58.01958 56.18564
# Shear Modulus (GPa) = -20.71604 25.74602 2.51499
#
# Velocity S-wave (km/s) = -3.25002 3.62317 1.13240
# Velocity P-wave (km/s) = 3.69177 6.86193 5.50977
#
# Compressibility (1/GPa) = 0.01839869
#
# Stress axis : x y z
#
# Youngs Moduli (GPa) = 105.47002 97.20294 59.00121
#
# Poissons Ratio (x) = 0.17202 0.21651
# Poissons Ratio (y) = 0.18665 0.21950
# Poissons Ratio (z) = 0.38704 0.36162
#
# Static dielectric constant tensor:
#      x y z
#    x 1.674190 -0.000010 -0.013520 
#    y -0.000010 1.769430 -0.000010 
#    z -0.013520 -0.000010 1.703930 
# 
# From -- ./inp_files/373166.got.cif
#   From: 2010.05.17/outbox.cif.g08.bks.cpg/sg12_187_cif.got.tgz:373166.got - 2010.06.03 13:09:07.
