data_PCOD9199683
_publ_section_title
;
Structure prediction by ZEFSAII (Michael W. Deem and Ramdas Pophale) SiO2 
 PCOD9199683
Probable space group: C 2/M
;
_chemical_formula_sum "Si O2"
_cell_formula_units_Z 64
_cell_length_a 30.972322
_cell_length_b 7.786978
_cell_length_c 14.821586
_cell_angle_alpha 90.000000
_cell_angle_beta 52.982874
_cell_angle_gamma 90.000000
_cell_volume 2854.224678
_symmetry_space_group_name_H-M "C 2/M"
_symmetry_group_IT_number 12
_symmetry_cell_setting 'monoclinic'
loop_
_space_group_symop_operation_xyz
x,y,z
-x,y,-z
-x,-y,-z
x,-y,z
1/2+x,1/2+y,z
1/2-x,1/2+y,-z
1/2-x,1/2-y,-z
1/2+x,1/2-y,z
loop_
_atom_site_type_symbol
_atom_site_label
_atom_site_fract_x
_atom_site_fract_y
_atom_site_fract_z
Si Si1 0.339742 0.799466 0.635883
Si Si2 0.990335 0.208679 0.243180
Si Si3 0.884181 0.210104 0.914273
Si Si4 0.444750 0.799382 0.114315
Si Si5 0.242386 0.292625 0.404914
Si Si6 0.699348 0.704721 0.127107
Si Si7 0.540721 0.298991 0.521792
Si Si8 0.163323 0.198067 0.841645
O O1 0.311387 0.732981 0.580192
O O2 0.301031 0.778388 0.771533
O O3 0.397005 0.713558 0.583698
O O4 0.350723 0.000000 0.609988
O O5 0.954035 0.279414 0.208477
O O6 0.968531 0.270794 0.366652
O O7 0.053332 0.261544 0.155346
O O8 0.988472 0.000000 0.239871
O O9 0.854241 0.262864 0.860304
O O10 0.883997 0.000000 0.916224
O O11 0.849554 0.273274 0.043752
O O12 0.393007 0.704356 0.141134
O O13 0.438780 0.000000 0.097983
O O14 0.500000 0.732812 0.000000
O O15 0.242393 0.500000 0.400519
O O16 0.250000 0.250000 0.500000
O O17 0.291507 0.225555 0.280720
O O18 0.697391 0.500000 0.138505
O O19 0.750000 0.750000 0.000000
O O20 0.500000 0.221705 0.500000
O O21 0.526202 0.500000 0.547973
O O22 0.179014 0.000000 0.837893
#
# Coordination Sequence:
#
# PCOD9199683 Si02
#       8
#     8   8   8   8   8   8   8   8
#     4  11  24  43  64  91 128 166 206 257 316 373
#     4  10  20  36  61  87 113 154 202 242 293 360
#     4   9  18  35  61  88 116 151 194 246 296 352
#     4  11  23  37  54  85 126 159 189 243 307 360
#     4  10  24  43  63  88 120 161 210 262 312 365
#     4  11  22  39  64  93 124 158 200 251 306 367
#     4  10  22  41  65  93 125 162 209 258 304 366
#     4  10  20  38  63  85 112 155 206 250 295 359
#
# _framework density 22.422903000000002
#
# number of rings (size 3 to 8) (size 9 to 14) (size 15 to 20)
#    0.000    1.750    1.250    2.625    1.750    6.750 
#    0.000    5.000    0.000    0.000    0.000    0.000 
#    0.000    0.000    0.000    0.000    0.000    0.000 
#
# Total GULP energy -178862.049732 kJ/mol
# GULP energy per Si atom -5589.439054 kJ/mol
# Density = 2.237187 g / cm^3
# Si number density = 22.422903 Si / 1000 Ang^3
#
#
#
# Elastic Constant Matrix: (Units=GPa)
#
#
# Indices 1 2 3 4 5 6 
#
# 1 109.2004 -4.5326 21.3968 0.0000 23.1701 0.0000
# 2 -4.5326 34.2491 -9.7267 -0.0001 1.6352 0.0000
# 3 21.3968 -9.7267 96.3723 0.0000 19.7277 0.0000
# 4 0.0000 -0.0001 0.0000 23.0513 0.0000 -3.0308
# 5 23.1701 1.6352 19.7277 0.0000 41.2264 0.0000
# 6 0.0000 0.0000 0.0000 -3.0308 0.0000 20.9870
#
#
#
# Elastic Compliance Matrix: (Units=1/GPa)
#
#
# Indices 1 2 3 4 5 6 
#
# 1 0.010591 0.001353 -0.001092 0.000000 -0.005483 0.000000
# 2 0.001353 0.030555 0.003533 0.000000 -0.003663 0.000000
# 3 -0.001092 0.003533 0.012060 0.000000 -0.005297 0.000000
# 4 0.000000 0.000000 0.000000 0.044221 0.000000 0.006386
# 5 -0.005483 -0.003663 -0.005297 0.000000 0.030018 0.000000
# 6 0.000000 0.000000 0.000000 0.006386 0.000000 0.048571
#
#
# Mechanical properties :
#
#
# Convention : Reuss Voigt Hill
#
# Bulk Modulus (GPa) = 16.44882 28.23297 22.34090
# Shear Modulus (GPa) = 26.49806 32.56524 29.53165
#
# Velocity S-wave (km/s) = 3.44138 3.81507 3.63303
# Velocity P-wave (km/s) = 4.81065 5.65904 5.25201
#
# Compressibility (1/GPa) = 0.06079462
#
# Stress axis : x y z
#
# Youngs Moduli (GPa) = 94.41846 32.72754 82.91936
#
# Poissons Ratio (x) = -0.04429 0.09058
# Poissons Ratio (y) = -0.12777 -0.29298
# Poissons Ratio (z) = 0.10315 -0.11564
#
# Static dielectric constant tensor:
#      x y z
#    x 1.819070 0.000000 0.010190 
#    y 0.000000 1.831520 0.000000 
#    z 0.010190 0.000000 1.833280 
# 
# From -- ./inp_files/249884.got.cif
#   From: 2010.05.17/outbox.cif.g08.bks.cpg/sg12_125_cif.got.tgz:249884.got - 2010.06.03 13:09:07.
