data_PCOD9199926
_publ_section_title
;
Structure prediction by ZEFSAII (Michael W. Deem and Ramdas Pophale) SiO2 
 PCOD9199926
Probable space group: C 2/M
;
_chemical_formula_sum "Si O2"
_cell_formula_units_Z 56
_cell_length_a 29.749339
_cell_length_b 9.004597
_cell_length_c 12.067070
_cell_angle_alpha 90.000000
_cell_angle_beta 110.103582
_cell_angle_gamma 90.000000
_cell_volume 3035.586963
_symmetry_space_group_name_H-M "C 2/M"
_symmetry_group_IT_number 12
_symmetry_cell_setting 'monoclinic'
loop_
_space_group_symop_operation_xyz
x,y,z
-x,y,-z
-x,-y,-z
x,-y,z
1/2+x,1/2+y,z
1/2-x,1/2+y,-z
1/2-x,1/2-y,-z
1/2+x,1/2-y,z
loop_
_atom_site_type_symbol
_atom_site_label
_atom_site_fract_x
_atom_site_fract_y
_atom_site_fract_z
Si Si1 0.550541 0.173699 0.478374
Si Si2 0.287193 0.823165 0.374263
Si Si3 0.591166 0.322765 0.897982
Si Si4 0.811203 0.677161 0.645535
Si Si5 0.367270 0.677854 0.303791
Si Si6 0.978595 0.176951 0.774606
Si Si7 0.095088 0.676795 0.133258
O O1 0.500000 0.184632 0.500000
O O2 0.590956 0.254043 0.584377
O O3 0.543605 0.247987 0.353207
O O4 0.562885 0.000000 0.475630
O O5 0.233294 0.763468 0.338888
O O6 0.311401 0.788644 0.514584
O O7 0.317676 0.743503 0.305771
O O8 0.287743 0.000000 0.359686
O O9 0.595525 0.500000 0.920997
O O10 0.620878 0.283884 0.813390
O O11 0.535161 0.291211 0.826900
O O12 0.605768 0.234753 0.019602
O O13 0.802744 0.500000 0.648702
O O14 0.860619 0.712556 0.747997
O O15 0.367829 0.500000 0.314371
O O16 0.951493 0.242279 0.857694
O O17 0.972357 0.000000 0.764508
O O18 0.087913 0.500000 0.127500
#
# Coordination Sequence:
#
# PCOD9199926 Si02
#       7
#     8   8   8   8   8   8   8
#     4  11  22  35  55  84 117 148 186 238 285 331
#     4  10  20  36  62  91 116 143 183 234 288 344
#     4  10  23  40  56  79 114 156 199 238 277 338
#     4   9  20  39  59  84 117 146 181 231 287 346
#     4  11  22  38  59  83 117 157 193 231 286 346
#     4  11  22  38  59  82 114 155 197 237 285 343
#     4  11  23  38  59  85 114 150 194 242 290 338
#
# _framework density 18.447831999999998
#
# number of rings (size 3 to 8) (size 9 to 14) (size 15 to 20)
#    0.000    1.571    1.429    3.429    0.000    7.429 
#    0.000    0.714    0.000    0.000    0.000    0.000 
#    0.000    0.000    0.000    0.000    0.000    0.000 
#
# Total GULP energy -156539.723624 kJ/mol
# GULP energy per Si atom -5590.704415 kJ/mol
# Density = 1.840584 g / cm^3
# Si number density = 18.447832 Si / 1000 Ang^3
#
#
#
# Elastic Constant Matrix: (Units=GPa)
#
#
# Indices 1 2 3 4 5 6 
#
# 1 116.7668 57.4804 36.4949 0.0000 -25.9441 0.0000
# 2 57.4804 61.2118 35.2658 0.0000 -11.2342 0.0000
# 3 36.4949 35.2658 59.6637 0.0000 -16.9148 0.0000
# 4 0.0000 0.0000 0.0000 31.2633 0.0000 -3.2681
# 5 -25.9441 -11.2342 -16.9148 0.0000 18.1006 0.0000
# 6 0.0000 0.0000 0.0000 -3.2681 0.0000 33.4212
#
#
#
# Elastic Compliance Matrix: (Units=1/GPa)
#
#
# Indices 1 2 3 4 5 6 
#
# 1 0.021433 -0.018349 0.004375 0.000000 0.023421 0.000000
# 2 -0.018349 0.040552 -0.017776 0.000000 -0.017742 0.000000
# 3 0.004375 -0.017776 0.031618 0.000000 0.024785 0.000000
# 4 0.000000 0.000000 0.000000 0.032317 0.000000 0.003160
# 5 0.023421 -0.017742 0.024785 0.000000 0.100967 0.000000
# 6 0.000000 0.000000 0.000000 0.003160 0.000000 0.030230
#
#
# Mechanical properties :
#
#
# Convention : Reuss Voigt Hill
#
# Bulk Modulus (GPa) = 33.21772 55.12493 44.17133
# Shear Modulus (GPa) = 15.12178 23.78377 19.45278
#
# Velocity S-wave (km/s) = 2.86616 3.59450 3.25079
# Velocity P-wave (km/s) = 5.38503 6.86831 6.17139
#
# Compressibility (1/GPa) = 0.03010441
#
# Stress axis : x y z
#
# Youngs Moduli (GPa) = 46.65729 24.65983 31.62774
#
# Poissons Ratio (x) = 0.45248 -0.13838
# Poissons Ratio (y) = 0.85610 0.56221
# Poissons Ratio (z) = -0.20415 0.43835
#
# Static dielectric constant tensor:
#      x y z
#    x 1.623830 0.000000 -0.006400 
#    y 0.000000 1.611100 0.000000 
#    z -0.006400 0.000000 1.612950 
# 
# From -- ./inp_files/180627.got.cif
#   From: 2010.05.17/outbox.cif.g08.bks.cpg/sg12_91_cif.got.tgz:180627.got - 2010.06.03 13:09:07.
