data_PCOD9199330
_publ_section_title
;
Structure prediction by ZEFSAII (Michael W. Deem and Ramdas Pophale) SiO2 
 PCOD9199330
Probable space group: C 2/M
;
_chemical_formula_sum "Si O2"
_cell_formula_units_Z 64
_cell_length_a 9.588953
_cell_length_b 16.397915
_cell_length_c 32.064904
_cell_angle_alpha 90.000000
_cell_angle_beta 39.617531
_cell_angle_gamma 90.000000
_cell_volume 3214.983488
_symmetry_space_group_name_H-M "C 2/M"
_symmetry_group_IT_number 12
_symmetry_cell_setting 'monoclinic'
loop_
_space_group_symop_operation_xyz
x,y,z
-x,y,-z
-x,-y,-z
x,-y,z
1/2+x,1/2+y,z
1/2-x,1/2+y,-z
1/2-x,1/2-y,-z
1/2+x,1/2-y,z
loop_
_atom_site_type_symbol
_atom_site_label
_atom_site_fract_x
_atom_site_fract_y
_atom_site_fract_z
Si Si1 0.541495 0.592117 0.420339
Si Si2 0.382327 0.906930 0.067706
Si Si3 0.379585 0.749014 0.655096
Si Si4 0.903293 0.766587 0.743289
Si Si5 0.497772 0.321030 0.870518
Si Si6 0.633806 0.908037 0.575249
Si Si7 0.830515 0.827300 0.076555
Si Si8 0.593320 0.093753 0.844261
O O1 0.555141 0.500000 0.398843
O O2 0.573084 0.667212 0.381871
O O3 0.723529 0.596252 0.415010
O O4 0.308687 0.599233 0.497509
O O5 0.428562 0.873289 0.102977
O O6 0.125624 0.900796 0.117269
O O7 0.460224 0.000000 0.052078
O O8 0.500000 0.869508 0.000000
O O9 0.477375 0.740931 0.678661
O O10 0.472162 0.831303 0.612760
O O11 0.119210 0.758671 0.720988
O O12 0.727901 0.697828 0.796062
O O13 0.772702 0.850259 0.780934
O O14 0.323201 0.251565 0.896703
O O15 0.539605 0.321743 0.910146
O O16 0.536634 0.000000 0.595725
O O17 0.645486 0.897088 0.120831
O O18 0.000000 0.839088 0.000000
O O19 0.661680 0.000000 0.829761
#
# Coordination Sequence:
#
# PCOD9199330 Si02
#       8
#     8   8   8   8   8   8   8   8
#     4   9  19  38  63  93 126 157 193 248 304 355
#     4  10  20  36  60  84 108 142 188 244 304 364
#     4  12  21  39  61  91 119 162 209 243 290 352
#     4  11  24  37  56  80 116 158 199 236 281 352
#     4  11  21  38  53  79 113 145 187 237 293 346
#     4   9  19  38  64  93 124 156 197 246 304 357
#     4  11  21  34  59  83 104 140 187 243 300 360
#     4  10  22  40  55  77 116 154 185 239 308 354
#
# _framework density 19.906790000000001
#
# number of rings (size 3 to 8) (size 9 to 14) (size 15 to 20)
#    0.000    1.625    1.250    6.375    0.000    1.750 
#    0.000    1.250    0.000    1.500    0.000    0.000 
#    0.000    0.000    0.000    0.000    0.000    0.000 
#
# Total GULP energy -178569.633843 kJ/mol
# GULP energy per Si atom -5580.301058 kJ/mol
# Density = 1.986148 g / cm^3
# Si number density = 19.906790 Si / 1000 Ang^3
#
#
#
# Elastic Constant Matrix: (Units=GPa)
#
#
# Indices 1 2 3 4 5 6 
#
# 1 48.1688 -7.7198 -15.7138 -0.0009 2.3567 -0.0004
# 2 -7.7198 94.7833 34.3128 -0.0003 0.1654 0.0001
# 3 -15.7138 34.3128 53.5861 -0.0027 -2.9944 0.0004
# 4 -0.0009 -0.0003 -0.0027 18.1442 0.0025 -4.9957
# 5 2.3567 0.1654 -2.9944 0.0025 29.6549 -0.0008
# 6 -0.0004 0.0001 0.0004 -4.9957 -0.0008 14.9709
#
#
#
# Elastic Compliance Matrix: (Units=1/GPa)
#
#
# Indices 1 2 3 4 5 6 
#
# 1 0.023032 -0.000709 0.007146 0.000003 -0.001105 0.000001
# 2 -0.000709 0.013784 -0.009087 -0.000001 -0.000938 0.000000
# 3 0.007146 -0.009087 0.026697 0.000004 0.002178 0.000001
# 4 0.000003 -0.000001 0.000004 0.060690 -0.000004 0.020252
# 5 -0.001105 -0.000938 0.002178 -0.000004 0.034034 0.000000
# 6 0.000001 0.000000 0.000001 0.020252 0.000000 0.073554
#
#
# Mechanical properties :
#
#
# Convention : Reuss Voigt Hill
#
# Bulk Modulus (GPa) = 17.17789 24.25518 20.71653
# Shear Modulus (GPa) = 19.49351 24.93126 22.21239
#
# Velocity S-wave (km/s) = 3.13268 3.54277 3.34401
# Velocity P-wave (km/s) = 4.66184 5.38012 5.03381
#
# Compressibility (1/GPa) = 0.05821436
#
# Stress axis : x y z
#
# Youngs Moduli (GPa) = 43.41775 72.54948 37.45693
#
# Poissons Ratio (x) = 0.05146 -0.26769
# Poissons Ratio (y) = 0.03080 0.34035
# Poissons Ratio (z) = -0.31028 0.65922
#
# Static dielectric constant tensor:
#      x y z
#    x 1.686080 0.000000 0.009460 
#    y 0.000000 1.758100 0.000000 
#    z 0.009460 0.000000 1.701610 
# 
# From -- ./inp_files/372908.got.cif
#   From: 2010.05.17/outbox.cif.g08.bks.cpg/sg12_187_cif.got.tgz:372908.got - 2010.06.03 13:09:07.
