data_PCOD9199940
_publ_section_title
;
Structure prediction by ZEFSAII (Michael W. Deem and Ramdas Pophale) SiO2 
 PCOD9199940
Probable space group: C 2/M
;
_chemical_formula_sum "Si O2"
_cell_formula_units_Z 50
_cell_length_a 27.469974
_cell_length_b 9.912164
_cell_length_c 26.571679
_cell_angle_alpha 90.000000
_cell_angle_beta 20.708752
_cell_angle_gamma 90.000000
_cell_volume 2558.466627
_symmetry_space_group_name_H-M "C 2/M"
_symmetry_group_IT_number 12
_symmetry_cell_setting 'monoclinic'
loop_
_space_group_symop_operation_xyz
x,y,z
-x,y,-z
-x,-y,-z
x,-y,z
1/2+x,1/2+y,z
1/2-x,1/2+y,-z
1/2-x,1/2-y,-z
1/2+x,1/2-y,z
loop_
_atom_site_type_symbol
_atom_site_label
_atom_site_fract_x
_atom_site_fract_y
_atom_site_fract_z
Si Si1 0.551942 0.251040 0.024153
Si Si2 0.931523 0.155598 0.787744
Si Si3 0.444141 0.339568 0.440889
Si Si4 0.657793 0.152335 0.292059
Si Si5 0.750394 0.651748 0.683459
Si Si6 0.500000 0.000000 0.000000
Si Si7 0.396128 0.157330 0.913774
O O1 0.411000 0.330203 0.150777
O O2 0.557192 0.210768 0.077506
O O3 0.689002 0.332292 0.878049
O O4 0.547961 0.118098 0.993669
O O5 0.956271 0.255813 0.809807
O O6 0.021101 0.180957 0.651368
O O7 0.951621 0.000000 0.784053
O O8 0.770583 0.169832 0.927842
O O9 0.441716 0.500000 0.453203
O O10 0.562895 0.264337 0.358014
O O11 0.305531 0.265809 0.592623
O O12 0.671983 0.170388 0.338311
O O13 0.606843 0.000000 0.331487
O O14 0.776770 0.500000 0.639571
O O15 0.430407 0.000000 0.875165
#
# Coordination Sequence:
#
# PCOD9199940 Si02
#       7
#     8   8   8   8   8   2   8
#     4  12  23  39  65  93 127 165 207 255 312 367
#     4   9  20  39  59  89 122 155 200 259 311 368
#     4  11  24  40  64  90 124 161 208 258 313 370
#     4  11  23  40  62  89 124 165 208 255 311 373
#     4  11  25  42  58  88 129 168 207 253 310 379
#     4  12  24  36  66  98 136 160 210 262 310 370
#     4  10  20  36  62  91 121 153 204 257 310 364
#
# _framework density 19.542956
#
# number of rings (size 3 to 8) (size 9 to 14) (size 15 to 20)
#    0.000    1.280    4.000    1.440    2.240    6.400 
#    0.000    0.800    0.000    0.000    0.000    0.000 
#    0.000    0.000    0.000    0.000    0.000    0.000 
#
# Total GULP energy -139462.688477 kJ/mol
# GULP energy per Si atom -5578.507539 kJ/mol
# Density = 1.949848 g / cm^3
# Si number density = 19.542956 Si / 1000 Ang^3
#
#
#
# Elastic Constant Matrix: (Units=GPa)
#
#
# Indices 1 2 3 4 5 6 
#
# 1 75.5455 43.4660 -11.1918 0.0006 10.3802 -0.0010
# 2 43.4660 112.3290 24.0090 0.0028 20.9299 -0.0003
# 3 -11.1918 24.0090 74.6212 0.0037 8.4104 -0.0019
# 4 0.0006 0.0028 0.0037 54.4931 -0.0017 -142.0684
# 5 10.3802 20.9299 8.4104 -0.0017 23.3314 0.0028
# 6 -0.0010 -0.0003 -0.0019 -142.0684 0.0028 480.8270
#
#
#
# Elastic Compliance Matrix: (Units=1/GPa)
#
#
# Indices 1 2 3 4 5 6 
#
# 1 0.019204 -0.008041 0.005855 0.000000 -0.003441 0.000000
# 2 -0.008041 0.014507 -0.005014 -0.000002 -0.007629 -0.000001
# 3 0.005855 -0.005014 0.016343 -0.000003 -0.003999 -0.000001
# 4 0.000000 -0.000002 -0.000003 0.079894 0.000007 0.023606
# 5 -0.003441 -0.007629 -0.003999 0.000007 0.052677 0.000002
# 6 0.000000 -0.000001 -0.000001 0.023606 0.000002 0.009055
#
#
# Mechanical properties :
#
#
# Convention : Reuss Voigt Hill
#
# Bulk Modulus (GPa) = 28.04698 41.67357 34.86027
# Shear Modulus (GPa) = 22.93955 125.47778 74.20867
#
# Velocity S-wave (km/s) = 3.42980 8.02157 6.16883
# Velocity P-wave (km/s) = 5.48336 10.35202 8.28347
#
# Compressibility (1/GPa) = 0.03565447
#
# Stress axis : x y z
#
# Youngs Moduli (GPa) = 52.07241 68.93126 61.18802
#
# Poissons Ratio (x) = 0.55431 -0.35828
# Poissons Ratio (y) = 0.41874 0.30679
# Poissons Ratio (z) = -0.30490 0.34561
#
# Static dielectric constant tensor:
#      x y z
#    x 1.651750 0.000000 -0.002170 
#    y 0.000000 1.656090 0.000000 
#    z -0.002170 0.000000 1.710490 
# 
# From -- ./inp_files/186915.got.cif
#   From: 2010.05.17/outbox.cif.g08.bks.cpg/sg12_94_cif.got.tgz:186915.got - 2010.06.03 13:09:07.
