data_PCOD9199435
_publ_section_title
;
Structure prediction by ZEFSAII (Michael W. Deem and Ramdas Pophale) SiO2 
 PCOD9199435
Probable space group: C 2/M
;
_chemical_formula_sum "Si O2"
_cell_formula_units_Z 48
_cell_length_a 19.606805
_cell_length_b 8.602434
_cell_length_c 20.309050
_cell_angle_alpha 90.000000
_cell_angle_beta 49.942117
_cell_angle_gamma 90.000000
_cell_volume 2621.822131
_symmetry_space_group_name_H-M "C 2/M"
_symmetry_group_IT_number 12
_symmetry_cell_setting 'monoclinic'
loop_
_space_group_symop_operation_xyz
x,y,z
-x,y,-z
-x,-y,-z
x,-y,z
1/2+x,1/2+y,z
1/2-x,1/2+y,-z
1/2-x,1/2-y,-z
1/2+x,1/2-y,z
loop_
_atom_site_type_symbol
_atom_site_label
_atom_site_fract_x
_atom_site_fract_y
_atom_site_fract_z
Si Si1 0.673868 0.685720 0.094750
Si Si2 0.484837 0.685445 0.368715
Si Si3 0.323106 0.184901 0.760258
Si Si4 0.017014 0.686025 0.777620
Si Si5 0.794897 0.685694 0.279801
Si Si6 0.696803 0.185915 0.469595
O O1 0.671055 0.500000 0.094416
O O2 0.690328 0.741287 0.159416
O O3 0.576896 0.754142 0.136793
O O4 0.750000 0.750000 0.000000
O O5 0.482908 0.500000 0.375766
O O6 0.582607 0.749611 0.325053
O O7 0.469697 0.734113 0.301798
O O8 0.405287 0.760628 0.459462
O O9 0.245633 0.233133 0.758790
O O10 0.329575 0.000000 0.762642
O O11 0.013075 0.500000 0.769676
O O12 0.101504 0.720937 0.770649
O O13 0.785086 0.500000 0.279876
O O14 0.740946 0.743905 0.377068
O O15 0.750000 0.250000 0.500000
O O16 0.702693 0.000000 0.465067
#
# Coordination Sequence:
#
# PCOD9199435 Si02
#       6
#     8   8   8   8   8   8
#     4  11  22  40  66  92 119 150 192 237 288 351
#     4  11  21  36  58  83 115 156 203 246 291 344
#     4  11  23  40  61  87 121 155 194 241 296 352
#     4  10  20  36  60  87 118 153 194 239 291 349
#     4  11  23  39  59  86 121 158 196 243 296 346
#     4  12  23  36  56  84 117 156 204 249 291 341
#
# _framework density 18.307877999999999
#
# number of rings (size 3 to 8) (size 9 to 14) (size 15 to 20)
#    0.000    1.000    1.667    9.000    0.000    2.667 
#    0.000    4.167    0.000    5.000    0.000    0.000 
#    0.000    0.000    0.000    0.000    0.000    0.000 
#
# Total GULP energy -134234.812808 kJ/mol
# GULP energy per Si atom -5593.117200 kJ/mol
# Density = 1.826621 g / cm^3
# Si number density = 18.307878 Si / 1000 Ang^3
#
#
#
# Elastic Constant Matrix: (Units=GPa)
#
#
# Indices 1 2 3 4 5 6 
#
# 1 106.3327 19.9825 37.3812 0.0000 -13.0426 0.0000
# 2 19.9825 75.7509 8.3753 0.0000 -5.1424 0.0000
# 3 37.3812 8.3753 111.7808 0.0000 -20.7155 0.0000
# 4 0.0000 0.0000 0.0000 33.1621 0.0000 -1.8471
# 5 -13.0426 -5.1424 -20.7155 0.0000 19.4000 0.0000
# 6 0.0000 0.0000 0.0000 -1.8471 0.0000 33.5866
#
#
#
# Elastic Compliance Matrix: (Units=1/GPa)
#
#
# Indices 1 2 3 4 5 6 
#
# 1 0.011353 -0.002410 -0.002892 0.000000 0.003905 0.000000
# 2 -0.002410 0.013971 0.000181 0.000000 0.002277 0.000000
# 3 -0.002892 0.000181 0.011904 0.000000 0.010815 0.000000
# 4 0.000000 0.000000 0.000000 0.030248 0.000000 0.001664
# 5 0.003905 0.002277 0.010815 0.000000 0.066323 0.000000
# 6 0.000000 0.000000 0.000000 0.001664 0.000000 0.029865
#
#
# Mechanical properties :
#
#
# Convention : Reuss Voigt Hill
#
# Bulk Modulus (GPa) = 37.05639 47.26028 42.15833
# Shear Modulus (GPa) = 27.33696 32.43810 29.88753
#
# Velocity S-wave (km/s) = 3.86836 4.21386 4.04480
# Velocity P-wave (km/s) = 6.34326 7.03887 6.70010
#
# Compressibility (1/GPa) = 0.02698590
#
# Stress axis : x y z
#
# Youngs Moduli (GPa) = 88.08117 71.57466 84.00574
#
# Poissons Ratio (x) = 0.17249 0.24297
# Poissons Ratio (y) = 0.21227 -0.01520
# Poissons Ratio (z) = 0.25476 -0.01295
#
# Static dielectric constant tensor:
#      x y z
#    x 1.628610 0.000000 -0.015800 
#    y 0.000000 1.608560 0.000000 
#    z -0.015800 0.000000 1.603660 
# 
# From -- ./inp_files/313578.got.cif
#   From: 2010.05.17/outbox.cif.g08.bks.cpg/sg12_157_cif.got.tgz:313578.got - 2010.06.03 13:09:07.
