data_PCOD9199937
_publ_section_title
;
Structure prediction by ZEFSAII (Michael W. Deem and Ramdas Pophale) SiO2 
 PCOD9199937
Probable space group: C 2/M
;
_chemical_formula_sum "Si O2"
_cell_formula_units_Z 48
_cell_length_a 17.144553
_cell_length_b 16.566748
_cell_length_c 7.165369
_cell_angle_alpha 90.000000
_cell_angle_beta 88.866178
_cell_angle_gamma 90.000000
_cell_volume 2034.777620
_symmetry_space_group_name_H-M "C 2/M"
_symmetry_group_IT_number 12
_symmetry_cell_setting 'monoclinic'
loop_
_space_group_symop_operation_xyz
x,y,z
-x,y,-z
-x,-y,-z
x,-y,z
1/2+x,1/2+y,z
1/2-x,1/2+y,-z
1/2-x,1/2-y,-z
1/2+x,1/2-y,z
loop_
_atom_site_type_symbol
_atom_site_label
_atom_site_fract_x
_atom_site_fract_y
_atom_site_fract_z
Si Si1 0.357330 0.401249 0.506155
Si Si2 0.437998 0.093789 0.656456
Si Si3 0.552629 0.409794 0.158332
Si Si4 0.677364 0.354710 0.908158
Si Si5 0.310419 0.092934 0.354492
Si Si6 0.645918 0.172550 0.016891
O O1 0.357121 0.500000 0.500185
O O2 0.427064 0.374906 0.640408
O O3 0.356573 0.368915 0.296473
O O4 0.275579 0.373177 0.602178
O O5 0.500000 0.123135 0.500000
O O6 0.357692 0.094515 0.543855
O O7 0.422247 0.144544 0.842508
O O8 0.457677 0.000000 0.701680
O O9 0.519451 0.500000 0.191839
O O10 0.500000 0.369475 0.000000
O O11 0.635936 0.415277 0.051615
O O12 0.770718 0.359932 0.908290
O O13 0.654450 0.267755 0.991897
O O14 0.302528 0.000000 0.296572
O O15 0.357521 0.137299 0.190861
#
# Coordination Sequence:
#
# PCOD9199937 Si02
#       6
#     8   8   8   8   8   8
#     4  10  20  36  64  96 125 167 219 270 321 382
#     4  10  22  41  64  93 128 166 215 272 323 379
#     4  10  22  41  64  91 126 167 219 277 332 385
#     4  11  23  38  61  91 130 170 213 263 323 385
#     4  10  20  36  62  91 120 165 219 265 315 381
#     4  11  23  38  62  93 129 171 214 261 323 387
#
# _framework density 23.589803
#
# number of rings (size 3 to 8) (size 9 to 14) (size 15 to 20)
#    0.000    1.667    3.333    1.000    0.000    4.667 
#    3.000    5.000    0.000    0.000    0.000    0.000 
#    0.000    0.000    0.000    0.000    0.000    0.000 
#
# Total GULP energy -134119.590694 kJ/mol
# GULP energy per Si atom -5588.316279 kJ/mol
# Density = 2.353611 g / cm^3
# Si number density = 23.589803 Si / 1000 Ang^3
#
#
#
# Elastic Constant Matrix: (Units=GPa)
#
#
# Indices 1 2 3 4 5 6 
#
# 1 69.5208 4.4074 28.2867 0.0000 -7.8052 0.0000
# 2 4.4074 33.5183 15.5325 0.0000 -18.1188 0.0000
# 3 28.2867 15.5325 129.6433 0.0000 -12.1001 0.0000
# 4 0.0000 0.0000 0.0000 46.5214 0.0000 -9.6088
# 5 -7.8052 -18.1188 -12.1001 0.0000 62.5766 0.0000
# 6 0.0000 0.0000 0.0000 -9.6088 0.0000 19.7513
#
#
#
# Elastic Compliance Matrix: (Units=1/GPa)
#
#
# Indices 1 2 3 4 5 6 
#
# 1 0.015896 0.000224 -0.003365 0.000000 0.001397 0.000000
# 2 0.000224 0.036855 -0.003530 0.000000 0.010017 0.000000
# 3 -0.003365 -0.003530 0.008897 0.000000 0.000279 0.000000
# 4 0.000000 0.000000 0.000000 0.023897 0.000000 0.011625
# 5 0.001397 0.010017 0.000279 0.000000 0.019109 0.000000
# 6 0.000000 0.000000 0.000000 0.011625 0.000000 0.056285
#
#
# Mechanical properties :
#
#
# Convention : Reuss Voigt Hill
#
# Bulk Modulus (GPa) = 20.70078 36.57063 28.63571
# Shear Modulus (GPa) = 26.26307 38.06691 32.16499
#
# Velocity S-wave (km/s) = 3.34027 4.02145 3.69658
# Velocity P-wave (km/s) = 4.86527 6.09090 5.51226
#
# Compressibility (1/GPa) = 0.04830735
#
# Stress axis : x y z
#
# Youngs Moduli (GPa) = 62.90940 27.13307 112.40349
#
# Poissons Ratio (x) = -0.00608 0.37821
# Poissons Ratio (y) = -0.01411 0.39675
# Poissons Ratio (z) = 0.21168 0.09577
#
# Static dielectric constant tensor:
#      x y z
#    x 1.956180 0.000000 0.017210 
#    y 0.000000 1.904550 0.000000 
#    z 0.017210 0.000000 1.875760 
# 
# From -- ./inp_files/20973.got.cif
#   From: 2010.05.17/outbox.cif.g08.bks.cpg/sg12_11_cif.got.tgz:20973.got - 2010.06.03 13:09:07.
