data_PCOD9199747
_publ_section_title
;
Structure prediction by ZEFSAII (Michael W. Deem and Ramdas Pophale) SiO2 
 PCOD9199747
Probable space group: C 2/M
;
_chemical_formula_sum "Si O2"
_cell_formula_units_Z 64
_cell_length_a 8.862923
_cell_length_b 27.899213
_cell_length_c 14.147633
_cell_angle_alpha 90.000000
_cell_angle_beta 117.339909
_cell_angle_gamma 90.000000
_cell_volume 3107.500287
_symmetry_space_group_name_H-M "C 2/M"
_symmetry_group_IT_number 12
_symmetry_cell_setting 'monoclinic'
loop_
_space_group_symop_operation_xyz
x,y,z
-x,y,-z
-x,-y,-z
x,-y,z
1/2+x,1/2+y,z
1/2-x,1/2+y,-z
1/2-x,1/2-y,-z
1/2+x,1/2-y,z
loop_
_atom_site_type_symbol
_atom_site_label
_atom_site_fract_x
_atom_site_fract_y
_atom_site_fract_z
Si Si1 0.767496 0.352601 0.608809
Si Si2 0.956162 0.138002 0.839856
Si Si3 0.929965 0.825408 0.629103
Si Si4 0.971953 0.726443 0.748517
Si Si5 0.258289 0.553855 0.889002
Si Si6 0.861229 0.444789 0.737045
Si Si7 0.308393 0.097822 0.929699
Si Si8 0.846426 0.760754 0.890753
O O1 0.606951 0.337093 0.627606
O O2 0.714892 0.337334 0.488634
O O3 0.937318 0.323671 0.687888
O O4 0.792770 0.408339 0.638938
O O5 0.904464 0.142753 0.715637
O O6 0.876365 0.093014 0.872092
O O7 0.898011 0.185691 0.875137
O O8 0.160694 0.136640 0.895959
O O9 0.934853 0.770422 0.666999
O O10 0.839012 0.729037 0.794876
O O11 0.148080 0.734393 0.855453
O O12 0.321350 0.500000 0.890532
O O13 0.066184 0.557846 0.795196
O O14 0.234114 0.562886 0.994491
O O15 0.810488 0.500000 0.709860
O O16 0.804157 0.426719 0.825402
O O17 0.500000 0.116006 0.000000
O O18 0.000000 0.743390 0.000000
#
# Coordination Sequence:
#
# PCOD9199747 Si02
#       8
#     8   8   8   8   8   8   8   8
#     4  11  21  42  68  90 123 166 210 269 318 366
#     4  11  22  40  56  90 125 159 210 258 315 377
#     4  10  23  41  62  94 122 157 215 268 313 375
#     4  11  22  42  64  91 124 162 209 258 312 366
#     4  10  21  37  60  89 126 165 206 258 312 373
#     4  10  21  39  62  94 127 163 210 255 310 381
#     4  10  20  36  61  89 123 168 211 257 307 370
#     4  11  23  39  59  90 127 164 198 249 307 388
#
# _framework density 20.595331999999999
#
# number of rings (size 3 to 8) (size 9 to 14) (size 15 to 20)
#    0.000    1.500    2.500    3.000    0.000    4.000 
#    0.000    8.125    0.000    1.500    0.000    0.000 
#    0.000    0.000    0.000    0.000    0.000    0.000 
#
# Total GULP energy -178610.128154 kJ/mol
# GULP energy per Si atom -5581.566505 kJ/mol
# Density = 2.054846 g / cm^3
# Si number density = 20.595332 Si / 1000 Ang^3
#
#
#
# Elastic Constant Matrix: (Units=GPa)
#
#
# Indices 1 2 3 4 5 6 
#
# 1 70.1718 15.2691 23.6099 0.0000 -4.7836 0.0000
# 2 15.2691 86.6867 43.5576 0.0000 0.1855 0.0000
# 3 23.6099 43.5576 101.6809 0.0000 -6.5394 0.0000
# 4 0.0000 0.0000 0.0000 55.7845 0.0000 -12.5557
# 5 -4.7836 0.1855 -6.5394 0.0000 27.9454 0.0000
# 6 0.0000 0.0000 0.0000 -12.5557 0.0000 33.8585
#
#
#
# Elastic Compliance Matrix: (Units=1/GPa)
#
#
# Indices 1 2 3 4 5 6 
#
# 1 0.015661 -0.001274 -0.002962 0.000000 0.001996 0.000000
# 2 -0.001274 0.014874 -0.006189 0.000000 -0.001765 0.000000
# 3 -0.002962 -0.006189 0.013345 0.000000 0.002657 0.000000
# 4 0.000000 0.000000 0.000000 0.019559 0.000000 0.007253
# 5 0.001996 -0.001765 0.002657 0.000000 0.036759 0.000000
# 6 0.000000 0.000000 0.000000 0.007253 0.000000 0.032224
#
#
# Mechanical properties :
#
#
# Convention : Reuss Voigt Hill
#
# Bulk Modulus (GPa) = 43.42561 47.04587 45.23574
# Shear Modulus (GPa) = 31.06577 35.25786 33.16182
#
# Velocity S-wave (km/s) = 3.88801 4.14204 4.01704
# Velocity P-wave (km/s) = 6.42545 6.76520 6.59751
#
# Compressibility (1/GPa) = 0.02302789
#
# Stress axis : x y z
#
# Youngs Moduli (GPa) = 63.85395 67.23151 74.93632
#
# Poissons Ratio (x) = 0.08568 0.22197
# Poissons Ratio (y) = 0.08138 0.46380
# Poissons Ratio (z) = 0.18914 0.41611
#
# Static dielectric constant tensor:
#      x y z
#    x 1.746510 0.000000 0.004560 
#    y 0.000000 1.715130 0.000000 
#    z 0.004560 0.000000 1.759090 
# 
# From -- ./inp_files/200939.got.cif
#   From: 2010.05.17/outbox.cif.g08.bks.cpg/sg12_101_cif.got.tgz:200939.got - 2010.06.03 13:09:07.
