data_PCOD9199830
_publ_section_title
;
Structure prediction by ZEFSAII (Michael W. Deem and Ramdas Pophale) SiO2 
 PCOD9199830
Probable space group: C 2/M
;
_chemical_formula_sum "Si O2"
_cell_formula_units_Z 64
_cell_length_a 9.177700
_cell_length_b 20.581523
_cell_length_c 17.535331
_cell_angle_alpha 90.000000
_cell_angle_beta 95.534958
_cell_angle_gamma 90.000000
_cell_volume 3296.823643
_symmetry_space_group_name_H-M "C 2/M"
_symmetry_group_IT_number 12
_symmetry_cell_setting 'monoclinic'
loop_
_space_group_symop_operation_xyz
x,y,z
-x,y,-z
-x,-y,-z
x,-y,z
1/2+x,1/2+y,z
1/2-x,1/2+y,-z
1/2-x,1/2-y,-z
1/2+x,1/2-y,z
loop_
_atom_site_type_symbol
_atom_site_label
_atom_site_fract_x
_atom_site_fract_y
_atom_site_fract_z
Si Si1 0.289804 0.694254 0.779899
Si Si2 0.728205 0.075448 0.194521
Si Si3 0.580897 0.925073 0.738479
Si Si4 0.594849 0.685405 0.713056
Si Si5 0.838277 0.195030 0.958028
Si Si6 0.674730 0.075656 0.014760
Si Si7 0.030764 0.347176 0.591308
Si Si8 0.248871 0.761366 0.589989
O O1 0.200934 0.626957 0.770854
O O2 0.429290 0.691467 0.731535
O O3 0.185538 0.753847 0.751593
O O4 0.342676 0.708143 0.868374
O O5 0.564029 0.084495 0.217938
O O6 0.835792 0.121658 0.246032
O O7 0.724973 0.088842 0.104142
O O8 0.767052 0.000000 0.207300
O O9 0.535963 0.907115 0.649219
O O10 0.627562 0.000000 0.747159
O O11 0.631291 0.690467 0.624629
O O12 0.750000 0.250000 0.000000
O O13 0.756898 0.126623 0.966364
O O14 0.000000 0.191755 0.000000
O O15 0.705068 0.000000 0.998101
O O16 0.500000 0.084779 0.000000
O O17 0.184554 0.309331 0.609579
O O18 0.000000 0.360969 0.500000
O O19 0.903469 0.297084 0.612669
O O20 0.250000 0.750000 0.500000
#
# Coordination Sequence:
#
# PCOD9199830 Si02
#       8
#     8   8   8   8   8   8   8   8
#     4  12  25  38  63  90 120 159 204 255 308 360
#     4  10  21  38  61  87 117 157 203 252 305 362
#     4  11  23  40  60  88 125 164 207 251 299 360
#     4  12  22  40  63  90 123 156 201 252 304 363
#     4  12  25  42  59  88 122 159 201 255 312 367
#     4  10  21  39  62  85 114 157 206 253 304 363
#     4  10  20  37  61  94 123 159 198 242 300 356
#     4  10  20  36  61  93 124 152 196 244 295 358
#
# _framework density 19.412624000000001
#
# number of rings (size 3 to 8) (size 9 to 14) (size 15 to 20)
#    0.000    1.125    2.500    4.875    0.000    2.500 
#    0.000    0.000    0.000    0.000    0.000    1.750 
#    0.000    0.000    0.000    0.000    0.000    0.000 
#
# Total GULP energy -178652.394742 kJ/mol
# GULP energy per Si atom -5582.887336 kJ/mol
# Density = 1.936844 g / cm^3
# Si number density = 19.412624 Si / 1000 Ang^3
#
#
#
# Elastic Constant Matrix: (Units=GPa)
#
#
# Indices 1 2 3 4 5 6 
#
# 1 103.7624 40.3825 20.7954 0.0000 -5.9474 0.0000
# 2 40.3825 60.8765 16.8097 0.0000 -2.4461 0.0000
# 3 20.7954 16.8097 94.2020 0.0000 -4.8196 0.0000
# 4 0.0000 0.0000 0.0000 31.0815 0.0000 3.9236
# 5 -5.9474 -2.4461 -4.8196 0.0000 29.6226 0.0000
# 6 0.0000 0.0000 0.0000 3.9236 0.0000 35.4850
#
#
#
# Elastic Compliance Matrix: (Units=1/GPa)
#
#
# Indices 1 2 3 4 5 6 
#
# 1 0.013259 -0.008353 -0.001347 0.000000 0.001753 0.000000
# 2 -0.008353 0.022566 -0.002192 0.000000 -0.000170 0.000000
# 3 -0.001347 -0.002192 0.011375 0.000000 0.001399 0.000000
# 4 0.000000 0.000000 0.000000 0.032629 0.000000 -0.003608
# 5 0.001753 -0.000170 0.001399 0.000000 0.034324 0.000000
# 6 0.000000 0.000000 0.000000 -0.003608 0.000000 0.028580
#
#
# Mechanical properties :
#
#
# Convention : Reuss Voigt Hill
#
# Bulk Modulus (GPa) = 42.70247 46.09068 44.39657
# Shear Modulus (GPa) = 28.68288 31.29471 29.98880
#
# Velocity S-wave (km/s) = 3.84805 4.01943 3.93467
# Velocity P-wave (km/s) = 6.46439 6.73314 6.60013
#
# Compressibility (1/GPa) = 0.02341785
#
# Stress axis : x y z
#
# Youngs Moduli (GPa) = 75.42317 44.31485 87.90883
#
# Poissons Ratio (x) = 0.37015 0.11838
# Poissons Ratio (y) = 0.62999 0.19265
# Poissons Ratio (z) = 0.10157 0.09712
#
# Static dielectric constant tensor:
#      x y z
#    x 1.670450 0.000000 0.007400 
#    y 0.000000 1.667230 0.000000 
#    z 0.007400 0.000000 1.739850 
# 
# From -- ./inp_files/258089.got.cif
#   From: 2010.05.17/outbox.cif.g08.bks.cpg/sg12_130_cif.got.tgz:258089.got - 2010.06.03 13:09:07.
