data_PCOD9199053
_publ_section_title
;
Structure prediction by ZEFSAII (Michael W. Deem and Ramdas Pophale) SiO2 
 PCOD9199053
Probable space group: C 2/M
;
_chemical_formula_sum "Si O2"
_cell_formula_units_Z 64
_cell_length_a 30.533708
_cell_length_b 7.678698
_cell_length_c 18.841467
_cell_angle_alpha 90.000000
_cell_angle_beta 141.267388
_cell_angle_gamma 90.000000
_cell_volume 2764.004962
_symmetry_space_group_name_H-M "C 2/M"
_symmetry_group_IT_number 12
_symmetry_cell_setting 'monoclinic'
loop_
_space_group_symop_operation_xyz
x,y,z
-x,y,-z
-x,-y,-z
x,-y,z
1/2+x,1/2+y,z
1/2-x,1/2+y,-z
1/2-x,1/2-y,-z
1/2+x,1/2-y,z
loop_
_atom_site_type_symbol
_atom_site_label
_atom_site_fract_x
_atom_site_fract_y
_atom_site_fract_z
Si Si1 0.703190 0.198932 0.046521
Si Si2 0.563372 0.299754 0.798888
Si Si3 0.571828 0.712861 0.128886
Si Si4 0.063663 0.298418 0.534228
Si Si5 0.706517 0.701818 0.210624
Si Si6 0.159172 0.798560 0.531674
Si Si7 0.926664 0.785907 0.706185
Si Si8 0.144943 0.787281 0.769902
O O1 0.711916 0.202598 0.142562
O O2 0.777019 0.268247 0.110701
O O3 0.694145 0.000000 0.011856
O O4 0.633816 0.296029 0.934635
O O5 0.544724 0.500000 0.760809
O O6 0.498874 0.224356 0.760890
O O7 0.587384 0.224425 0.753637
O O8 0.571526 0.500000 0.129265
O O9 0.639850 0.767152 0.170717
O O10 0.576686 0.770360 0.216716
O O11 0.500000 0.768029 0.000000
O O12 0.047865 0.500000 0.499577
O O13 0.090873 0.214509 0.496468
O O14 0.126911 0.283662 0.670046
O O15 0.000000 0.219710 0.500000
O O16 0.694018 0.500000 0.176714
O O17 0.775933 0.711953 0.346484
O O18 0.135890 0.730639 0.425316
O O19 0.178070 0.000000 0.548566
O O20 0.926758 0.000000 0.706735
O O21 0.144732 0.000000 0.767353
#
# Coordination Sequence:
#
# PCOD9199053 Si02
#       8
#     8   8   8   8   8   8   8   8
#     4  11  22  36  55  83 119 156 194 239 295 353
#     4  10  20  36  59  85 113 151 199 244 291 349
#     4   9  18  35  61  91 118 148 193 244 294 352
#     4  11  23  37  56  83 116 156 203 249 291 341
#     4  11  22  37  61  88 116 154 200 248 295 349
#     4  11  22  38  60  85 118 157 197 243 295 353
#     4   9  19  36  59  87 116 150 195 243 292 350
#     4  10  21  36  55  82 115 155 198 238 289 352
#
# _framework density 23.154807000000002
#
# number of rings (size 3 to 8) (size 9 to 14) (size 15 to 20)
#    0.000    1.750    1.250    3.375    0.000    5.500 
#    0.000    1.250    0.000    9.000    0.000    0.000 
#    0.000    0.000    0.000    0.000    0.000    0.000 
#
# Total GULP energy -178924.580649 kJ/mol
# GULP energy per Si atom -5591.393145 kJ/mol
# Density = 2.310211 g / cm^3
# Si number density = 23.154807 Si / 1000 Ang^3
#
#
#
# Elastic Constant Matrix: (Units=GPa)
#
#
# Indices 1 2 3 4 5 6 
#
# 1 102.7170 3.3237 21.0358 0.0000 -5.4021 0.0000
# 2 3.3237 51.4681 -1.6202 -0.0001 0.6640 0.0000
# 3 21.0358 -1.6202 96.1098 0.0000 -15.3666 0.0000
# 4 0.0000 -0.0001 0.0000 8.1190 0.0000 5.7636
# 5 -5.4021 0.6640 -15.3666 0.0000 43.3953 0.0000
# 6 0.0000 0.0000 0.0000 5.7636 0.0000 5.5652
#
#
#
# Elastic Compliance Matrix: (Units=1/GPa)
#
#
# Indices 1 2 3 4 5 6 
#
# 1 0.010231 -0.000736 -0.002169 0.000000 0.000517 0.000000
# 2 -0.000736 0.019494 0.000453 0.000001 -0.000229 -0.000001
# 3 -0.002169 0.000453 0.011494 0.000000 0.003793 0.000000
# 4 0.000000 0.000001 0.000000 0.465124 0.000000 -0.481704
# 5 0.000517 -0.000229 0.003793 0.000000 0.024455 0.000000
# 6 0.000000 -0.000001 0.000000 -0.481704 0.000000 0.678561
#
#
# Mechanical properties :
#
#
# Convention : Reuss Voigt Hill
#
# Bulk Modulus (GPa) = 27.53673 32.86374 30.20023
# Shear Modulus (GPa) = 4.07708 26.58628 15.33168
#
# Velocity S-wave (km/s) = 1.32839 3.39218 2.57600
# Velocity P-wave (km/s) = 3.77771 5.43750 4.68175
#
# Compressibility (1/GPa) = 0.03631513
#
# Stress axis : x y z
#
# Youngs Moduli (GPa) = 97.74537 51.29727 87.00502
#
# Poissons Ratio (x) = 0.03774 0.18871
# Poissons Ratio (y) = 0.07190 -0.03941
# Poissons Ratio (z) = 0.21201 -0.02324
#
# Static dielectric constant tensor:
#      x y z
#    x 1.857070 0.000000 0.010400 
#    y 0.000000 1.842930 0.000000 
#    z 0.010400 0.000000 1.875070 
# 
# From -- ./inp_files/295827.got.cif
#   From: 2010.05.17/outbox.cif.g08.bks.cpg/sg12_148_cif.got.tgz:295827.got - 2010.06.03 13:09:07.
