data_PCOD9199116
_publ_section_title
;
Structure prediction by ZEFSAII (Michael W. Deem and Ramdas Pophale) SiO2 
 PCOD9199116
Probable space group: C 2/M
;
_chemical_formula_sum "Si O2"
_cell_formula_units_Z 64
_cell_length_a 29.400426
_cell_length_b 8.858638
_cell_length_c 19.513080
_cell_angle_alpha 90.000000
_cell_angle_beta 139.120887
_cell_angle_gamma 90.000000
_cell_volume 3326.082210
_symmetry_space_group_name_H-M "C 2/M"
_symmetry_group_IT_number 12
_symmetry_cell_setting 'monoclinic'
loop_
_space_group_symop_operation_xyz
x,y,z
-x,y,-z
-x,-y,-z
x,-y,z
1/2+x,1/2+y,z
1/2-x,1/2+y,-z
1/2-x,1/2-y,-z
1/2+x,1/2-y,z
loop_
_atom_site_type_symbol
_atom_site_label
_atom_site_fract_x
_atom_site_fract_y
_atom_site_fract_z
Si Si1 0.649577 0.817769 0.616668
Si Si2 0.032866 0.182013 0.214760
Si Si3 0.123258 0.826418 0.969362
Si Si4 0.797210 0.321135 0.825282
Si Si5 0.947996 0.682553 0.614073
Si Si6 0.420166 0.819193 0.326276
Si Si7 0.183113 0.173043 0.891422
Si Si8 0.423544 0.318078 0.882855
O O1 0.723962 0.748463 0.718939
O O2 0.619334 0.777381 0.507924
O O3 0.592772 0.771936 0.610010
O O4 0.655244 0.000000 0.626327
O O5 0.051882 0.251416 0.309552
O O6 0.078506 0.220620 0.200340
O O7 0.954324 0.228979 0.105089
O O8 0.031584 0.000000 0.219979
O O9 0.130917 0.827000 0.896543
O O10 0.130443 0.000000 0.001575
O O11 0.181368 0.730268 0.073718
O O12 0.793660 0.500000 0.817142
O O13 0.860821 0.258342 0.851949
O O14 0.951876 0.500000 0.623321
O O15 0.014204 0.735205 0.643583
O O16 0.351374 0.767223 0.208007
O O17 0.425631 0.000000 0.333210
O O18 0.195956 0.000000 0.885442
O O19 0.250000 0.250000 0.000000
O O20 0.417580 0.500000 0.882599
O O21 0.500000 0.278234 0.000000
#
# Coordination Sequence:
#
# PCOD9199116 Si02
#       8
#     8   8   8   8   8   8   8   8
#     4  10  22  41  61  82 116 163 203 236 287 355
#     4  10  20  37  62  89 115 149 192 235 285 350
#     4  10  20  37  57  79 114 158 193 227 284 357
#     4  12  25  38  58  90 122 150 191 250 299 338
#     4  10  21  38  62  89 118 153 198 249 293 336
#     4  10  20  36  59  86 115 151 199 246 287 339
#     4  11  22  34  51  78 116 156 194 235 286 344
#     4  10  20  39  65  88 115 155 195 229 285 365
#
# _framework density 19.241858000000001
#
# number of rings (size 3 to 8) (size 9 to 14) (size 15 to 20)
#    0.000    1.625    2.500    2.625    0.000    7.750 
#    0.000    0.625    0.000    2.250    0.000    0.000 
#    0.000    0.000    0.000    0.000    0.000    0.000 
#
# Total GULP energy -178668.733011 kJ/mol
# GULP energy per Si atom -5583.397907 kJ/mol
# Density = 1.919806 g / cm^3
# Si number density = 19.241858 Si / 1000 Ang^3
#
#
#
# Elastic Constant Matrix: (Units=GPa)
#
#
# Indices 1 2 3 4 5 6 
#
# 1 79.6497 24.5091 38.4254 0.0000 -16.2672 0.0000
# 2 24.5091 23.1387 26.2124 0.0000 -4.8511 0.0000
# 3 38.4254 26.2124 122.0612 0.0000 -18.2546 0.0000
# 4 0.0000 0.0000 0.0000 25.6346 0.0000 -5.1476
# 5 -16.2672 -4.8511 -18.2546 0.0000 28.7785 0.0000
# 6 0.0000 0.0000 0.0000 -5.1476 0.0000 22.6127
#
#
#
# Elastic Compliance Matrix: (Units=1/GPa)
#
#
# Indices 1 2 3 4 5 6 
#
# 1 0.020462 -0.018594 -0.001312 0.000000 0.007600 0.000000
# 2 -0.018594 0.074117 -0.010790 0.000000 -0.004861 0.000000
# 3 -0.001312 -0.010790 0.011644 0.000000 0.004826 0.000000
# 4 0.000000 0.000000 0.000000 0.040878 0.000000 0.009306
# 5 0.007600 -0.004861 0.004826 0.000000 0.041286 0.000000
# 6 0.000000 0.000000 0.000000 0.009306 0.000000 0.046341
#
#
# Mechanical properties :
#
#
# Convention : Reuss Voigt Hill
#
# Bulk Modulus (GPa) = 22.30584 44.79374 33.54979
# Shear Modulus (GPa) = 16.07389 24.45200 20.26294
#
# Velocity S-wave (km/s) = 2.89340 3.56866 3.24862
# Velocity P-wave (km/s) = 4.77282 6.34904 5.61650
#
# Compressibility (1/GPa) = 0.04483132
#
# Stress axis : x y z
#
# Youngs Moduli (GPa) = 48.87227 13.49219 85.87797
#
# Poissons Ratio (x) = 0.25087 0.11266
# Poissons Ratio (y) = 0.90873 0.92662
# Poissons Ratio (z) = 0.06411 0.14558
#
# Static dielectric constant tensor:
#      x y z
#    x 1.687550 0.000000 0.016120 
#    y 0.000000 1.653180 0.000000 
#    z 0.016120 0.000000 1.626220 
# 
# From -- ./inp_files/295855.got.cif
#   From: 2010.05.17/outbox.cif.g08.bks.cpg/sg12_148_cif.got.tgz:295855.got - 2010.06.03 13:09:07.
