data_PCOD9199320
_publ_section_title
;
Structure prediction by ZEFSAII (Michael W. Deem and Ramdas Pophale) SiO2 
 PCOD9199320
Probable space group: C 2/M
;
_chemical_formula_sum "Si O2"
_cell_formula_units_Z 42
_cell_length_a 11.206807
_cell_length_b 12.891004
_cell_length_c 14.417313
_cell_angle_alpha 90.000000
_cell_angle_beta 63.112581
_cell_angle_gamma 90.000000
_cell_volume 1857.665839
_symmetry_space_group_name_H-M "C 2/M"
_symmetry_group_IT_number 12
_symmetry_cell_setting 'monoclinic'
loop_
_space_group_symop_operation_xyz
x,y,z
-x,y,-z
-x,-y,-z
x,-y,z
1/2+x,1/2+y,z
1/2-x,1/2+y,-z
1/2-x,1/2-y,-z
1/2+x,1/2-y,z
loop_
_atom_site_type_symbol
_atom_site_label
_atom_site_fract_x
_atom_site_fract_y
_atom_site_fract_z
Si Si1 0.500000 0.000000 0.500000
Si Si2 0.035357 0.111345 0.595888
Si Si3 0.677611 0.215029 0.156090
Si Si4 0.770160 0.387872 0.237665
Si Si5 0.430588 0.837068 0.364054
Si Si6 0.111635 0.885538 0.039407
O O1 0.440370 0.909188 0.449870
O O2 0.890280 0.110270 0.695081
O O3 0.105208 0.217548 0.599894
O O4 0.000000 0.115761 0.500000
O O5 0.103295 0.000000 0.591917
O O6 0.789537 0.287589 0.166549
O O7 0.579043 0.164570 0.265048
O O8 0.597423 0.295319 0.119224
O O9 0.749562 0.134476 0.063367
O O10 0.815854 0.500000 0.184461
O O11 0.832727 0.374515 0.317226
O O12 0.108220 0.000000 0.083741
O O13 0.000000 0.881407 0.000000
#
# Coordination Sequence:
#
# PCOD9199320 Si02
#       6
#     2   8   8   8   8   8
#     4  12  24  40  58  92 126 168 194 274 292 356
#     4   9  19  37  55  79 109 150 203 253 295 352
#     4  10  22  39  60  91 121 157 200 249 296 376
#     4  10  20  36  60  82 117 163 200 246 302 357
#     4  11  22  39  60  86 124 159 209 248 310 348
#     4  10  21  39  64  90 123 153 195 248 311 360
#
# _framework density 22.609017999999999
#
# number of rings (size 3 to 8) (size 9 to 14) (size 15 to 20)
#    0.000    1.905    1.905    1.714    1.333    1.524 
#    0.000    0.952    0.000    6.286    0.000    0.000 
#    0.000    0.000    0.000    0.000    0.000    0.000 
#
# Total GULP energy -117049.402168 kJ/mol
# GULP energy per Si atom -5573.781056 kJ/mol
# Density = 2.255756 g / cm^3
# Si number density = 22.609018 Si / 1000 Ang^3
#
#
#
# Elastic Constant Matrix: (Units=GPa)
#
#
# Indices 1 2 3 4 5 6 
#
# 1 66.5800 38.1818 14.3789 0.0000 26.8105 0.0000
# 2 38.1818 123.0092 7.6355 0.0000 12.1923 0.0000
# 3 14.3789 7.6355 44.9551 0.0000 15.4781 0.0000
# 4 0.0000 0.0000 0.0000 -43.0090 0.0000 -31.7772
# 5 26.8105 12.1923 15.4781 0.0000 42.1988 0.0000
# 6 0.0000 0.0000 0.0000 -31.7772 0.0000 -7.8820
#
#
#
# Elastic Compliance Matrix: (Units=1/GPa)
#
#
# Indices 1 2 3 4 5 6 
#
# 1 0.024133 -0.006086 -0.002302 0.000000 -0.012730 0.000000
# 2 -0.006086 0.009922 -0.000095 0.000000 0.001035 0.000000
# 3 -0.002302 -0.000095 0.025734 0.000000 -0.007949 0.000000
# 4 0.000000 0.000000 0.000000 0.011750 0.000000 -0.047373
# 5 -0.012730 0.001035 -0.007949 0.000000 0.034402 0.000000
# 6 0.000000 0.000000 0.000000 -0.047373 0.000000 0.064117
#
#
# Mechanical properties :
#
#
# Convention : Reuss Voigt Hill
#
# Bulk Modulus (GPa) = 23.35262 39.43742 31.39502
# Shear Modulus (GPa) = 24.83880 9.88477 17.36178
#
# Velocity S-wave (km/s) = 3.31814 2.09321 2.77413
# Velocity P-wave (km/s) = 5.00314 4.82940 4.91704
#
# Compressibility (1/GPa) = 0.04282176
#
# Stress axis : x y z
#
# Youngs Moduli (GPa) = 41.43696 100.78692 38.85959
#
# Poissons Ratio (x) = 0.61341 0.08947
# Poissons Ratio (y) = 0.25219 0.00369
# Poissons Ratio (z) = 0.09540 0.00956
#
# Static dielectric constant tensor:
#      x y z
#    x 1.823040 0.000000 -0.023990 
#    y 0.000000 1.867640 0.000000 
#    z -0.023990 0.000000 1.840570 
# 
# From -- ./inp_files/203373.got.cif
#   From: 2010.05.17/outbox.cif.g08.bks.cpg/sg12_102_cif.got.tgz:203373.got - 2010.06.03 13:09:07.
