data_PCOD9199769
_publ_section_title
;
Structure prediction by ZEFSAII (Michael W. Deem and Ramdas Pophale) SiO2 
 PCOD9199769
Probable space group: C 2/M
;
_chemical_formula_sum "Si O2"
_cell_formula_units_Z 58
_cell_length_a 26.291806
_cell_length_b 14.608901
_cell_length_c 11.319682
_cell_angle_alpha 90.000000
_cell_angle_beta 33.540383
_cell_angle_gamma 90.000000
_cell_volume 2402.280955
_symmetry_space_group_name_H-M "C 2/M"
_symmetry_group_IT_number 12
_symmetry_cell_setting 'monoclinic'
loop_
_space_group_symop_operation_xyz
x,y,z
-x,y,-z
-x,-y,-z
x,-y,z
1/2+x,1/2+y,z
1/2-x,1/2+y,-z
1/2-x,1/2-y,-z
1/2+x,1/2-y,z
loop_
_atom_site_type_symbol
_atom_site_label
_atom_site_fract_x
_atom_site_fract_y
_atom_site_fract_z
Si Si1 0.743933 0.859893 0.148558
Si Si2 0.894313 0.137844 0.030884
Si Si3 0.251072 0.862194 0.125460
Si Si4 0.887522 0.643070 0.072225
Si Si5 0.285210 0.399490 0.474555
Si Si6 0.087881 0.160224 0.582214
Si Si7 0.500000 0.000000 0.500000
Si Si8 0.053776 0.368797 0.611089
O O1 0.840941 0.886802 0.014855
O O2 0.747258 0.749051 0.135286
O O3 0.662154 0.889744 0.393865
O O4 0.725491 0.893076 0.051546
O O5 0.891635 0.247163 0.058728
O O6 0.834841 0.101266 0.253956
O O7 0.000529 0.112070 0.810451
O O8 0.326284 0.888732 0.077397
O O9 0.148308 0.888518 0.365035
O O10 0.824108 0.616948 0.305893
O O11 0.990898 0.609955 0.846886
O O12 0.301877 0.500000 0.495214
O O13 0.336755 0.326668 0.459103
O O14 0.052410 0.257873 0.602542
O O15 0.488087 0.079609 0.419811
#
# Coordination Sequence:
#
# PCOD9199769 Si02
#       8
#     8   8   8   8   8   8   2   8
#     4   9  17  32  54  84 125 160 199 257 306 377
#     4  10  20  36  61  90 124 169 216 261 324 387
#     4   8  15  30  55  87 117 156 208 249 306 373
#     4   9  19  36  60  88 121 164 215 262 316 388
#     4  11  23  40  65  94 121 166 223 282 324 377
#     4   9  20  37  60  92 126 164 212 269 321 388
#     4  12  24  36  64  96 132 174 212 260 304 396
#     4  10  21  37  58  93 128 168 210 253 317 385
#
# _framework density 24.143719000000001
#
# number of rings (size 3 to 8) (size 9 to 14) (size 15 to 20)
#    0.000    2.483    0.000    2.483    0.966    4.966 
#    1.241    2.069    0.000    0.828    0.000    5.310 
#    0.000    0.000    0.000    0.000    0.000    0.000 
#
# Total GULP energy -161606.700570 kJ/mol
# GULP energy per Si atom -5572.644847 kJ/mol
# Density = 2.408877 g / cm^3
# Si number density = 24.143719 Si / 1000 Ang^3
#
#
#
# Elastic Constant Matrix: (Units=GPa)
#
#
# Indices 1 2 3 4 5 6 
#
# 1 29.2189 5.5754 22.0959 0.0000 3.1253 0.0000
# 2 5.5754 110.0444 1.5656 0.0000 6.8954 0.0000
# 3 22.0959 1.5656 201.1622 0.0000 -20.6225 0.0000
# 4 0.0000 0.0000 0.0000 -44.9948 0.0000 -13.6132
# 5 3.1253 6.8954 -20.6225 0.0000 28.8293 0.0000
# 6 0.0000 0.0000 0.0000 -13.6132 0.0000 -17.9419
#
#
#
# Elastic Compliance Matrix: (Units=1/GPa)
#
#
# Indices 1 2 3 4 5 6 
#
# 1 0.039127 -0.001440 -0.005057 0.000000 -0.007515 0.000000
# 2 -0.001440 0.009298 -0.000136 0.000000 -0.002165 0.000000
# 3 -0.005057 -0.000136 0.006029 0.000000 0.004894 0.000000
# 4 0.000000 0.000000 0.000000 -0.028847 0.000000 0.021887
# 5 -0.007515 -0.002165 0.004894 0.000000 0.039520 0.000000
# 6 0.000000 0.000000 0.000000 0.021887 0.000000 -0.072342
#
#
# Mechanical properties :
#
#
# Convention : Reuss Voigt Hill
#
# Bulk Modulus (GPa) = 24.27846 44.32215 34.30031
# Shear Modulus (GPa) = 252.77678 13.92444 133.35061
#
# Velocity S-wave (km/s) = 10.24324 2.40413 7.43989
# Velocity P-wave (km/s) = 12.24648 5.10920 9.38297
#
# Compressibility (1/GPa) = 0.04118877
#
# Stress axis : x y z
#
# Youngs Moduli (GPa) = 25.55773 107.55246 165.85600
#
# Poissons Ratio (x) = 0.15483 0.83873
# Poissons Ratio (y) = 0.03679 0.02259
# Poissons Ratio (z) = 0.12924 0.01465
#
# Static dielectric constant tensor:
#      x y z
#    x 1.863390 0.000000 0.000350 
#    y 0.000000 1.959600 0.000000 
#    z 0.000350 0.000000 1.962240 
# 
# From -- ./inp_files/189932.got.cif
#   From: 2010.05.17/outbox.cif.g08.bks.cpg/sg12_95_cif.got.tgz:189932.got - 2010.06.03 13:09:07.
