data_PCOD9199273
_publ_section_title
;
Structure prediction by ZEFSAII (Michael W. Deem and Ramdas Pophale) SiO2 
 PCOD9199273
Probable space group: C 2/M
;
_chemical_formula_sum "Si O2"
_cell_formula_units_Z 64
_cell_length_a 17.693979
_cell_length_b 19.401426
_cell_length_c 23.652083
_cell_angle_alpha 90.000000
_cell_angle_beta 158.617227
_cell_angle_gamma 90.000000
_cell_volume 2960.338961
_symmetry_space_group_name_H-M "C 2/M"
_symmetry_group_IT_number 12
_symmetry_cell_setting 'monoclinic'
loop_
_space_group_symop_operation_xyz
x,y,z
-x,y,-z
-x,-y,-z
x,-y,z
1/2+x,1/2+y,z
1/2-x,1/2+y,-z
1/2-x,1/2-y,-z
1/2+x,1/2-y,z
loop_
_atom_site_type_symbol
_atom_site_label
_atom_site_fract_x
_atom_site_fract_y
_atom_site_fract_z
Si Si1 0.743927 0.917087 0.417816
Si Si2 0.305907 0.822131 0.509893
Si Si3 0.166159 0.581745 0.918269
Si Si4 0.492590 0.417363 0.929335
Si Si5 0.519250 0.790102 0.078216
Si Si6 0.846876 0.681680 0.340689
Si Si7 0.793831 0.918882 0.244034
Si Si8 0.132087 0.137712 0.830836
O O1 0.681254 0.879552 0.432238
O O2 0.572096 0.894330 0.252583
O O3 0.984392 0.901442 0.572818
O O4 0.739163 0.000000 0.422130
O O5 0.250000 0.750000 0.500000
O O6 0.510706 0.814136 0.615841
O O7 0.107974 0.843029 0.333880
O O8 0.153855 0.500000 0.903027
O O9 0.305701 0.608719 0.963785
O O10 0.287423 0.595881 0.059927
O O11 0.489704 0.500000 0.925096
O O12 0.289044 0.387265 0.758139
O O13 0.500000 0.396792 0.000000
O O14 0.676655 0.742188 0.221102
O O15 0.619143 0.866971 0.144191
O O16 0.500000 0.765723 0.000000
O O17 0.285956 0.796703 0.937641
O O18 0.000000 0.684678 0.500000
O O19 0.830634 0.901378 0.203117
O O20 0.745464 0.000000 0.217706
#
# Coordination Sequence:
#
# PCOD9199273 Si02
#       8
#     8   8   8   8   8   8   8   8
#     4   9  19  36  59  85 114 151 193 236 284 343
#     4  11  23  41  62  84 113 153 197 237 283 344
#     4  10  20  36  59  90 122 149 187 239 289 338
#     4  10  22  41  64  88 115 151 192 233 285 348
#     4  10  22  39  58  83 117 156 197 235 282 344
#     4  12  25  41  60  85 119 152 189 240 293 340
#     4   9  18  35  59  85 116 156 198 236 280 338
#     4  10  21  36  58  87 116 150 191 241 290 334
#
# _framework density 21.619147000000002
#
# number of rings (size 3 to 8) (size 9 to 14) (size 15 to 20)
#    0.000    1.875    0.000    4.500    0.000    8.000 
#    0.000    1.875    0.000    2.625    0.000    0.000 
#    0.000    0.000    0.000    0.000    0.000    0.000 
#
# Total GULP energy -178830.140532 kJ/mol
# GULP energy per Si atom -5588.441892 kJ/mol
# Density = 2.156994 g / cm^3
# Si number density = 21.619147 Si / 1000 Ang^3
#
#
#
# Elastic Constant Matrix: (Units=GPa)
#
#
# Indices 1 2 3 4 5 6 
#
# 1 22.0762 -7.7091 4.2496 -0.0094 -2.3627 -0.0387
# 2 -7.7091 45.2927 16.2390 0.0450 1.6905 0.0076
# 3 4.2496 16.2390 146.5482 0.0685 -18.3253 0.0324
# 4 -0.0094 0.0450 0.0685 40.5273 0.0178 -0.2969
# 5 -2.3627 1.6905 -18.3253 0.0178 29.9115 -0.0044
# 6 -0.0387 0.0076 0.0324 -0.2969 -0.0044 4.3405
#
#
#
# Elastic Compliance Matrix: (Units=1/GPa)
#
#
# Indices 1 2 3 4 5 6 
#
# 1 0.049098 0.009060 -0.002173 0.000007 0.002035 0.000441
# 2 0.009060 0.024932 -0.003370 -0.000018 -0.002758 0.000058
# 3 -0.002173 -0.003370 0.007865 -0.000013 0.004837 -0.000068
# 4 0.000007 -0.000018 -0.000013 0.024687 -0.000021 0.001689
# 5 0.002035 -0.002758 0.004837 -0.000021 0.036712 0.000023
# 6 0.000441 0.000058 -0.000068 0.001689 0.000023 0.230507
#
#
# Mechanical properties :
#
#
# Convention : Reuss Voigt Hill
#
# Bulk Modulus (GPa) = 11.24500 26.60844 18.92672
# Shear Modulus (GPa) = 12.61312 28.36504 20.48908
#
# Velocity S-wave (km/s) = 2.41804 3.62613 3.08186
# Velocity P-wave (km/s) = 3.60674 5.46501 4.63006
#
# Compressibility (1/GPa) = 0.08892842
#
# Stress axis : x y z
#
# Youngs Moduli (GPa) = 20.36722 40.10902 127.14393
#
# Poissons Ratio (x) = -0.36339 0.27633
# Poissons Ratio (y) = -0.18453 0.42852
# Poissons Ratio (z) = 0.04427 0.13518
#
# Static dielectric constant tensor:
#      x y z
#    x 1.794650 -0.000010 -0.013180 
#    y -0.000010 1.784030 0.000020 
#    z -0.013180 0.000020 1.890080 
# 
# From -- ./inp_files/344901.got.cif
#   From: 2010.05.17/outbox.cif.g08.bks.cpg/sg12_173_cif.got.tgz:344901.got - 2010.06.03 13:09:07.
