data_PCOD9199108
_publ_section_title
;
Structure prediction by ZEFSAII (Michael W. Deem and Ramdas Pophale) SiO2 
 PCOD9199108
Probable space group: C 2/M
;
_chemical_formula_sum "Si O2"
_cell_formula_units_Z 48
_cell_length_a 9.255240
_cell_length_b 17.787908
_cell_length_c 29.151990
_cell_angle_alpha 90.000000
_cell_angle_beta 148.057764
_cell_angle_gamma 90.000000
_cell_volume 2539.153702
_symmetry_space_group_name_H-M "C 2/M"
_symmetry_group_IT_number 12
_symmetry_cell_setting 'monoclinic'
loop_
_space_group_symop_operation_xyz
x,y,z
-x,y,-z
-x,-y,-z
x,-y,z
1/2+x,1/2+y,z
1/2-x,1/2+y,-z
1/2-x,1/2-y,-z
1/2+x,1/2-y,z
loop_
_atom_site_type_symbol
_atom_site_label
_atom_site_fract_x
_atom_site_fract_y
_atom_site_fract_z
Si Si1 0.240882 0.088823 0.600042
Si Si2 0.537362 0.832514 0.256378
Si Si3 0.361845 0.411419 0.738122
Si Si4 0.768299 0.589830 0.040004
Si Si5 0.497116 0.588508 0.874642
Si Si6 0.762437 0.817870 0.217132
O O1 0.254148 0.140848 0.648327
O O2 0.539077 0.099076 0.657595
O O3 0.000000 0.106794 0.500000
O O4 0.217787 0.000000 0.606140
O O5 0.689408 0.814279 0.250648
O O6 0.349473 0.762828 0.221309
O O7 0.312935 0.898744 0.191404
O O8 0.414522 0.500000 0.748926
O O9 0.504085 0.382790 0.824024
O O10 0.481752 0.369950 0.726928
O O11 0.840413 0.500000 0.059008
O O12 0.006496 0.641773 0.123744
O O13 0.500000 0.596742 0.000000
O O14 0.693526 0.615514 0.968039
O O15 0.547441 0.500000 0.884752
#
# Coordination Sequence:
#
# PCOD9199108 Si02
#       6
#     8   8   8   8   8   8
#     4   9  19  40  69  95 117 145 184 233 289 352
#     4  11  22  37  57  82 118 156 193 234 293 348
#     4   9  19  36  59  86 117 151 192 241 293 349
#     4  10  20  36  59  86 114 151 204 250 288 337
#     4   9  18  36  58  82 112 152 196 242 293 342
#     4  12  24  38  55  83 119 161 201 239 288 341
#
# _framework density 18.903935000000001
#
# number of rings (size 3 to 8) (size 9 to 14) (size 15 to 20)
#    0.000    2.000    1.667    4.000    0.000    3.333 
#    0.000    6.667    0.000    3.000    0.000    0.000 
#    0.000    0.000    0.000    0.000    0.000    0.000 
#
# Total GULP energy -133892.509498 kJ/mol
# GULP energy per Si atom -5578.854562 kJ/mol
# Density = 1.886091 g / cm^3
# Si number density = 18.903935 Si / 1000 Ang^3
#
#
#
# Elastic Constant Matrix: (Units=GPa)
#
#
# Indices 1 2 3 4 5 6 
#
# 1 117.6910 38.3605 37.2127 -0.0023 -7.4434 0.0025
# 2 38.3605 43.0989 52.9858 -0.0017 -9.0295 0.0029
# 3 37.2127 52.9858 115.5937 0.0061 -24.7199 -0.0063
# 4 -0.0023 -0.0017 0.0061 24.6617 0.0008 -7.4312
# 5 -7.4434 -9.0295 -24.7199 0.0008 16.0087 -0.0043
# 6 0.0025 0.0029 -0.0063 -7.4312 -0.0043 57.5285
#
#
#
# Elastic Compliance Matrix: (Units=1/GPa)
#
#
# Indices 1 2 3 4 5 6 
#
# 1 0.012320 -0.014254 0.003095 -0.000001 0.002468 0.000001
# 2 -0.014254 0.071085 -0.031112 0.000010 -0.014574 -0.000006
# 3 0.003095 -0.031112 0.027577 -0.000008 0.026474 0.000005
# 4 -0.000001 0.000010 -0.000008 0.042191 -0.000008 0.005450
# 5 0.002468 -0.014574 0.026474 -0.000008 0.096273 0.000010
# 6 0.000001 -0.000006 0.000005 0.005450 0.000010 0.018087
#
#
# Mechanical properties :
#
#
# Convention : Reuss Voigt Hill
#
# Bulk Modulus (GPa) = 37.81982 59.27796 48.54889
# Shear Modulus (GPa) = 13.85475 29.49474 21.67475
#
# Velocity S-wave (km/s) = 2.71016 3.95428 3.38978
# Velocity P-wave (km/s) = 5.46288 7.23007 6.40769
#
# Compressibility (1/GPa) = 0.02644116
#
# Stress axis : x y z
#
# Youngs Moduli (GPa) = 81.16765 14.06776 36.26215
#
# Poissons Ratio (x) = 0.20052 -0.11225
# Poissons Ratio (y) = 1.15696 1.12818
# Poissons Ratio (z) = -0.25125 0.43767
#
# Static dielectric constant tensor:
#      x y z
#    x 1.671750 0.000000 -0.010580 
#    y 0.000000 1.774610 0.000000 
#    z -0.010580 0.000000 1.655850 
# 
# From -- ./inp_files/300636.got.cif
#   From: 2010.05.17/outbox.cif.g08.bks.cpg/sg12_151_cif.got.tgz:300636.got - 2010.06.03 13:09:07.
