data_PCOD9199358
_publ_section_title
;
Structure prediction by ZEFSAII (Michael W. Deem and Ramdas Pophale) SiO2 
 PCOD9199358
Probable space group: C 2/M
;
_chemical_formula_sum "Si O2"
_cell_formula_units_Z 48
_cell_length_a 19.159090
_cell_length_b 8.879824
_cell_length_c 15.233381
_cell_angle_alpha 90.000000
_cell_angle_beta 98.622875
_cell_angle_gamma 90.000000
_cell_volume 2562.350766
_symmetry_space_group_name_H-M "C 2/M"
_symmetry_group_IT_number 12
_symmetry_cell_setting 'monoclinic'
loop_
_space_group_symop_operation_xyz
x,y,z
-x,y,-z
-x,-y,-z
x,-y,z
1/2+x,1/2+y,z
1/2-x,1/2+y,-z
1/2-x,1/2-y,-z
1/2+x,1/2-y,z
loop_
_atom_site_type_symbol
_atom_site_label
_atom_site_fract_x
_atom_site_fract_y
_atom_site_fract_z
Si Si1 0.803776 0.681428 0.079898
Si Si2 0.798298 0.176889 0.434718
Si Si3 0.767395 0.180180 0.748410
Si Si4 0.428311 0.827183 0.541083
Si Si5 0.420918 0.818709 0.745065
Si Si6 0.966227 0.316516 0.086797
O O1 0.803582 0.500000 0.071202
O O2 0.772701 0.719131 0.169442
O O3 0.884886 0.732691 0.082095
O O4 0.750000 0.750000 0.000000
O O5 0.750000 0.250000 0.500000
O O6 0.777363 0.254071 0.340116
O O7 0.876239 0.216027 0.481454
O O8 0.786080 0.000000 0.426403
O O9 0.846281 0.246926 0.758008
O O10 0.771601 0.000000 0.741933
O O11 0.500000 0.828256 0.500000
O O12 0.436232 0.785846 0.645280
O O13 0.399684 0.000000 0.533911
O O14 0.483286 0.770013 0.822912
O O15 0.414716 0.000000 0.751366
O O16 0.965411 0.500000 0.086942
O O17 0.000000 0.269242 0.000000
#
# Coordination Sequence:
#
# PCOD9199358 Si02
#       6
#     8   8   8   8   8   8
#     4  10  22  39  62  90 119 153 195 243 298 354
#     4  12  24  40  62  88 120 161 207 252 301 356
#     4  11  23  38  60  88 122 159 197 247 303 359
#     4  10  22  38  60  88 120 159 202 249 299 357
#     4  10  20  36  60  85 114 156 201 243 294 354
#     4   9  18  34  58  86 114 149 193 240 287 348
#
# _framework density 18.732797999999999
#
# number of rings (size 3 to 8) (size 9 to 14) (size 15 to 20)
#    0.000    1.667    1.667    3.000    2.333    3.000 
#    0.000    0.833    0.000    3.000    0.000    0.000 
#    0.000    0.000    0.000    0.000    0.000    0.000 
#
# Total GULP energy -134039.173747 kJ/mol
# GULP energy per Si atom -5584.965573 kJ/mol
# Density = 1.869016 g / cm^3
# Si number density = 18.732798 Si / 1000 Ang^3
#
#
#
# Elastic Constant Matrix: (Units=GPa)
#
#
# Indices 1 2 3 4 5 6 
#
# 1 154.6992 39.2113 112.3181 0.0000 -2.6435 0.0000
# 2 39.2113 26.9864 53.8420 0.0000 -3.5590 0.0000
# 3 112.3181 53.8420 200.6698 0.0000 4.8183 0.0000
# 4 0.0000 0.0000 0.0000 16.7051 0.0000 6.5588
# 5 -2.6435 -3.5590 4.8183 0.0000 36.4838 0.0000
# 6 0.0000 0.0000 0.0000 6.5588 0.0000 32.4562
#
#
#
# Elastic Compliance Matrix: (Units=1/GPa)
#
#
# Indices 1 2 3 4 5 6 
#
# 1 0.011741 -0.008256 -0.004372 0.000000 0.000623 0.000000
# 2 -0.008256 0.089890 -0.019756 0.000000 0.010780 0.000000
# 3 -0.004372 -0.019756 0.012826 0.000000 -0.003938 0.000000
# 4 0.000000 0.000000 0.000000 0.065021 0.000000 -0.013140
# 5 0.000623 0.010780 -0.003938 0.000000 0.029026 0.000000
# 6 0.000000 0.000000 0.000000 -0.013140 0.000000 0.033466
#
#
# Mechanical properties :
#
#
# Convention : Reuss Voigt Hill
#
# Bulk Modulus (GPa) = 20.12516 88.12201 54.12359
# Shear Modulus (GPa) = 15.46545 28.92795 22.19670
#
# Velocity S-wave (km/s) = 2.87641 3.93395 3.44599
# Velocity P-wave (km/s) = 4.66886 8.23276 6.69240
#
# Compressibility (1/GPa) = 0.04968904
#
# Stress axis : x y z
#
# Youngs Moduli (GPa) = 85.16844 11.12470 77.96945
#
# Poissons Ratio (x) = 0.09185 0.34085
# Poissons Ratio (y) = 0.70317 1.54038
# Poissons Ratio (z) = 0.37232 0.21978
#
# Static dielectric constant tensor:
#      x y z
#    x 1.642290 0.000000 -0.021730 
#    y 0.000000 1.645050 0.000000 
#    z -0.021730 0.000000 1.641850 
# 
# From -- ./inp_files/221576.got.cif
#   From: 2010.05.17/outbox.cif.g08.bks.cpg/sg12_111_cif.got.tgz:221576.got - 2010.06.03 13:09:07.
