data_PCOD9199301
_publ_section_title
;
Structure prediction by ZEFSAII (Michael W. Deem and Ramdas Pophale) SiO2 
 PCOD9199301
Probable space group: C 2/M
;
_chemical_formula_sum "Si O2"
_cell_formula_units_Z 56
_cell_length_a 11.699871
_cell_length_b 18.552394
_cell_length_c 13.623404
_cell_angle_alpha 90.000000
_cell_angle_beta 64.386798
_cell_angle_gamma 90.000000
_cell_volume 2666.518515
_symmetry_space_group_name_H-M "C 2/M"
_symmetry_group_IT_number 12
_symmetry_cell_setting 'monoclinic'
loop_
_space_group_symop_operation_xyz
x,y,z
-x,y,-z
-x,-y,-z
x,-y,z
1/2+x,1/2+y,z
1/2-x,1/2+y,-z
1/2-x,1/2-y,-z
1/2+x,1/2-y,z
loop_
_atom_site_type_symbol
_atom_site_label
_atom_site_fract_x
_atom_site_fract_y
_atom_site_fract_z
Si Si1 0.325627 0.915823 0.181334
Si Si2 0.915298 0.367642 0.809449
Si Si3 0.717100 0.666577 0.032072
Si Si4 0.229351 0.270937 0.394843
Si Si5 0.083513 0.134447 0.380922
Si Si6 0.126299 0.576203 0.389582
Si Si7 0.493675 0.707006 0.226311
O O1 0.462327 0.892451 0.173083
O O2 0.282468 0.865132 0.106578
O O3 0.213293 0.905908 0.303621
O O4 0.330839 0.000000 0.150191
O O5 0.908697 0.409771 0.710443
O O6 0.932968 0.282267 0.780648
O O7 0.785007 0.375599 0.918695
O O8 0.566225 0.669331 0.108925
O O9 0.750000 0.750000 0.000000
O O10 0.250000 0.250000 0.500000
O O11 0.125989 0.214407 0.398006
O O12 0.194736 0.353837 0.403175
O O13 0.349813 0.266514 0.277544
O O14 0.004594 0.150693 0.311813
O O15 0.000000 0.102586 0.500000
O O16 0.196085 0.500000 0.373327
O O17 0.000000 0.572366 0.500000
#
# Coordination Sequence:
#
# PCOD9199301 Si02
#       7
#     8   8   8   8   8   8   8
#     4  11  24  39  61  96 131 167 211 265 324 380
#     4  11  20  40  65  90 127 168 210 259 319 377
#     4   9  22  40  63  91 125 167 212 262 306 371
#     4  12  21  37  66  91 121 170 213 260 313 386
#     4  11  21  36  59  91 124 162 216 259 311 380
#     4  11  25  41  60  94 131 162 207 266 321 380
#     4  10  20  36  59  93 121 157 212 264 308 365
#
# _framework density 21.001168
#
# number of rings (size 3 to 8) (size 9 to 14) (size 15 to 20)
#    0.000    1.286    4.286    2.143    0.000    2.000 
#    0.000    3.571    0.000    0.857    0.000    0.000 
#    0.000    0.000    0.000    0.000    0.000    0.000 
#
# Total GULP energy -156204.737423 kJ/mol
# GULP energy per Si atom -5578.740622 kJ/mol
# Density = 2.095337 g / cm^3
# Si number density = 21.001168 Si / 1000 Ang^3
#
#
#
# Elastic Constant Matrix: (Units=GPa)
#
#
# Indices 1 2 3 4 5 6 
#
# 1 41.2199 21.3073 30.9829 0.0000 -8.7984 0.0000
# 2 21.3073 104.9556 24.0508 0.0000 13.2204 0.0000
# 3 30.9829 24.0508 159.3317 0.0000 -19.1661 0.0000
# 4 0.0000 0.0000 0.0000 -50.5092 0.0000 -19.3682
# 5 -8.7984 13.2204 -19.1661 0.0000 31.7787 0.0000
# 6 0.0000 0.0000 0.0000 -19.3682 0.0000 15.1377
#
#
#
# Elastic Compliance Matrix: (Units=1/GPa)
#
#
# Indices 1 2 3 4 5 6 
#
# 1 0.033055 -0.006932 -0.004241 0.000000 0.009478 0.000000
# 2 -0.006932 0.012263 -0.001453 0.000000 -0.007897 0.000000
# 3 -0.004241 -0.001453 0.007819 0.000000 0.004146 0.000000
# 4 0.000000 0.000000 0.000000 -0.013282 0.000000 -0.016994
# 5 0.009478 -0.007897 0.004146 0.000000 0.039878 0.000000
# 6 0.000000 0.000000 0.000000 -0.016994 0.000000 0.044317
#
#
# Mechanical properties :
#
#
# Convention : Reuss Voigt Hill
#
# Bulk Modulus (GPa) = 35.86370 50.90990 43.38680
# Shear Modulus (GPa) = 31.52654 14.55919 23.04287
#
# Velocity S-wave (km/s) = 3.87871 2.63583 3.31602
# Velocity P-wave (km/s) = 6.09699 5.79289 5.94688
#
# Compressibility (1/GPa) = 0.02788335
#
# Stress axis : x y z
#
# Youngs Moduli (GPa) = 30.25304 81.54666 127.89433
#
# Poissons Ratio (x) = 0.56532 0.54241
# Poissons Ratio (y) = 0.20973 0.18583
# Poissons Ratio (z) = 0.12831 0.11848
#
# Static dielectric constant tensor:
#      x y z
#    x 1.754550 0.000000 0.011950 
#    y 0.000000 1.784710 0.000000 
#    z 0.011950 0.000000 1.740540 
# 
# From -- ./inp_files/206570.got.cif
#   From: 2010.05.17/outbox.cif.g08.bks.cpg/sg12_104_cif.got.tgz:206570.got - 2010.06.03 13:09:07.
