data_PCOD9199815
_publ_section_title
;
Structure prediction by ZEFSAII (Michael W. Deem and Ramdas Pophale) SiO2 
 PCOD9199815
Probable space group: C 2/M
;
_chemical_formula_sum "Si O2"
_cell_formula_units_Z 46
_cell_length_a 24.147570
_cell_length_b 12.508522
_cell_length_c 19.541790
_cell_angle_alpha 90.000000
_cell_angle_beta 156.544853
_cell_angle_gamma 90.000000
_cell_volume 2349.420297
_symmetry_space_group_name_H-M "C 2/M"
_symmetry_group_IT_number 12
_symmetry_cell_setting 'monoclinic'
loop_
_space_group_symop_operation_xyz
x,y,z
-x,y,-z
-x,-y,-z
x,-y,z
1/2+x,1/2+y,z
1/2-x,1/2+y,-z
1/2-x,1/2-y,-z
1/2+x,1/2-y,z
loop_
_atom_site_type_symbol
_atom_site_label
_atom_site_fract_x
_atom_site_fract_y
_atom_site_fract_z
Si Si1 0.215341 0.381041 0.346850
Si Si2 0.979615 0.121697 0.735197
Si Si3 0.214444 0.193838 0.235328
Si Si4 0.576741 0.196969 0.947612
Si Si5 0.128950 0.877966 0.759760
Si Si6 0.000000 0.722077 0.500000
Si Si7 0.500000 0.500000 0.000000
O O1 0.245858 0.500000 0.351687
O O2 0.321106 0.367456 0.529866
O O3 0.236072 0.282358 0.318902
O O4 0.055894 0.376234 0.189017
O O5 0.023159 0.204553 0.841590
O O6 0.070862 0.138435 0.770135
O O7 0.001374 0.000000 0.784311
O O8 0.365822 0.160874 0.377320
O O9 0.119338 0.094359 0.147447
O O10 0.135027 0.256962 0.084743
O O11 0.706113 0.140768 0.057448
O O12 0.057030 0.797357 0.625526
O O13 0.097024 0.000000 0.703909
#
# Coordination Sequence:
#
# PCOD9199815 Si02
#       7
#     8   8   8   8   8   4   2
#     4  11  22  41  64  97 126 161 212 269 319 362
#     4  10  22  38  62  87 126 169 208 257 316 377
#     4  11  24  40  66  92 125 165 211 259 307 374
#     4  11  22  37  59  93 125 168 204 257 314 381
#     4  10  20  36  61  92 126 162 204 260 316 370
#     4  10  21  39  64  94 120 158 208 262 312 370
#     4  12  24  46  62  92 128 170 208 250 312 368
#
# _framework density 19.579298000000001
#
# number of rings (size 3 to 8) (size 9 to 14) (size 15 to 20)
#    0.000    1.391    3.478    1.826    1.217    4.522 
#    0.000    0.000    1.913    0.000    0.000    0.000 
#    0.000    0.000    0.000    0.000    0.000    0.000 
#
# Total GULP energy -128209.601968 kJ/mol
# GULP energy per Si atom -5574.330520 kJ/mol
# Density = 1.953473 g / cm^3
# Si number density = 19.579298 Si / 1000 Ang^3
#
#
#
# Elastic Constant Matrix: (Units=GPa)
#
#
# Indices 1 2 3 4 5 6 
#
# 1 16.1968 10.0258 15.8003 0.0000 13.6596 0.0000
# 2 10.0258 76.6439 -0.7530 -0.0001 -4.5531 0.0000
# 3 15.8003 -0.7530 69.5878 -0.0001 24.2871 0.0000
# 4 0.0000 -0.0001 -0.0001 35.9030 -0.0001 3.0363
# 5 13.6596 -4.5531 24.2871 -0.0001 39.5640 0.0000
# 6 0.0000 0.0000 0.0000 3.0363 0.0000 9.1492
#
#
#
# Elastic Compliance Matrix: (Units=1/GPa)
#
#
# Indices 1 2 3 4 5 6 
#
# 1 0.113768 -0.016937 -0.014796 0.000000 -0.032145 0.000000
# 2 -0.016937 0.015672 0.001712 0.000000 0.006600 0.000000
# 3 -0.014796 0.001712 0.020231 0.000000 -0.007114 0.000000
# 4 0.000000 0.000000 0.000000 0.028657 0.000000 -0.009510
# 5 -0.032145 0.006600 -0.007114 0.000000 0.041500 0.000000
# 6 0.000000 0.000000 0.000000 -0.009510 0.000000 0.112455
#
#
# Mechanical properties :
#
#
# Convention : Reuss Voigt Hill
#
# Bulk Modulus (GPa) = 11.15718 23.61942 17.38830
# Shear Modulus (GPa) = 11.84268 26.08029 18.96148
#
# Velocity S-wave (km/s) = 2.46205 3.65366 3.11536
# Velocity P-wave (km/s) = 3.71391 5.46705 4.67342
#
# Compressibility (1/GPa) = 0.08962835
#
# Stress axis : x y z
#
# Youngs Moduli (GPa) = 8.78984 63.80887 49.42855
#
# Poissons Ratio (x) = 1.08073 0.73134
# Poissons Ratio (y) = 0.14887 -0.08460
# Poissons Ratio (z) = 0.13005 -0.10922
#
# Static dielectric constant tensor:
#      x y z
#    x 1.706270 0.000000 0.038190 
#    y 0.000000 1.650330 0.000000 
#    z 0.038190 0.000000 1.676440 
# 
# From -- ./inp_files/327985.got.cif
#   From: 2010.05.17/outbox.cif.g08.bks.cpg/sg12_164_cif.got.tgz:327985.got - 2010.06.03 13:09:07.
