data_PCOD9199521
_publ_section_title
;
Structure prediction by ZEFSAII (Michael W. Deem and Ramdas Pophale) SiO2 
 PCOD9199521
Probable space group: C 2/M
;
_chemical_formula_sum "Si O2"
_cell_formula_units_Z 64
_cell_length_a 12.298926
_cell_length_b 13.328780
_cell_length_c 17.570420
_cell_angle_alpha 90.000000
_cell_angle_beta 117.415482
_cell_angle_gamma 90.000000
_cell_volume 2556.828205
_symmetry_space_group_name_H-M "C 2/M"
_symmetry_group_IT_number 12
_symmetry_cell_setting 'monoclinic'
loop_
_space_group_symop_operation_xyz
x,y,z
-x,y,-z
-x,-y,-z
x,-y,z
1/2+x,1/2+y,z
1/2-x,1/2+y,-z
1/2-x,1/2-y,-z
1/2+x,1/2-y,z
loop_
_atom_site_type_symbol
_atom_site_label
_atom_site_fract_x
_atom_site_fract_y
_atom_site_fract_z
Si Si1 0.217328 0.320823 0.371704
Si Si2 0.127053 0.881408 0.710787
Si Si3 0.973018 0.380130 0.575414
Si Si4 0.432228 0.725194 0.046750
Si Si5 0.684086 0.880215 0.760501
Si Si6 0.006140 0.618500 0.182564
Si Si7 0.143102 0.883187 0.311505
Si Si8 0.746479 0.379277 0.904237
O O1 0.338241 0.351297 0.364096
O O2 0.217824 0.201386 0.379042
O O3 0.160968 0.361654 0.431708
O O4 0.111047 0.358907 0.278173
O O5 0.219471 0.848566 0.807807
O O6 0.993539 0.862758 0.703583
O O7 0.139333 0.000000 0.713706
O O8 0.988282 0.500000 0.577764
O O9 0.078968 0.342633 0.667814
O O10 0.000000 0.340590 0.500000
O O11 0.516677 0.804493 0.118147
O O12 0.375509 0.644904 0.086128
O O13 0.500000 0.670737 0.000000
O O14 0.338796 0.803621 0.975796
O O15 0.628339 0.854975 0.824645
O O16 0.814661 0.862034 0.762448
O O17 0.674796 0.000000 0.758631
O O18 0.010463 0.500000 0.164587
O O19 0.171927 0.000000 0.335997
O O20 0.775340 0.500000 0.916897
#
# Coordination Sequence:
#
# PCOD9199521 Si02
#       8
#     8   8   8   8   8   8   8   8
#     4  11  21  33  63  90 117 150 199 243 288 343
#     4  10  21  38  59  86 118 150 191 242 296 347
#     4   9  18  35  61  93 125 155 193 243 294 343
#     4  11  23  38  59  83 111 150 195 242 299 356
#     4   8  17  35  58  83 115 152 194 234 282 344
#     4  10  20  36  60  89 115 146 195 251 296 345
#     4  10  22  37  57  85 120 158 191 238 295 345
#     4  10  23  41  56  79 116 154 193 240 294 354
#
# _framework density 25.031013999999999
#
# number of rings (size 3 to 8) (size 9 to 14) (size 15 to 20)
#    0.000    2.125    0.000    3.750    5.250    2.250 
#    2.250    0.625    0.000    0.375    0.000    0.000 
#    0.000    0.000    0.000    0.000    0.000    0.000 
#
# Total GULP energy -178586.889634 kJ/mol
# GULP energy per Si atom -5580.840301 kJ/mol
# Density = 2.497404 g / cm^3
# Si number density = 25.031014 Si / 1000 Ang^3
#
#
#
# Elastic Constant Matrix: (Units=GPa)
#
#
# Indices 1 2 3 4 5 6 
#
# 1 174.9315 16.5944 35.1405 0.0000 -44.0128 0.0000
# 2 16.5944 69.2673 -5.7288 0.0000 0.6240 0.0000
# 3 35.1405 -5.7288 67.1069 0.0000 -26.4946 0.0000
# 4 0.0000 0.0000 0.0000 14.9504 0.0000 -5.6710
# 5 -44.0128 0.6240 -26.4946 0.0000 39.3287 0.0000
# 6 0.0000 0.0000 0.0000 -5.6710 0.0000 36.2377
#
#
#
# Elastic Compliance Matrix: (Units=1/GPa)
#
#
# Indices 1 2 3 4 5 6 
#
# 1 0.008305 -0.002163 -0.001159 0.000000 0.008548 0.000000
# 2 -0.002163 0.015122 0.001871 0.000000 -0.001400 0.000000
# 3 -0.001159 0.001871 0.020632 0.000000 0.012573 0.000000
# 4 0.000000 0.000000 0.000000 0.071109 0.000000 0.011128
# 5 0.008548 -0.001400 0.012573 0.000000 0.043485 0.000000
# 6 0.000000 0.000000 0.000000 0.011128 0.000000 0.029337
#
#
# Mechanical properties :
#
#
# Convention : Reuss Voigt Hill
#
# Bulk Modulus (GPa) = 24.29651 44.81309 34.55480
# Shear Modulus (GPa) = 24.43671 35.79002 30.11336
#
# Velocity S-wave (km/s) = 3.12790 3.78541 3.47225
# Velocity P-wave (km/s) = 4.77207 6.08668 5.46902
#
# Compressibility (1/GPa) = 0.04115818
#
# Stress axis : x y z
#
# Youngs Moduli (GPa) = 120.40806 66.12778 48.46865
#
# Poissons Ratio (x) = 0.14300 0.05616
# Poissons Ratio (y) = 0.26038 -0.09067
# Poissons Ratio (z) = 0.13952 -0.12371
#
# Static dielectric constant tensor:
#      x y z
#    x 2.106460 0.000000 0.024280 
#    y 0.000000 1.943190 0.000000 
#    z 0.024280 0.000000 1.999000 
# 
# From -- ./inp_files/305473.got.cif
#   From: 2010.05.17/outbox.cif.g08.bks.cpg/sg12_153_cif.got.tgz:305473.got - 2010.06.03 13:09:07.
