data_PCOD9199359
_publ_section_title
;
Structure prediction by ZEFSAII (Michael W. Deem and Ramdas Pophale) SiO2 
 PCOD9199359
Probable space group: C 2/M
;
_chemical_formula_sum "Si O2"
_cell_formula_units_Z 64
_cell_length_a 34.016390
_cell_length_b 9.159966
_cell_length_c 9.839436
_cell_angle_alpha 90.000000
_cell_angle_beta 94.798969
_cell_angle_gamma 90.000000
_cell_volume 3055.112000
_symmetry_space_group_name_H-M "C 2/M"
_symmetry_group_IT_number 12
_symmetry_cell_setting 'monoclinic'
loop_
_space_group_symop_operation_xyz
x,y,z
-x,y,-z
-x,-y,-z
x,-y,z
1/2+x,1/2+y,z
1/2-x,1/2+y,-z
1/2-x,1/2-y,-z
1/2+x,1/2-y,z
loop_
_atom_site_type_symbol
_atom_site_label
_atom_site_fract_x
_atom_site_fract_y
_atom_site_fract_z
Si Si1 0.438271 0.673556 0.293840
Si Si2 0.791442 0.329821 0.989868
Si Si3 0.369925 0.326729 0.054286
Si Si4 0.493299 0.171453 0.841601
Si Si5 0.721343 0.832347 0.323636
Si Si6 0.399828 0.170261 0.795987
Si Si7 0.114431 0.327428 0.518038
Si Si8 0.808065 0.169758 0.424030
O O1 0.440670 0.500000 0.310008
O O2 0.478936 0.738240 0.249953
O O3 0.422837 0.748096 0.426395
O O4 0.404522 0.707500 0.171306
O O5 0.788574 0.500000 0.026554
O O6 0.828580 0.252930 0.070058
O O7 0.798148 0.321197 0.828523
O O8 0.750000 0.250000 0.000000
O O9 0.363515 0.500000 0.053426
O O10 0.384780 0.271971 0.911796
O O11 0.447097 0.184411 0.797926
O O12 0.504359 0.000000 0.835675
O O13 0.500000 0.218062 0.000000
O O14 0.768572 0.810343 0.324058
O O15 0.705849 0.719123 0.429483
O O16 0.715637 0.000000 0.372859
O O17 0.382691 0.202151 0.642317
O O18 0.391083 0.000000 0.827629
O O19 0.110971 0.500000 0.535573
O O20 0.154090 0.265821 0.597432
O O21 0.819209 0.000000 0.422836
#
# Coordination Sequence:
#
# PCOD9199359 Si02
#       8
#     8   8   8   8   8   8   8   8
#     4  11  25  42  62  91 128 165 204 254 308 363
#     4  11  24  40  59  85 120 159 202 253 306 359
#     4  11  24  41  63  91 124 163 208 256 306 365
#     4  10  20  39  68  95 122 160 206 250 302 367
#     4   9  20  38  57  81 113 152 195 246 300 354
#     4  10  22  41  66  95 125 160 203 255 306 363
#     4  11  24  40  60  89 125 162 202 249 305 364
#     4  10  20  36  60  85 115 152 196 245 297 358
#
# _framework density 20.948495999999999
#
# number of rings (size 3 to 8) (size 9 to 14) (size 15 to 20)
#    0.000    1.625    1.250    2.625    1.750    8.250 
#    0.000    2.500    0.000    0.000    0.000    0.000 
#    0.000    0.000    0.000    0.000    0.000    0.000 
#
# Total GULP energy -179007.917153 kJ/mol
# GULP energy per Si atom -5593.997411 kJ/mol
# Density = 2.090082 g / cm^3
# Si number density = 20.948496 Si / 1000 Ang^3
#
#
#
# Elastic Constant Matrix: (Units=GPa)
#
#
# Indices 1 2 3 4 5 6 
#
# 1 65.1026 23.3784 -1.3319 0.0000 -3.3319 0.0000
# 2 23.3784 53.7943 20.8704 0.0000 -2.3579 0.0000
# 3 -1.3319 20.8704 41.3761 0.0000 0.2788 0.0000
# 4 0.0000 0.0000 0.0000 25.1697 0.0000 -5.7753
# 5 -3.3319 -2.3579 0.2788 0.0000 35.2450 0.0000
# 6 0.0000 0.0000 0.0000 -5.7753 0.0000 38.9419
#
#
#
# Elastic Compliance Matrix: (Units=1/GPa)
#
#
# Indices 1 2 3 4 5 6 
#
# 1 0.019386 -0.010714 0.006021 0.000000 0.001068 0.000000
# 2 -0.010714 0.029129 -0.015045 0.000000 0.001055 0.000000
# 3 0.006021 -0.015045 0.031956 0.000000 -0.000690 0.000000
# 4 0.000000 0.000000 0.000000 0.041130 0.000000 0.006100
# 5 0.001068 0.001055 -0.000690 0.000000 0.028550 0.000000
# 6 0.000000 0.000000 0.000000 0.006100 0.000000 0.026584
#
#
# Mechanical properties :
#
#
# Convention : Reuss Voigt Hill
#
# Bulk Modulus (GPa) = 24.39343 27.34522 25.86932
# Shear Modulus (GPa) = 21.75111 27.69506 24.72308
#
# Velocity S-wave (km/s) = 3.22578 3.63995 3.43911
# Velocity P-wave (km/s) = 5.05411 5.54505 5.30526
#
# Compressibility (1/GPa) = 0.04099465
#
# Stress axis : x y z
#
# Youngs Moduli (GPa) = 51.58469 34.33060 31.29342
#
# Poissons Ratio (x) = 0.36781 -0.18842
# Poissons Ratio (y) = 0.55267 0.47080
# Poissons Ratio (z) = -0.31059 0.51649
#
# Static dielectric constant tensor:
#      x y z
#    x 1.763500 0.000000 0.001150 
#    y 0.000000 1.701690 0.000000 
#    z 0.001150 0.000000 1.759410 
# 
# From -- ./inp_files/187423.got.cif
#   From: 2010.05.17/outbox.cif.g08.bks.cpg/sg12_94_cif.got.tgz:187423.got - 2010.06.03 13:09:07.
