data_PCOD9199766
_publ_section_title
;
Structure prediction by ZEFSAII (Michael W. Deem and Ramdas Pophale) SiO2 
 PCOD9199766
Probable space group: C 2/M
;
_chemical_formula_sum "Si O2"
_cell_formula_units_Z 64
_cell_length_a 25.175672
_cell_length_b 8.872148
_cell_length_c 15.126549
_cell_angle_alpha 90.000000
_cell_angle_beta 108.865055
_cell_angle_gamma 90.000000
_cell_volume 3197.206062
_symmetry_space_group_name_H-M "C 2/M"
_symmetry_group_IT_number 12
_symmetry_cell_setting 'monoclinic'
loop_
_space_group_symop_operation_xyz
x,y,z
-x,y,-z
-x,-y,-z
x,-y,z
1/2+x,1/2+y,z
1/2-x,1/2+y,-z
1/2-x,1/2-y,-z
1/2+x,1/2-y,z
loop_
_atom_site_type_symbol
_atom_site_label
_atom_site_fract_x
_atom_site_fract_y
_atom_site_fract_z
Si Si1 0.273247 0.821877 0.102025
Si Si2 0.745408 0.179450 0.270810
Si Si3 0.390106 0.676763 0.136575
Si Si4 0.118128 0.678827 0.237739
Si Si5 0.079074 0.819628 0.394609
Si Si6 0.566273 0.319873 0.035571
Si Si7 0.143798 0.320783 0.585516
Si Si8 0.952701 0.822776 0.347409
O O1 0.245133 0.748207 0.172395
O O2 0.338784 0.779306 0.139541
O O3 0.264548 0.000000 0.097781
O O4 0.250000 0.750000 0.000000
O O5 0.684789 0.209006 0.280610
O O6 0.797636 0.251249 0.350300
O O7 0.753771 0.000000 0.269410
O O8 0.372176 0.500000 0.127464
O O9 0.438813 0.690015 0.235585
O O10 0.409223 0.715554 0.048110
O O11 0.109192 0.500000 0.241618
O O12 0.086446 0.765754 0.298418
O O13 0.096783 0.733577 0.130857
O O14 0.125531 0.742081 0.480549
O O15 0.016967 0.777024 0.396175
O O16 0.083475 0.000000 0.402060
O O17 0.572908 0.500000 0.052973
O O18 0.500000 0.286317 0.000000
O O19 0.147812 0.500000 0.587144
O O20 0.093989 0.267752 0.624303
O O21 0.946861 0.000000 0.368391
#
# Coordination Sequence:
#
# PCOD9199766 Si02
#       8
#     8   8   8   8   8   8   8   8
#     4  12  24  38  59  89 122 161 207 255 313 373
#     4  11  24  44  66  90 126 168 212 263 319 381
#     4  10  20  36  61  90 123 162 205 256 308 369
#     4  11  25  43  64  93 127 166 213 271 324 371
#     4  11  24  43  68  94 124 170 215 259 316 384
#     4  10  21  39  63  92 126 170 217 256 306 379
#     4  12  25  41  65  98 130 165 209 264 324 378
#     4  10  21  40  66  95 129 168 211 257 315 381
#
# _framework density 20.017475999999998
#
# number of rings (size 3 to 8) (size 9 to 14) (size 15 to 20)
#    0.000    1.125    1.250    5.250    0.000    9.750 
#    0.000    1.250    0.000    0.000    0.000    0.000 
#    0.000    0.000    0.000    0.000    0.000    0.000 
#
# Total GULP energy -179050.458322 kJ/mol
# GULP energy per Si atom -5595.326823 kJ/mol
# Density = 1.997192 g / cm^3
# Si number density = 20.017476 Si / 1000 Ang^3
#
#
#
# Elastic Constant Matrix: (Units=GPa)
#
#
# Indices 1 2 3 4 5 6 
#
# 1 71.0244 43.1291 1.8796 0.0000 5.4805 0.0000
# 2 43.1291 79.2506 18.8198 0.0000 7.6189 0.0000
# 3 1.8796 18.8198 70.5034 0.0000 6.5541 0.0000
# 4 0.0000 0.0000 0.0000 27.7294 0.0000 -7.6494
# 5 5.4805 7.6189 6.5541 0.0000 35.5803 0.0000
# 6 0.0000 0.0000 0.0000 -7.6494 0.0000 16.4700
#
#
#
# Elastic Compliance Matrix: (Units=1/GPa)
#
#
# Indices 1 2 3 4 5 6 
#
# 1 0.021558 -0.012285 0.002817 0.000000 -0.001209 0.000000
# 2 -0.012285 0.020654 -0.005037 0.000000 -0.001603 0.000000
# 3 0.002817 -0.005037 0.015661 0.000000 -0.002240 0.000000
# 4 0.000000 0.000000 0.000000 0.041362 0.000000 0.019210
# 5 -0.001209 -0.001603 -0.002240 0.000000 0.029047 0.000000
# 6 0.000000 0.000000 0.000000 0.019210 0.000000 0.069638
#
#
# Mechanical properties :
#
#
# Convention : Reuss Voigt Hill
#
# Bulk Modulus (GPa) = 34.64519 38.71504 36.68011
# Shear Modulus (GPa) = 21.13691 26.41928 23.77810
#
# Velocity S-wave (km/s) = 3.25302 3.63686 3.45028
# Velocity P-wave (km/s) = 5.60844 6.08427 5.85119
#
# Compressibility (1/GPa) = 0.02886404
#
# Stress axis : x y z
#
# Youngs Moduli (GPa) = 46.38555 48.41666 63.85141
#
# Poissons Ratio (x) = 0.59480 -0.17987
# Poissons Ratio (y) = 0.56985 0.32161
# Poissons Ratio (z) = -0.13067 0.24386
#
# Static dielectric constant tensor:
#      x y z
#    x 1.697730 0.000000 0.009740 
#    y 0.000000 1.668920 0.000000 
#    z 0.009740 0.000000 1.709620 
# 
# From -- ./inp_files/244174.got.cif
#   From: 2010.05.17/outbox.cif.g08.bks.cpg/sg12_123_cif.got.tgz:244174.got - 2010.06.03 13:09:07.
