data_PCOD9199300
_publ_section_title
;
Structure prediction by ZEFSAII (Michael W. Deem and Ramdas Pophale) SiO2 
 PCOD9199300
Probable space group: C 2/M
;
_chemical_formula_sum "Si O2"
_cell_formula_units_Z 64
_cell_length_a 9.891648
_cell_length_b 28.271781
_cell_length_c 15.213027
_cell_angle_alpha 90.000000
_cell_angle_beta 131.093279
_cell_angle_gamma 90.000000
_cell_volume 3206.281773
_symmetry_space_group_name_H-M "C 2/M"
_symmetry_group_IT_number 12
_symmetry_cell_setting 'monoclinic'
loop_
_space_group_symop_operation_xyz
x,y,z
-x,y,-z
-x,-y,-z
x,-y,z
1/2+x,1/2+y,z
1/2-x,1/2+y,-z
1/2-x,1/2-y,-z
1/2+x,1/2-y,z
loop_
_atom_site_type_symbol
_atom_site_label
_atom_site_fract_x
_atom_site_fract_y
_atom_site_fract_z
Si Si1 0.400013 0.727504 0.124733
Si Si2 0.420369 0.887529 0.821380
Si Si3 0.963272 0.349241 0.586293
Si Si4 0.777774 0.878393 0.084039
Si Si5 0.799015 0.727994 0.259041
Si Si6 0.004948 0.445584 0.692271
Si Si7 0.198782 0.187169 0.606829
Si Si8 0.565310 0.553080 0.128284
O O1 0.346795 0.674455 0.124737
O O2 0.587284 0.730383 0.154609
O O3 0.405614 0.753723 0.220300
O O4 0.250000 0.750000 0.000000
O O5 0.308235 0.896262 0.861775
O O6 0.441457 0.930802 0.762774
O O7 0.318956 0.845489 0.724413
O O8 0.620695 0.876353 0.942839
O O9 0.807023 0.316494 0.561113
O O10 0.000000 0.345696 0.500000
O O11 0.141873 0.325974 0.703397
O O12 0.930313 0.403464 0.599260
O O13 0.945286 0.910118 0.128948
O O14 0.829870 0.762510 0.356224
O O15 0.957777 0.500000 0.651438
O O16 0.220793 0.440811 0.778464
O O17 0.000000 0.168104 0.500000
O O18 0.526205 0.500000 0.143940
O O19 0.500000 0.555987 0.000000
#
# Coordination Sequence:
#
# PCOD9199300 Si02
#       8
#     8   8   8   8   8   8   8   8
#     4  12  26  39  62  93 136 177 210 252 314 384
#     4  10  22  39  62  93 123 168 215 252 319 382
#     4  11  26  43  67  96 119 164 225 268 324 384
#     4  11  22  37  64  89 132 168 210 260 304 382
#     4  12  24  43  63  94 132 170 218 256 316 380
#     4  10  22  43  67  93 130 163 203 267 326 386
#     4  11  24  42  64  86 127 168 210 272 324 369
#     4  10  20  36  59  92 127 161 201 251 318 378
#
# _framework density 19.960818
#
# number of rings (size 3 to 8) (size 9 to 14) (size 15 to 20)
#    0.000    1.125    3.750    2.250    5.250    3.750 
#    0.000    1.250    0.000    6.000    0.000    0.000 
#    0.000    0.000    0.000    0.000    0.000    0.000 
#
# Total GULP energy -178665.946162 kJ/mol
# GULP energy per Si atom -5583.310818 kJ/mol
# Density = 1.991539 g / cm^3
# Si number density = 19.960818 Si / 1000 Ang^3
#
#
#
# Elastic Constant Matrix: (Units=GPa)
#
#
# Indices 1 2 3 4 5 6 
#
# 1 86.3062 31.3959 21.0837 0.0000 -6.7547 0.0000
# 2 31.3959 114.0481 12.5878 0.0000 -11.2718 0.0000
# 3 21.0837 12.5878 37.6047 0.0000 -4.6205 0.0000
# 4 0.0000 0.0000 0.0000 14.1188 0.0000 5.1616
# 5 -6.7547 -11.2718 -4.6205 0.0000 33.6606 0.0000
# 6 0.0000 0.0000 0.0000 5.1616 0.0000 28.7181
#
#
#
# Elastic Compliance Matrix: (Units=1/GPa)
#
#
# Indices 1 2 3 4 5 6 
#
# 1 0.014500 -0.003133 -0.006970 0.000000 0.000904 0.000000
# 2 -0.003133 0.010025 -0.001286 0.000000 0.002552 0.000000
# 3 -0.006970 -0.001286 0.031232 0.000000 0.002458 0.000000
# 4 0.000000 0.000000 0.000000 0.075809 0.000000 -0.013625
# 5 0.000904 0.002552 0.002458 0.000000 0.031082 0.000000
# 6 0.000000 0.000000 0.000000 -0.013625 0.000000 0.037270
#
#
# Mechanical properties :
#
#
# Convention : Reuss Voigt Hill
#
# Bulk Modulus (GPa) = 30.32106 40.89933 35.61019
# Shear Modulus (GPa) = 21.39610 26.82560 24.11085
#
# Velocity S-wave (km/s) = 3.27755 3.66992 3.47927
# Velocity P-wave (km/s) = 5.43566 6.20419 5.83260
#
# Compressibility (1/GPa) = 0.03298037
#
# Stress axis : x y z
#
# Youngs Moduli (GPa) = 68.96685 99.75263 32.01796
#
# Poissons Ratio (x) = 0.31252 0.22316
# Poissons Ratio (y) = 0.21607 0.04116
# Poissons Ratio (z) = 0.48068 0.12824
#
# Static dielectric constant tensor:
#      x y z
#    x 1.677360 0.000000 0.010270 
#    y 0.000000 1.673680 0.000000 
#    z 0.010270 0.000000 1.714640 
# 
# From -- ./inp_files/201342.got.cif
#   From: 2010.05.17/outbox.cif.g08.bks.cpg/sg12_101_cif.got.tgz:201342.got - 2010.06.03 13:09:07.
