data_PCOD9199863
_publ_section_title
;
Structure prediction by ZEFSAII (Michael W. Deem and Ramdas Pophale) SiO2 
 PCOD9199863
Probable space group: C 2/M
;
_chemical_formula_sum "Si O2"
_cell_formula_units_Z 56
_cell_length_a 12.234842
_cell_length_b 29.027433
_cell_length_c 15.439292
_cell_angle_alpha 90.000000
_cell_angle_beta 28.378940
_cell_angle_gamma 90.000000
_cell_volume 2606.171352
_symmetry_space_group_name_H-M "C 2/M"
_symmetry_group_IT_number 12
_symmetry_cell_setting 'monoclinic'
loop_
_space_group_symop_operation_xyz
x,y,z
-x,y,-z
-x,-y,-z
x,-y,z
1/2+x,1/2+y,z
1/2-x,1/2+y,-z
1/2-x,1/2-y,-z
1/2+x,1/2-y,z
loop_
_atom_site_type_symbol
_atom_site_label
_atom_site_fract_x
_atom_site_fract_y
_atom_site_fract_z
Si Si1 0.690728 0.949687 0.439380
Si Si2 0.120471 0.626674 0.099629
Si Si3 0.784066 0.820402 0.706105
Si Si4 0.520776 0.679078 0.240492
Si Si5 0.013099 0.348060 0.621374
Si Si6 0.371240 0.281323 0.181614
Si Si7 0.110036 0.052434 0.012811
O O1 0.500000 0.954906 0.500000
O O2 0.606387 0.900810 0.540139
O O3 0.921041 0.946697 0.220628
O O4 0.700619 0.000000 0.480859
O O5 0.923027 0.645051 0.173481
O O6 0.081871 0.654866 0.215167
O O7 0.361008 0.634505 0.883431
O O8 0.159914 0.576079 0.111282
O O9 0.846258 0.815847 0.763364
O O10 0.738278 0.767264 0.716365
O O11 0.000000 0.837315 0.500000
O O12 0.250769 0.679636 0.448587
O O13 0.543798 0.711204 0.141103
O O14 0.814057 0.323848 0.700993
O O15 0.500000 0.277411 0.000000
O O16 0.163740 0.000000 0.952509
O O17 0.000000 0.073929 0.000000
#
# Coordination Sequence:
#
# PCOD9199863 Si02
#       7
#     8   8   8   8   8   8   8
#     4  10  20  36  62 100 144 179 218 276 348 421
#     4  12  25  43  72  98 138 185 232 283 356 416
#     4  12  28  49  69  99 136 188 246 294 346 416
#     4  12  25  46  70  97 140 181 231 293 349 414
#     4  12  24  41  69 102 137 182 230 282 354 421
#     4  12  27  44  70 104 139 183 240 293 358 418
#     4  10  22  40  68 107 145 181 228 289 361 422
#
# _framework density 21.487458
#
# number of rings (size 3 to 8) (size 9 to 14) (size 15 to 20)
#    0.000    0.571    4.286    4.286    4.000    4.000 
#    0.000    0.000    0.000    3.429    0.000    0.000 
#    0.000    0.000    0.000    0.000    0.000    0.000 
#
# Total GULP energy -155871.597043 kJ/mol
# GULP energy per Si atom -5566.842752 kJ/mol
# Density = 2.143855 g / cm^3
# Si number density = 21.487458 Si / 1000 Ang^3
#
#
#
# Elastic Constant Matrix: (Units=GPa)
#
#
# Indices 1 2 3 4 5 6 
#
# 1 141.0486 44.3388 14.2447 0.0002 -1.5283 0.0000
# 2 44.3388 87.8468 23.4883 -0.0001 -15.6497 -0.0001
# 3 14.2447 23.4883 84.7619 0.0001 -8.6209 0.0001
# 4 0.0002 -0.0001 0.0001 41.6647 -0.0002 -2.5457
# 5 -1.5283 -15.6497 -8.6209 -0.0002 22.4752 -0.0001
# 6 0.0000 -0.0001 0.0001 -2.5457 -0.0001 18.2342
#
#
#
# Elastic Compliance Matrix: (Units=1/GPa)
#
#
# Indices 1 2 3 4 5 6 
#
# 1 0.008590 -0.004734 -0.000424 0.000000 -0.002875 0.000000
# 2 -0.004734 0.016271 -0.002699 0.000000 0.009973 0.000000
# 3 -0.000424 -0.002699 0.012927 0.000000 0.003050 0.000000
# 4 0.000000 0.000000 0.000000 0.024208 0.000000 0.003380
# 5 -0.002875 0.009973 0.003050 0.000000 0.052412 0.000000
# 6 0.000000 0.000000 0.000000 0.003380 0.000000 0.055314
#
#
# Mechanical properties :
#
#
# Convention : Reuss Voigt Hill
#
# Bulk Modulus (GPa) = 45.30328 53.08899 49.19613
# Shear Modulus (GPa) = 25.93442 31.91385 28.92413
#
# Velocity S-wave (km/s) = 3.47790 3.85805 3.67290
# Velocity P-wave (km/s) = 6.10386 6.67882 6.39780
#
# Compressibility (1/GPa) = 0.02207346
#
# Stress axis : x y z
#
# Youngs Moduli (GPa) = 116.41924 61.45822 77.35643
#
# Poissons Ratio (x) = 0.29096 0.03280
# Poissons Ratio (y) = 0.55116 0.20878
# Poissons Ratio (z) = 0.04937 0.16588
#
# Static dielectric constant tensor:
#      x y z
#    x 1.840720 0.000000 -0.045560 
#    y 0.000000 1.964560 0.000000 
#    z -0.045560 0.000000 1.821530 
# 
# From -- ./inp_files/209965.got.cif
#   From: 2010.05.17/outbox.cif.g08.bks.cpg/sg12_105_cif.got.tgz:209965.got - 2010.06.03 13:09:07.
