data_PCOD9199188
_publ_section_title
;
Structure prediction by ZEFSAII (Michael W. Deem and Ramdas Pophale) SiO2 
 PCOD9199188
Probable space group: C 2/M
;
_chemical_formula_sum "Si O2"
_cell_formula_units_Z 48
_cell_length_a 21.170765
_cell_length_b 18.761780
_cell_length_c 20.022225
_cell_angle_alpha 90.000000
_cell_angle_beta 167.246691
_cell_angle_gamma 90.000000
_cell_volume 1755.622121
_symmetry_space_group_name_H-M "C 2/M"
_symmetry_group_IT_number 12
_symmetry_cell_setting 'monoclinic'
loop_
_space_group_symop_operation_xyz
x,y,z
-x,y,-z
-x,-y,-z
x,-y,z
1/2+x,1/2+y,z
1/2-x,1/2+y,-z
1/2-x,1/2-y,-z
1/2+x,1/2-y,z
loop_
_atom_site_type_symbol
_atom_site_label
_atom_site_fract_x
_atom_site_fract_y
_atom_site_fract_z
Si Si1 0.950801 0.114832 0.023530
Si Si2 0.401705 0.275978 0.590152
Si Si3 0.457203 0.873641 0.289565
Si Si4 0.843294 0.576334 0.910922
Si Si5 0.764652 0.077057 0.472413
Si Si6 0.379168 0.773273 0.947650
O O1 0.775343 0.084758 0.905962
O O2 0.787812 0.191010 0.846395
O O3 0.000000 0.083593 0.000000
O O4 0.262428 0.126194 0.374868
O O5 0.250000 0.250000 0.500000
O O6 0.618605 0.211617 0.798146
O O7 0.483292 0.357264 0.689311
O O8 0.147992 0.276210 0.274531
O O9 0.567234 0.906200 0.333302
O O10 0.680352 0.500000 0.748959
O O11 0.692612 0.654346 0.765988
O O12 0.000000 0.574108 0.000000
O O13 0.072107 0.575208 0.207149
O O14 0.903204 0.000000 0.623295
O O15 0.500000 0.786464 0.000000
#
# Coordination Sequence:
#
# PCOD9199188 Si02
#       6
#     8   8   8   8   8   8
#     4  10  20  36  60  87 115 150 194 245 297 350
#     4   8  15  29  48  77 111 149 190 235 286 339
#     4  10  20  36  59  87 120 154 193 241 292 347
#     4   8  13  24  46  77 113 152 192 234 282 340
#     4   9  17  32  54  83 120 159 198 240 289 346
#     4   8  14  25  44  73 106 140 180 226 277 332
#
# _framework density 27.340736
#
# number of rings (size 3 to 8) (size 9 to 14) (size 15 to 20)
#    0.000    3.167    0.000    0.500    0.000    0.000 
#    0.000   30.833    0.000    6.000    0.000    3.500 
#    0.000   41.333    0.000    0.000    0.000    1.833 
#
# Total GULP energy -133917.228279 kJ/mol
# GULP energy per Si atom -5579.884512 kJ/mol
# Density = 2.727851 g / cm^3
# Si number density = 27.340736 Si / 1000 Ang^3
#
#
#
# Elastic Constant Matrix: (Units=GPa)
#
#
# Indices 1 2 3 4 5 6 
#
# 1 225.0162 25.1349 45.4568 -0.1233 2.9385 0.1698
# 2 25.1349 167.8932 18.0896 0.1171 -9.5499 0.5616
# 3 45.4568 18.0896 94.7573 0.0181 -6.5339 0.6319
# 4 -0.1233 0.1171 0.0181 1.9172 0.0680 6.5352
# 5 2.9385 -9.5499 -6.5339 0.0680 51.9890 0.4958
# 6 0.1698 0.5616 0.6319 6.5352 0.4958 -75.2729
#
#
#
# Elastic Compliance Matrix: (Units=1/GPa)
#
#
# Indices 1 2 3 4 5 6 
#
# 1 0.004985 -0.000533 -0.002336 0.000352 -0.000674 0.000014
# 2 -0.000533 0.006188 -0.000852 -0.000459 0.001060 0.000005
# 3 -0.002336 -0.000852 0.011938 -0.000461 0.001476 0.000058
# 4 0.000352 -0.000459 -0.000461 0.402588 -0.001022 0.034940
# 5 -0.000674 0.001060 0.001476 -0.001022 0.019654 0.000060
# 6 0.000014 0.000005 0.000058 0.034940 0.000060 -0.010251
#
#
# Mechanical properties :
#
#
# Convention : Reuss Voigt Hill
#
# Bulk Modulus (GPa) = 63.82506 73.89214 68.85860
# Shear Modulus (GPa) = 11.16649 22.32567 16.74608
#
# Velocity S-wave (km/s) = 2.02313 2.86067 2.47755
# Velocity P-wave (km/s) = 5.37144 6.16412 5.78138
#
# Compressibility (1/GPa) = 0.01566783
#
# Stress axis : x y z
#
# Youngs Moduli (GPa) = 200.61883 161.59136 83.76527
#
# Poissons Ratio (x) = 0.08615 0.19568
# Poissons Ratio (y) = 0.10696 0.07141
# Poissons Ratio (z) = 0.46865 0.13775
#
# Static dielectric constant tensor:
#      x y z
#    x 2.163040 -0.000270 0.027910 
#    y -0.000270 2.252580 -0.000430 
#    z 0.027910 -0.000430 2.019850 
# 
# From -- ./inp_files/279247.got.cif
#   From: 2010.05.17/outbox.cif.g08.bks.cpg/sg12_140_cif.got.tgz:279247.got - 2010.06.03 13:09:07.
