data_PCOD9199096
_publ_section_title
;
Structure prediction by ZEFSAII (Michael W. Deem and Ramdas Pophale) SiO2 
 PCOD9199096
Probable space group: C 2/M
;
_chemical_formula_sum "Si O2"
_cell_formula_units_Z 56
_cell_length_a 30.360905
_cell_length_b 8.435270
_cell_length_c 11.456936
_cell_angle_alpha 90.000000
_cell_angle_beta 112.930461
_cell_angle_gamma 90.000000
_cell_volume 2702.288000
_symmetry_space_group_name_H-M "C 2/M"
_symmetry_group_IT_number 12
_symmetry_cell_setting 'monoclinic'
loop_
_space_group_symop_operation_xyz
x,y,z
-x,y,-z
-x,-y,-z
x,-y,z
1/2+x,1/2+y,z
1/2-x,1/2+y,-z
1/2-x,1/2-y,-z
1/2+x,1/2-y,z
loop_
_atom_site_type_symbol
_atom_site_label
_atom_site_fract_x
_atom_site_fract_y
_atom_site_fract_z
Si Si1 0.862009 0.183230 0.960034
Si Si2 0.199693 0.319132 0.908736
Si Si3 0.792634 0.184664 0.670649
Si Si4 0.814023 0.683319 0.446523
Si Si5 0.376472 0.680552 0.333743
Si Si6 0.031367 0.307594 0.917122
Si Si7 0.474595 0.813176 0.355362
O O1 0.832334 0.193053 0.810396
O O2 0.857798 0.000000 0.998202
O O3 0.835934 0.303148 0.019531
O O4 0.916952 0.230409 0.008962
O O5 0.205401 0.500000 0.875955
O O6 0.172447 0.216747 0.784674
O O7 0.250000 0.250000 0.000000
O O8 0.807518 0.289860 0.577005
O O9 0.738984 0.229329 0.656053
O O10 0.788811 0.000000 0.628281
O O11 0.822457 0.500000 0.426877
O O12 0.859604 0.778305 0.446513
O O13 0.391432 0.500000 0.337138
O O14 0.418435 0.786287 0.323313
O O15 0.035373 0.500000 0.917485
O O16 0.014900 0.256563 0.767578
O O17 0.000000 0.268348 0.000000
O O18 0.500000 0.745988 0.500000
O O19 0.485824 0.000000 0.364974
#
# Coordination Sequence:
#
# PCOD9199096 Si02
#       7
#     8   8   8   8   8   8   8
#     4  11  22  38  61  90 124 162 204 257 320 381
#     4  12  24  39  61  91 127 166 209 256 311 378
#     4   9  20  37  56  84 123 162 203 253 308 374
#     4  10  20  36  59  85 120 166 210 253 305 371
#     4  12  24  39  61  90 125 163 206 258 317 380
#     4  10  22  41  64  90 122 163 213 271 329 393
#     4  10  22  42  66  91 123 165 212 268 330 393
#
# _framework density 20.723179999999999
#
# number of rings (size 3 to 8) (size 9 to 14) (size 15 to 20)
#    0.000    1.429    1.429    4.286    0.000    4.571 
#    0.000    1.429    0.000    0.000    0.000    0.000 
#    0.000    0.000    0.000    0.000    0.000    0.000 
#
# Total GULP energy -156256.065295 kJ/mol
# GULP energy per Si atom -5580.573761 kJ/mol
# Density = 2.067601 g / cm^3
# Si number density = 20.723180 Si / 1000 Ang^3
#
#
#
# Elastic Constant Matrix: (Units=GPa)
#
#
# Indices 1 2 3 4 5 6 
#
# 1 80.8577 -1.3252 36.0814 0.0000 -20.8725 0.0000
# 2 -1.3252 27.2320 14.3422 0.0000 -4.2637 0.0000
# 3 36.0814 14.3422 95.4920 0.0000 -14.7359 0.0000
# 4 0.0000 0.0000 0.0000 20.4244 0.0000 -2.6615
# 5 -20.8725 -4.2637 -14.7359 0.0000 19.5354 0.0000
# 6 0.0000 0.0000 0.0000 -2.6615 0.0000 22.0650
#
#
#
# Elastic Compliance Matrix: (Units=1/GPa)
#
#
# Indices 1 2 3 4 5 6 
#
# 1 0.019723 0.006800 -0.005650 0.000000 0.018295 0.000000
# 2 0.006800 0.042611 -0.007258 0.000000 0.011091 0.000000
# 3 -0.005650 -0.007258 0.014171 0.000000 0.003068 0.000000
# 4 0.000000 0.000000 0.000000 0.049743 0.000000 0.006000
# 5 0.018295 0.011091 0.003068 0.000000 0.075471 0.000000
# 6 0.000000 0.000000 0.000000 0.006000 0.000000 0.046044
#
#
# Mechanical properties :
#
#
# Convention : Reuss Voigt Hill
#
# Bulk Modulus (GPa) = 15.55492 33.53097 24.54295
# Shear Modulus (GPa) = 17.76776 22.70383 20.23579
#
# Velocity S-wave (km/s) = 2.93129 3.31354 3.12826
# Velocity P-wave (km/s) = 4.35649 5.55472 4.99169
#
# Compressibility (1/GPa) = 0.06428834
#
# Stress axis : x y z
#
# Youngs Moduli (GPa) = 50.70281 23.46793 70.56881
#
# Poissons Ratio (x) = -0.15958 0.39874
# Poissons Ratio (y) = -0.34478 0.51217
# Poissons Ratio (z) = 0.28649 0.17033
#
# Static dielectric constant tensor:
#      x y z
#    x 0.134910 0.000000 -1.870620 
#    y 0.000000 1.743760 0.000000 
#    z -1.870620 0.000000 -0.309430 
# 
# From -- ./inp_files/181048.got.cif
#   From: 2010.05.17/outbox.cif.g08.bks.cpg/sg12_91_cif.got.tgz:181048.got - 2010.06.03 13:09:07.
