data_PCOD9199869
_publ_section_title
;
Structure prediction by ZEFSAII (Michael W. Deem and Ramdas Pophale) SiO2 
 PCOD9199869
Probable space group: C 2/M
;
_chemical_formula_sum "Si O2"
_cell_formula_units_Z 52
_cell_length_a 9.680747
_cell_length_b 14.366513
_cell_length_c 32.538617
_cell_angle_alpha 90.000000
_cell_angle_beta 147.283109
_cell_angle_gamma 90.000000
_cell_volume 2445.939383
_symmetry_space_group_name_H-M "C 2/M"
_symmetry_group_IT_number 12
_symmetry_cell_setting 'monoclinic'
loop_
_space_group_symop_operation_xyz
x,y,z
-x,y,-z
-x,-y,-z
x,-y,z
1/2+x,1/2+y,z
1/2-x,1/2+y,-z
1/2-x,1/2-y,-z
1/2+x,1/2-y,z
loop_
_atom_site_type_symbol
_atom_site_label
_atom_site_fract_x
_atom_site_fract_y
_atom_site_fract_z
Si Si1 0.983008 0.108196 0.754795
Si Si2 0.480268 0.892437 0.155372
Si Si3 0.526380 0.785206 0.599793
Si Si4 0.160395 0.110055 0.192117
Si Si5 0.210290 0.390986 0.303762
Si Si6 0.000000 0.769806 0.500000
Si Si7 0.738342 0.271792 0.949267
O O1 0.778292 0.161503 0.676591
O O2 0.965186 0.141569 0.796892
O O3 0.267098 0.115045 0.809406
O O4 0.909350 0.000000 0.736565
O O5 0.590879 0.873193 0.228659
O O6 0.290589 0.818607 0.087597
O O7 0.387771 0.000000 0.132100
O O8 0.570889 0.679668 0.627720
O O9 0.517260 0.784448 0.547923
O O10 0.269240 0.821989 0.558035
O O11 0.462680 0.126404 0.270261
O O12 0.012640 0.166138 0.120660
O O13 0.126103 0.000000 0.176993
O O14 0.284210 0.500000 0.324002
O O15 0.750000 0.250000 0.000000
O O16 0.000000 0.320730 0.000000
#
# Coordination Sequence:
#
# PCOD9199869 Si02
#       7
#     8   8   8   8   8   4   8
#     4  10  20  36  62  84 102 138 184 229 273 306
#     4  10  21  37  56  82 108 135 182 234 270 310
#     4  11  20  39  56  79 116 143 178 219 260 321
#     4  10  21  37  56  82 108 135 182 234 270 310
#     4  10  20  36  62  84 102 138 184 229 273 306
#     4  10  24  36  54  82 116 154 172 204 270 326
#     4  12  24  36  54  79 110 151 182 209 272 337
#
# _framework density 21.259725
#
# number of rings (size 3 to 8) (size 9 to 14) (size 15 to 20)
#    0.000    1.538    0.000    5.538    0.000    1.231 
#    0.000    4.615    0.000    0.000    0.000    0.000 
#    0.000    0.000    0.000    0.000    0.000    0.000 
#
# Total GULP energy -145208.867117 kJ/mol
# GULP energy per Si atom -5584.956428 kJ/mol
# Density = 2.121134 g / cm^3
# Si number density = 21.259725 Si / 1000 Ang^3
#
#
#
# Elastic Constant Matrix: (Units=GPa)
#
#
# Indices 1 2 3 4 5 6 
#
# 1 85.7702 -3.5218 2.3407 0.0000 -15.6570 0.0000
# 2 -3.5218 60.5399 28.4358 0.0000 2.1320 0.0000
# 3 2.3407 28.4358 77.5876 0.0005 -17.3368 -0.0003
# 4 0.0000 0.0000 0.0005 -8.5858 0.0001 -7.7017
# 5 -15.6570 2.1320 -17.3368 0.0001 27.6590 -0.0002
# 6 0.0000 0.0000 -0.0003 -7.7017 -0.0002 -1.7207
#
#
#
# Elastic Compliance Matrix: (Units=1/GPa)
#
#
# Indices 1 2 3 4 5 6 
#
# 1 0.013150 -0.000285 0.001600 -0.000001 0.008468 0.000001
# 2 -0.000285 0.021242 -0.009510 0.000001 -0.007760 -0.000002
# 3 0.001600 -0.009510 0.019411 -0.000002 0.013806 0.000004
# 4 -0.000001 0.000001 -0.000002 0.038632 -0.000003 -0.172908
# 5 0.008468 -0.007760 0.013806 -0.000003 0.050200 0.000005
# 6 0.000001 -0.000002 0.000004 -0.172908 0.000005 0.192757
#
#
# Mechanical properties :
#
#
# Convention : Reuss Voigt Hill
#
# Bulk Modulus (GPa) = 26.72965 30.93413 28.83189
# Shear Modulus (GPa) = 13.72679 16.58004 15.15341
#
# Velocity S-wave (km/s) = 2.54376 2.79566 2.67268
# Velocity P-wave (km/s) = 4.60737 5.00031 4.80786
#
# Compressibility (1/GPa) = 0.03741163
#
# Stress axis : x y z
#
# Youngs Moduli (GPa) = 76.04805 47.07696 51.51771
#
# Poissons Ratio (x) = 0.01341 -0.08242
# Poissons Ratio (y) = 0.02165 0.48996
# Poissons Ratio (z) = -0.12167 0.44772
#
# Static dielectric constant tensor:
#      x y z
#    x 1.805710 0.000000 0.002300 
#    y 0.000000 1.804380 0.000000 
#    z 0.002300 0.000000 1.753470 
# 
# From -- ./inp_files/372626.got.cif
#   From: 2010.05.17/outbox.cif.g08.bks.cpg/sg12_187_cif.got.tgz:372626.got - 2010.06.03 13:09:07.
