data_PCOD9199072
_publ_section_title
;
Structure prediction by ZEFSAII (Michael W. Deem and Ramdas Pophale) SiO2 
 PCOD9199072
Probable space group: C 2/M
;
_chemical_formula_sum "Si O2"
_cell_formula_units_Z 58
_cell_length_a 20.024011
_cell_length_b 8.924282
_cell_length_c 15.746392
_cell_angle_alpha 90.000000
_cell_angle_beta 97.189842
_cell_angle_gamma 90.000000
_cell_volume 2791.753211
_symmetry_space_group_name_H-M "C 2/M"
_symmetry_group_IT_number 12
_symmetry_cell_setting 'monoclinic'
loop_
_space_group_symop_operation_xyz
x,y,z
-x,y,-z
-x,-y,-z
x,-y,z
1/2+x,1/2+y,z
1/2-x,1/2+y,-z
1/2-x,1/2-y,-z
1/2+x,1/2-y,z
loop_
_atom_site_type_symbol
_atom_site_label
_atom_site_fract_x
_atom_site_fract_y
_atom_site_fract_z
Si Si1 0.500000 0.500000 0.500000
Si Si2 0.469377 0.335030 0.662316
Si Si3 0.198422 0.678129 0.612438
Si Si4 0.161150 0.677922 0.421276
Si Si5 0.853372 0.317876 0.870409
Si Si6 0.999039 0.678598 0.826997
Si Si7 0.790644 0.179009 0.212724
Si Si8 0.864100 0.679212 0.064280
O O1 0.501283 0.371613 0.576263
O O2 0.445939 0.500000 0.688943
O O3 0.405157 0.229918 0.637194
O O4 0.514874 0.262019 0.741706
O O5 0.198594 0.500000 0.622643
O O6 0.155869 0.715179 0.521010
O O7 0.273297 0.736657 0.602007
O O8 0.177988 0.754722 0.696693
O O9 0.171908 0.500000 0.413883
O O10 0.855207 0.500000 0.871950
O O11 0.925460 0.269823 0.846033
O O12 0.788255 0.274904 0.805796
O O13 0.845080 0.269437 0.966896
O O14 0.996638 0.500000 0.811515
O O15 0.056723 0.704593 0.905403
O O16 0.824779 0.239506 0.133043
O O17 0.794354 0.000000 0.215975
O O18 0.852112 0.500000 0.068307
#
# Coordination Sequence:
#
# PCOD9199072 Si02
#       8
#     2   8   8   8   8   8   8   8
#     4   8  24  40  54  76 110 152 202 224 300 354
#     4  10  21  39  58  81 114 156 197 242 299 356
#     4  10  21  36  56  87 119 153 198 244 301 359
#     4  10  20  36  59  85 115 150 197 254 302 355
#     4   9  19  37  61  87 116 153 202 250 303 360
#     4  10  20  37  64  91 114 151 204 261 302 354
#     4  11  22  36  57  86 121 162 201 247 296 361
#     4  10  21  38  59  86 121 158 196 248 311 369
#
# _framework density 20.775473999999999
#
# number of rings (size 3 to 8) (size 9 to 14) (size 15 to 20)
#    0.414    1.655    0.000    3.310    0.000    6.069 
#    2.483    4.828    0.000    1.655    0.000    0.000 
#    0.000    0.000    0.000    0.000    0.000    0.000 
#
# Total GULP energy -161658.508997 kJ/mol
# GULP energy per Si atom -5574.431345 kJ/mol
# Density = 2.072819 g / cm^3
# Si number density = 20.775474 Si / 1000 Ang^3
#
#
#
# Elastic Constant Matrix: (Units=GPa)
#
#
# Indices 1 2 3 4 5 6 
#
# 1 41.5129 13.7451 2.9688 0.0000 -2.9494 0.0000
# 2 13.7451 32.9321 28.8734 0.0000 2.9392 0.0000
# 3 2.9688 28.8734 108.2652 0.0000 -0.3946 0.0000
# 4 0.0000 0.0000 0.0000 29.6120 0.0000 -6.8630
# 5 -2.9494 2.9392 -0.3946 0.0000 29.4273 0.0000
# 6 0.0000 0.0000 0.0000 -6.8630 0.0000 14.6802
#
#
#
# Elastic Compliance Matrix: (Units=1/GPa)
#
#
# Indices 1 2 3 4 5 6 
#
# 1 0.029339 -0.015610 0.003375 0.000000 0.004545 0.000000
# 2 -0.015610 0.048439 -0.012514 0.000000 -0.006570 0.000000
# 3 0.003375 -0.012514 0.012488 0.000000 0.001756 0.000000
# 4 0.000000 0.000000 0.000000 0.037874 0.000000 0.017706
# 5 0.004545 -0.006570 0.001756 0.000000 0.035117 0.000000
# 6 0.000000 0.000000 0.000000 0.017706 0.000000 0.076397
#
#
# Mechanical properties :
#
#
# Convention : Reuss Voigt Hill
#
# Bulk Modulus (GPa) = 24.52935 30.43163 27.48049
# Shear Modulus (GPa) = 16.51576 23.88543 20.20060
#
# Velocity S-wave (km/s) = 2.82257 3.39439 3.12160
# Velocity P-wave (km/s) = 4.73868 5.48108 5.12334
#
# Compressibility (1/GPa) = 0.04076749
#
# Stress axis : x y z
#
# Youngs Moduli (GPa) = 34.08430 20.64448 80.07789
#
# Poissons Ratio (x) = 0.32227 -0.27028
# Poissons Ratio (y) = 0.53206 1.00211
# Poissons Ratio (z) = -0.11504 0.25835
#
# Static dielectric constant tensor:
#      x y z
#    x 1.748280 0.000000 -0.016510 
#    y 0.000000 1.698580 0.000000 
#    z -0.016510 0.000000 1.740010 
# 
# From -- ./inp_files/275392.got.cif
#   From: 2010.05.17/outbox.cif.g08.bks.cpg/sg12_138_cif.got.tgz:275392.got - 2010.06.03 13:09:07.
