data_PCOD9199207
_publ_section_title
;
Structure prediction by ZEFSAII (Michael W. Deem and Ramdas Pophale) SiO2 
 PCOD9199207
Probable space group: C 2/M
;
_chemical_formula_sum "Si O2"
_cell_formula_units_Z 36
_cell_length_a 14.366919
_cell_length_b 24.798958
_cell_length_c 4.903132
_cell_angle_alpha 90.000000
_cell_angle_beta 67.234137
_cell_angle_gamma 90.000000
_cell_volume 1610.815489
_symmetry_space_group_name_H-M "C 2/M"
_symmetry_group_IT_number 12
_symmetry_cell_setting 'monoclinic'
loop_
_space_group_symop_operation_xyz
x,y,z
-x,y,-z
-x,-y,-z
x,-y,z
1/2+x,1/2+y,z
1/2-x,1/2+y,-z
1/2-x,1/2-y,-z
1/2+x,1/2-y,z
loop_
_atom_site_type_symbol
_atom_site_label
_atom_site_fract_x
_atom_site_fract_y
_atom_site_fract_z
Si Si1 0.923363 0.000000 0.336608
Si Si2 0.815087 0.891356 0.321917
Si Si3 0.380103 0.230669 0.129519
Si Si4 0.879892 0.339627 0.637277
Si Si5 0.110853 0.170382 0.251192
O O1 0.852402 0.947541 0.399937
O O2 0.000000 0.000000 0.500000
O O3 0.000000 0.000000 0.000000
O O4 0.698822 0.885418 0.360429
O O5 0.832482 0.847192 0.539451
O O6 0.883369 0.877544 0.977968
O O7 0.358088 0.212079 0.462296
O O8 0.500000 0.240167 0.000000
O O9 0.359827 0.178822 0.966627
O O10 0.345954 0.281532 0.987386
O O11 0.000000 0.352041 0.500000
O O12 0.000000 0.182096 0.500000
#
# Coordination Sequence:
#
# PCOD9199207 Si02
#       5
#     4   8   8   8   8
#     4  12  26  46  67  90 123 156 198 262 319 362
#     4  12  25  40  64  91 119 164 212 252 311 365
#     4  10  20  36  59  87 127 167 198 243 302 357
#     4  10  22  40  60  88 126 164 202 249 298 359
#     4  12  23  38  61  93 129 164 206 253 300 369
#
# _framework density 22.348931
#
# number of rings (size 3 to 8) (size 9 to 14) (size 15 to 20)
#    0.000    0.889    0.000   10.000    0.000    5.333 
#    0.000    0.556    0.000    0.000    0.000    9.333 
#    0.000    0.000    0.000    0.000    0.000    0.000 
#
# Total GULP energy -100563.578152 kJ/mol
# GULP energy per Si atom -5586.865453 kJ/mol
# Density = 2.229806 g / cm^3
# Si number density = 22.348931 Si / 1000 Ang^3
#
#
#
# Elastic Constant Matrix: (Units=GPa)
#
#
# Indices 1 2 3 4 5 6 
#
# 1 177.4817 71.3418 44.4903 0.0000 7.3541 0.0000
# 2 71.3418 82.4447 18.5952 0.0000 -2.1475 0.0000
# 3 44.4903 18.5952 153.6188 0.0000 12.3643 0.0000
# 4 0.0000 0.0000 0.0000 22.2485 0.0000 6.4787
# 5 7.3541 -2.1475 12.3643 0.0000 44.4650 0.0000
# 6 0.0000 0.0000 0.0000 6.4787 0.0000 33.6595
#
#
#
# Elastic Compliance Matrix: (Units=1/GPa)
#
#
# Indices 1 2 3 4 5 6 
#
# 1 0.009150 -0.007590 -0.001616 0.000000 -0.001431 0.000000
# 2 -0.007590 0.018814 -0.000259 0.000000 0.002236 0.000000
# 3 -0.001616 -0.000259 0.007148 0.000000 -0.001733 0.000000
# 4 0.000000 0.000000 0.000000 0.047616 0.000000 -0.009165
# 5 -0.001431 0.002236 -0.001733 0.000000 0.023316 0.000000
# 6 0.000000 0.000000 0.000000 -0.009165 0.000000 0.031473
#
#
# Mechanical properties :
#
#
# Convention : Reuss Voigt Hill
#
# Bulk Modulus (GPa) = 61.79877 75.82221 68.81049
# Shear Modulus (GPa) = 30.89425 38.68247 34.78836
#
# Velocity S-wave (km/s) = 3.72204 4.16485 3.94966
# Velocity P-wave (km/s) = 6.79583 7.55832 7.18719
#
# Compressibility (1/GPa) = 0.01618155
#
# Stress axis : x y z
#
# Youngs Moduli (GPa) = 109.29145 53.15126 139.88987
#
# Poissons Ratio (x) = 0.40344 0.22606
# Poissons Ratio (y) = 0.82957 0.03625
# Poissons Ratio (z) = 0.17661 0.01377
#
# Static dielectric constant tensor:
#      x y z
#    x 1.912060 0.000000 -0.028940 
#    y 0.000000 1.864460 0.000000 
#    z -0.028940 0.000000 1.800390 
# 
# From -- ./inp_files/11256.got.cif
#   From: 2010.05.17/outbox.cif.g08.bks.cpg/sg12_6_cif.got.tgz:11256.got - 2010.06.03 13:09:07.
