data_PCOD9199075
_publ_section_title
;
Structure prediction by ZEFSAII (Michael W. Deem and Ramdas Pophale) SiO2 
 PCOD9199075
Probable space group: C 2/M
;
_chemical_formula_sum "Si O2"
_cell_formula_units_Z 48
_cell_length_a 20.734131
_cell_length_b 7.891592
_cell_length_c 31.651600
_cell_angle_alpha 90.000000
_cell_angle_beta 154.570453
_cell_angle_gamma 90.000000
_cell_volume 2223.868487
_symmetry_space_group_name_H-M "C 2/M"
_symmetry_group_IT_number 12
_symmetry_cell_setting 'monoclinic'
loop_
_space_group_symop_operation_xyz
x,y,z
-x,y,-z
-x,-y,-z
x,-y,z
1/2+x,1/2+y,z
1/2-x,1/2+y,-z
1/2-x,1/2-y,-z
1/2+x,1/2-y,z
loop_
_atom_site_type_symbol
_atom_site_label
_atom_site_fract_x
_atom_site_fract_y
_atom_site_fract_z
Si Si1 0.601041 0.301702 0.781706
Si Si2 0.371792 0.802149 0.107222
Si Si3 0.271719 0.704150 0.561439
Si Si4 0.884321 0.198892 0.897964
Si Si5 0.982641 0.292928 0.441324
Si Si6 0.652743 0.293831 0.218235
O O1 0.603768 0.500000 0.772342
O O2 0.643413 0.283416 0.856028
O O3 0.432135 0.235196 0.674005
O O4 0.720448 0.213810 0.821687
O O5 0.533927 0.764296 0.182782
O O6 0.353653 0.000000 0.104318
O O7 0.250000 0.750000 0.000000
O O8 0.272857 0.500000 0.566443
O O9 0.250000 0.750000 0.500000
O O10 0.126801 0.768136 0.500893
O O11 0.890959 0.268228 0.854476
O O12 0.922575 0.000000 0.916251
O O13 0.000000 0.276518 0.000000
O O14 0.982562 0.500000 0.439760
O O15 0.822119 0.238352 0.328409
O O16 0.000000 0.242601 0.500000
O O17 0.650792 0.500000 0.217270
#
# Coordination Sequence:
#
# PCOD9199075 Si02
#       6
#     8   8   8   8   8   8
#     4  11  23  39  61  89 121 156 197 244 292 346
#     4  12  25  41  62  87 118 154 195 244 296 352
#     4  10  21  37  59  87 118 154 194 237 286 342
#     4  10  21  37  58  84 115 153 195 238 288 348
#     4   9  17  32  55  80 109 148 191 231 275 334
#     4  10  20  36  59  85 115 152 194 238 286 344
#
# _framework density 21.584008999999998
#
# number of rings (size 3 to 8) (size 9 to 14) (size 15 to 20)
#    0.000    1.667    0.000    5.000    0.000    7.667 
#    0.000    0.833    0.000    2.000    0.000    0.000 
#    0.000    0.000    0.000    0.000    0.000    0.000 
#
# Total GULP energy -134198.666043 kJ/mol
# GULP energy per Si atom -5591.611085 kJ/mol
# Density = 2.153488 g / cm^3
# Si number density = 21.584009 Si / 1000 Ang^3
#
#
#
# Elastic Constant Matrix: (Units=GPa)
#
#
# Indices 1 2 3 4 5 6 
#
# 1 78.5820 -19.7788 -23.3545 -0.0010 -3.2813 0.0003
# 2 -19.7788 22.3216 -3.5726 -0.0002 -3.1076 0.0008
# 3 -23.3545 -3.5726 61.6727 -0.0050 -2.3850 0.0005
# 4 -0.0010 -0.0002 -0.0050 15.9600 0.0004 8.2369
# 5 -3.2813 -3.1076 -2.3850 0.0004 41.5205 0.0001
# 6 0.0003 0.0008 0.0005 8.2369 0.0001 25.7166
#
#
#
# Elastic Compliance Matrix: (Units=1/GPa)
#
#
# Indices 1 2 3 4 5 6 
#
# 1 0.020726 0.020346 0.009170 0.000006 0.003687 -0.000003
# 2 0.020346 0.065718 0.011790 0.000008 0.007204 -0.000005
# 3 0.009170 0.011790 0.020478 0.000009 0.002783 -0.000004
# 4 0.000006 0.000008 0.000009 0.075065 0.000001 -0.024043
# 5 0.003687 0.007204 0.002783 0.000001 0.025075 -0.000001
# 6 -0.000003 -0.000005 -0.000004 -0.024043 -0.000001 0.046586
#
#
# Mechanical properties :
#
#
# Convention : Reuss Voigt Hill
#
# Bulk Modulus (GPa) = 5.27617 7.68496 6.48056
# Shear Modulus (GPa) = 21.34804 30.59157 25.96980
#
# Velocity S-wave (km/s) = 3.14836 3.76882 3.47248
# Velocity P-wave (km/s) = 3.95803 4.74415 4.36880
#
# Compressibility (1/GPa) = 0.18953155
#
# Stress axis : x y z
#
# Youngs Moduli (GPa) = 48.24941 15.21663 48.83374
#
# Poissons Ratio (x) = -0.30959 -0.44779
# Poissons Ratio (y) = -0.98166 -0.57575
# Poissons Ratio (z) = -0.44243 -0.17940
#
# Static dielectric constant tensor:
#      x y z
#    x 1.748220 0.000010 -0.020960 
#    y 0.000010 1.806830 0.000000 
#    z -0.020960 0.000000 1.792540 
# 
# From -- ./inp_files/378561.got.cif
#   From: 2010.05.17/outbox.cif.g08.bks.cpg/sg12_190_cif.got.tgz:378561.got - 2010.06.03 13:09:07.
