data_PCOD9199522
_publ_section_title
;
Structure prediction by ZEFSAII (Michael W. Deem and Ramdas Pophale) SiO2 
 PCOD9199522
Probable space group: C 2/M
;
_chemical_formula_sum "Si O2"
_cell_formula_units_Z 56
_cell_length_a 23.051366
_cell_length_b 15.102884
_cell_length_c 20.946659
_cell_angle_alpha 90.000000
_cell_angle_beta 156.388927
_cell_angle_gamma 90.000000
_cell_volume 2920.802294
_symmetry_space_group_name_H-M "C 2/M"
_symmetry_group_IT_number 12
_symmetry_cell_setting 'monoclinic'
loop_
_space_group_symop_operation_xyz
x,y,z
-x,y,-z
-x,-y,-z
x,-y,z
1/2+x,1/2+y,z
1/2-x,1/2+y,-z
1/2-x,1/2-y,-z
1/2+x,1/2-y,z
loop_
_atom_site_type_symbol
_atom_site_label
_atom_site_fract_x
_atom_site_fract_y
_atom_site_fract_z
Si Si1 0.120504 0.399398 0.437746
Si Si2 0.617322 0.752134 0.527245
Si Si3 0.708841 0.103808 0.945235
Si Si4 0.881901 0.750952 0.045264
Si Si5 0.320487 0.829708 0.636544
Si Si6 0.273779 0.000000 0.806871
Si Si7 0.301523 0.301922 0.253770
Si Si8 0.916173 0.500000 0.812201
O O1 0.168383 0.500000 0.487609
O O2 0.140362 0.350397 0.524396
O O3 0.195838 0.350228 0.454310
O O4 0.949315 0.396078 0.247613
O O5 0.674840 0.693134 0.526851
O O6 0.703992 0.729032 0.678553
O O7 0.450102 0.734122 0.373513
O O8 0.687819 0.167558 0.985597
O O9 0.745220 0.000000 0.994840
O O10 0.819303 0.158419 0.011827
O O11 0.053811 0.742869 0.226444
O O12 0.829734 0.734806 0.920645
O O13 0.386010 0.915968 0.737650
O O14 0.194191 0.091472 0.741699
O O15 0.316425 0.000000 0.774859
O O16 0.421557 0.000000 0.996936
#
# Coordination Sequence:
#
# PCOD9199522 Si02
#       8
#     8   8   8   8   8   4   8   4
#     4  10  20  38  62  83 112 154 200 243 284 344
#     4  11  24  39  54  84 124 155 191 234 292 344
#     4   9  19  36  62  88 114 150 199 244 287 340
#     4  10  20  36  60  89 115 150 195 244 289 339
#     4  11  21  37  63  87 118 150 191 244 294 346
#     4  11  22  36  59  88 123 154 189 236 284 365
#     4  11  23  38  58  83 121 155 193 233 285 348
#     4  11  20  35  60  95 112 148 200 232 294 357
#
# _framework density 19.172813999999999
#
# number of rings (size 3 to 8) (size 9 to 14) (size 15 to 20)
#    0.000    1.571    5.000    0.429    2.000    2.286 
#    0.000    2.857    0.000    0.000    0.000    2.000 
#    0.000    0.000    0.000    0.000    0.000    0.000 
#
# Total GULP energy -156370.952592 kJ/mol
# GULP energy per Si atom -5584.676878 kJ/mol
# Density = 1.912918 g / cm^3
# Si number density = 19.172814 Si / 1000 Ang^3
#
#
#
# Elastic Constant Matrix: (Units=GPa)
#
#
# Indices 1 2 3 4 5 6 
#
# 1 82.4575 36.0433 8.8424 0.0001 -5.5931 0.0001
# 2 36.0433 91.6196 21.6200 -0.0001 -8.9472 0.0001
# 3 8.8424 21.6200 34.0454 0.0000 -17.4109 0.0002
# 4 0.0001 -0.0001 0.0000 20.9514 0.0004 -7.1455
# 5 -5.5931 -8.9472 -17.4109 0.0004 23.2177 0.0004
# 6 0.0001 0.0001 0.0002 -7.1455 0.0004 30.7188
#
#
#
# Elastic Compliance Matrix: (Units=1/GPa)
#
#
# Indices 1 2 3 4 5 6 
#
# 1 0.014701 -0.005796 0.000862 0.000000 0.001954 0.000000
# 2 -0.005796 0.015175 -0.009497 0.000000 -0.002670 0.000000
# 3 0.000862 -0.009497 0.054200 -0.000001 0.037192 -0.000001
# 4 0.000000 0.000000 -0.000001 0.051842 -0.000002 0.012059
# 5 0.001954 -0.002670 0.037192 -0.000002 0.070402 -0.000002
# 6 0.000000 0.000000 -0.000001 0.012059 -0.000002 0.035359
#
#
# Mechanical properties :
#
#
# Convention : Reuss Voigt Hill
#
# Bulk Modulus (GPa) = 18.11139 37.90376 28.00758
# Shear Modulus (GPa) = 17.30429 24.41869 20.86149
#
# Velocity S-wave (km/s) = 3.00749 3.57264 3.30218
# Velocity P-wave (km/s) = 4.63971 6.06884 5.40175
#
# Compressibility (1/GPa) = 0.05521386
#
# Stress axis : x y z
#
# Youngs Moduli (GPa) = 68.02220 65.89740 18.45032
#
# Poissons Ratio (x) = 0.38194 -0.01590
# Poissons Ratio (y) = 0.39425 0.17522
# Poissons Ratio (z) = -0.05862 0.62582
#
# Static dielectric constant tensor:
#      x y z
#    x 1.662090 0.000000 0.000030 
#    y 0.000000 1.675560 0.000000 
#    z 0.000030 0.000000 1.665350 
# 
# From -- ./inp_files/284622.got.cif
#   From: 2010.05.17/outbox.cif.g08.bks.cpg/sg12_143_cif.got.tgz:284622.got - 2010.06.03 13:09:07.
