data_PCOD9199550
_publ_section_title
;
Structure prediction by ZEFSAII (Michael W. Deem and Ramdas Pophale) SiO2 
 PCOD9199550
Probable space group: C 2/M
;
_chemical_formula_sum "Si O2"
_cell_formula_units_Z 56
_cell_length_a 19.171664
_cell_length_b 18.495387
_cell_length_c 8.757736
_cell_angle_alpha 90.000000
_cell_angle_beta 60.710811
_cell_angle_gamma 90.000000
_cell_volume 2708.395237
_symmetry_space_group_name_H-M "C 2/M"
_symmetry_group_IT_number 12
_symmetry_cell_setting 'monoclinic'
loop_
_space_group_symop_operation_xyz
x,y,z
-x,y,-z
-x,-y,-z
x,-y,z
1/2+x,1/2+y,z
1/2-x,1/2+y,-z
1/2-x,1/2-y,-z
1/2+x,1/2-y,z
loop_
_atom_site_type_symbol
_atom_site_label
_atom_site_fract_x
_atom_site_fract_y
_atom_site_fract_z
Si Si1 0.674918 0.702467 0.251383
Si Si2 0.732749 0.419522 0.973181
Si Si3 0.318734 0.827776 0.305457
Si Si4 0.044270 0.704603 0.291190
Si Si5 0.699627 0.414912 0.654946
Si Si6 0.586052 0.694932 0.651888
Si Si7 0.402781 0.917974 0.962990
O O1 0.685602 0.641985 0.113053
O O2 0.759316 0.710253 0.246871
O O3 0.636163 0.774302 0.224192
O O4 0.613024 0.678371 0.449729
O O5 0.698577 0.500000 0.039219
O O6 0.821708 0.420814 0.948311
O O7 0.729787 0.407860 0.795644
O O8 0.262942 0.875904 0.474998
O O9 0.363389 0.765388 0.349488
O O10 0.377393 0.879298 0.147178
O O11 0.000000 0.692311 0.500000
O O12 0.003449 0.774597 0.256114
O O13 0.038753 0.635022 0.190987
O O14 0.692602 0.500000 0.625918
O O15 0.616344 0.371762 0.719844
O O16 0.430716 0.000000 0.952541
#
# Coordination Sequence:
#
# PCOD9199550 Si02
#       7
#     8   8   8   8   8   8   8
#     4   9  19  37  59  82 112 154 194 239 284 342
#     4   9  20  35  60  93 117 148 195 245 294 340
#     4  10  21  37  62  86 119 148 201 244 293 340
#     4  10  23  39  58  83 120 157 198 236 285 351
#     4  10  20  36  60  89 122 151 191 248 296 339
#     4  10  22  38  56  88 120 156 197 236 292 347
#     4  10  22  39  60  86 116 155 195 237 294 352
#
# _framework density 20.676451
#
# number of rings (size 3 to 8) (size 9 to 14) (size 15 to 20)
#    0.000    2.286    0.000    2.143    8.000    5.429 
#    0.000    2.857    0.000    6.857    0.000    0.000 
#    0.000    0.000    0.000    0.000    0.000    0.000 
#
# Total GULP energy -156396.083944 kJ/mol
# GULP energy per Si atom -5585.574427 kJ/mol
# Density = 2.062939 g / cm^3
# Si number density = 20.676451 Si / 1000 Ang^3
#
#
#
# Elastic Constant Matrix: (Units=GPa)
#
#
# Indices 1 2 3 4 5 6 
#
# 1 69.0478 45.4783 28.5826 0.0000 10.7660 0.0000
# 2 45.4783 128.4389 59.6191 0.0000 10.3757 0.0000
# 3 28.5826 59.6191 85.3004 0.0000 13.8590 0.0000
# 4 0.0000 0.0000 0.0000 24.9111 0.0000 2.0273
# 5 10.7660 10.3757 13.8590 0.0000 15.5932 0.0000
# 6 0.0000 0.0000 0.0000 2.0273 0.0000 26.2447
#
#
#
# Elastic Compliance Matrix: (Units=1/GPa)
#
#
# Indices 1 2 3 4 5 6 
#
# 1 0.020264 -0.005884 -0.001216 0.000000 -0.008995 0.000000
# 2 -0.005884 0.013238 -0.007608 0.000000 0.002016 0.000000
# 3 -0.001216 -0.007608 0.019273 0.000000 -0.011227 0.000000
# 4 0.000000 0.000000 0.000000 0.040397 0.000000 -0.003121
# 5 -0.008995 0.002016 -0.011227 0.000000 0.078978 0.000000
# 6 0.000000 0.000000 0.000000 -0.003121 0.000000 0.038344
#
#
# Mechanical properties :
#
#
# Convention : Reuss Voigt Hill
#
# Bulk Modulus (GPa) = 42.81273 61.12747 51.97010
# Shear Modulus (GPa) = 20.18597 23.29027 21.73812
#
# Velocity S-wave (km/s) = 3.12794 3.35985 3.24597
# Velocity P-wave (km/s) = 5.81346 6.68427 6.26401
#
# Compressibility (1/GPa) = 0.02335754
#
# Stress axis : x y z
#
# Youngs Moduli (GPa) = 49.34813 75.53947 51.88697
#
# Poissons Ratio (x) = 0.44448 0.06310
# Poissons Ratio (y) = 0.29037 0.39478
# Poissons Ratio (z) = 0.06002 0.57474
#
# Static dielectric constant tensor:
#      x y z
#    x 1.777050 0.000000 -0.002380 
#    y 0.000000 1.738630 0.000000 
#    z -0.002380 0.000000 1.718900 
# 
# From -- ./inp_files/75836.got.cif
#   From: 2010.05.17/outbox.cif.g08.bks.cpg/sg12_38_cif.got.tgz:75836.got - 2010.06.03 13:09:07.
