data_PCOD9199102
_publ_section_title
;
Structure prediction by ZEFSAII (Michael W. Deem and Ramdas Pophale) SiO2 
 PCOD9199102
Probable space group: C 2/M
;
_chemical_formula_sum "Si O2"
_cell_formula_units_Z 48
_cell_length_a 19.857528
_cell_length_b 8.056140
_cell_length_c 11.980143
_cell_angle_alpha 90.000000
_cell_angle_beta 96.207362
_cell_angle_gamma 90.000000
_cell_volume 1905.287256
_symmetry_space_group_name_H-M "C 2/M"
_symmetry_group_IT_number 12
_symmetry_cell_setting 'monoclinic'
loop_
_space_group_symop_operation_xyz
x,y,z
-x,y,-z
-x,-y,-z
x,-y,z
1/2+x,1/2+y,z
1/2-x,1/2+y,-z
1/2-x,1/2-y,-z
1/2+x,1/2-y,z
loop_
_atom_site_type_symbol
_atom_site_label
_atom_site_fract_x
_atom_site_fract_y
_atom_site_fract_z
Si Si1 0.785168 0.693174 0.158796
Si Si2 0.136255 0.200084 0.126097
Si Si3 0.572671 0.308373 0.899045
Si Si4 0.382431 0.802404 0.623100
Si Si5 0.967096 0.693407 0.338646
Si Si6 0.324633 0.313065 0.394149
O O1 0.795085 0.500000 0.130375
O O2 0.712086 0.756963 0.107690
O O3 0.848589 0.798096 0.127188
O O4 0.786793 0.704117 0.294786
O O5 0.126657 0.249189 0.251574
O O6 0.136744 0.000000 0.119456
O O7 0.079694 0.255489 0.027025
O O8 0.549525 0.500000 0.893073
O O9 0.533703 0.209659 0.796404
O O10 0.459552 0.751609 0.606773
O O11 0.328837 0.735529 0.524292
O O12 0.380440 0.000000 0.616792
O O13 0.955624 0.500000 0.366226
O O14 0.903418 0.796648 0.369921
O O15 0.299803 0.500000 0.377417
#
# Coordination Sequence:
#
# PCOD9199102 Si02
#       6
#     8   8   8   8   8   8
#     4  10  20  37  60  84 112 146 185 229 275 325
#     4  10  23  39  56  82 115 150 186 226 274 329
#     4  10  20  36  59  86 113 144 185 230 276 324
#     4  11  24  39  57  81 112 150 187 227 276 330
#     4  10  21  38  59  84 112 144 186 230 274 327
#     4  11  22  37  60  86 111 143 184 230 279 329
#
# _framework density 25.193051000000001
#
# number of rings (size 3 to 8) (size 9 to 14) (size 15 to 20)
#    0.000    1.667    0.000    6.500    0.000    8.667 
#    0.000    3.333    0.000    0.000    0.000    0.000 
#    0.000    0.000    0.000    0.000    0.000    0.000 
#
# Total GULP energy -134365.309793 kJ/mol
# GULP energy per Si atom -5598.554575 kJ/mol
# Density = 2.513571 g / cm^3
# Si number density = 25.193051 Si / 1000 Ang^3
#
#
#
# Elastic Constant Matrix: (Units=GPa)
#
#
# Indices 1 2 3 4 5 6 
#
# 1 79.2607 -5.7472 3.6186 0.0000 17.8627 0.0000
# 2 -5.7472 50.4140 -2.3724 0.0000 4.0910 0.0000
# 3 3.6186 -2.3724 149.4547 0.0000 18.4856 0.0000
# 4 0.0000 0.0000 0.0000 0.0689 0.0000 1.2238
# 5 17.8627 4.0910 18.4856 0.0000 47.7801 0.0000
# 6 0.0000 0.0000 0.0000 1.2238 0.0000 15.9901
#
#
#
# Elastic Compliance Matrix: (Units=1/GPa)
#
#
# Indices 1 2 3 4 5 6 
#
# 1 0.014002 0.002065 0.000381 0.000000 -0.005559 0.000000
# 2 0.002065 0.020323 0.000613 0.000000 -0.002749 0.000000
# 3 0.000381 0.000613 0.007053 0.000000 -0.002924 0.000000
# 4 0.000000 0.000000 0.000000-40.338375 0.000000 3.087382
# 5 -0.005559 -0.002749 -0.002924 0.000000 0.024374 0.000000
# 6 0.000000 0.000000 0.000000 3.087382 0.000000 -0.173761
#
#
# Mechanical properties :
#
#
# Convention : Reuss Voigt Hill
#
# Bulk Modulus (GPa) = 21.05421 30.01416 25.53419
# Shear Modulus (GPa) = -0.12365 31.67653 15.77644
#
# Velocity S-wave (km/s) = -0.22178 3.54976 2.50516
# Velocity P-wave (km/s) = 2.88266 5.36103 4.30409
#
# Compressibility (1/GPa) = 0.04749643
#
# Stress axis : x y z
#
# Youngs Moduli (GPa) = 71.41975 49.20505 141.78128
#
# Poissons Ratio (x) = -0.10162 -0.05407
# Poissons Ratio (y) = -0.14750 -0.08686
# Poissons Ratio (z) = -0.02724 -0.03015
#
# Static dielectric constant tensor:
#      x y z
#    x 2.021100 0.000000 -0.059480 
#    y 0.000000 1.870330 0.000000 
#    z -0.059480 0.000000 2.089210 
# 
# From -- ./inp_files/172311.got.cif
#   From: 2010.05.17/outbox.cif.g08.bks.cpg/sg12_87_cif.got.tgz:172311.got - 2010.06.03 13:09:07.
