data_PCOD9199360
_publ_section_title
;
Structure prediction by ZEFSAII (Michael W. Deem and Ramdas Pophale) SiO2 
 PCOD9199360
Probable space group: C 2/M
;
_chemical_formula_sum "Si O2"
_cell_formula_units_Z 56
_cell_length_a 10.500145
_cell_length_b 17.895840
_cell_length_c 14.483902
_cell_angle_alpha 90.000000
_cell_angle_beta 84.869685
_cell_angle_gamma 90.000000
_cell_volume 2710.751068
_symmetry_space_group_name_H-M "C 2/M"
_symmetry_group_IT_number 12
_symmetry_cell_setting 'monoclinic'
loop_
_space_group_symop_operation_xyz
x,y,z
-x,y,-z
-x,-y,-z
x,-y,z
1/2+x,1/2+y,z
1/2-x,1/2+y,-z
1/2-x,1/2-y,-z
1/2+x,1/2-y,z
loop_
_atom_site_type_symbol
_atom_site_label
_atom_site_fract_x
_atom_site_fract_y
_atom_site_fract_z
Si Si1 0.435257 0.419265 0.733220
Si Si2 0.437390 0.302113 0.404886
Si Si3 0.948540 0.632021 0.360779
Si Si4 0.514042 0.329644 0.887151
Si Si5 0.645817 0.918153 0.820681
Si Si6 0.797459 0.412854 0.544429
Si Si7 0.239873 0.727473 0.895313
O O1 0.473109 0.500000 0.692448
O O2 0.471063 0.352736 0.663373
O O3 0.503232 0.404207 0.827544
O O4 0.285197 0.420179 0.763555
O O5 0.500000 0.287898 0.500000
O O6 0.418828 0.220472 0.362521
O O7 0.312710 0.353111 0.427753
O O8 0.947091 0.601551 0.257259
O O9 0.843038 0.595162 0.435133
O O10 0.082065 0.611911 0.400902
O O11 0.388430 0.283790 0.859220
O O12 0.646945 0.288457 0.855988
O O13 0.500000 0.338639 0.000000
O O14 0.663498 0.850492 0.890205
O O15 0.618810 0.000000 0.862100
O O16 0.765284 0.500000 0.563634
O O17 0.250000 0.750000 0.000000
#
# Coordination Sequence:
#
# PCOD9199360 Si02
#       7
#     8   8   8   8   8   8   8
#     4  10  22  37  55  85 118 148 193 246 301 363
#     4  12  24  38  59  85 119 160 206 249 301 359
#     4  11  22  38  60  82 116 157 211 250 294 358
#     4   9  18  36  61  86 113 150 191 242 301 361
#     4  10  20  36  60  85 115 154 198 244 300 360
#     4  11  23  39  59  84 118 160 205 257 305 353
#     4   9  18  35  59  86 115 146 190 241 295 362
#
# _framework density 20.658481999999999
#
# number of rings (size 3 to 8) (size 9 to 14) (size 15 to 20)
#    0.000    1.714    1.429    4.286    2.000    2.571 
#    2.571    2.143    0.000    3.857    0.000    0.000 
#    0.000    0.000    0.000    0.000    0.000    0.000 
#
# Total GULP energy -156237.614243 kJ/mol
# GULP energy per Si atom -5579.914794 kJ/mol
# Density = 2.061146 g / cm^3
# Si number density = 20.658482 Si / 1000 Ang^3
#
#
#
# Elastic Constant Matrix: (Units=GPa)
#
#
# Indices 1 2 3 4 5 6 
#
# 1 35.8665 2.5415 -10.6151 0.0000 12.8009 0.0000
# 2 2.5415 101.2571 9.4306 0.0000 9.2726 0.0000
# 3 -10.6151 9.4306 54.6867 0.0000 17.3893 0.0000
# 4 0.0000 0.0000 0.0000 16.9013 0.0000 -0.2166
# 5 12.8009 9.2726 17.3893 0.0000 26.3775 0.0000
# 6 0.0000 0.0000 0.0000 -0.2166 0.0000 14.4031
#
#
#
# Elastic Compliance Matrix: (Units=1/GPa)
#
#
# Indices 1 2 3 4 5 6 
#
# 1 0.047054 0.000239 0.020725 0.000000 -0.036582 0.000000
# 2 0.000239 0.010232 -0.000680 0.000000 -0.003264 0.000000
# 3 0.020725 -0.000680 0.032324 0.000000 -0.031128 0.000000
# 4 0.000000 0.000000 0.000000 0.059179 0.000000 0.000890
# 5 -0.036582 -0.003264 -0.031128 0.000000 0.077333 0.000000
# 6 0.000000 0.000000 0.000000 0.000890 0.000000 0.069443
#
#
# Mechanical properties :
#
#
# Convention : Reuss Voigt Hill
#
# Bulk Modulus (GPa) = 7.68180 21.61379 14.64780
# Shear Modulus (GPa) = 16.75655 24.23327 20.49491
#
# Velocity S-wave (km/s) = 2.85111 3.42869 3.15315
# Velocity P-wave (km/s) = 3.81641 5.11465 4.51246
#
# Compressibility (1/GPa) = 0.13017779
#
# Stress axis : x y z
#
# Youngs Moduli (GPa) = 21.25201 97.73125 30.93648
#
# Poissons Ratio (x) = -0.02334 -0.64115
# Poissons Ratio (y) = -0.00507 0.02104
# Poissons Ratio (z) = -0.44044 0.06647
#
# Static dielectric constant tensor:
#      x y z
#    x 1.759720 0.000000 0.006010 
#    y 0.000000 1.764770 0.000000 
#    z 0.006010 0.000000 1.711320 
# 
# From -- ./inp_files/205043.got.cif
#   From: 2010.05.17/outbox.cif.g08.bks.cpg/sg12_103_cif.got.tgz:205043.got - 2010.06.03 13:09:07.
