data_PCOD9199753
_publ_section_title
;
Structure prediction by ZEFSAII (Michael W. Deem and Ramdas Pophale) SiO2 
 PCOD9199753
Probable space group: C 2/M
;
_chemical_formula_sum "Si O2"
_cell_formula_units_Z 58
_cell_length_a 18.320392
_cell_length_b 11.268735
_cell_length_c 27.850828
_cell_angle_alpha 90.000000
_cell_angle_beta 148.633470
_cell_angle_gamma 90.000000
_cell_volume 2992.801368
_symmetry_space_group_name_H-M "C 2/M"
_symmetry_group_IT_number 12
_symmetry_cell_setting 'monoclinic'
loop_
_space_group_symop_operation_xyz
x,y,z
-x,y,-z
-x,-y,-z
x,-y,z
1/2+x,1/2+y,z
1/2-x,1/2+y,-z
1/2-x,1/2-y,-z
1/2+x,1/2-y,z
loop_
_atom_site_type_symbol
_atom_site_label
_atom_site_fract_x
_atom_site_fract_y
_atom_site_fract_z
Si Si1 0.155314 0.864564 0.805064
Si Si2 0.344697 0.274429 0.628416
Si Si3 0.500000 0.500000 0.000000
Si Si4 0.075399 0.367841 0.895258
Si Si5 0.835366 0.194875 0.972722
Si Si6 0.278065 0.132850 0.676595
Si Si7 0.606839 0.868854 0.433634
Si Si8 0.573647 0.634703 0.651557
O O1 0.259224 0.778778 0.891055
O O2 0.160475 0.855332 0.750061
O O3 0.993780 0.830066 0.725591
O O4 0.181140 0.000000 0.833638
O O5 0.258910 0.232617 0.626090
O O6 0.373455 0.158642 0.611596
O O7 0.254415 0.360591 0.544135
O O8 0.570468 0.602765 0.003779
O O9 0.075400 0.500000 0.916461
O O10 0.208175 0.357560 0.933959
O O11 0.934827 0.354600 0.785280
O O12 0.081375 0.272878 0.941260
O O13 0.172271 0.141521 0.661099
O O14 0.262933 0.000000 0.647485
O O15 0.524518 0.750645 0.404397
O O16 0.544486 0.000000 0.405952
O O17 0.509689 0.500000 0.616388
#
# Coordination Sequence:
#
# PCOD9199753 Si02
#       8
#     8   8   2   8   8   8   8   8
#     4  10  20  39  63  89 121 163 210 256 305 371
#     4  10  20  36  61  90 118 158 209 254 311 373
#     4  12  28  44  62 100 132 166 204 286 320 380
#     4  10  21  41  64  90 124 167 210 256 306 386
#     4  11  23  41  64  91 128 165 208 256 325 369
#     4  10  20  37  60  88 118 159 208 250 301 372
#     4  10  21  38  60  88 123 159 202 258 319 378
#     4   9  21  39  59  86 124 161 206 261 310 367
#
# _framework density 19.379836999999998
#
# number of rings (size 3 to 8) (size 9 to 14) (size 15 to 20)
#    0.000    1.931    2.069    1.241    1.931    4.414 
#    4.966    4.138    0.000    0.000    0.000    0.000 
#    0.000    0.000    0.000    0.000    0.000    0.000 
#
# Total GULP energy -161466.059715 kJ/mol
# GULP energy per Si atom -5567.795163 kJ/mol
# Density = 1.933573 g / cm^3
# Si number density = 19.379837 Si / 1000 Ang^3
#
#
#
# Elastic Constant Matrix: (Units=GPa)
#
#
# Indices 1 2 3 4 5 6 
#
# 1 109.9729 51.1338 3.4614 0.0000 -3.3210 0.0000
# 2 51.1338 140.8662 30.4741 0.0001 -4.9790 0.0000
# 3 3.4614 30.4741 18.4144 0.0004 -4.2364 0.0001
# 4 0.0000 0.0001 0.0004 7.4889 0.0001 6.8098
# 5 -3.3210 -4.9790 -4.2364 0.0001 10.0353 0.0000
# 6 0.0000 0.0000 0.0001 6.8098 0.0000 24.7962
#
#
#
# Elastic Compliance Matrix: (Units=1/GPa)
#
#
# Indices 1 2 3 4 5 6 
#
# 1 0.011747 -0.006002 0.008787 -0.000001 0.004619 0.000000
# 2 -0.006002 0.014180 -0.023455 0.000002 -0.004852 0.000000
# 3 0.008787 -0.023455 0.099083 -0.000008 0.033098 0.000002
# 4 -0.000001 0.000002 -0.000008 0.177976 -0.000004 -0.048878
# 5 0.004619 -0.004852 0.033098 -0.000004 0.112742 0.000001
# 6 0.000000 0.000000 0.000002 -0.048878 0.000001 0.053752
#
#
# Mechanical properties :
#
#
# Convention : Reuss Voigt Hill
#
# Bulk Modulus (GPa) = 11.95162 48.82136 30.38649
# Shear Modulus (GPa) = 9.28144 20.74304 15.01224
#
# Velocity S-wave (km/s) = 2.19080 3.27516 2.78624
# Velocity P-wave (km/s) = 3.54682 6.28878 5.10532
#
# Compressibility (1/GPa) = 0.08367066
#
# Stress axis : x y z
#
# Youngs Moduli (GPa) = 85.13113 70.52190 10.09251
#
# Poissons Ratio (x) = 0.42324 -0.08868
# Poissons Ratio (y) = 0.51092 0.23672
# Poissons Ratio (z) = -0.74801 1.65407
#
# Static dielectric constant tensor:
#      x y z
#    x 1.679080 0.000000 0.008210 
#    y 0.000000 1.690960 0.000000 
#    z 0.008210 0.000000 1.677820 
# 
# From -- ./inp_files/363798.got.cif
#   From: 2010.05.17/outbox.cif.g08.bks.cpg/sg12_182_cif.got.tgz:363798.got - 2010.06.03 13:09:07.
