data_PCOD9199306
_publ_section_title
;
Structure prediction by ZEFSAII (Michael W. Deem and Ramdas Pophale) SiO2 
 PCOD9199306
Probable space group: C 2/M
;
_chemical_formula_sum "Si O2"
_cell_formula_units_Z 44
_cell_length_a 14.165940
_cell_length_b 20.470480
_cell_length_c 9.548019
_cell_angle_alpha 90.000000
_cell_angle_beta 44.906632
_cell_angle_gamma 90.000000
_cell_volume 1954.622210
_symmetry_space_group_name_H-M "C 2/M"
_symmetry_group_IT_number 12
_symmetry_cell_setting 'monoclinic'
loop_
_space_group_symop_operation_xyz
x,y,z
-x,y,-z
-x,-y,-z
x,-y,z
1/2+x,1/2+y,z
1/2-x,1/2+y,-z
1/2-x,1/2-y,-z
1/2+x,1/2-y,z
loop_
_atom_site_type_symbol
_atom_site_label
_atom_site_fract_x
_atom_site_fract_y
_atom_site_fract_z
Si Si1 0.084430 0.680488 0.046157
Si Si2 0.500000 0.698036 0.000000
Si Si3 0.508429 0.500000 0.160443
Si Si4 0.658883 0.355487 0.354223
Si Si5 0.682557 0.618600 0.627993
Si Si6 0.520564 0.072292 0.643700
Si Si7 0.349479 0.500000 0.721806
O O1 0.030820 0.754620 0.098857
O O2 0.053406 0.632369 0.204678
O O3 0.241594 0.684237 0.848597
O O4 0.000000 0.652629 0.000000
O O5 0.626824 0.655420 0.822240
O O6 0.429983 0.564757 0.287230
O O7 0.640162 0.500000 0.118850
O O8 0.500000 0.500000 0.000000
O O9 0.500000 0.348791 0.500000
O O10 0.692453 0.337908 0.478965
O O11 0.704358 0.430959 0.276252
O O12 0.821784 0.583151 0.501335
O O13 0.500000 0.073606 0.500000
O O14 0.481510 0.000000 0.738813
O O15 0.500000 0.500000 0.500000
#
# Coordination Sequence:
#
# PCOD9199306 Si02
#       7
#     8   4   4   8   8   8   4
#     4  10  24  46  67  96 139 188 227 276 348 405
#     4  10  26  45  69 100 138 188 242 280 336 432
#     4  12  22  36  66 102 134 183 214 298 370 389
#     4  11  22  39  71 103 133 177 232 289 338 410
#     4  12  21  43  70  97 139 181 232 288 352 406
#     4  11  26  44  70 106 142 181 231 291 357 421
#     4  10  20  36  60 103 138 153 231 278 337 423
#
# _framework density 22.510743999999999
#
# number of rings (size 3 to 8) (size 9 to 14) (size 15 to 20)
#    0.545    0.545    7.273    0.000    1.273    6.182 
#    0.000    5.455    0.000    0.000    0.000    0.000 
#    0.000    0.000    0.000    0.000    0.000    0.000 
#
# Total GULP energy -122768.028093 kJ/mol
# GULP energy per Si atom -5580.364913 kJ/mol
# Density = 2.245951 g / cm^3
# Si number density = 22.510744 Si / 1000 Ang^3
#
#
#
# Elastic Constant Matrix: (Units=GPa)
#
#
# Indices 1 2 3 4 5 6 
#
# 1 76.3008 -4.5245 16.7631 0.0000 0.4334 0.0000
# 2 -4.5245 60.4417 20.6266 0.0000 -3.7331 0.0000
# 3 16.7631 20.6266 79.2418 0.0000 2.8537 0.0000
# 4 0.0000 0.0000 0.0000 43.1540 0.0000 6.0047
# 5 0.4334 -3.7331 2.8537 0.0000 39.0119 0.0000
# 6 0.0000 0.0000 0.0000 6.0047 0.0000 7.1508
#
#
#
# Elastic Compliance Matrix: (Units=1/GPa)
#
#
# Indices 1 2 3 4 5 6 
#
# 1 0.014025 0.002290 -0.003575 0.000000 0.000325 0.000000
# 2 0.002290 0.018703 -0.005431 0.000000 0.002162 0.000000
# 3 -0.003575 -0.005431 0.014846 0.000000 -0.001566 0.000000
# 4 0.000000 0.000000 0.000000 0.026239 0.000000 -0.022033
# 5 0.000325 0.002162 -0.001566 0.000000 0.025951 0.000000
# 6 0.000000 0.000000 0.000000 -0.022033 0.000000 0.158346
#
#
# Mechanical properties :
#
#
# Convention : Reuss Voigt Hill
#
# Bulk Modulus (GPa) = 29.28840 31.30164 30.29502
# Shear Modulus (GPa) = 17.67270 30.07130 23.87200
#
# Velocity S-wave (km/s) = 2.80497 3.65891 3.26002
# Velocity P-wave (km/s) = 4.85073 5.63787 5.25905
#
# Compressibility (1/GPa) = 0.03414321
#
# Stress axis : x y z
#
# Youngs Moduli (GPa) = 71.29965 53.46714 67.35914
#
# Poissons Ratio (x) = -0.12243 0.24079
# Poissons Ratio (y) = -0.16327 0.36580
# Poissons Ratio (z) = 0.25488 0.29036
#
# Static dielectric constant tensor:
#      x y z
#    x 1.862400 0.000000 0.035500 
#    y 0.000000 1.860540 0.000000 
#    z 0.035500 0.000000 1.887420 
# 
# From -- ./inp_files/65186.got.cif
#   From: 2010.05.17/outbox.cif.g08.bks.cpg/sg12_33_cif.got.tgz:65186.got - 2010.06.03 13:09:07.
