data_PCOD9199537
_publ_section_title
;
Structure prediction by ZEFSAII (Michael W. Deem and Ramdas Pophale) SiO2 
 PCOD9199537
Probable space group: C 2/M
;
_chemical_formula_sum "Si O2"
_cell_formula_units_Z 48
_cell_length_a 20.938688
_cell_length_b 8.759624
_cell_length_c 21.661506
_cell_angle_alpha 90.000000
_cell_angle_beta 41.636853
_cell_angle_gamma 90.000000
_cell_volume 2639.719732
_symmetry_space_group_name_H-M "C 2/M"
_symmetry_group_IT_number 12
_symmetry_cell_setting 'monoclinic'
loop_
_space_group_symop_operation_xyz
x,y,z
-x,y,-z
-x,-y,-z
x,-y,z
1/2+x,1/2+y,z
1/2-x,1/2+y,-z
1/2-x,1/2-y,-z
1/2+x,1/2-y,z
loop_
_atom_site_type_symbol
_atom_site_label
_atom_site_fract_x
_atom_site_fract_y
_atom_site_fract_z
Si Si1 0.295770 0.816177 0.256020
Si Si2 0.653764 0.316979 0.040442
Si Si3 0.960574 0.684006 0.235409
Si Si4 0.110350 0.184067 0.931788
Si Si5 0.355579 0.816848 0.436826
Si Si6 0.902199 0.815449 0.535844
O O1 0.378066 0.771197 0.245820
O O2 0.323158 0.748759 0.170194
O O3 0.192006 0.769114 0.357051
O O4 0.296361 0.000000 0.251690
O O5 0.656807 0.500000 0.040016
O O6 0.560355 0.259041 0.144357
O O7 0.750000 0.250000 0.000000
O O8 0.642197 0.268939 0.977204
O O9 0.970160 0.500000 0.225949
O O10 0.923846 0.725804 0.330071
O O11 0.112195 0.000000 0.927451
O O12 0.000000 0.233598 0.000000
O O13 0.250000 0.750000 0.500000
O O14 0.393867 0.754596 0.473956
O O15 0.348985 0.000000 0.443255
O O16 0.000000 0.771954 0.500000
O O17 0.900262 0.000000 0.531627
#
# Coordination Sequence:
#
# PCOD9199537 Si02
#       6
#     8   8   8   8   8   8
#     4  10  20  36  60  89 119 154 196 243 292 347
#     4  11  24  41  61  87 122 157 194 244 299 354
#     4  10  21  38  60  88 121 154 197 248 294 349
#     4  10  21  38  59  86 116 148 194 244 289 345
#     4  11  22  38  62  90 122 157 202 251 299 356
#     4  10  22  41  61  87 125 160 197 247 301 357
#
# _framework density 18.183748999999999
#
# number of rings (size 3 to 8) (size 9 to 14) (size 15 to 20)
#    0.000    1.667    3.333    1.000    0.000    5.333 
#    0.000    3.333    0.000    0.000    0.000    0.000 
#    0.000    0.000    0.000    0.000    0.000    0.000 
#
# Total GULP energy -134093.974408 kJ/mol
# GULP energy per Si atom -5587.248934 kJ/mol
# Density = 1.814236 g / cm^3
# Si number density = 18.183749 Si / 1000 Ang^3
#
#
#
# Elastic Constant Matrix: (Units=GPa)
#
#
# Indices 1 2 3 4 5 6 
#
# 1 192.1195 50.0547 126.0853 0.0000 1.4866 0.0000
# 2 50.0547 24.2927 52.0967 0.0001 1.8245 -0.0001
# 3 126.0853 52.0967 210.0485 0.0000 9.5740 -0.0001
# 4 0.0000 0.0001 0.0000 34.1261 0.0000 4.4061
# 5 1.4866 1.8245 9.5740 0.0000 38.1624 0.0000
# 6 0.0000 -0.0001 -0.0001 4.4061 0.0000 28.9878
#
#
#
# Elastic Compliance Matrix: (Units=1/GPa)
#
#
# Indices 1 2 3 4 5 6 
#
# 1 0.011749 -0.019356 -0.002300 0.000000 0.001045 0.000000
# 2 -0.019356 0.119887 -0.018096 0.000000 -0.000438 0.000001
# 3 -0.002300 -0.018096 0.010708 0.000000 -0.001732 0.000000
# 4 0.000000 0.000000 0.000000 0.029890 0.000000 -0.004543
# 5 0.001045 -0.000438 -0.001732 0.000000 0.026619 0.000000
# 6 0.000000 0.000001 0.000000 -0.004543 0.000000 0.035188
#
#
# Mechanical properties :
#
#
# Convention : Reuss Voigt Hill
#
# Bulk Modulus (GPa) = 15.91294 98.10378 57.00836
# Shear Modulus (GPa) = 14.94807 33.47019 24.20913
#
# Velocity S-wave (km/s) = 2.87026 4.29495 3.65274
# Velocity P-wave (km/s) = 4.44463 8.86927 7.01494
#
# Compressibility (1/GPa) = 0.06284194
#
# Stress axis : x y z
#
# Youngs Moduli (GPa) = 85.11276 8.34116 93.38501
#
# Poissons Ratio (x) = 0.16145 0.21475
# Poissons Ratio (y) = 1.64742 1.68991
# Poissons Ratio (z) = 0.19572 0.15094
#
# Static dielectric constant tensor:
#      x y z
#    x 1.599580 0.000000 0.002200 
#    y 0.000000 1.619390 0.000000 
#    z 0.002200 0.000000 1.596180 
# 
# From -- ./inp_files/244757.got.cif
#   From: 2010.05.17/outbox.cif.g08.bks.cpg/sg12_123_cif.got.tgz:244757.got - 2010.06.03 13:09:07.
