data_PCOD9199486
_publ_section_title
;
Structure prediction by ZEFSAII (Michael W. Deem and Ramdas Pophale) SiO2 
 PCOD9199486
Probable space group: C 2/M
;
_chemical_formula_sum "Si O2"
_cell_formula_units_Z 56
_cell_length_a 28.410381
_cell_length_b 9.417863
_cell_length_c 11.857965
_cell_angle_alpha 90.000000
_cell_angle_beta 110.487394
_cell_angle_gamma 90.000000
_cell_volume 2972.096661
_symmetry_space_group_name_H-M "C 2/M"
_symmetry_group_IT_number 12
_symmetry_cell_setting 'monoclinic'
loop_
_space_group_symop_operation_xyz
x,y,z
-x,y,-z
-x,-y,-z
x,-y,z
1/2+x,1/2+y,z
1/2-x,1/2+y,-z
1/2-x,1/2-y,-z
1/2+x,1/2-y,z
loop_
_atom_site_type_symbol
_atom_site_label
_atom_site_fract_x
_atom_site_fract_y
_atom_site_fract_z
Si Si1 0.997297 0.834161 0.131155
Si Si2 0.753432 0.161530 0.889081
Si Si3 0.155301 0.665717 0.079936
Si Si4 0.390076 0.338081 0.773861
Si Si5 0.653222 0.836017 0.657147
Si Si6 0.911245 0.669476 0.190348
Si Si7 0.302273 0.331931 0.515863
O O1 0.958553 0.747048 0.174592
O O2 0.053834 0.823914 0.227482
O O3 0.982062 0.000000 0.118835
O O4 0.000000 0.792328 0.000000
O O5 0.796148 0.240182 0.854582
O O6 0.701674 0.159980 0.779195
O O7 0.768111 0.000000 0.925938
O O8 0.750000 0.250000 0.000000
O O9 0.166141 0.500000 0.100456
O O10 0.114616 0.721353 0.133293
O O11 0.134128 0.692300 0.937089
O O12 0.387079 0.500000 0.817862
O O13 0.343998 0.320170 0.649589
O O14 0.607647 0.787719 0.700696
O O15 0.670085 0.737278 0.568802
O O16 0.643988 0.000000 0.612373
O O17 0.919929 0.500000 0.200639
O O18 0.291628 0.500000 0.490536
O O19 0.250000 0.250000 0.500000
#
# Coordination Sequence:
#
# PCOD9199486 Si02
#       7
#     8   8   8   8   8   8   8
#     4  10  20  36  60  88 117 154 198 241 293 356
#     4  11  21  34  53  80 115 152 189 235 291 349
#     4  11  21  34  54  85 119 152 192 236 291 356
#     4  10  22  40  59  85 119 153 194 247 298 345
#     4  10  22  41  59  81 119 158 195 245 294 345
#     4  10  21  37  56  84 121 154 188 239 298 348
#     4  11  24  42  64  88 117 156 200 245 292 348
#
# _framework density 18.841918
#
# number of rings (size 3 to 8) (size 9 to 14) (size 15 to 20)
#    0.000    1.571    2.857    2.143    0.000    7.714 
#    0.000    0.714    0.000    4.286    0.000    0.000 
#    0.000    0.000    0.000    0.000    0.000    0.000 
#
# Total GULP energy -156212.076057 kJ/mol
# GULP energy per Si atom -5579.002716 kJ/mol
# Density = 1.879903 g / cm^3
# Si number density = 18.841918 Si / 1000 Ang^3
#
#
#
# Elastic Constant Matrix: (Units=GPa)
#
#
# Indices 1 2 3 4 5 6 
#
# 1 136.1146 57.7101 35.3292 0.0000 -15.7921 0.0000
# 2 57.7101 86.8459 43.0891 0.0000 -13.9166 0.0000
# 3 35.3292 43.0891 59.8450 0.0000 -15.3786 0.0000
# 4 0.0000 0.0000 0.0000 23.8019 0.0000 -4.5363
# 5 -15.7921 -13.9166 -15.3786 0.0000 35.6898 0.0000
# 6 0.0000 0.0000 0.0000 -4.5363 0.0000 36.8810
#
#
#
# Elastic Compliance Matrix: (Units=1/GPa)
#
#
# Indices 1 2 3 4 5 6 
#
# 1 0.010440 -0.005950 -0.001448 0.000000 0.001675 0.000000
# 2 -0.005950 0.021388 -0.011718 0.000000 0.000658 0.000000
# 3 -0.001448 -0.011718 0.027734 0.000000 0.006740 0.000000
# 4 0.000000 0.000000 0.000000 0.043022 0.000000 0.005292
# 5 0.001675 0.000658 0.006740 0.000000 0.031921 0.000000
# 6 0.000000 0.000000 0.000000 0.005292 0.000000 0.027765
#
#
# Mechanical properties :
#
#
# Convention : Reuss Voigt Hill
#
# Bulk Modulus (GPa) = 46.88503 61.67359 54.27931
# Shear Modulus (GPa) = 24.08330 29.05301 26.56816
#
# Velocity S-wave (km/s) = 3.57904 3.93101 3.75914
# Velocity P-wave (km/s) = 6.48203 7.30801 6.90738
#
# Compressibility (1/GPa) = 0.02132877
#
# Stress axis : x y z
#
# Youngs Moduli (GPa) = 95.78657 46.75516 36.05698
#
# Poissons Ratio (x) = 0.27821 0.05222
# Poissons Ratio (y) = 0.56997 0.42251
# Poissons Ratio (z) = 0.13873 0.54787
#
# Static dielectric constant tensor:
#      x y z
#    x 1.713560 0.000000 -0.017010 
#    y 0.000000 1.636250 0.000000 
#    z -0.017010 0.000000 1.662690 
# 
# From -- ./inp_files/181128.got.cif
#   From: 2010.05.17/outbox.cif.g08.bks.cpg/sg12_91_cif.got.tgz:181128.got - 2010.06.03 13:09:07.
