data_PCOD9199085
_publ_section_title
;
Structure prediction by ZEFSAII (Michael W. Deem and Ramdas Pophale) SiO2 
 PCOD9199085
Probable space group: C 2/M
;
_chemical_formula_sum "Si O2"
_cell_formula_units_Z 48
_cell_length_a 16.382973
_cell_length_b 8.497508
_cell_length_c 30.008061
_cell_angle_alpha 90.000000
_cell_angle_beta 35.023107
_cell_angle_gamma 90.000000
_cell_volume 2397.527310
_symmetry_space_group_name_H-M "C 2/M"
_symmetry_group_IT_number 12
_symmetry_cell_setting 'monoclinic'
loop_
_space_group_symop_operation_xyz
x,y,z
-x,y,-z
-x,-y,-z
x,-y,z
1/2+x,1/2+y,z
1/2-x,1/2+y,-z
1/2-x,1/2-y,-z
1/2+x,1/2-y,z
loop_
_atom_site_type_symbol
_atom_site_label
_atom_site_fract_x
_atom_site_fract_y
_atom_site_fract_z
Si Si1 0.618459 0.809366 0.587690
Si Si2 0.656315 0.690097 0.167061
Si Si3 0.157497 0.690098 0.832934
Si Si4 0.841897 0.309904 0.999998
Si Si5 0.820298 0.687626 0.677727
Si Si6 0.353502 0.812374 0.322266
O O1 0.750000 0.750000 0.500000
O O2 0.470659 0.755687 0.630935
O O3 0.636509 0.755687 0.630943
O O4 0.616701 0.000000 0.588862
O O5 0.647351 0.500000 0.169723
O O6 0.723680 0.737019 0.184216
O O7 0.499611 0.759116 0.233371
O O8 0.764201 0.741430 0.080002
O O9 0.156521 0.500000 0.830268
O O10 0.199730 0.759125 0.766622
O O11 0.004209 0.741428 0.919992
O O12 0.843276 0.500000 0.999999
O O13 0.750000 0.250000 0.000000
O O14 0.823998 0.500000 0.674372
O O15 0.777555 0.750004 0.648291
O O16 0.347149 0.000000 0.325615
#
# Coordination Sequence:
#
# PCOD9199085 Si02
#       6
#     8   8   8   8   8   8
#     4  10  24  44  66  91 124 157 195 246 301 360
#     4  10  20  36  59  85 116 159 205 251 301 354
#     4  10  20  36  59  85 116 159 205 251 301 354
#     4  10  21  35  51  79 117 156 203 253 297 349
#     4  11  23  41  63  92 125 160 201 249 299 358
#     4  11  23  41  63  92 125 160 201 249 299 358
#
# _framework density 20.020629
#
# number of rings (size 3 to 8) (size 9 to 14) (size 15 to 20)
#    0.000    1.667    1.667    2.500    0.000    9.333 
#    0.000    3.333    0.000    3.000    0.000    0.000 
#    0.000    0.000    0.000    0.000    0.000    0.000 
#
# Total GULP energy -134101.872077 kJ/mol
# GULP energy per Si atom -5587.578003 kJ/mol
# Density = 1.997506 g / cm^3
# Si number density = 20.020629 Si / 1000 Ang^3
#
#
#
# Elastic Constant Matrix: (Units=GPa)
#
#
# Indices 1 2 3 4 5 6 
#
# 1 169.5672 27.1733 60.7270 -0.0004 4.4317 -0.0014
# 2 27.1733 12.6865 15.2783 -0.0007 0.6500 -0.0026
# 3 60.7270 15.2783 121.2748 -0.0001 -1.8029 0.0002
# 4 -0.0004 -0.0007 -0.0001 30.4262 -0.0001 0.1267
# 5 4.4317 0.6500 -1.8029 -0.0001 14.3385 -0.0001
# 6 -0.0014 -0.0026 0.0002 0.1267 -0.0001 32.7336
#
#
#
# Elastic Compliance Matrix: (Units=1/GPa)
#
#
# Indices 1 2 3 4 5 6 
#
# 1 0.009732 -0.017446 -0.002713 0.000000 -0.002558 -0.000001
# 2 -0.017446 0.124663 -0.006986 0.000002 -0.001138 0.000009
# 3 -0.002713 -0.006986 0.010521 0.000000 0.002478 -0.000001
# 4 0.000000 0.000002 0.000000 0.032867 0.000000 -0.000127
# 5 -0.002558 -0.001138 0.002478 0.000000 0.070896 0.000000
# 6 -0.000001 0.000009 -0.000001 -0.000127 0.000000 0.030550
#
#
# Mechanical properties :
#
#
# Convention : Reuss Voigt Hill
#
# Bulk Modulus (GPa) = 11.03443 56.65396 33.84420
# Shear Modulus (GPa) = 13.74656 28.85633 21.30145
#
# Velocity S-wave (km/s) = 2.62319 3.80060 3.26540
# Velocity P-wave (km/s) = 3.83384 6.90063 5.58198
#
# Compressibility (1/GPa) = 0.09062540
#
# Stress axis : x y z
#
# Youngs Moduli (GPa) = 102.75833 8.02165 95.04507
#
# Poissons Ratio (x) = 0.13994 0.25788
# Poissons Ratio (y) = 1.79268 0.66401
# Poissons Ratio (z) = 0.27880 0.05604
#
# Static dielectric constant tensor:
#      x y z
#    x 1.714980 0.000000 0.001250 
#    y 0.000000 1.680890 0.000000 
#    z 0.001250 0.000000 1.692330 
# 
# From -- ./inp_files/274623.got.cif
#   From: 2010.05.17/outbox.cif.g08.bks.cpg/sg12_138_cif.got.tgz:274623.got - 2010.06.03 13:09:07.
