data_PCOD9199450
_publ_section_title
;
Structure prediction by ZEFSAII (Michael W. Deem and Ramdas Pophale) SiO2 
 PCOD9199450
Probable space group: C 2/M
;
_chemical_formula_sum "Si O2"
_cell_formula_units_Z 56
_cell_length_a 13.571208
_cell_length_b 18.359736
_cell_length_c 18.246836
_cell_angle_alpha 90.000000
_cell_angle_beta 37.309362
_cell_angle_gamma 90.000000
_cell_volume 2755.687427
_symmetry_space_group_name_H-M "C 2/M"
_symmetry_group_IT_number 12
_symmetry_cell_setting 'monoclinic'
loop_
_space_group_symop_operation_xyz
x,y,z
-x,y,-z
-x,-y,-z
x,-y,z
1/2+x,1/2+y,z
1/2-x,1/2+y,-z
1/2-x,1/2-y,-z
1/2+x,1/2-y,z
loop_
_atom_site_type_symbol
_atom_site_label
_atom_site_fract_x
_atom_site_fract_y
_atom_site_fract_z
Si Si1 0.120449 0.582161 0.087344
Si Si2 0.237123 0.920034 0.504667
Si Si3 0.039295 0.816286 0.343465
Si Si4 0.685796 0.367544 0.891102
Si Si5 0.168589 0.301202 0.938981
Si Si6 0.234212 0.080239 0.331442
Si Si7 0.044129 0.348920 0.387257
O O1 0.157489 0.500000 0.037281
O O2 0.197153 0.589282 0.122762
O O3 0.925040 0.589972 0.202703
O O4 0.182338 0.650217 0.003127
O O5 0.224742 0.919434 0.424304
O O6 0.418416 0.902033 0.421498
O O7 0.116122 0.856087 0.598346
O O8 0.188782 0.000000 0.560450
O O9 0.178560 0.818835 0.200986
O O10 0.120633 0.860044 0.362398
O O11 0.004173 0.734300 0.388720
O O12 0.668608 0.286749 0.937970
O O13 0.777827 0.361933 0.757035
O O14 0.500000 0.396321 0.000000
O O15 0.000000 0.323389 0.000000
O O16 0.183030 0.000000 0.334527
O O17 0.000000 0.356850 0.500000
#
# Coordination Sequence:
#
# PCOD9199450 Si02
#       7
#     8   8   8   8   8   8   8
#     4  11  22  38  62  91 123 164 206 250 311 373
#     4  11  23  40  61  88 124 165 208 252 313 374
#     4  11  22  38  62  93 126 157 206 258 309 375
#     4  10  23  43  65  89 122 167 217 260 307 368
#     4  10  21  39  60  90 124 162 201 252 315 372
#     4  10  20  36  60  87 121 159 196 246 311 375
#     4  11  24  42  64  92 124 165 213 266 311 362
#
# _framework density 20.321608000000001
#
# number of rings (size 3 to 8) (size 9 to 14) (size 15 to 20)
#    0.000    1.429    2.857    2.571    0.000    4.286 
#    0.000    0.000    0.000    0.000    0.000    0.000 
#    0.000    0.000    0.000    0.000    0.000    0.000 
#
# Total GULP energy -156164.106294 kJ/mol
# GULP energy per Si atom -5577.289511 kJ/mol
# Density = 2.027536 g / cm^3
# Si number density = 20.321608 Si / 1000 Ang^3
#
#
#
# Elastic Constant Matrix: (Units=GPa)
#
#
# Indices 1 2 3 4 5 6 
#
# 1 51.2482 13.3801 35.3373 0.0003 0.2839 -0.0002
# 2 13.3801 34.3816 9.9180 0.0015 -1.9292 -0.0006
# 3 35.3373 9.9180 73.2265 0.0026 -9.4260 -0.0011
# 4 0.0003 0.0015 0.0026 7.0370 -0.0003 -15.8172
# 5 0.2839 -1.9292 -9.4260 -0.0003 25.0406 0.0004
# 6 -0.0002 -0.0006 -0.0011 -15.8172 0.0004 36.8213
#
#
#
# Elastic Compliance Matrix: (Units=1/GPa)
#
#
# Indices 1 2 3 4 5 6 
#
# 1 0.032353 -0.008550 -0.015329 0.000137 -0.006796 0.000058
# 2 -0.008550 0.032544 0.000056 -0.000156 0.002625 -0.000066
# 3 -0.015329 0.000056 0.022142 -0.000168 0.008513 -0.000072
# 4 0.000137 -0.000156 -0.000168 4.124661 -0.000048 1.771818
# 5 -0.006796 0.002625 0.008513 -0.000048 0.043419 -0.000021
# 6 0.000058 -0.000066 -0.000072 1.771818 -0.000021 0.788273
#
#
# Mechanical properties :
#
#
# Convention : Reuss Voigt Hill
#
# Bulk Modulus (GPa) = 25.38570 30.68078 28.03324
# Shear Modulus (GPa) = 0.97959 20.46118 10.72038
#
# Velocity S-wave (km/s) = 0.69505 3.17656 2.29931
# Velocity P-wave (km/s) = 3.62811 5.34644 4.56879
#
# Compressibility (1/GPa) = 0.03939226
#
# Stress axis : x y z
#
# Youngs Moduli (GPa) = 30.90913 30.72781 45.16276
#
# Poissons Ratio (x) = 0.26272 0.69232
# Poissons Ratio (y) = 0.26427 -0.00253
# Poissons Ratio (z) = 0.47382 -0.00172
#
# Static dielectric constant tensor:
#      x y z
#    x 1.725960 0.000000 0.033620 
#    y 0.000000 1.765540 0.000000 
#    z 0.033620 0.000000 1.779710 
# 
# From -- ./inp_files/293904.got.cif
#   From: 2010.05.17/outbox.cif.g08.bks.cpg/sg12_147_cif.got.tgz:293904.got - 2010.06.03 13:09:07.
