data_PCOD9199378
_publ_section_title
;
Structure prediction by ZEFSAII (Michael W. Deem and Ramdas Pophale) SiO2 
 PCOD9199378
Probable space group: C 2/M
;
_chemical_formula_sum "Si O2"
_cell_formula_units_Z 40
_cell_length_a 23.487787
_cell_length_b 10.620046
_cell_length_c 8.812439
_cell_angle_alpha 90.000000
_cell_angle_beta 113.267864
_cell_angle_gamma 90.000000
_cell_volume 2019.404189
_symmetry_space_group_name_H-M "C 2/M"
_symmetry_group_IT_number 12
_symmetry_cell_setting 'monoclinic'
loop_
_space_group_symop_operation_xyz
x,y,z
-x,y,-z
-x,-y,-z
x,-y,z
1/2+x,1/2+y,z
1/2-x,1/2+y,-z
1/2-x,1/2-y,-z
1/2+x,1/2-y,z
loop_
_atom_site_type_symbol
_atom_site_label
_atom_site_fract_x
_atom_site_fract_y
_atom_site_fract_z
Si Si1 0.853481 0.146392 0.805405
Si Si2 0.088666 0.637539 0.641084
Si Si3 0.734035 0.854888 0.858827
Si Si4 0.460627 0.218750 0.096987
Si Si5 0.563811 0.644499 0.383376
O O1 0.782010 0.166244 0.771221
O O2 0.875386 0.167437 0.656629
O O3 0.867862 0.000000 0.852142
O O4 0.897447 0.228513 0.959259
O O5 0.076625 0.500000 0.557650
O O6 0.162478 0.653441 0.737957
O O7 0.058022 0.640849 0.775042
O O8 0.065015 0.753409 0.516817
O O9 0.744348 0.000000 0.924077
O O10 0.750000 0.750000 0.000000
O O11 0.505859 0.327699 0.210927
O O12 0.500000 0.159078 0.000000
O O13 0.562648 0.500000 0.434565
#
# Coordination Sequence:
#
# PCOD9199378 Si02
#       5
#     8   8   8   8   8
#     4   9  18  36  61  87 115 145 187 243 289 328
#     4  11  24  39  56  85 121 154 188 231 287 345
#     4  10  20  37  61  86 113 147 189 236 285 338
#     4  10  20  36  60  86 113 149 192 241 285 334
#     4  10  22  38  59  88 116 150 194 235 282 340
#
# _framework density 19.807822000000002
#
# number of rings (size 3 to 8) (size 9 to 14) (size 15 to 20)
#    0.000    2.000    2.000    1.200    0.000    8.400 
#    0.000    4.000    0.000    0.000    0.000    0.000 
#    0.000    0.000    0.000    0.000    0.000    0.000 
#
# Total GULP energy -111576.999065 kJ/mol
# GULP energy per Si atom -5578.849953 kJ/mol
# Density = 1.976274 g / cm^3
# Si number density = 19.807822 Si / 1000 Ang^3
#
#
#
# Elastic Constant Matrix: (Units=GPa)
#
#
# Indices 1 2 3 4 5 6 
#
# 1 148.3702 38.4251 36.5214 0.0000 -13.7187 0.0000
# 2 38.4251 122.1162 59.1095 0.0000 -10.3605 0.0000
# 3 36.5214 59.1095 73.7145 0.0000 -12.2992 0.0000
# 4 0.0000 0.0000 0.0000 18.2814 0.0000 -7.7136
# 5 -13.7187 -10.3605 -12.2992 0.0000 26.8009 0.0000
# 6 0.0000 0.0000 0.0000 -7.7136 0.0000 14.7482
#
#
#
# Elastic Compliance Matrix: (Units=1/GPa)
#
#
# Indices 1 2 3 4 5 6 
#
# 1 0.007884 -0.000948 -0.002743 0.000000 0.002410 0.000000
# 2 -0.000948 0.013500 -0.010358 0.000000 -0.000020 0.000000
# 3 -0.002743 -0.010358 0.024180 0.000000 0.005688 0.000000
# 4 0.000000 0.000000 0.000000 0.070190 0.000000 0.036711
# 5 0.002410 -0.000020 0.005688 0.000000 0.041148 0.000000
# 6 0.000000 0.000000 0.000000 0.036711 0.000000 0.087006
#
#
# Mechanical properties :
#
#
# Convention : Reuss Voigt Hill
#
# Bulk Modulus (GPa) = 57.26372 68.03479 62.64926
# Shear Modulus (GPa) = 17.99672 25.97576 21.98624
#
# Velocity S-wave (km/s) = 3.01751 3.62524 3.33525
# Velocity P-wave (km/s) = 6.41194 7.20730 6.82122
#
# Compressibility (1/GPa) = 0.01746306
#
# Stress axis : x y z
#
# Youngs Moduli (GPa) = 126.84565 74.07674 41.35605
#
# Poissons Ratio (x) = 0.07024 0.11346
# Poissons Ratio (y) = 0.12028 0.42839
# Poissons Ratio (z) = 0.34799 0.76732
#
# Static dielectric constant tensor:
#      x y z
#    x 1.729330 0.000000 -0.037080 
#    y 0.000000 1.676160 0.000000 
#    z -0.037080 0.000000 1.680620 
# 
# From -- ./inp_files/93007.got.cif
#   From: 2010.05.17/outbox.cif.g08.bks.cpg/sg12_47_cif.got.tgz:93007.got - 2010.06.03 13:09:07.
