data_PCOD9199068
_publ_section_title
;
Structure prediction by ZEFSAII (Michael W. Deem and Ramdas Pophale) SiO2 
 PCOD9199068
Probable space group: C 2/M
;
_chemical_formula_sum "Si O2"
_cell_formula_units_Z 56
_cell_length_a 20.251382
_cell_length_b 19.226507
_cell_length_c 9.739596
_cell_angle_alpha 90.000000
_cell_angle_beta 126.899017
_cell_angle_gamma 90.000000
_cell_volume 3032.636499
_symmetry_space_group_name_H-M "C 2/M"
_symmetry_group_IT_number 12
_symmetry_cell_setting 'monoclinic'
loop_
_space_group_symop_operation_xyz
x,y,z
-x,y,-z
-x,-y,-z
x,-y,z
1/2+x,1/2+y,z
1/2-x,1/2+y,-z
1/2-x,1/2-y,-z
1/2+x,1/2-y,z
loop_
_atom_site_type_symbol
_atom_site_label
_atom_site_fract_x
_atom_site_fract_y
_atom_site_fract_z
Si Si1 0.080822 0.818966 0.016211
Si Si2 0.301911 0.798707 0.742601
Si Si3 0.669522 0.185768 0.532545
Si Si4 0.756738 0.578562 0.875081
Si Si5 0.022699 0.217045 0.367645
Si Si6 0.763575 0.918198 0.827175
Si Si7 0.581849 0.424595 0.507429
O O1 0.121422 0.753026 0.142757
O O2 0.150439 0.878199 0.094592
O O3 0.000000 0.840910 0.000000
O O4 0.053227 0.793393 0.830323
O O5 0.298716 0.824843 0.582563
O O6 0.222299 0.749284 0.664559
O O7 0.303095 0.861821 0.849617
O O8 0.577028 0.214771 0.408524
O O9 0.692218 0.118877 0.649646
O O10 0.787517 0.500000 0.886559
O O11 0.662234 0.580639 0.702879
O O12 0.756298 0.590752 0.036693
O O13 0.075079 0.145450 0.411243
O O14 0.000000 0.219223 0.500000
O O15 0.770652 0.000000 0.807073
O O16 0.500000 0.425962 0.500000
O O17 0.585312 0.500000 0.438781
#
# Coordination Sequence:
#
# PCOD9199068 Si02
#       7
#     8   8   8   8   8   8   8
#     4  11  23  38  58  84 121 156 190 241 294 351
#     4  10  21  38  56  81 115 155 197 238 288 346
#     4  10  21  37  57  81 119 152 195 242 285 347
#     4  10  20  36  59  85 114 153 196 236 283 345
#     4  11  21  34  57  89 113 151 197 240 291 336
#     4  10  23  39  59  88 120 155 194 241 294 348
#     4   9  17  30  50  80 119 150 181 229 279 338
#
# _framework density 18.465781
#
# number of rings (size 3 to 8) (size 9 to 14) (size 15 to 20)
#    0.000    1.857    2.857    1.714    2.000    3.714 
#    0.000    1.429    0.000    1.714    0.000    0.000 
#    0.000    0.000    0.000    0.000    0.000    0.000 
#
# Total GULP energy -156177.073962 kJ/mol
# GULP energy per Si atom -5577.752642 kJ/mol
# Density = 1.842375 g / cm^3
# Si number density = 18.465781 Si / 1000 Ang^3
#
#
#
# Elastic Constant Matrix: (Units=GPa)
#
#
# Indices 1 2 3 4 5 6 
#
# 1 33.1291 43.5420 -1.7539 0.0000 -4.7507 0.0000
# 2 43.5420 132.4808 45.4796 0.0000 -8.4502 0.0000
# 3 -1.7539 45.4796 73.5032 0.0000 -1.3538 0.0000
# 4 0.0000 0.0000 0.0000 30.5161 0.0000 2.1826
# 5 -4.7507 -8.4502 -1.3538 0.0000 22.7258 0.0000
# 6 0.0000 0.0000 0.0000 2.1826 0.0000 16.2016
#
#
#
# Elastic Compliance Matrix: (Units=1/GPa)
#
#
# Indices 1 2 3 4 5 6 
#
# 1 0.071971 -0.030420 0.020631 0.000000 0.004963 0.000000
# 2 -0.030420 0.022682 -0.014738 0.000000 0.001197 0.000000
# 3 0.020631 -0.014738 0.023220 0.000000 0.000216 0.000000
# 4 0.000000 0.000000 0.000000 0.033088 0.000000 -0.004458
# 5 0.004963 0.001197 0.000216 0.000000 0.045498 0.000000
# 6 0.000000 0.000000 0.000000 -0.004458 0.000000 0.062323
#
#
# Mechanical properties :
#
#
# Convention : Reuss Voigt Hill
#
# Bulk Modulus (GPa) = 14.53106 45.96094 30.24600
# Shear Modulus (GPa) = 15.11592 24.01171 19.56381
#
# Velocity S-wave (km/s) = 2.86421 3.60993 3.25847
# Velocity P-wave (km/s) = 4.33872 6.50533 5.52918
#
# Compressibility (1/GPa) = 0.06881813
#
# Stress axis : x y z
#
# Youngs Moduli (GPa) = 13.89457 44.08731 43.06567
#
# Poissons Ratio (x) = 1.34115 -0.88849
# Poissons Ratio (y) = 0.42268 0.63472
# Poissons Ratio (z) = -0.28666 0.64977
#
# Static dielectric constant tensor:
#      x y z
#    x 1.638990 0.000000 -0.001510 
#    y 0.000000 1.649650 0.000000 
#    z -0.001510 0.000000 1.634800 
# 
# From -- ./inp_files/88055.got.cif
#   From: 2010.05.17/outbox.cif.g08.bks.cpg/sg12_45_cif.got.tgz:88055.got - 2010.06.03 13:09:07.
