data_PCOD9199915
_publ_section_title
;
Structure prediction by ZEFSAII (Michael W. Deem and Ramdas Pophale) SiO2 
 PCOD9199915
Probable space group: C 2/M
;
_chemical_formula_sum "Si O2"
_cell_formula_units_Z 64
_cell_length_a 23.278316
_cell_length_b 17.852420
_cell_length_c 11.209931
_cell_angle_alpha 90.000000
_cell_angle_beta 140.869957
_cell_angle_gamma 90.000000
_cell_volume 2939.935674
_symmetry_space_group_name_H-M "C 2/M"
_symmetry_group_IT_number 12
_symmetry_cell_setting 'monoclinic'
loop_
_space_group_symop_operation_xyz
x,y,z
-x,y,-z
-x,-y,-z
x,-y,z
1/2+x,1/2+y,z
1/2-x,1/2+y,-z
1/2-x,1/2-y,-z
1/2+x,1/2-y,z
loop_
_atom_site_type_symbol
_atom_site_label
_atom_site_fract_x
_atom_site_fract_y
_atom_site_fract_z
Si Si1 0.735423 0.175190 0.767525
Si Si2 0.547860 0.911153 0.457542
Si Si3 0.991017 0.164533 0.351065
Si Si4 0.693193 0.583983 0.909947
Si Si5 0.954978 0.585500 0.797355
Si Si6 0.425716 0.305547 0.981453
Si Si7 0.315121 0.188420 0.665006
Si Si8 0.698575 0.646663 0.672584
O O1 0.643835 0.129734 0.599653
O O2 0.716603 0.264109 0.725578
O O3 0.762593 0.150427 0.943770
O O4 0.826779 0.153240 0.838446
O O5 0.500000 0.883168 0.500000
O O6 0.493256 0.900850 0.244607
O O7 0.562399 0.000000 0.497024
O O8 0.091514 0.136280 0.484296
O O9 0.000000 0.202250 0.500000
O O10 0.914767 0.101323 0.252216
O O11 0.962576 0.202103 0.177332
O O12 0.713817 0.500000 0.984971
O O13 0.724748 0.596406 0.826108
O O14 0.921834 0.500000 0.735630
O O15 0.873579 0.643977 0.666022
O O16 0.000000 0.590883 0.000000
O O17 0.500000 0.332356 0.000000
O O18 0.389301 0.227953 0.869270
O O19 0.250000 0.250000 0.500000
O O20 0.254849 0.132272 0.644942
#
# Coordination Sequence:
#
# PCOD9199915 Si02
#       8
#     8   8   8   8   8   8   8   8
#     4  10  21  38  61  90 123 157 206 264 307 358
#     4  10  22  40  63  90 122 164 209 254 310 372
#     4   9  20  37  57  85 121 158 201 252 306 364
#     4  10  21  38  60  86 123 167 205 251 314 377
#     4  10  22  40  60  86 122 160 199 247 304 367
#     4  10  20  36  62  90 120 161 206 254 312 371
#     4  11  22  37  60  89 121 160 205 257 313 367
#     4  10  21  35  56  87 121 156 204 253 305 368
#
# _framework density 21.769183999999999
#
# number of rings (size 3 to 8) (size 9 to 14) (size 15 to 20)
#    0.000    2.000    0.000    3.375    0.000    7.250 
#    0.000    2.500    0.000   10.875    0.000    0.000 
#    0.000    1.500    0.000    0.000    0.000    0.000 
#
# Total GULP energy -178152.262355 kJ/mol
# GULP energy per Si atom -5567.258199 kJ/mol
# Density = 2.171964 g / cm^3
# Si number density = 21.769184 Si / 1000 Ang^3
#
#
#
# Elastic Constant Matrix: (Units=GPa)
#
#
# Indices 1 2 3 4 5 6 
#
# 1 151.5350 5.6941 48.4448 0.0000 -24.4544 0.0000
# 2 5.6941 39.9183 -1.0393 0.0000 -9.4516 0.0000
# 3 48.4448 -1.0393 79.6009 0.0000 -22.5287 0.0000
# 4 0.0000 0.0000 0.0000 17.6994 0.0000 -7.7753
# 5 -24.4544 -9.4516 -22.5287 0.0000 32.1603 0.0000
# 6 0.0000 0.0000 0.0000 -7.7753 0.0000 35.8814
#
#
#
# Elastic Compliance Matrix: (Units=1/GPa)
#
#
# Indices 1 2 3 4 5 6 
#
# 1 0.008515 -0.000533 -0.004242 0.000000 0.003347 0.000000
# 2 -0.000533 0.027642 0.003579 0.000000 0.010226 0.000000
# 3 -0.004242 0.003579 0.018180 0.000000 0.010562 0.000000
# 4 0.000000 0.000000 0.000000 0.062443 0.000000 0.013531
# 5 0.003347 0.010226 0.010562 0.000000 0.044043 0.000000
# 6 0.000000 0.000000 0.000000 0.013531 0.000000 0.030802
#
#
# Mechanical properties :
#
#
# Convention : Reuss Voigt Hill
#
# Bulk Modulus (GPa) = 19.25076 41.91705 30.58391
# Shear Modulus (GPa) = 23.65941 31.67852 27.66896
#
# Velocity S-wave (km/s) = 3.30029 3.81885 3.56900
# Velocity P-wave (km/s) = 4.83579 6.22429 5.57345
#
# Compressibility (1/GPa) = 0.05194600
#
# Stress axis : x y z
#
# Youngs Moduli (GPa) = 117.43348 36.17744 55.00429
#
# Poissons Ratio (x) = 0.01927 0.23334
# Poissons Ratio (y) = 0.06256 -0.19687
# Poissons Ratio (z) = 0.49818 -0.12949
#
# Static dielectric constant tensor:
#      x y z
#    x 1.973360 0.000000 -0.147540 
#    y 0.000000 1.762130 0.000000 
#    z -0.147540 0.000000 1.996530 
# 
# From -- ./inp_files/177740.got.cif
#   From: 2010.05.17/outbox.cif.g08.bks.cpg/sg12_89_cif.got.tgz:177740.got - 2010.06.03 13:09:07.
