data_PCOD9199183
_publ_section_title
;
Structure prediction by ZEFSAII (Michael W. Deem and Ramdas Pophale) SiO2 
 PCOD9199183
Probable space group: C 2/M
;
_chemical_formula_sum "Si O2"
_cell_formula_units_Z 40
_cell_length_a 15.275447
_cell_length_b 11.838240
_cell_length_c 26.800644
_cell_angle_alpha 90.000000
_cell_angle_beta 159.526831
_cell_angle_gamma 90.000000
_cell_volume 1695.146559
_symmetry_space_group_name_H-M "C 2/M"
_symmetry_group_IT_number 12
_symmetry_cell_setting 'monoclinic'
loop_
_space_group_symop_operation_xyz
x,y,z
-x,y,-z
-x,-y,-z
x,-y,z
1/2+x,1/2+y,z
1/2-x,1/2+y,-z
1/2-x,1/2-y,-z
1/2+x,1/2-y,z
loop_
_atom_site_type_symbol
_atom_site_label
_atom_site_fract_x
_atom_site_fract_y
_atom_site_fract_z
Si Si1 0.164521 0.784731 0.701229
Si Si2 0.287428 0.673877 0.425205
Si Si3 0.152217 0.872037 0.293065
Si Si4 0.259129 0.127148 0.164672
Si Si5 0.685712 0.875234 0.987944
O O1 0.249650 0.701606 0.701305
O O2 0.161780 0.709134 0.748752
O O3 0.388132 0.871890 0.830119
O O4 0.909474 0.839895 0.544731
O O5 0.500000 0.633118 0.500000
O O6 0.242761 0.806440 0.389820
O O7 0.013708 0.624144 0.268136
O O8 0.236942 0.000000 0.335584
O O9 0.850460 0.872401 0.126253
O O10 0.213391 0.000000 0.158884
O O11 0.000000 0.162425 0.000000
O O12 0.758515 0.000000 0.003886
O O13 0.750000 0.750000 0.000000
#
# Coordination Sequence:
#
# PCOD9199183 Si02
#       5
#     8   8   8   8   8
#     4  10  20  36  59  87 119 155 202 257 311 365
#     4  10  22  39  60  89 121 154 201 260 316 370
#     4   9  18  35  60  88 119 159 207 256 307 367
#     4  11  24  41  60  84 120 165 207 249 305 375
#     4   9  18  34  58  89 125 164 207 253 306 369
#
# _framework density 23.596779999999999
#
# number of rings (size 3 to 8) (size 9 to 14) (size 15 to 20)
#    0.000    2.200    0.000    2.400    0.000    8.000 
#    0.000   17.000    0.000    3.600    0.000    0.000 
#    0.000    0.000    0.000    0.000    0.000    0.000 
#
# Total GULP energy -111429.173411 kJ/mol
# GULP energy per Si atom -5571.458671 kJ/mol
# Density = 2.354307 g / cm^3
# Si number density = 23.596780 Si / 1000 Ang^3
#
#
#
# Elastic Constant Matrix: (Units=GPa)
#
#
# Indices 1 2 3 4 5 6 
#
# 1 46.6472 5.3163 39.1347 0.0002 6.1871 -0.0013
# 2 5.3163 117.9898 20.7132 0.0129 6.7742 -0.0019
# 3 39.1347 20.7132 233.3890 0.0450 12.6399 -0.0043
# 4 0.0002 0.0129 0.0450 -3.2473 -0.0027 3.0455
# 5 6.1871 6.7742 12.6399 -0.0027 28.4681 -0.0025
# 6 -0.0013 -0.0019 -0.0043 3.0455 -0.0025 11.1309
#
#
#
# Elastic Compliance Matrix: (Units=1/GPa)
#
#
# Indices 1 2 3 4 5 6 
#
# 1 0.025329 -0.000224 -0.004029 -0.000041 -0.003663 0.000012
# 2 -0.000224 0.008698 -0.000640 0.000022 -0.001737 -0.000005
# 3 -0.004029 -0.000640 0.005084 0.000055 -0.001229 -0.000014
# 4 -0.000041 0.000022 0.000055 -0.245061 -0.000038 0.067050
# 5 -0.003663 -0.001737 -0.001229 -0.000038 0.036882 0.000018
# 6 0.000012 -0.000005 -0.000014 0.067050 0.000018 0.071495
#
#
# Mechanical properties :
#
#
# Convention : Reuss Voigt Hill
#
# Bulk Modulus (GPa) = 34.10161 58.70605 46.40383
# Shear Modulus (GPa) = -64.09126 29.46112 -17.31507
#
# Velocity S-wave (km/s) = -5.21728 3.53728 -2.71179
# Velocity P-wave (km/s) = 4.67013 6.45104 3.14689
#
# Compressibility (1/GPa) = 0.02932413
#
# Stress axis : x y z
#
# Youngs Moduli (GPa) = 39.48066 114.97549 196.70903
#
# Poissons Ratio (x) = 0.02572 0.79253
# Poissons Ratio (y) = 0.00883 0.12596
# Poissons Ratio (z) = 0.15906 0.07362
#
# Static dielectric constant tensor:
#      x y z
#    x 1.993300 0.000000 0.084800 
#    y 0.000000 1.978840 0.000010 
#    z 0.084800 0.000010 1.957740 
# 
# From -- ./inp_files/378961.got.cif
#   From: 2010.05.17/outbox.cif.g08.bks.cpg/sg12_190_cif.got.tgz:378961.got - 2010.06.03 13:09:07.
