data_PCOD9199086
_publ_section_title
;
Structure prediction by ZEFSAII (Michael W. Deem and Ramdas Pophale) SiO2 
 PCOD9199086
Probable space group: C 2/M
;
_chemical_formula_sum "Si O2"
_cell_formula_units_Z 32
_cell_length_a 24.881035
_cell_length_b 8.007190
_cell_length_c 23.716217
_cell_angle_alpha 90.000000
_cell_angle_beta 157.768475
_cell_angle_gamma 90.000000
_cell_volume 1787.672299
_symmetry_space_group_name_H-M "C 2/M"
_symmetry_group_IT_number 12
_symmetry_cell_setting 'monoclinic'
loop_
_space_group_symop_operation_xyz
x,y,z
-x,y,-z
-x,-y,-z
x,-y,z
1/2+x,1/2+y,z
1/2-x,1/2+y,-z
1/2-x,1/2-y,-z
1/2+x,1/2-y,z
loop_
_atom_site_type_symbol
_atom_site_label
_atom_site_fract_x
_atom_site_fract_y
_atom_site_fract_z
Si Si1 0.752852 0.197138 0.437543
Si Si2 0.234426 0.000000 0.116211
Si Si3 0.567749 0.681453 0.693174
Si Si4 0.751630 0.500000 0.265889
Si Si5 0.913071 0.000000 0.782294
Si Si6 0.000000 0.243568 0.500000
O O1 0.750000 0.250000 0.500000
O O2 0.655966 0.332638 0.311210
O O3 0.914045 0.212889 0.571364
O O4 0.712572 0.000000 0.391754
O O5 0.327419 0.164705 0.193855
O O6 0.208654 0.000000 0.158923
O O7 0.082018 0.000000 0.939036
O O8 0.621072 0.500000 0.764973
O O9 0.543774 0.668598 0.602393
O O10 0.629192 0.500000 0.192721
O O11 0.859596 0.652678 0.379799
#
# Coordination Sequence:
#
# PCOD9199086 Si02
#       6
#     8   4   8   4   4   4
#     4  11  23  39  65  86 108 150 201 252 288 330
#     4  10  23  36  58  88 124 164 178 227 300 354
#     4  10  20  36  59  85 117 148 199 239 288 342
#     4   9  17  32  58  88 120 154 191 226 288 350
#     4  12  21  40  60  86 126 151 190 242 286 349
#     4   9  15  30  58  89 109 152 191 247 284 323
#
# _framework density 17.900372999999998
#
# number of rings (size 3 to 8) (size 9 to 14) (size 15 to 20)
#    0.000    1.750    3.750    2.250    0.000    1.000 
#    0.000    1.250    0.000    4.500    0.000    0.000 
#    0.000    0.000    0.000    0.000    0.000    0.000 
#
# Total GULP energy -89115.956345 kJ/mol
# GULP energy per Si atom -5569.747272 kJ/mol
# Density = 1.785963 g / cm^3
# Si number density = 17.900373 Si / 1000 Ang^3
#
#
#
# Elastic Constant Matrix: (Units=GPa)
#
#
# Indices 1 2 3 4 5 6 
#
# 1 75.5198 44.4613 28.2526 0.0000 15.6528 0.0000
# 2 44.4613 178.8016 93.7335 0.0000 16.3578 -0.0001
# 3 28.2526 93.7335 107.3991 0.0000 19.7961 0.0000
# 4 0.0000 0.0000 0.0000 -15.4515 0.0000 -16.6650
# 5 15.6528 16.3578 19.7961 0.0000 14.6226 0.0000
# 6 0.0000 -0.0001 0.0000 -16.6650 0.0000 -9.0495
#
#
#
# Elastic Compliance Matrix: (Units=1/GPa)
#
#
# Indices 1 2 3 4 5 6 
#
# 1 0.018610 -0.003971 0.001896 0.000000 -0.018047 0.000000
# 2 -0.003971 0.011165 -0.009569 0.000000 0.004715 0.000000
# 3 0.001896 -0.009569 0.020740 0.000000 -0.019404 0.000000
# 4 0.000000 0.000000 0.000000 0.065627 0.000000 -0.120854
# 5 -0.018047 0.004715 -0.019404 0.000000 0.108700 0.000000
# 6 0.000000 0.000000 0.000000 -0.120854 0.000000 0.112054
#
#
# Mechanical properties :
#
#
# Convention : Reuss Voigt Hill
#
# Bulk Modulus (GPa) = 36.72584 77.17949 56.95266
# Shear Modulus (GPa) = 13.54060 11.04253 12.29156
#
# Velocity S-wave (km/s) = 2.75333 2.48642 2.62327
# Velocity P-wave (km/s) = 5.53797 7.17306 6.40788
#
# Compressibility (1/GPa) = 0.02722879
#
# Stress axis : x y z
#
# Youngs Moduli (GPa) = 53.73328 89.56360 48.21542
#
# Poissons Ratio (x) = 0.35564 -0.09143
# Poissons Ratio (y) = 0.21336 0.46138
# Poissons Ratio (z) = -0.10190 0.85704
#
# Static dielectric constant tensor:
#      x y z
#    x 1.606120 0.000000 -0.005230 
#    y 0.000000 1.434180 0.000000 
#    z -0.005230 0.000000 1.573500 
# 
# From -- ./inp_files/348733.got.cif
#   From: 2010.05.17/outbox.cif.g08.bks.cpg/sg12_175_cif.got.tgz:348733.got - 2010.06.03 13:09:07.
