data_PCOD9199873
_publ_section_title
;
Structure prediction by ZEFSAII (Michael W. Deem and Ramdas Pophale) SiO2 
 PCOD9199873
Probable space group: C 2/M
;
_chemical_formula_sum "Si O2"
_cell_formula_units_Z 58
_cell_length_a 19.929396
_cell_length_b 7.304866
_cell_length_c 17.542866
_cell_angle_alpha 90.000000
_cell_angle_beta 104.017348
_cell_angle_gamma 90.000000
_cell_volume 2477.868463
_symmetry_space_group_name_H-M "C 2/M"
_symmetry_group_IT_number 12
_symmetry_cell_setting 'monoclinic'
loop_
_space_group_symop_operation_xyz
x,y,z
-x,y,-z
-x,-y,-z
x,-y,z
1/2+x,1/2+y,z
1/2-x,1/2+y,-z
1/2-x,1/2-y,-z
1/2+x,1/2-y,z
loop_
_atom_site_type_symbol
_atom_site_label
_atom_site_fract_x
_atom_site_fract_y
_atom_site_fract_z
Si Si1 0.875731 0.778544 0.003845
Si Si2 0.477511 0.722481 0.778895
Si Si3 0.100582 0.213815 0.564545
Si Si4 0.137201 0.220023 0.833167
Si Si5 0.651399 0.722411 0.167871
Si Si6 0.460028 0.723053 0.605398
Si Si7 0.000000 0.500000 0.000000
Si Si8 0.777111 0.703550 0.292062
O O1 0.833635 0.731716 0.915436
O O2 0.889981 0.000000 0.007824
O O3 0.839974 0.736228 0.074674
O O4 0.945203 0.660945 0.014869
O O5 0.478144 0.500000 0.782129
O O6 0.556891 0.777939 0.806833
O O7 0.425377 0.784748 0.830150
O O8 0.448780 0.781525 0.688679
O O9 0.092023 0.283885 0.475848
O O10 0.172480 0.228121 0.628111
O O11 0.036594 0.283317 0.598299
O O12 0.085856 0.000000 0.553928
O O13 0.178963 0.299310 0.774167
O O14 0.139789 0.000000 0.823294
O O15 0.653124 0.500000 0.172162
O O16 0.706185 0.793082 0.244475
O O17 0.459231 0.500000 0.609154
O O18 0.758855 0.500000 0.312240
#
# Coordination Sequence:
#
# PCOD9199873 Si02
#       8
#     8   8   8   8   8   8   2   8
#     4  10  22  40  59  87 123 161 199 245 293 346
#     4   9  15  29  56  83 103 137 191 236 279 337
#     4   9  16  31  53  80 107 137 184 237 286 341
#     4  10  20  36  62  85 107 148 199 245 285 337
#     4   9  20  38  55  77 117 161 191 231 290 353
#     4   8  14  26  52  82 105 132 183 242 282 333
#     4  12  22  36  64  94 120 152 200 244 304 342
#     4  11  22  35  54  81 116 153 190 234 293 353
#
# _framework density 23.407214
#
# number of rings (size 3 to 8) (size 9 to 14) (size 15 to 20)
#    0.000    2.483    1.379    2.276    0.966    2.759 
#    2.483    2.069    0.000    0.000    0.000    0.000 
#    0.000    0.000    0.000    0.000    0.000    0.000 
#
# Total GULP energy -161617.306833 kJ/mol
# GULP energy per Si atom -5573.010580 kJ/mol
# Density = 2.335394 g / cm^3
# Si number density = 23.407214 Si / 1000 Ang^3
#
#
#
# Elastic Constant Matrix: (Units=GPa)
#
#
# Indices 1 2 3 4 5 6 
#
# 1 41.5032 -15.0012 -0.1520 0.0000 10.6347 0.0000
# 2 -15.0012 98.0193 -9.0849 0.0000 0.9921 0.0000
# 3 -0.1520 -9.0849 115.0414 0.0000 1.6171 0.0000
# 4 0.0000 0.0000 0.0000 2.9875 0.0000 3.9139
# 5 10.6347 0.9921 1.6171 0.0000 30.4083 0.0000
# 6 0.0000 0.0000 0.0000 3.9139 0.0000 4.8159
#
#
#
# Elastic Compliance Matrix: (Units=1/GPa)
#
#
# Indices 1 2 3 4 5 6 
#
# 1 0.028297 0.004482 0.000533 0.000000 -0.010071 0.000000
# 2 0.004482 0.010992 0.000902 0.000000 -0.001974 0.000000
# 3 0.000533 0.000902 0.008774 0.000000 -0.000682 0.000000
# 4 0.000000 0.000000 0.000000 -5.172388 0.000000 4.203605
# 5 -0.010071 -0.001974 -0.000682 0.000000 0.036509 0.000000
# 6 0.000000 0.000000 0.000000 4.203605 0.000000 -3.208630
#
#
# Mechanical properties :
#
#
# Convention : Reuss Voigt Hill
#
# Bulk Modulus (GPa) = 16.69566 22.89862 19.79714
# Shear Modulus (GPa) = -0.60326 26.22915 12.81295
#
# Velocity S-wave (km/s) = -0.50822 3.35111 2.34218
# Velocity P-wave (km/s) = 2.60841 4.97767 3.97372
#
# Compressibility (1/GPa) = 0.05989581
#
# Stress axis : x y z
#
# Youngs Moduli (GPa) = 35.33938 90.97886 113.97273
#
# Poissons Ratio (x) = -0.40777 -0.06074
# Poissons Ratio (y) = -0.15839 -0.10277
# Poissons Ratio (z) = -0.01883 -0.08203
#
# Static dielectric constant tensor:
#      x y z
#    x 1.839430 0.000000 0.031670 
#    y 0.000000 1.903080 0.000000 
#    z 0.031670 0.000000 1.917570 
# 
# From -- ./inp_files/281563.got.cif
#   From: 2010.05.17/outbox.cif.g08.bks.cpg/sg12_141_cif.got.tgz:281563.got - 2010.06.03 13:09:07.
