data_PCOD9199243
_publ_section_title
;
Structure prediction by ZEFSAII (Michael W. Deem and Ramdas Pophale) SiO2 
 PCOD9199243
Probable space group: C 2/M
;
_chemical_formula_sum "Si O2"
_cell_formula_units_Z 64
_cell_length_a 14.490233
_cell_length_b 29.211163
_cell_length_c 7.871321
_cell_angle_alpha 90.000000
_cell_angle_beta 57.302494
_cell_angle_gamma 90.000000
_cell_volume 2803.778242
_symmetry_space_group_name_H-M "C 2/M"
_symmetry_group_IT_number 12
_symmetry_cell_setting 'monoclinic'
loop_
_space_group_symop_operation_xyz
x,y,z
-x,y,-z
-x,-y,-z
x,-y,z
1/2+x,1/2+y,z
1/2-x,1/2+y,-z
1/2-x,1/2-y,-z
1/2+x,1/2-y,z
loop_
_atom_site_type_symbol
_atom_site_label
_atom_site_fract_x
_atom_site_fract_y
_atom_site_fract_z
Si Si1 0.604134 0.242082 0.979760
Si Si2 0.259488 0.606100 0.379048
Si Si3 0.528691 0.448935 0.770244
Si Si4 0.152133 0.200462 0.247480
Si Si5 0.678380 0.704546 0.596348
Si Si6 0.448898 0.948309 0.400831
Si Si7 0.311669 0.399473 0.922927
Si Si8 0.885671 0.552142 0.044182
O O1 0.717802 0.214099 0.869700
O O2 0.615452 0.283940 0.833009
O O3 0.500000 0.216160 0.000000
O O4 0.596587 0.262437 0.177375
O O5 0.371174 0.585821 0.346158
O O6 0.252880 0.659057 0.434629
O O7 0.157363 0.577965 0.556778
O O8 0.270083 0.599843 0.162313
O O9 0.559974 0.500000 0.685006
O O10 0.416621 0.432114 0.798987
O O11 0.500000 0.450167 0.000000
O O12 0.115298 0.198199 0.480652
O O13 0.149985 0.151306 0.161602
O O14 0.750000 0.750000 0.500000
O O15 0.500000 0.918306 0.500000
O O16 0.561724 0.955537 0.191207
O O17 0.409963 0.000000 0.484025
O O18 0.219057 0.417293 0.885061
O O19 0.868748 0.500000 0.135115
O O20 0.000000 0.573475 0.000000
#
# Coordination Sequence:
#
# PCOD9199243 Si02
#       8
#     8   8   8   8   8   8   8   8
#     4  10  22  43  68  90 124 165 214 268 323 390
#     4  11  21  37  64  94 129 166 216 271 325 397
#     4   9  20  36  61  96 128 168 215 266 325 390
#     4  10  23  41  64  94 127 164 210 267 326 388
#     4  10  23  43  65  92 128 169 217 268 329 393
#     4  10  20  36  59  88 122 166 212 262 317 378
#     4  11  21  37  64  92 129 167 215 269 321 393
#     4  10  22  38  58  85 124 173 217 261 320 381
#
# _framework density 22.826340999999999
#
# number of rings (size 3 to 8) (size 9 to 14) (size 15 to 20)
#    0.000    1.875    2.500    0.750    3.500    2.000 
#    2.250    0.000    0.000    0.750    0.000    0.000 
#    0.000    0.000    0.000    0.000    0.000    0.000 
#
# Total GULP energy -178253.560428 kJ/mol
# GULP energy per Si atom -5570.423763 kJ/mol
# Density = 2.277439 g / cm^3
# Si number density = 22.826341 Si / 1000 Ang^3
#
#
#
# Elastic Constant Matrix: (Units=GPa)
#
#
# Indices 1 2 3 4 5 6 
#
# 1 115.5282 16.8079 -6.0055 0.0000 1.9944 0.0000
# 2 16.8079 95.9283 -1.3670 0.0000 -13.3117 0.0000
# 3 -6.0055 -1.3670 33.7365 0.0000 5.5981 0.0000
# 4 0.0000 0.0000 0.0000 19.7488 0.0000 2.3369
# 5 1.9944 -13.3117 5.5981 0.0000 38.3400 0.0000
# 6 0.0000 0.0000 0.0000 2.3369 0.0000 7.4428
#
#
#
# Elastic Compliance Matrix: (Units=1/GPa)
#
#
# Indices 1 2 3 4 5 6 
#
# 1 0.009023 -0.001741 0.001756 0.000000 -0.001330 0.000000
# 2 -0.001741 0.011289 -0.000531 0.000000 0.004088 0.000000
# 3 0.001756 -0.000531 0.030723 0.000000 -0.004762 0.000000
# 4 0.000000 0.000000 0.000000 0.052590 0.000000 -0.016512
# 5 -0.001330 0.004088 -0.004762 0.000000 0.028266 0.000000
# 6 0.000000 0.000000 0.000000 -0.016512 0.000000 0.139543
#
#
# Mechanical properties :
#
#
# Convention : Reuss Voigt Hill
#
# Bulk Modulus (GPa) = 19.99773 29.34042 24.66907
# Shear Modulus (GPa) = 17.29308 28.82348 23.05828
#
# Velocity S-wave (km/s) = 2.75543 3.55734 3.18175
# Velocity P-wave (km/s) = 4.34776 5.45478 4.93242
#
# Compressibility (1/GPa) = 0.05000569
#
# Stress axis : x y z
#
# Youngs Moduli (GPa) = 110.82305 88.58113 32.54912
#
# Poissons Ratio (x) = 0.15418 -0.05717
# Poissons Ratio (y) = 0.19290 0.01727
# Poissons Ratio (z) = -0.19466 0.04701
#
# Static dielectric constant tensor:
#      x y z
#    x 2.062230 0.000000 0.297820 
#    y 0.000000 1.806130 0.000000 
#    z 0.297820 0.000000 2.356510 
# 
# From -- ./inp_files/68244.got.cif
#   From: 2010.05.17/outbox.cif.g08.bks.cpg/sg12_35_cif.got.tgz:68244.got - 2010.06.03 13:09:07.
