data_PCOD9199137
_publ_section_title
;
Structure prediction by ZEFSAII (Michael W. Deem and Ramdas Pophale) SiO2 
 PCOD9199137
Probable space group: C 2/M
;
_chemical_formula_sum "Si O2"
_cell_formula_units_Z 56
_cell_length_a 19.034867
_cell_length_b 8.129404
_cell_length_c 27.802093
_cell_angle_alpha 90.000000
_cell_angle_beta 37.319292
_cell_angle_gamma 90.000000
_cell_volume 2608.208132
_symmetry_space_group_name_H-M "C 2/M"
_symmetry_group_IT_number 12
_symmetry_cell_setting 'monoclinic'
loop_
_space_group_symop_operation_xyz
x,y,z
-x,y,-z
-x,-y,-z
x,-y,z
1/2+x,1/2+y,z
1/2-x,1/2+y,-z
1/2-x,1/2-y,-z
1/2+x,1/2-y,z
loop_
_atom_site_type_symbol
_atom_site_label
_atom_site_fract_x
_atom_site_fract_y
_atom_site_fract_z
Si Si1 0.895013 0.201112 0.524822
Si Si2 0.882567 0.197525 0.426028
Si Si3 0.640692 0.809182 0.027512
Si Si4 0.617612 0.307504 0.831447
Si Si5 0.533512 0.695030 0.254231
Si Si6 0.706910 0.307474 0.886976
Si Si7 0.837153 0.305629 0.295465
O O1 0.925742 0.253016 0.454334
O O2 0.771483 0.255894 0.613451
O O3 0.000000 0.256595 0.500000
O O4 0.890725 0.000000 0.527689
O O5 0.750000 0.250000 0.500000
O O6 0.955029 0.257695 0.341352
O O7 0.886759 0.000000 0.421235
O O8 0.666390 0.785343 0.956899
O O9 0.621764 0.000000 0.049107
O O10 0.750000 0.750000 0.000000
O O11 0.519622 0.717048 0.101751
O O12 0.645886 0.500000 0.815107
O O13 0.654884 0.246208 0.864337
O O14 0.679731 0.225165 0.751964
O O15 0.556817 0.500000 0.246684
O O16 0.654681 0.787678 0.188649
O O17 0.454745 0.722546 0.250256
O O18 0.674332 0.500000 0.909982
O O19 0.848839 0.500000 0.297085
#
# Coordination Sequence:
#
# PCOD9199137 Si02
#       7
#     8   8   8   8   8   8   8
#     4   9  19  35  57  85 118 157 203 257 311 364
#     4  10  20  36  59  86 118 158 204 257 312 366
#     4  12  25  44  71  99 128 162 205 250 298 363
#     4  11  25  44  65  92 130 165 201 252 309 365
#     4  11  23  38  61  90 125 163 209 262 308 366
#     4  11  25  44  66  93 128 166 203 250 309 366
#     4  11  22  38  63  89 122 165 211 257 308 371
#
# _framework density 21.470680000000002
#
# number of rings (size 3 to 8) (size 9 to 14) (size 15 to 20)
#    0.000    1.286    1.429    4.286    2.000    4.571 
#    0.000    0.000    0.000    2.143    0.000    0.000 
#    0.000    0.000    0.000    0.000    0.000    0.000 
#
# Total GULP energy -156513.128564 kJ/mol
# GULP energy per Si atom -5589.754592 kJ/mol
# Density = 2.142181 g / cm^3
# Si number density = 21.470680 Si / 1000 Ang^3
#
#
#
# Elastic Constant Matrix: (Units=GPa)
#
#
# Indices 1 2 3 4 5 6 
#
# 1 112.7220 -2.1842 7.5469 0.0006 14.2164 -0.0046
# 2 -2.1842 28.2822 -11.2467 0.0012 3.5820 -0.0042
# 3 7.5469 -11.2467 76.7651 -0.0006 13.2044 0.0002
# 4 0.0006 0.0012 -0.0006 15.5726 -0.0001 2.8115
# 5 14.2164 3.5820 13.2044 -0.0001 39.1408 0.0012
# 6 -0.0046 -0.0042 0.0002 2.8115 0.0012 26.1332
#
#
#
# Elastic Compliance Matrix: (Units=1/GPa)
#
#
# Indices 1 2 3 4 5 6 
#
# 1 0.009337 0.001089 -0.000168 -0.000001 -0.003434 0.000002
# 2 0.001089 0.038873 0.006654 -0.000004 -0.006198 0.000007
# 3 -0.000168 0.006654 0.014982 0.000000 -0.005602 0.000001
# 4 -0.000001 -0.000004 0.000000 0.065488 0.000001 -0.007045
# 5 -0.003434 -0.006198 -0.005602 0.000001 0.029253 -0.000003
# 6 0.000002 0.000007 0.000001 -0.007045 -0.000003 0.039023
#
#
# Mechanical properties :
#
#
# Convention : Reuss Voigt Hill
#
# Bulk Modulus (GPa) = 12.76421 22.88905 17.82663
# Shear Modulus (GPa) = 24.04785 31.07952 27.56369
#
# Velocity S-wave (km/s) = 3.35032 3.80877 3.58688
# Velocity P-wave (km/s) = 4.57428 5.47961 5.04728
#
# Compressibility (1/GPa) = 0.07834405
#
# Stress axis : x y z
#
# Youngs Moduli (GPa) = 107.10242 25.72466 66.74778
#
# Poissons Ratio (x) = -0.02803 0.01118
# Poissons Ratio (y) = -0.11668 -0.44416
# Poissons Ratio (z) = 0.01795 -0.17118
#
# Static dielectric constant tensor:
#      x y z
#    x 1.892770 0.000000 0.081790 
#    y 0.000000 1.752700 0.000000 
#    z 0.081790 0.000000 1.793830 
# 
# From -- ./inp_files/362952.got.cif
#   From: 2010.05.17/outbox.cif.g08.bks.cpg/sg12_182_cif.got.tgz:362952.got - 2010.06.03 13:09:07.
