data_PCOD9199674
_publ_section_title
;
Structure prediction by ZEFSAII (Michael W. Deem and Ramdas Pophale) SiO2 
 PCOD9199674
Probable space group: C 2/M
;
_chemical_formula_sum "Si O2"
_cell_formula_units_Z 56
_cell_length_a 18.582699
_cell_length_b 26.964803
_cell_length_c 8.667524
_cell_angle_alpha 90.000000
_cell_angle_beta 136.522394
_cell_angle_gamma 90.000000
_cell_volume 2988.369933
_symmetry_space_group_name_H-M "C 2/M"
_symmetry_group_IT_number 12
_symmetry_cell_setting 'monoclinic'
loop_
_space_group_symop_operation_xyz
x,y,z
-x,y,-z
-x,-y,-z
x,-y,z
1/2+x,1/2+y,z
1/2-x,1/2+y,-z
1/2-x,1/2-y,-z
1/2+x,1/2-y,z
loop_
_atom_site_type_symbol
_atom_site_label
_atom_site_fract_x
_atom_site_fract_y
_atom_site_fract_z
Si Si1 0.796656 0.307236 0.415447
Si Si2 0.436218 0.112210 0.243729
Si Si3 0.405829 0.108482 0.761527
Si Si4 0.588553 0.279778 0.265511
Si Si5 0.601216 0.359546 0.550199
Si Si6 0.778510 0.307993 0.031936
Si Si7 0.231127 0.558047 0.195433
O O1 0.825647 0.353038 0.567893
O O2 0.690599 0.285435 0.317501
O O3 0.886933 0.266156 0.581845
O O4 0.782566 0.323758 0.217689
O O5 0.500000 0.115261 0.500000
O O6 0.524618 0.088660 0.269908
O O7 0.386738 0.167601 0.135113
O O8 0.333285 0.078683 0.054012
O O9 0.345375 0.071664 0.779907
O O10 0.500000 0.135460 0.000000
O O11 0.575023 0.327781 0.355534
O O12 0.500000 0.272405 0.000000
O O13 0.500000 0.366107 0.500000
O O14 0.662624 0.410838 0.615169
O O15 0.687025 0.329220 0.782864
O O16 0.750000 0.250000 0.000000
O O17 0.248830 0.500000 0.211983
#
# Coordination Sequence:
#
# PCOD9199674 Si02
#       7
#     8   8   8   8   8   8   8
#     4  11  21  37  58  85 126 164 200 242 289 350
#     4  10  21  36  61  91 122 159 197 249 301 361
#     4  10  20  36  61  85 120 157 198 240 305 359
#     4  11  23  37  57  88 122 164 204 242 286 355
#     4  11  23  41  63  89 120 162 204 250 300 362
#     4  11  22  37  58  91 131 167 204 239 294 350
#     4  10  23  43  65  88 116 152 202 260 318 370
#
# _framework density 18.739312999999999
#
# number of rings (size 3 to 8) (size 9 to 14) (size 15 to 20)
#    0.000    1.429    4.286    1.286    0.000    6.000 
#    0.000    0.000    0.000    0.429    0.000    0.000 
#    0.000    0.000    0.000    0.000    0.000    0.000 
#
# Total GULP energy -155880.631009 kJ/mol
# GULP energy per Si atom -5567.165393 kJ/mol
# Density = 1.869666 g / cm^3
# Si number density = 18.739313 Si / 1000 Ang^3
#
#
#
# Elastic Constant Matrix: (Units=GPa)
#
#
# Indices 1 2 3 4 5 6 
#
# 1 75.1767 10.3259 19.3971 0.0000 11.0934 0.0000
# 2 10.3259 95.7575 10.9229 0.0000 2.6537 0.0000
# 3 19.3971 10.9229 85.1359 0.0000 -7.8015 0.0000
# 4 0.0000 0.0000 0.0000 10.0853 0.0000 -2.1874
# 5 11.0934 2.6537 -7.8015 0.0000 24.8028 0.0000
# 6 0.0000 0.0000 0.0000 -2.1874 0.0000 12.0593
#
#
#
# Elastic Compliance Matrix: (Units=1/GPa)
#
#
# Indices 1 2 3 4 5 6 
#
# 1 0.015745 -0.000988 -0.004218 0.000000 -0.008263 0.000000
# 2 -0.000988 0.010723 -0.001251 0.000000 -0.001099 0.000000
# 3 -0.004218 -0.001251 0.013440 0.000000 0.006248 0.000000
# 4 0.000000 0.000000 0.000000 0.103215 0.000000 0.018722
# 5 -0.008263 -0.001099 0.006248 0.000000 0.046097 0.000000
# 6 0.000000 0.000000 0.000000 0.018722 0.000000 0.086320
#
#
# Mechanical properties :
#
#
# Convention : Reuss Voigt Hill
#
# Bulk Modulus (GPa) = 37.04516 37.48464 37.26490
# Shear Modulus (GPa) = 16.80948 23.75110 20.28029
#
# Velocity S-wave (km/s) = 2.99827 3.56399 3.29330
# Velocity P-wave (km/s) = 5.63895 6.08133 5.86432
#
# Compressibility (1/GPa) = 0.02699408
#
# Stress axis : x y z
#
# Youngs Moduli (GPa) = 63.51097 93.25954 74.40492
#
# Poissons Ratio (x) = 0.09212 0.31383
# Poissons Ratio (y) = 0.06273 0.09311
# Poissons Ratio (z) = 0.26788 0.11670
#
# Static dielectric constant tensor:
#      x y z
#    x 1.688240 0.000000 -0.060050 
#    y 0.000000 1.658140 0.000000 
#    z -0.060050 0.000000 1.611830 
# 
# From -- ./inp_files/80108.got.cif
#   From: 2010.05.17/outbox.cif.g08.bks.cpg/sg12_41_cif.got.tgz:80108.got - 2010.06.03 13:09:07.
