data_PCOD9199613
_publ_section_title
;
Structure prediction by ZEFSAII (Michael W. Deem and Ramdas Pophale) SiO2 
 PCOD9199613
Probable space group: C 2/M
;
_chemical_formula_sum "Si O2"
_cell_formula_units_Z 44
_cell_length_a 26.180217
_cell_length_b 19.675451
_cell_length_c 11.241869
_cell_angle_alpha 90.000000
_cell_angle_beta 158.035026
_cell_angle_gamma 90.000000
_cell_volume 2165.978690
_symmetry_space_group_name_H-M "C 2/M"
_symmetry_group_IT_number 12
_symmetry_cell_setting 'monoclinic'
loop_
_space_group_symop_operation_xyz
x,y,z
-x,y,-z
-x,-y,-z
x,-y,z
1/2+x,1/2+y,z
1/2-x,1/2+y,-z
1/2-x,1/2-y,-z
1/2+x,1/2-y,z
loop_
_atom_site_type_symbol
_atom_site_label
_atom_site_fract_x
_atom_site_fract_y
_atom_site_fract_z
Si Si1 0.925914 0.000000 0.161202
Si Si2 0.672427 0.387287 0.221447
Si Si3 0.528260 0.266326 0.196609
Si Si4 0.635467 0.000000 0.663268
Si Si5 0.777537 0.000000 0.208560
Si Si6 0.951712 0.622973 0.687073
Si Si7 0.234400 0.887885 0.615291
O O1 0.075588 0.000000 0.538722
O O2 0.913836 0.935288 0.049444
O O3 0.790078 0.000000 0.945514
O O4 0.827264 0.390389 0.508800
O O5 0.666097 0.410937 0.344211
O O6 0.604280 0.312994 0.064362
O O7 0.552354 0.204592 0.339040
O O8 0.658961 0.316403 0.477226
O O9 0.500000 0.240423 0.000000
O O10 0.569507 0.068640 0.465254
O O11 0.657269 0.000000 0.852008
O O12 0.775293 0.935968 0.291961
O O13 0.104754 0.614252 0.064628
#
# Coordination Sequence:
#
# PCOD9199613 Si02
#       7
#     4   8   8   4   4   8   8
#     4  10  20  39  65  85 118 148 197 250 294 350
#     4  10  20  36  60  95 123 153 185 233 302 365
#     4  10  20  36  60  91 125 156 187 233 295 360
#     4  10  26  43  61  81 112 163 208 247 288 330
#     4  12  23  42  63  84 115 156 206 250 286 340
#     4  11  22  39  58  86 125 159 195 239 286 348
#     4  11  22  34  63  94 122 154 187 238 301 350
#
# _framework density 20.314142
#
# number of rings (size 3 to 8) (size 9 to 14) (size 15 to 20)
#    0.000    1.455    1.818    4.091    0.000    5.091 
#    0.000    6.818    0.000    2.182    0.000    0.000 
#    0.000    0.000    0.000    0.000    0.000    0.000 
#
# Total GULP energy -122721.231426 kJ/mol
# GULP energy per Si atom -5578.237792 kJ/mol
# Density = 2.026791 g / cm^3
# Si number density = 20.314142 Si / 1000 Ang^3
#
#
#
# Elastic Constant Matrix: (Units=GPa)
#
#
# Indices 1 2 3 4 5 6 
#
# 1 67.0413 38.3999 41.2194 0.0000 -4.5794 0.0000
# 2 38.3999 119.5704 45.9312 0.0000 -23.9672 0.0000
# 3 41.2194 45.9312 135.3230 0.0000 3.9424 0.0000
# 4 0.0000 0.0000 0.0000 16.8097 0.0000 2.7116
# 5 -4.5794 -23.9672 3.9424 0.0000 42.4621 0.0000
# 6 0.0000 0.0000 0.0000 2.7116 0.0000 15.6499
#
#
#
# Elastic Compliance Matrix: (Units=1/GPa)
#
#
# Indices 1 2 3 4 5 6 
#
# 1 0.020511 -0.004837 -0.004603 0.000000 -0.000091 0.000000
# 2 -0.004837 0.012394 -0.002930 0.000000 0.006746 0.000000
# 3 -0.004603 -0.002930 0.009876 0.000000 -0.003067 0.000000
# 4 0.000000 0.000000 0.000000 0.061200 0.000000 -0.010604
# 5 -0.000091 0.006746 -0.003067 0.000000 0.027633 0.000000
# 6 0.000000 0.000000 0.000000 -0.010604 0.000000 0.065736
#
#
# Mechanical properties :
#
#
# Convention : Reuss Voigt Hill
#
# Bulk Modulus (GPa) = 55.43101 63.67065 59.55083
# Shear Modulus (GPa) = 21.91989 28.07663 24.99826
#
# Velocity S-wave (km/s) = 3.28845 3.72172 3.51177
# Velocity P-wave (km/s) = 6.46256 7.06253 6.76920
#
# Compressibility (1/GPa) = 0.01804044
#
# Stress axis : x y z
#
# Youngs Moduli (GPa) = 48.75510 80.68114 101.25811
#
# Poissons Ratio (x) = 0.39025 0.46611
# Poissons Ratio (y) = 0.23582 0.29670
# Poissons Ratio (z) = 0.22443 0.23641
#
# Static dielectric constant tensor:
#      x y z
#    x 1.742360 0.000000 0.058230 
#    y 0.000000 1.747630 0.000000 
#    z 0.058230 0.000000 1.714130 
# 
# From -- ./inp_files/189995.got.cif
#   From: 2010.05.17/outbox.cif.g08.bks.cpg/sg12_95_cif.got.tgz:189995.got - 2010.06.03 13:09:07.
