data_PCOD9199796
_publ_section_title
;
Structure prediction by ZEFSAII (Michael W. Deem and Ramdas Pophale) SiO2 
 PCOD9199796
Probable space group: C 2/M
;
_chemical_formula_sum "Si O2"
_cell_formula_units_Z 56
_cell_length_a 9.011018
_cell_length_b 16.000103
_cell_length_c 26.638100
_cell_angle_alpha 90.000000
_cell_angle_beta 42.561663
_cell_angle_gamma 90.000000
_cell_volume 2597.722469
_symmetry_space_group_name_H-M "C 2/M"
_symmetry_group_IT_number 12
_symmetry_cell_setting 'monoclinic'
loop_
_space_group_symop_operation_xyz
x,y,z
-x,y,-z
-x,-y,-z
x,-y,z
1/2+x,1/2+y,z
1/2-x,1/2+y,-z
1/2-x,1/2-y,-z
1/2+x,1/2-y,z
loop_
_atom_site_type_symbol
_atom_site_label
_atom_site_fract_x
_atom_site_fract_y
_atom_site_fract_z
Si Si1 0.193487 0.597545 0.801325
Si Si2 0.997265 0.099795 0.184389
Si Si3 0.812975 0.841638 0.504442
Si Si4 0.519856 0.160003 0.333766
Si Si5 0.358615 0.654876 0.656545
Si Si6 0.260431 0.592874 0.061894
Si Si7 0.774499 0.667155 0.027290
O O1 0.156566 0.500000 0.822130
O O2 0.349851 0.629269 0.806832
O O3 0.300234 0.604438 0.720582
O O4 0.948109 0.636065 0.860508
O O5 0.744846 0.117215 0.261093
O O6 0.078292 0.147414 0.114470
O O7 0.026280 0.000000 0.170201
O O8 0.750000 0.750000 0.500000
O O9 0.607081 0.879069 0.586075
O O10 0.000000 0.831199 0.500000
O O11 0.937071 0.882071 0.426258
O O12 0.579413 0.253479 0.337458
O O13 0.346951 0.160970 0.330675
O O14 0.292280 0.500000 0.076073
O O15 0.500000 0.633246 0.000000
O O16 0.199346 0.592268 0.018831
O O17 0.750000 0.750000 0.000000
O O18 0.000000 0.672617 0.000000
#
# Coordination Sequence:
#
# PCOD9199796 Si02
#       7
#     8   8   8   8   8   8   8
#     4  10  22  40  61  87 120 159 201 248 302 357
#     4  11  25  43  63  88 121 160 205 250 301 362
#     4   8  16  33  55  87 121 159 200 245 299 355
#     4  10  21  36  63  91 123 162 203 251 301 357
#     4  10  20  36  61  91 126 159 203 252 302 355
#     4  10  22  41  64  88 118 156 200 244 295 358
#     4  12  26  43  65  91 121 155 198 247 305 357
#
# _framework density 21.557344000000001
#
# number of rings (size 3 to 8) (size 9 to 14) (size 15 to 20)
#    0.000    1.857    1.429    1.714    4.000    3.429 
#    0.000    0.714    0.000    4.286    0.000    0.000 
#    0.000    0.000    0.000    0.000    0.000    0.000 
#
# Total GULP energy -156126.410999 kJ/mol
# GULP energy per Si atom -5575.943250 kJ/mol
# Density = 2.150828 g / cm^3
# Si number density = 21.557344 Si / 1000 Ang^3
#
#
#
# Elastic Constant Matrix: (Units=GPa)
#
#
# Indices 1 2 3 4 5 6 
#
# 1 54.3479 11.9532 38.9345 -0.0031 0.6638 -0.0015
# 2 11.9532 51.4752 26.0007 -0.0006 1.1972 0.0004
# 3 38.9345 26.0007 211.4339 0.0081 4.0902 0.0065
# 4 -0.0031 -0.0006 0.0081 12.5498 -0.0011 5.2522
# 5 0.6638 1.1972 4.0902 -0.0011 38.9637 -0.0014
# 6 -0.0015 0.0004 0.0065 5.2522 -0.0014 7.2211
#
#
#
# Elastic Compliance Matrix: (Units=1/GPa)
#
#
# Indices 1 2 3 4 5 6 
#
# 1 0.021685 -0.003220 -0.003599 0.000006 0.000107 0.000003
# 2 -0.003220 0.021197 -0.002006 0.000002 -0.000386 -0.000002
# 3 -0.003599 -0.002006 0.005648 -0.000003 -0.000470 -0.000003
# 4 0.000006 0.000002 -0.000003 0.114552 0.000000 -0.083319
# 5 0.000107 -0.000386 -0.000470 0.000000 0.025724 0.000005
# 6 0.000003 -0.000002 -0.000003 -0.083319 0.000005 0.199086
#
#
# Mechanical properties :
#
#
# Convention : Reuss Voigt Hill
#
# Bulk Modulus (GPa) = 32.38419 52.33709 42.36064
# Shear Modulus (GPa) = 12.02393 27.77151 19.89772
#
# Velocity S-wave (km/s) = 2.36427 3.59313 3.04141
# Velocity P-wave (km/s) = 4.74426 6.44553 5.65919
#
# Compressibility (1/GPa) = 0.03087926
#
# Stress axis : x y z
#
# Youngs Moduli (GPa) = 46.11393 47.17670 177.04702
#
# Poissons Ratio (x) = 0.15191 0.63726
# Poissons Ratio (y) = 0.14849 0.35520
# Poissons Ratio (z) = 0.16598 0.09465
#
# Static dielectric constant tensor:
#      x y z
#    x 1.737770 0.000000 -0.019580 
#    y 0.000000 1.827700 0.000000 
#    z -0.019580 0.000000 1.844280 
# 
# From -- ./inp_files/356675.got.cif
#   From: 2010.05.17/outbox.cif.g08.bks.cpg/sg12_179_cif.got.tgz:356675.got - 2010.06.03 13:09:07.
