data_PCOD9199066
_publ_section_title
;
Structure prediction by ZEFSAII (Michael W. Deem and Ramdas Pophale) SiO2 
 PCOD9199066
Probable space group: C 2/M
;
_chemical_formula_sum "Si O2"
_cell_formula_units_Z 64
_cell_length_a 30.731184
_cell_length_b 9.213533
_cell_length_c 18.384435
_cell_angle_alpha 90.000000
_cell_angle_beta 141.316326
_cell_angle_gamma 90.000000
_cell_volume 3253.492924
_symmetry_space_group_name_H-M "C 2/M"
_symmetry_group_IT_number 12
_symmetry_cell_setting 'monoclinic'
loop_
_space_group_symop_operation_xyz
x,y,z
-x,y,-z
-x,-y,-z
x,-y,z
1/2+x,1/2+y,z
1/2-x,1/2+y,-z
1/2-x,1/2-y,-z
1/2+x,1/2-y,z
loop_
_atom_site_type_symbol
_atom_site_label
_atom_site_fract_x
_atom_site_fract_y
_atom_site_fract_z
Si Si1 0.389578 0.327908 0.045068
Si Si2 0.383228 0.828898 0.466309
Si Si3 0.717171 0.328660 0.567696
Si Si4 0.512413 0.669629 0.687171
Si Si5 0.646241 0.827724 0.339039
Si Si6 0.994526 0.327113 0.078608
Si Si7 0.894865 0.165562 0.334714
Si Si8 0.757946 0.668770 0.933619
O O1 0.378840 0.500000 0.023239
O O2 0.436673 0.304075 0.178815
O O3 0.432979 0.261679 0.035535
O O4 0.317223 0.246986 0.964384
O O5 0.312472 0.753241 0.401087
O O6 0.445222 0.770680 0.598595
O O7 0.402469 0.774196 0.411109
O O8 0.377323 0.000000 0.462344
O O9 0.705191 0.500000 0.559373
O O10 0.674539 0.265411 0.443173
O O11 0.798183 0.305442 0.653755
O O12 0.491210 0.500000 0.661786
O O13 0.555104 0.693429 0.668333
O O14 0.568381 0.791498 0.212960
O O15 0.649191 0.000000 0.361641
O O16 0.982558 0.500000 0.072661
O O17 0.000000 0.298584 0.000000
O O18 0.816285 0.173449 0.202890
O O19 0.908242 0.000000 0.377864
O O20 0.776120 0.500000 0.969604
O O21 0.750000 0.750000 0.000000
#
# Coordination Sequence:
#
# PCOD9199066 Si02
#       8
#     8   8   8   8   8   8   8   8
#     4  11  23  40  63  93 122 157 205 249 300 360
#     4  12  25  37  54  87 123 155 197 246 294 349
#     4  10  20  36  59  85 114 153 192 237 297 359
#     4  10  21  40  62  84 116 157 199 244 297 360
#     4   9  19  37  61  86 112 145 194 248 294 348
#     4  10  22  40  60  86 120 157 198 247 303 359
#     4  10  22  41  61  83 115 158 198 239 298 359
#     4  11  22  40  65  91 120 156 200 249 299 353
#
# _framework density 19.671167000000001
#
# number of rings (size 3 to 8) (size 9 to 14) (size 15 to 20)
#    0.000    1.625    1.250    3.375    0.000    8.250 
#    0.000    2.500    0.000    0.000    0.000    0.000 
#    0.000    0.000    0.000    0.000    0.000    0.000 
#
# Total GULP energy -178939.702590 kJ/mol
# GULP energy per Si atom -5591.865706 kJ/mol
# Density = 1.962639 g / cm^3
# Si number density = 19.671167 Si / 1000 Ang^3
#
#
#
# Elastic Constant Matrix: (Units=GPa)
#
#
# Indices 1 2 3 4 5 6 
#
# 1 111.1705 61.0593 12.2867 0.0000 17.7871 0.0000
# 2 61.0593 94.3495 22.7874 0.0000 13.3737 0.0000
# 3 12.2867 22.7874 36.4195 0.0000 13.5612 0.0000
# 4 0.0000 0.0000 0.0000 25.6297 0.0000 -0.9178
# 5 17.7871 13.3737 13.5612 0.0000 29.5599 0.0000
# 6 0.0000 0.0000 0.0000 -0.9178 0.0000 34.4514
#
#
#
# Elastic Compliance Matrix: (Units=1/GPa)
#
#
# Indices 1 2 3 4 5 6 
#
# 1 0.014844 -0.009519 0.003221 0.000000 -0.006103 0.000000
# 2 -0.009519 0.018744 -0.009035 0.000000 0.001393 0.000000
# 3 0.003221 -0.009035 0.037657 0.000000 -0.015126 0.000000
# 4 0.000000 0.000000 0.000000 0.039054 0.000000 0.001040
# 5 -0.006103 0.001393 -0.015126 0.000000 0.043811 0.000000
# 6 0.000000 0.000000 0.000000 0.001040 0.000000 0.029054
#
#
# Mechanical properties :
#
#
# Convention : Reuss Voigt Hill
#
# Bulk Modulus (GPa) = 24.64417 48.24517 36.44467
# Shear Modulus (GPa) = 21.99172 27.64860 24.82016
#
# Velocity S-wave (km/s) = 3.34723 3.75312 3.55597
# Velocity P-wave (km/s) = 5.24346 6.58485 5.95206
#
# Compressibility (1/GPa) = 0.04057754
#
# Stress axis : x y z
#
# Youngs Moduli (GPa) = 67.36683 53.34986 26.55562
#
# Poissons Ratio (x) = 0.50785 -0.08553
# Poissons Ratio (y) = 0.64129 0.23994
# Poissons Ratio (z) = -0.21697 0.48203
#
# Static dielectric constant tensor:
#      x y z
#    x 1.693340 0.000000 -0.000180 
#    y 0.000000 1.657620 0.000000 
#    z -0.000180 0.000000 1.675100 
# 
# From -- ./inp_files/295822.got.cif
#   From: 2010.05.17/outbox.cif.g08.bks.cpg/sg12_148_cif.got.tgz:295822.got - 2010.06.03 13:09:07.
