data_PCOD9199730
_publ_section_title
;
Structure prediction by ZEFSAII (Michael W. Deem and Ramdas Pophale) SiO2 
 PCOD9199730
Probable space group: C 2/M
;
_chemical_formula_sum "Si O2"
_cell_formula_units_Z 48
_cell_length_a 16.531866
_cell_length_b 18.010313
_cell_length_c 20.513136
_cell_angle_alpha 90.000000
_cell_angle_beta 157.862045
_cell_angle_gamma 90.000000
_cell_volume 2301.599893
_symmetry_space_group_name_H-M "C 2/M"
_symmetry_group_IT_number 12
_symmetry_cell_setting 'monoclinic'
loop_
_space_group_symop_operation_xyz
x,y,z
-x,y,-z
-x,-y,-z
x,-y,z
1/2+x,1/2+y,z
1/2-x,1/2+y,-z
1/2-x,1/2-y,-z
1/2+x,1/2-y,z
loop_
_atom_site_type_symbol
_atom_site_label
_atom_site_fract_x
_atom_site_fract_y
_atom_site_fract_z
Si Si1 0.867158 0.084888 0.710553
Si Si2 0.787866 0.789404 0.750955
Si Si3 0.383485 0.326459 0.596735
Si Si4 0.371126 0.083355 0.122775
Si Si5 0.210589 0.286656 0.840265
Si Si6 0.798565 0.866424 0.386143
O O1 0.763652 0.140562 0.685580
O O2 0.817318 0.115295 0.601697
O O3 0.801106 0.000000 0.670553
O O4 0.127673 0.088204 0.914166
O O5 0.671967 0.796758 0.734139
O O6 0.732274 0.713937 0.671395
O O7 0.038776 0.787048 0.956812
O O8 0.250000 0.250000 0.500000
O O9 0.617837 0.293802 0.788675
O O10 0.370322 0.357141 0.514515
O O11 0.388994 0.147731 0.190500
O O12 0.563762 0.096296 0.215190
O O13 0.395578 0.000000 0.168322
O O14 0.000000 0.903623 0.500000
#
# Coordination Sequence:
#
# PCOD9199730 Si02
#       6
#     8   8   8   8   8   8
#     4  10  22  40  61  86 120 157 191 234 293 355
#     4  10  20  36  61  90 118 150 195 237 289 345
#     4  12  21  36  61  86 116 154 197 243 291 343
#     4  10  22  40  59  84 120 160 197 234 286 350
#     4  10  20  36  61  89 117 154 193 239 285 348
#     4  12  23  37  60  86 117 153 198 250 290 337
#
# _framework density 20.855058
#
# number of rings (size 3 to 8) (size 9 to 14) (size 15 to 20)
#    0.000    1.333    5.000    1.000    0.000    4.333 
#    0.000    3.333    0.000    3.500    0.000    0.000 
#    0.000    0.000    0.000    0.000    0.000    0.000 
#
# Total GULP energy -134053.664642 kJ/mol
# GULP energy per Si atom -5585.569360 kJ/mol
# Density = 2.080759 g / cm^3
# Si number density = 20.855058 Si / 1000 Ang^3
#
#
#
# Elastic Constant Matrix: (Units=GPa)
#
#
# Indices 1 2 3 4 5 6 
#
# 1 74.1690 15.0787 11.0049 -0.0098 -6.3571 -0.0196
# 2 15.0787 72.3289 13.0523 -0.0859 -11.4996 -0.0461
# 3 11.0049 13.0523 50.1028 0.0016 -1.5146 -0.0284
# 4 -0.0098 -0.0859 0.0016 22.1097 -0.0168 -5.6788
# 5 -6.3571 -11.4996 -1.5146 -0.0168 44.9936 -0.0001
# 6 -0.0196 -0.0461 -0.0284 -5.6788 -0.0001 7.6561
#
#
#
# Elastic Compliance Matrix: (Units=1/GPa)
#
#
# Indices 1 2 3 4 5 6 
#
# 1 0.014449 -0.002341 -0.002523 0.000002 0.001358 0.000015
# 2 -0.002341 0.015489 -0.003414 0.000100 0.003513 0.000149
# 3 -0.002523 -0.003414 0.021387 -0.000004 -0.000509 0.000049
# 4 0.000002 0.000100 -0.000004 0.055875 0.000047 0.041445
# 5 0.001358 0.003513 -0.000509 0.000047 0.023298 0.000058
# 6 0.000015 0.000149 0.000049 0.041445 0.000058 0.161359
#
#
# Mechanical properties :
#
#
# Convention : Reuss Voigt Hill
#
# Bulk Modulus (GPa) = 28.76162 30.54140 29.65151
# Shear Modulus (GPa) = 15.62485 25.44951 20.53718
#
# Velocity S-wave (km/s) = 2.74014 3.49707 3.14149
# Velocity P-wave (km/s) = 4.88183 5.56619 5.23520
#
# Compressibility (1/GPa) = 0.03476856
#
# Stress axis : x y z
#
# Youngs Moduli (GPa) = 69.20688 64.56323 46.75687
#
# Poissons Ratio (x) = 0.15115 0.11796
# Poissons Ratio (y) = 0.16202 0.15965
# Poissons Ratio (z) = 0.17460 0.22045
#
# Static dielectric constant tensor:
#      x y z
#    x 1.761030 -0.000020 0.065210 
#    y -0.000020 1.713550 -0.000030 
#    z 0.065210 -0.000030 1.826660 
# 
# From -- ./inp_files/87726.got.cif
#   From: 2010.05.17/outbox.cif.g08.bks.cpg/sg12_44_cif.got.tgz:87726.got - 2010.06.03 13:09:07.
