data_PCOD9199071
_publ_section_title
;
Structure prediction by ZEFSAII (Michael W. Deem and Ramdas Pophale) SiO2 
 PCOD9199071
Probable space group: C 2/M
;
_chemical_formula_sum "Si O2"
_cell_formula_units_Z 56
_cell_length_a 18.127216
_cell_length_b 18.455178
_cell_length_c 9.681388
_cell_angle_alpha 90.000000
_cell_angle_beta 105.298998
_cell_angle_gamma 90.000000
_cell_volume 3124.043964
_symmetry_space_group_name_H-M "C 2/M"
_symmetry_group_IT_number 12
_symmetry_cell_setting 'monoclinic'
loop_
_space_group_symop_operation_xyz
x,y,z
-x,y,-z
-x,-y,-z
x,-y,z
1/2+x,1/2+y,z
1/2-x,1/2+y,-z
1/2-x,1/2-y,-z
1/2+x,1/2-y,z
loop_
_atom_site_type_symbol
_atom_site_label
_atom_site_fract_x
_atom_site_fract_y
_atom_site_fract_z
Si Si1 0.803908 0.179260 0.680779
Si Si2 0.469417 0.275385 0.830201
Si Si3 0.323884 0.304006 0.378807
Si Si4 0.446311 0.186493 0.349520
Si Si5 0.962268 0.922315 0.132505
Si Si6 0.804911 0.586567 0.191625
Si Si7 0.210135 0.916460 0.880723
O O1 0.879572 0.209958 0.790117
O O2 0.742786 0.244064 0.652060
O O3 0.826264 0.162891 0.533429
O O4 0.762239 0.113907 0.738859
O O5 0.498722 0.211335 0.747690
O O6 0.504873 0.349879 0.786057
O O7 0.500000 0.265015 0.000000
O O8 0.399460 0.257397 0.380106
O O9 0.302658 0.363103 0.253360
O O10 0.500000 0.159343 0.500000
O O11 0.382151 0.129301 0.269005
O O12 0.871061 0.916007 0.078971
O O13 0.979592 0.000000 0.209717
O O14 0.000000 0.924067 0.000000
O O15 0.813878 0.500000 0.204272
O O16 0.775399 0.605329 0.022223
O O17 0.223845 0.000000 0.844293
#
# Coordination Sequence:
#
# PCOD9199071 Si02
#       7
#     8   8   8   8   8   8   8
#     4  10  22  36  58  82 118 151 190 239 288 348
#     4  11  21  33  57  90 113 151 191 237 291 341
#     4  10  21  38  56  84 116 151 190 236 294 342
#     4  11  22  39  60  83 119 154 191 245 287 347
#     4   9  17  30  50  81 118 145 174 225 281 335
#     4  10  23  40  61  87 113 154 201 241 289 342
#     4  10  20  36  59  85 115 150 191 235 281 342
#
# _framework density 17.925483
#
# number of rings (size 3 to 8) (size 9 to 14) (size 15 to 20)
#    0.000    1.857    2.857    1.714    2.000    3.714 
#    0.000    0.000    0.000    3.000    0.000    0.000 
#    0.000    0.000    0.000    0.000    0.000    0.000 
#
# Total GULP energy -156089.328627 kJ/mol
# GULP energy per Si atom -5574.618880 kJ/mol
# Density = 1.788468 g / cm^3
# Si number density = 17.925483 Si / 1000 Ang^3
#
#
#
# Elastic Constant Matrix: (Units=GPa)
#
#
# Indices 1 2 3 4 5 6 
#
# 1 66.7464 12.1440 24.4916 0.0000 8.7193 0.0000
# 2 12.1440 47.3381 29.0470 0.0000 -9.3115 0.0000
# 3 24.4916 29.0470 101.8309 0.0000 1.3723 0.0000
# 4 0.0000 0.0000 0.0000 15.2109 0.0000 4.1868
# 5 8.7193 -9.3115 1.3723 0.0000 24.5121 0.0000
# 6 0.0000 0.0000 0.0000 4.1868 0.0000 10.1335
#
#
#
# Elastic Compliance Matrix: (Units=1/GPa)
#
#
# Indices 1 2 3 4 5 6 
#
# 1 0.017876 -0.004306 -0.002966 0.000000 -0.007829 0.000000
# 2 -0.004306 0.029439 -0.007539 0.000000 0.013137 0.000000
# 3 -0.002966 -0.007539 0.012718 0.000000 -0.002521 0.000000
# 4 0.000000 0.000000 0.000000 0.074178 0.000000 -0.030648
# 5 -0.007829 0.013137 -0.002521 0.000000 0.048713 0.000000
# 6 0.000000 0.000000 0.000000 -0.030648 0.000000 0.111346
#
#
# Mechanical properties :
#
#
# Convention : Reuss Voigt Hill
#
# Bulk Modulus (GPa) = 32.88140 38.58672 35.73406
# Shear Modulus (GPa) = 14.96876 19.98681 17.47778
#
# Velocity S-wave (km/s) = 2.89287 3.34278 3.12593
# Velocity P-wave (km/s) = 5.43520 6.03919 5.74514
#
# Compressibility (1/GPa) = 0.03041233
#
# Stress axis : x y z
#
# Youngs Moduli (GPa) = 55.93958 33.96823 78.62934
#
# Poissons Ratio (x) = 0.14627 0.23319
# Poissons Ratio (y) = 0.24088 0.59278
# Poissons Ratio (z) = 0.16590 0.25608
#
# Static dielectric constant tensor:
#      x y z
#    x 1.627470 0.000000 -0.002010 
#    y 0.000000 1.622550 0.000000 
#    z -0.002010 0.000000 1.618510 
# 
# From -- ./inp_files/76009.got.cif
#   From: 2010.05.17/outbox.cif.g08.bks.cpg/sg12_39_cif.got.tgz:76009.got - 2010.06.03 13:09:07.
