data_PCOD9199524
_publ_section_title
;
Structure prediction by ZEFSAII (Michael W. Deem and Ramdas Pophale) SiO2 
 PCOD9199524
Probable space group: C 2/M
;
_chemical_formula_sum "Si O2"
_cell_formula_units_Z 64
_cell_length_a 16.318265
_cell_length_b 9.121323
_cell_length_c 21.834944
_cell_angle_alpha 90.000000
_cell_angle_beta 89.027235
_cell_angle_gamma 90.000000
_cell_volume 3249.535629
_symmetry_space_group_name_H-M "C 2/M"
_symmetry_group_IT_number 12
_symmetry_cell_setting 'monoclinic'
loop_
_space_group_symop_operation_xyz
x,y,z
-x,y,-z
-x,-y,-z
x,-y,z
1/2+x,1/2+y,z
1/2-x,1/2+y,-z
1/2-x,1/2-y,-z
1/2+x,1/2-y,z
loop_
_atom_site_type_symbol
_atom_site_label
_atom_site_fract_x
_atom_site_fract_y
_atom_site_fract_z
Si Si1 0.307924 0.676362 0.371069
Si Si2 0.666480 0.832183 0.989615
Si Si3 0.325320 0.830174 0.245115
Si Si4 0.162444 0.674824 0.211129
Si Si5 0.080306 0.169836 0.096066
Si Si6 0.975416 0.176169 0.431468
Si Si7 0.880654 0.675960 0.648572
Si Si8 0.570177 0.163100 0.871463
O O1 0.307968 0.500000 0.361682
O O2 0.339794 0.759491 0.310509
O O3 0.379075 0.710513 0.419588
O O4 0.210541 0.716506 0.377829
O O5 0.601155 0.750130 0.032602
O O6 0.671453 0.000000 0.009850
O O7 0.750000 0.750000 0.000000
O O8 0.644462 0.832364 0.918392
O O9 0.254514 0.733047 0.215988
O O10 0.401540 0.828141 0.198485
O O11 0.298911 0.000000 0.251395
O O12 0.159279 0.500000 0.203823
O O13 0.124210 0.753852 0.153190
O O14 0.122841 0.710403 0.278382
O O15 0.986169 0.202241 0.110692
O O16 0.101705 0.000000 0.092297
O O17 0.042162 0.248861 0.385266
O O18 0.000000 0.218664 0.500000
O O19 0.983281 0.000000 0.425393
O O20 0.888308 0.500000 0.642562
O O21 0.530920 0.000000 0.881288
#
# Coordination Sequence:
#
# PCOD9199524 Si02
#       8
#     8   8   8   8   8   8   8   8
#     4   9  20  39  59  84 122 164 202 246 307 366
#     4  11  23  41  63  83 112 153 195 243 298 354
#     4  10  20  36  60  89 117 147 194 246 294 355
#     4  10  21  39  61  85 118 155 192 240 301 357
#     4  12  25  38  57  86 117 151 196 244 292 352
#     4  10  22  39  60  88 123 161 203 250 299 358
#     4   9  20  38  60  86 119 158 200 250 304 365
#     4  10  23  40  57  82 116 152 190 241 298 352
#
# _framework density 19.695122000000001
#
# number of rings (size 3 to 8) (size 9 to 14) (size 15 to 20)
#    0.000    1.875    0.000    4.125    1.750    8.250 
#    0.000    0.000    0.000    0.000    0.000    0.000 
#    0.000    0.000    0.000    0.000    0.000    0.000 
#
# Total GULP energy -178531.619815 kJ/mol
# GULP energy per Si atom -5579.113119 kJ/mol
# Density = 1.965029 g / cm^3
# Si number density = 19.695122 Si / 1000 Ang^3
#
#
#
# Elastic Constant Matrix: (Units=GPa)
#
#
# Indices 1 2 3 4 5 6 
#
# 1 29.7027 2.7087 -2.5394 0.0000 7.0405 0.0000
# 2 2.7087 60.8372 7.5792 0.0000 1.8248 0.0000
# 3 -2.5394 7.5792 31.3534 0.0000 7.2071 0.0000
# 4 0.0000 0.0000 0.0000 -16.5493 0.0000 8.1295
# 5 7.0405 1.8248 7.2071 0.0000 34.1581 0.0000
# 6 0.0000 0.0000 0.0000 8.1295 0.0000 31.4335
#
#
#
# Elastic Compliance Matrix: (Units=1/GPa)
#
#
# Indices 1 2 3 4 5 6 
#
# 1 0.036332 -0.002034 0.005392 0.000000 -0.008518 0.000000
# 2 -0.002034 0.017062 -0.004389 0.000000 0.000434 0.000000
# 3 0.005392 -0.004389 0.035306 0.000000 -0.008326 0.000000
# 4 0.000000 0.000000 0.000000 -0.053614 0.000000 0.013866
# 5 -0.008518 0.000434 -0.008326 0.000000 0.032765 0.000000
# 6 0.000000 0.000000 0.000000 0.013866 0.000000 0.028227
#
#
# Mechanical properties :
#
#
# Convention : Reuss Voigt Hill
#
# Bulk Modulus (GPa) = 11.54212 15.26560 13.40386
# Shear Modulus (GPa) = 39.36425 17.41811 28.39118
#
# Velocity S-wave (km/s) = 4.47551 2.97709 3.80087
# Velocity P-wave (km/s) = 5.70789 4.42552 5.10711
#
# Compressibility (1/GPa) = 0.08663916
#
# Stress axis : x y z
#
# Youngs Moduli (GPa) = 27.52358 58.61106 28.32375
#
# Poissons Ratio (x) = 0.11921 -0.15273
# Poissons Ratio (y) = 0.05598 0.12431
# Poissons Ratio (z) = -0.14842 0.25723
#
# Static dielectric constant tensor:
#      x y z
#    x 1.759020 0.000000 -0.003920 
#    y 0.000000 1.666450 0.000000 
#    z -0.003920 0.000000 1.707920 
# 
# From -- ./inp_files/314157.got.cif
#   From: 2010.05.17/outbox.cif.g08.bks.cpg/sg12_158_cif.got.tgz:314157.got - 2010.06.03 13:09:07.
