data_PCOD9199890
_publ_section_title
;
Structure prediction by ZEFSAII (Michael W. Deem and Ramdas Pophale) SiO2 
 PCOD9199890
Probable space group: C 2/M
;
_chemical_formula_sum "Si O2"
_cell_formula_units_Z 60
_cell_length_a 20.244072
_cell_length_b 9.124135
_cell_length_c 23.367654
_cell_angle_alpha 90.000000
_cell_angle_beta 135.166660
_cell_angle_gamma 90.000000
_cell_volume 3043.145719
_symmetry_space_group_name_H-M "C 2/M"
_symmetry_group_IT_number 12
_symmetry_cell_setting 'monoclinic'
loop_
_space_group_symop_operation_xyz
x,y,z
-x,y,-z
-x,-y,-z
x,-y,z
1/2+x,1/2+y,z
1/2-x,1/2+y,-z
1/2-x,1/2-y,-z
1/2+x,1/2-y,z
loop_
_atom_site_type_symbol
_atom_site_label
_atom_site_fract_x
_atom_site_fract_y
_atom_site_fract_z
Si Si1 0.568467 0.675330 0.768533
Si Si2 0.285665 0.500000 0.034440
Si Si3 0.294083 0.326987 0.719610
Si Si4 0.992660 0.330517 0.832087
Si Si5 0.253185 0.827264 0.176750
Si Si6 0.708753 0.329055 0.561948
Si Si7 0.651598 0.236894 0.009171
Si Si8 0.397943 0.171160 0.602062
O O1 0.573725 0.500000 0.783255
O O2 0.555941 0.762037 0.820405
O O3 0.657961 0.734643 0.789803
O O4 0.477640 0.723945 0.676466
O O5 0.327917 0.376176 0.017178
O O6 0.231780 0.624263 0.039987
O O7 0.294779 0.500000 0.706214
O O8 0.397774 0.261118 0.776152
O O9 0.264300 0.307855 0.766964
O O10 0.226857 0.241769 0.634625
O O11 0.972542 0.500000 0.805810
O O12 0.051398 0.321533 0.926587
O O13 0.270961 0.000000 0.176620
O O14 0.166092 0.776940 0.084186
O O15 0.681439 0.500000 0.548330
O O16 0.637230 0.234405 0.480020
O O17 0.808282 0.322835 0.589306
O O18 0.427732 0.000000 0.616858
#
# Coordination Sequence:
#
# PCOD9199890 Si02
#       8
#     8   4   8   8   8   8   8   8
#     4  12  25  38  65 100 128 163 213 267 311 375
#     4  10  20  36  62  88 126 150 212 256 328 364
#     4  11  25  44  65  91 126 175 213 258 315 386
#     4  12  25  41  63  92 128 164 216 268 319 372
#     4  11  26  45  63  88 132 171 212 260 325 382
#     4  10  20  38  64  95 131 167 205 256 317 372
#     4  11  23  39  60  93 121 172 206 270 316 378
#     4  10  20  37  65  97 131 164 205 261 313 370
#
# _framework density 19.716442000000001
#
# number of rings (size 3 to 8) (size 9 to 14) (size 15 to 20)
#    0.000    1.067    2.667    4.400    4.667    2.667 
#    0.000    2.667    0.000    4.000    0.000    0.000 
#    0.000    0.000    0.000    0.000    0.000    0.000 
#
# Total GULP energy -167171.526485 kJ/mol
# GULP energy per Si atom -5572.384216 kJ/mol
# Density = 1.967157 g / cm^3
# Si number density = 19.716442 Si / 1000 Ang^3
#
#
#
# Elastic Constant Matrix: (Units=GPa)
#
#
# Indices 1 2 3 4 5 6 
#
# 1 29.6286 22.1295 0.7409 0.0000 -6.5825 0.0000
# 2 22.1295 110.3325 -4.4788 0.0000 -13.1774 0.0000
# 3 0.7409 -4.4788 87.7837 0.0000 -14.9575 0.0000
# 4 0.0000 0.0000 0.0000 11.4695 0.0000 -1.6146
# 5 -6.5825 -13.1774 -14.9575 0.0000 21.0670 0.0000
# 6 0.0000 0.0000 0.0000 -1.6146 0.0000 28.4709
#
#
#
# Elastic Compliance Matrix: (Units=1/GPa)
#
#
# Indices 1 2 3 4 5 6 
#
# 1 0.041044 -0.007131 0.000813 0.000000 0.008941 0.000000
# 2 -0.007131 0.011278 0.001659 0.000000 0.006004 0.000000
# 3 0.000813 0.001659 0.013298 0.000000 0.010733 0.000000
# 4 0.000000 0.000000 0.000000 0.087890 0.000000 0.004984
# 5 0.008941 0.006004 0.010733 0.000000 0.061637 0.000000
# 6 0.000000 0.000000 0.000000 0.004984 0.000000 0.035406
#
#
# Mechanical properties :
#
#
# Convention : Reuss Voigt Hill
#
# Bulk Modulus (GPa) = 17.76160 29.39199 23.57680
# Shear Modulus (GPa) = 17.94434 26.15834 22.05134
#
# Velocity S-wave (km/s) = 3.02009 3.64638 3.34791
# Velocity P-wave (km/s) = 4.60319 5.71558 5.18928
#
# Compressibility (1/GPa) = 0.05630124
#
# Stress axis : x y z
#
# Youngs Moduli (GPa) = 24.36431 88.66629 75.19791
#
# Poissons Ratio (x) = 0.63230 -0.06115
# Poissons Ratio (y) = 0.17375 -0.12473
# Poissons Ratio (z) = -0.01981 -0.14706
#
# Static dielectric constant tensor:
#      x y z
#    x 1.646830 0.000000 0.015970 
#    y 0.000000 1.697080 0.000000 
#    z 0.015970 0.000000 1.745700 
# 
# From -- ./inp_files/320521.got.cif
#   From: 2010.05.17/outbox.cif.g08.bks.cpg/sg12_161_cif.got.tgz:320521.got - 2010.06.03 13:09:07.
