data_PCOD9199605
_publ_section_title
;
Structure prediction by ZEFSAII (Michael W. Deem and Ramdas Pophale) SiO2 
 PCOD9199605
Probable space group: C 2/M
;
_chemical_formula_sum "Si O2"
_cell_formula_units_Z 36
_cell_length_a 7.807282
_cell_length_b 17.442500
_cell_length_c 13.476258
_cell_angle_alpha 90.000000
_cell_angle_beta 62.353046
_cell_angle_gamma 90.000000
_cell_volume 1625.642955
_symmetry_space_group_name_H-M "C 2/M"
_symmetry_group_IT_number 12
_symmetry_cell_setting 'monoclinic'
loop_
_space_group_symop_operation_xyz
x,y,z
-x,y,-z
-x,-y,-z
x,-y,z
1/2+x,1/2+y,z
1/2-x,1/2+y,-z
1/2-x,1/2-y,-z
1/2+x,1/2-y,z
loop_
_atom_site_type_symbol
_atom_site_label
_atom_site_fract_x
_atom_site_fract_y
_atom_site_fract_z
Si Si1 0.759302 0.368554 0.646519
Si Si2 0.974192 0.272243 0.726565
Si Si3 0.213388 0.000000 0.496261
Si Si4 0.652359 0.835568 0.868557
Si Si5 0.892510 0.500000 0.739146
Si Si6 0.863412 0.500000 0.130454
O O1 0.938451 0.313954 0.631791
O O2 0.595085 0.305023 0.680393
O O3 0.742869 0.425409 0.558228
O O4 0.767040 0.426737 0.738436
O O5 0.784329 0.239616 0.833138
O O6 0.066537 0.329314 0.780743
O O7 0.000000 0.000000 0.500000
O O8 0.403682 0.000000 0.376477
O O9 0.750631 0.919841 0.841990
O O10 0.500000 0.832550 0.000000
O O11 0.975876 0.500000 0.826169
O O12 0.000000 0.500000 0.000000
#
# Coordination Sequence:
#
# PCOD9199605 Si02
#       6
#     8   8   4   8   4   4
#     4  10  22  41  64  94 124 166 211 250 319 369
#     4  10  21  37  63  92 128 168 202 272 307 370
#     4  11  27  44  69  91 120 173 205 256 318 382
#     4  10  20  36  60  90 127 170 215 254 315 364
#     4  11  22  46  66  86 132 165 210 258 312 377
#     4  10  21  36  66  90 121 162 213 252 307 363
#
# _framework density 22.145084000000001
#
# number of rings (size 3 to 8) (size 9 to 14) (size 15 to 20)
#    0.000    1.778    2.222    2.000    3.111    0.889 
#    0.000    7.778    0.000    2.667    0.000    0.000 
#    0.000    0.000    0.000    0.000    0.000    0.000 
#
# Total GULP energy -100228.246188 kJ/mol
# GULP energy per Si atom -5568.235899 kJ/mol
# Density = 2.209468 g / cm^3
# Si number density = 22.145084 Si / 1000 Ang^3
#
#
#
# Elastic Constant Matrix: (Units=GPa)
#
#
# Indices 1 2 3 4 5 6 
#
# 1 45.4923 17.8607 28.9182 0.0000 4.4888 0.0000
# 2 17.8607 145.7593 39.1712 0.0000 -3.5519 0.0000
# 3 28.9182 39.1712 111.1201 0.0000 23.4562 0.0000
# 4 0.0000 0.0000 0.0000 56.4328 0.0000 -39.2345
# 5 4.4888 -3.5519 23.4562 0.0000 16.2077 0.0000
# 6 0.0000 0.0000 0.0000 -39.2345 0.0000 105.8249
#
#
#
# Elastic Compliance Matrix: (Units=1/GPa)
#
#
# Indices 1 2 3 4 5 6 
#
# 1 0.026712 -0.001334 -0.006995 0.000000 0.002433 0.000000
# 2 -0.001334 0.008432 -0.004454 0.000000 0.008663 0.000000
# 3 -0.006995 -0.004454 0.017547 0.000000 -0.024434 0.000000
# 4 0.000000 0.000000 0.000000 0.023874 0.000000 0.008851
# 5 0.002433 0.008663 -0.024434 0.000000 0.098285 0.000000
# 6 0.000000 0.000000 0.000000 0.008851 0.000000 0.012731
#
#
# Mechanical properties :
#
#
# Convention : Reuss Voigt Hill
#
# Bulk Modulus (GPa) = 36.86539 52.69686 44.78112
# Shear Modulus (GPa) = 22.50337 50.12120 36.31228
#
# Velocity S-wave (km/s) = 3.19121 4.76259 4.05377
# Velocity P-wave (km/s) = 5.50107 7.35465 6.49433
#
# Compressibility (1/GPa) = 0.02712571
#
# Stress axis : x y z
#
# Youngs Moduli (GPa) = 37.43649 118.59348 56.98857
#
# Poissons Ratio (x) = 0.15822 0.39862
# Poissons Ratio (y) = 0.04994 0.25383
# Poissons Ratio (z) = 0.26186 0.52821
#
# Static dielectric constant tensor:
#      x y z
#    x 1.869720 0.000000 -0.011000 
#    y 0.000000 1.892980 0.000000 
#    z -0.011000 0.000000 1.832970 
# 
# From -- ./inp_files/118802.got.cif
#   From: 2010.05.17/outbox.cif.g08.bks.cpg/sg12_60_cif.got.tgz:118802.got - 2010.06.03 13:09:07.
