data_PCOD9199474
_publ_section_title
;
Structure prediction by ZEFSAII (Michael W. Deem and Ramdas Pophale) SiO2 
 PCOD9199474
Probable space group: C 2/M
;
_chemical_formula_sum "Si O2"
_cell_formula_units_Z 48
_cell_length_a 30.633869
_cell_length_b 8.305884
_cell_length_c 9.633705
_cell_angle_alpha 90.000000
_cell_angle_beta 99.076420
_cell_angle_gamma 90.000000
_cell_volume 2420.520928
_symmetry_space_group_name_H-M "C 2/M"
_symmetry_group_IT_number 12
_symmetry_cell_setting 'monoclinic'
loop_
_space_group_symop_operation_xyz
x,y,z
-x,y,-z
-x,-y,-z
x,-y,z
1/2+x,1/2+y,z
1/2-x,1/2+y,-z
1/2-x,1/2-y,-z
1/2+x,1/2-y,z
loop_
_atom_site_type_symbol
_atom_site_label
_atom_site_fract_x
_atom_site_fract_y
_atom_site_fract_z
Si Si1 0.624360 0.306755 0.349168
Si Si2 0.472464 0.688923 0.612924
Si Si3 0.969223 0.684697 0.118874
Si Si4 0.373867 0.805216 0.965943
Si Si5 0.207950 0.693017 0.567950
Si Si6 0.708487 0.194623 0.888616
O O1 0.623716 0.500000 0.350009
O O2 0.576147 0.244436 0.375567
O O3 0.632278 0.253200 0.194464
O O4 0.663379 0.248620 0.468907
O O5 0.500000 0.763140 0.500000
O O6 0.465393 0.500000 0.578870
O O7 0.504778 0.709317 0.758647
O O8 0.964621 0.500000 0.169317
O O9 0.921284 0.746297 0.049781
O O10 0.000000 0.678295 0.000000
O O11 0.374187 0.000000 0.961754
O O12 0.335225 0.752062 0.050300
O O13 0.208433 0.500000 0.570823
O O14 0.250000 0.750000 0.500000
O O15 0.210073 0.750999 0.729328
O O16 0.708188 0.000000 0.885239
O O17 0.750000 0.250000 0.000000
#
# Coordination Sequence:
#
# PCOD9199474 Si02
#       6
#     8   8   8   8   8   8
#     4  11  23  39  60  88 120 158 201 242 293 351
#     4  10  23  40  57  83 122 162 201 245 293 348
#     4  10  20  36  60  88 116 152 199 244 292 349
#     4  10  21  39  61  87 119 153 194 247 298 348
#     4  11  24  42  64  90 121 155 194 240 293 353
#     4  10  23  41  62  88 117 149 190 238 290 348
#
# _framework density 19.830442000000001
#
# number of rings (size 3 to 8) (size 9 to 14) (size 15 to 20)
#    0.000    1.667    1.667    2.000    2.333    6.667 
#    0.000    0.000    0.000    0.000    0.000    0.000 
#    0.000    0.000    0.000    0.000    0.000    0.000 
#
# Total GULP energy -134037.535434 kJ/mol
# GULP energy per Si atom -5584.897310 kJ/mol
# Density = 1.978531 g / cm^3
# Si number density = 19.830442 Si / 1000 Ang^3
#
#
#
# Elastic Constant Matrix: (Units=GPa)
#
#
# Indices 1 2 3 4 5 6 
#
# 1 202.2940 21.3028 121.1082 0.0000 2.0641 0.0000
# 2 21.3028 16.0114 15.1393 0.0000 -7.0963 0.0000
# 3 121.1082 15.1393 172.3930 0.0000 -9.5917 0.0000
# 4 0.0000 0.0000 0.0000 27.4898 0.0000 8.3776
# 5 2.0641 -7.0963 -9.5917 0.0000 38.2288 0.0000
# 6 0.0000 0.0000 0.0000 8.3776 0.0000 31.5009
#
#
#
# Elastic Compliance Matrix: (Units=1/GPa)
#
#
# Indices 1 2 3 4 5 6 
#
# 1 0.009580 -0.008516 -0.006186 0.000000 -0.003650 0.000000
# 2 -0.008516 0.080860 -0.000262 0.000000 0.015404 0.000000
# 3 -0.006186 -0.000262 0.010329 0.000000 0.002877 0.000000
# 4 0.000000 0.000000 0.000000 0.039585 0.000000 -0.010528
# 5 -0.003650 0.015404 0.002877 0.000000 0.029937 0.000000
# 6 0.000000 0.000000 0.000000 -0.010528 0.000000 0.034545
#
#
# Mechanical properties :
#
#
# Convention : Reuss Voigt Hill
#
# Bulk Modulus (GPa) = 14.11560 78.42214 46.26887
# Shear Modulus (GPa) = 19.35160 34.98712 27.16936
#
# Velocity S-wave (km/s) = 3.12725 4.20493 3.70548
# Velocity P-wave (km/s) = 4.49146 7.95031 6.45680
#
# Compressibility (1/GPa) = 0.07084362
#
# Stress axis : x y z
#
# Youngs Moduli (GPa) = 104.37894 12.36711 96.81247
#
# Poissons Ratio (x) = 0.10531 0.59885
# Poissons Ratio (y) = 0.88885 0.02533
# Poissons Ratio (z) = 0.64565 0.00324
#
# Static dielectric constant tensor:
#      x y z
#    x 1.694740 0.000000 -0.021440 
#    y 0.000000 1.716780 0.000000 
#    z -0.021440 0.000000 1.664330 
# 
# From -- ./inp_files/108619.got.cif
#   From: 2010.05.17/outbox.cif.g08.bks.cpg/sg12_55_cif.got.tgz:108619.got - 2010.06.03 13:09:07.
