data_PCOD9199466
_publ_section_title
;
Structure prediction by ZEFSAII (Michael W. Deem and Ramdas Pophale) SiO2 
 PCOD9199466
Probable space group: C 2/M
;
_chemical_formula_sum "Si O2"
_cell_formula_units_Z 32
_cell_length_a 15.225792
_cell_length_b 10.693327
_cell_length_c 12.955108
_cell_angle_alpha 90.000000
_cell_angle_beta 40.537079
_cell_angle_gamma 90.000000
_cell_volume 1370.904022
_symmetry_space_group_name_H-M "C 2/M"
_symmetry_group_IT_number 12
_symmetry_cell_setting 'monoclinic'
loop_
_space_group_symop_operation_xyz
x,y,z
-x,y,-z
-x,-y,-z
x,-y,z
1/2+x,1/2+y,z
1/2-x,1/2+y,-z
1/2-x,1/2-y,-z
1/2+x,1/2-y,z
loop_
_atom_site_type_symbol
_atom_site_label
_atom_site_fract_x
_atom_site_fract_y
_atom_site_fract_z
Si Si1 0.150975 0.500000 0.640464
Si Si2 0.765562 0.264963 0.813842
Si Si3 0.657984 0.000000 0.386625
Si Si4 0.564464 0.500000 0.663522
Si Si5 0.144682 0.000000 0.316335
Si Si6 0.522130 0.243781 0.188048
O O1 0.163909 0.500000 0.504401
O O2 0.309149 0.500000 0.528735
O O3 0.069395 0.622427 0.745824
O O4 0.777978 0.377681 0.722982
O O5 0.889361 0.277544 0.786079
O O6 0.779324 0.131120 0.746330
O O7 0.628694 0.265340 0.001708
O O8 0.500000 0.000000 0.500000
O O9 0.413110 0.500000 0.751496
O O10 0.566982 0.368218 0.719390
O O11 0.000000 0.000000 0.500000
#
# Coordination Sequence:
#
# PCOD9199466 Si02
#       6
#     4   8   4   4   4   8
#     4  12  23  38  62  86 121 157 193 237 295 354
#     4  10  20  36  60  88 114 147 198 246 288 332
#     4  12  21  36  60  93 119 145 197 252 290 336
#     4  10  23  38  59  86 116 155 193 232 291 361
#     4  10  21  36  62  85 114 148 198 244 284 338
#     4  10  20  38  60  84 115 155 194 239 287 349
#
# _framework density 23.342261000000001
#
# number of rings (size 3 to 8) (size 9 to 14) (size 15 to 20)
#    0.000    1.500    2.500    3.000    3.500    4.000 
#    0.000    2.500    0.000    1.500    0.000    0.000 
#    0.000    0.000    0.000    0.000    0.000    0.000 
#
# Total GULP energy -89552.712527 kJ/mol
# GULP energy per Si atom -5597.044533 kJ/mol
# Density = 2.328913 g / cm^3
# Si number density = 23.342261 Si / 1000 Ang^3
#
#
#
# Elastic Constant Matrix: (Units=GPa)
#
#
# Indices 1 2 3 4 5 6 
#
# 1 76.8432 1.3812 5.8270 0.0000 -9.0133 0.0000
# 2 1.3812 209.2463 53.6438 0.0000 -17.4862 0.0000
# 3 5.8270 53.6438 99.4730 0.0000 -15.0342 0.0000
# 4 0.0000 0.0000 0.0000 79.5808 0.0000 1.4247
# 5 -9.0133 -17.4862 -15.0342 0.0000 34.3423 0.0000
# 6 0.0000 0.0000 0.0000 1.4247 0.0000 -8.5119
#
#
#
# Elastic Compliance Matrix: (Units=1/GPa)
#
#
# Indices 1 2 3 4 5 6 
#
# 1 0.013451 0.000314 -0.000428 0.000000 0.003503 0.000000
# 2 0.000314 0.005639 -0.002798 0.000000 0.001729 0.000000
# 3 -0.000428 -0.002798 0.012159 0.000000 0.003786 0.000000
# 4 0.000000 0.000000 0.000000 0.012528 0.000000 0.002097
# 5 0.003503 0.001729 0.003786 0.000000 0.032576 0.000000
# 6 0.000000 0.000000 0.000000 0.002097 0.000000 -0.117131
#
#
# Mechanical properties :
#
#
# Convention : Reuss Voigt Hill
#
# Bulk Modulus (GPa) = 39.33152 56.36297 47.84725
# Shear Modulus (GPa) = -188.82843 42.72959 -73.04942
#
# Velocity S-wave (km/s) = -9.00395 4.28316 -5.60026
# Velocity P-wave (km/s) = 9.55031 6.97562 4.61243
#
# Compressibility (1/GPa) = 0.02542490
#
# Stress axis : x y z
#
# Youngs Moduli (GPa) = 74.34305 177.34437 82.24262
#
# Poissons Ratio (x) = -0.05561 0.03517
# Poissons Ratio (y) = -0.02331 0.23011
# Poissons Ratio (z) = 0.03179 0.49621
#
# Static dielectric constant tensor:
#      x y z
#    x 2.170650 0.000000 0.026610 
#    y 0.000000 1.813310 0.000000 
#    z 0.026610 0.000000 1.788930 
# 
# From -- ./inp_files/70754.got.cif
#   From: 2010.05.17/outbox.cif.g08.bks.cpg/sg12_36_cif.got.tgz:70754.got - 2010.06.03 13:09:07.
