data_PCOD9199477
_publ_section_title
;
Structure prediction by ZEFSAII (Michael W. Deem and Ramdas Pophale) SiO2 
 PCOD9199477
Probable space group: C 2/M
;
_chemical_formula_sum "Si O2"
_cell_formula_units_Z 48
_cell_length_a 24.445553
_cell_length_b 13.993995
_cell_length_c 23.655953
_cell_angle_alpha 90.000000
_cell_angle_beta 17.938919
_cell_angle_gamma 90.000000
_cell_volume 2492.509826
_symmetry_space_group_name_H-M "C 2/M"
_symmetry_group_IT_number 12
_symmetry_cell_setting 'monoclinic'
loop_
_space_group_symop_operation_xyz
x,y,z
-x,y,-z
-x,-y,-z
x,-y,z
1/2+x,1/2+y,z
1/2-x,1/2+y,-z
1/2-x,1/2-y,-z
1/2+x,1/2-y,z
loop_
_atom_site_type_symbol
_atom_site_label
_atom_site_fract_x
_atom_site_fract_y
_atom_site_fract_z
Si Si1 0.376012 0.286899 0.326839
Si Si2 0.721504 0.106210 0.897541
Si Si3 0.172867 0.609833 0.710665
Si Si4 0.447633 0.890811 0.393049
Si Si5 0.008914 0.229382 0.556350
Si Si6 0.240526 0.113407 0.004495
O O1 0.250000 0.250000 0.500000
O O2 0.363354 0.195296 0.298322
O O3 0.571268 0.323965 0.151415
O O4 0.258562 0.375835 0.420265
O O5 0.833197 0.179197 0.752015
O O6 0.727164 0.126970 0.959857
O O7 0.799253 0.000000 0.815454
O O8 0.521328 0.103722 0.071481
O O9 0.210279 0.500000 0.652816
O O10 0.333135 0.652066 0.589491
O O11 0.470729 0.819363 0.422374
O O12 0.483280 0.000000 0.372966
O O13 0.585620 0.866968 0.205739
O O14 0.000000 0.256339 0.500000
O O15 0.202166 0.000000 0.035252
#
# Coordination Sequence:
#
# PCOD9199477 Si02
#       6
#     8   8   8   8   8   8
#     4  11  21  32  54  85 120 153 182 223 273 334
#     4  10  21  37  58  85 117 149 183 226 278 337
#     4  10  22  38  55  79 111 147 187 231 279 331
#     4  10  22  39  59  84 114 149 189 233 281 331
#     4  11  24  40  59  82 109 146 192 238 283 331
#     4  10  20  36  60  88 117 149 185 226 277 337
#
# _framework density 19.257698000000001
#
# number of rings (size 3 to 8) (size 9 to 14) (size 15 to 20)
#    0.000    1.667    0.000    5.000    0.000    8.333 
#    0.000    1.667    0.000    0.000    0.000    9.333 
#    0.000    0.000    0.000    0.000    0.000    0.000 
#
# Total GULP energy -133767.715633 kJ/mol
# GULP energy per Si atom -5573.654818 kJ/mol
# Density = 1.921387 g / cm^3
# Si number density = 19.257698 Si / 1000 Ang^3
#
#
#
# Elastic Constant Matrix: (Units=GPa)
#
#
# Indices 1 2 3 4 5 6 
#
# 1 -25.9996 -11.8993 8.3475 0.0022 47.8999 -0.0106
# 2 -11.8993 91.9104 33.6129 0.0077 23.2687 0.0201
# 3 8.3475 33.6129 88.7410 0.0144 -1.9723 0.0414
# 4 0.0022 0.0077 0.0144 35.9349 -0.0022 -0.4385
# 5 47.8999 23.2687 -1.9723 -0.0022 7.7500 -0.0012
# 6 -0.0106 0.0201 0.0414 -0.4385 -0.0012 -42.4360
#
#
#
# Elastic Compliance Matrix: (Units=1/GPa)
#
#
# Indices 1 2 3 4 5 6 
#
# 1 -0.000151 -0.005763 0.002618 0.000001 0.018907 -0.000001
# 2 -0.005763 0.011422 -0.003776 -0.000001 0.000367 0.000003
# 3 0.002618 -0.003776 0.012415 -0.000004 -0.001681 0.000010
# 4 0.000001 -0.000001 -0.000004 0.027825 0.000000 -0.000288
# 5 0.018907 0.000367 -0.001681 0.000000 0.010647 -0.000006
# 6 -0.000001 0.000003 0.000010 -0.000288 -0.000006 -0.023562
#
#
# Mechanical properties :
#
#
# Convention : Reuss Voigt Hill
#
# Bulk Modulus (GPa) = 101.60563 23.86378 62.73471
# Shear Modulus (GPa) = 89.73462 8.55581 49.14522
#
# Velocity S-wave (km/s) = 6.83359 2.11008 5.05719
# Velocity P-wave (km/s) = 10.73031 4.28431 8.16991
#
# Compressibility (1/GPa) = 0.00984197
#
# Stress axis : x y z
#
# Youngs Moduli (GPa) = -6601.30787 87.55036 80.54478
#
# Poissons Ratio (x) = 0.50459 -0.21083
# Poissons Ratio (y) = -38.04627 0.30414
# Poissons Ratio (z) = 17.27904 0.33060
#
# Static dielectric constant tensor:
#      x y z
#    x 1.637980 0.000110 -0.095630 
#    y 0.000110 1.666180 0.000160 
#    z -0.095630 0.000160 1.559380 
# 
# From -- ./inp_files/349606.got.cif
#   From: 2010.05.17/outbox.cif.g08.bks.cpg/sg12_175_cif.got.tgz:349606.got - 2010.06.03 13:09:07.
