data_PCOD9199159
_publ_section_title
;
Structure prediction by ZEFSAII (Michael W. Deem and Ramdas Pophale) SiO2 
 PCOD9199159
Probable space group: C 2/M
;
_chemical_formula_sum "Si O2"
_cell_formula_units_Z 60
_cell_length_a 7.678940
_cell_length_b 30.510891
_cell_length_c 13.014381
_cell_angle_alpha 90.000000
_cell_angle_beta 71.422198
_cell_angle_gamma 90.000000
_cell_volume 2890.270560
_symmetry_space_group_name_H-M "C 2/M"
_symmetry_group_IT_number 12
_symmetry_cell_setting 'monoclinic'
loop_
_space_group_symop_operation_xyz
x,y,z
-x,y,-z
-x,-y,-z
x,-y,z
1/2+x,1/2+y,z
1/2-x,1/2+y,-z
1/2-x,1/2-y,-z
1/2+x,1/2-y,z
loop_
_atom_site_type_symbol
_atom_site_label
_atom_site_fract_x
_atom_site_fract_y
_atom_site_fract_z
Si Si1 0.531060 0.952494 0.616993
Si Si2 0.504065 0.195832 0.237179
Si Si3 0.613001 0.451764 0.759787
Si Si4 0.056070 0.138001 0.657070
Si Si5 0.294577 0.859567 0.422691
Si Si6 0.633192 0.294230 0.177128
Si Si7 0.500000 0.419645 0.000000
Si Si8 0.806531 0.652084 0.975396
O O1 0.500000 0.952662 0.500000
O O2 0.333401 0.950017 0.707797
O O3 0.639313 0.908322 0.618175
O O4 0.616801 0.000000 0.627499
O O5 0.442697 0.176159 0.357589
O O6 0.579645 0.244761 0.212606
O O7 0.317269 0.195964 0.206106
O O8 0.641107 0.164212 0.150342
O O9 0.554763 0.500000 0.732183
O O10 0.542698 0.410368 0.707727
O O11 0.555305 0.446259 0.888582
O O12 0.237279 0.142027 0.552775
O O13 0.888776 0.146511 0.610264
O O14 0.026876 0.173756 0.751570
O O15 0.694357 0.308053 0.051006
O O16 0.671511 0.389006 0.000403
O O17 0.000000 0.645025 0.000000
#
# Coordination Sequence:
#
# PCOD9199159 Si02
#       8
#     8   8   8   8   8   8   4   8
#     4  10  20  36  59  87 117 150 196 249 296 355
#     4  10  22  36  57  87 120 154 201 254 299 357
#     4  11  23  40  61  91 121 152 202 253 300 371
#     4  10  21  39  60  84 119 160 200 248 300 362
#     4  10  21  38  60  85 118 159 199 247 306 355
#     4  10  21  38  56  84 122 156 202 252 299 360
#     4  12  23  40  70  88 122 172 196 244 327 364
#     4  10  22  39  62  92 122 158 210 255 298 367
#
# _framework density 20.759302999999999
#
# number of rings (size 3 to 8) (size 9 to 14) (size 15 to 20)
#    0.000    1.733    2.667    1.400    1.867    2.133 
#    0.000    1.333    0.000    0.800    0.000    0.000 
#    0.000    0.000    0.000    0.000    0.000    0.000 
#
# Total GULP energy -167462.528214 kJ/mol
# GULP energy per Si atom -5582.084274 kJ/mol
# Density = 2.071205 g / cm^3
# Si number density = 20.759303 Si / 1000 Ang^3
#
#
#
# Elastic Constant Matrix: (Units=GPa)
#
#
# Indices 1 2 3 4 5 6 
#
# 1 50.8132 20.9562 30.6728 0.0000 -10.9752 0.0000
# 2 20.9562 67.3925 18.7541 0.0000 -24.2817 0.0000
# 3 30.6728 18.7541 125.7659 0.0000 -35.8425 0.0000
# 4 0.0000 0.0000 0.0000 32.0549 0.0000 -9.0858
# 5 -10.9752 -24.2817 -35.8425 0.0000 31.7437 0.0000
# 6 0.0000 0.0000 0.0000 -9.0858 0.0000 25.2027
#
#
#
# Elastic Compliance Matrix: (Units=1/GPa)
#
#
# Indices 1 2 3 4 5 6 
#
# 1 0.025797 -0.007758 -0.006317 0.000000 -0.004148 0.000000
# 2 -0.007758 0.023193 0.004018 0.000000 0.019596 0.000000
# 3 -0.006317 0.004018 0.013486 0.000000 0.016117 0.000000
# 4 0.000000 0.000000 0.000000 0.034747 0.000000 0.012527
# 5 -0.004148 0.019596 0.016117 0.000000 0.063256 0.000000
# 6 0.000000 0.000000 0.000000 0.012527 0.000000 0.044194
#
#
# Mechanical properties :
#
#
# Convention : Reuss Voigt Hill
#
# Bulk Modulus (GPa) = 23.60582 42.74865 33.17723
# Shear Modulus (GPa) = 20.92863 29.37283 25.15073
#
# Velocity S-wave (km/s) = 3.17859 3.76563 3.48449
# Velocity P-wave (km/s) = 4.98670 6.28839 5.67499
#
# Compressibility (1/GPa) = 0.04236244
#
# Stress axis : x y z
#
# Youngs Moduli (GPa) = 38.76464 43.11600 74.15170
#
# Poissons Ratio (x) = 0.33451 0.46839
# Poissons Ratio (y) = 0.30075 -0.29797
# Poissons Ratio (z) = 0.24486 -0.17326
#
# Static dielectric constant tensor:
#      x y z
#    x 1.752900 0.000000 -0.009890 
#    y 0.000000 1.750630 0.000000 
#    z -0.009890 0.000000 1.761380 
# 
# From -- ./inp_files/125719.got.cif
#   From: 2010.05.17/outbox.cif.g08.bks.cpg/sg12_63_cif.got.tgz:125719.got - 2010.06.03 13:09:07.
