data_PCOD9199833
_publ_section_title
;
Structure prediction by ZEFSAII (Michael W. Deem and Ramdas Pophale) SiO2 
 PCOD9199833
Probable space group: C 2/M
;
_chemical_formula_sum "Si O2"
_cell_formula_units_Z 48
_cell_length_a 21.701018
_cell_length_b 13.964668
_cell_length_c 12.347438
_cell_angle_alpha 90.000000
_cell_angle_beta 40.572589
_cell_angle_gamma 90.000000
_cell_volume 2433.746758
_symmetry_space_group_name_H-M "C 2/M"
_symmetry_group_IT_number 12
_symmetry_cell_setting 'monoclinic'
loop_
_space_group_symop_operation_xyz
x,y,z
-x,y,-z
-x,-y,-z
x,-y,z
1/2+x,1/2+y,z
1/2-x,1/2+y,-z
1/2-x,1/2-y,-z
1/2+x,1/2-y,z
loop_
_atom_site_type_symbol
_atom_site_label
_atom_site_fract_x
_atom_site_fract_y
_atom_site_fract_z
Si Si1 0.589775 0.614810 0.456415
Si Si2 0.202528 0.615405 0.874751
Si Si3 0.867988 0.613317 0.599160
Si Si4 0.403308 0.109719 0.196115
Si Si5 0.918942 0.616019 0.763135
Si Si6 0.838496 0.740365 0.462450
O O1 0.500000 0.641547 0.500000
O O2 0.583479 0.500000 0.485969
O O3 0.686333 0.633533 0.259822
O O4 0.609636 0.672215 0.542937
O O5 0.190798 0.500000 0.891975
O O6 0.172948 0.641424 0.792047
O O7 0.132306 0.653752 0.061080
O O8 0.857912 0.500000 0.602332
O O9 0.858425 0.639243 0.737010
O O10 0.802733 0.671210 0.606373
O O11 0.974007 0.640278 0.415426
O O12 0.408355 0.179675 0.290692
O O13 0.383106 0.000000 0.259856
O O14 0.500000 0.107339 0.000000
O O15 0.921614 0.500000 0.768465
O O16 0.750000 0.750000 0.500000
#
# Coordination Sequence:
#
# PCOD9199833 Si02
#       6
#     8   8   8   8   8   8
#     4  10  23  42  60  80 113 164 218 259 290 342
#     4   9  16  32  57  83 111 149 199 242 287 352
#     4   9  18  32  53  86 122 150 178 231 314 378
#     4  10  20  36  61  93 126 155 186 243 319 381
#     4   8  15  30  55  85 115 145 179 231 303 372
#     4  12  23  36  58  86 119 155 201 249 303 362
#
# _framework density 19.722676
#
# number of rings (size 3 to 8) (size 9 to 14) (size 15 to 20)
#    0.000    2.333    1.667    2.500    2.333    3.333 
#    0.000    2.500    0.000    0.500    0.000    0.000 
#    0.000    0.000    0.000    0.000    0.000    0.000 
#
# Total GULP energy -133643.955267 kJ/mol
# GULP energy per Si atom -5568.498136 kJ/mol
# Density = 1.967779 g / cm^3
# Si number density = 19.722676 Si / 1000 Ang^3
#
#
#
# Elastic Constant Matrix: (Units=GPa)
#
#
# Indices 1 2 3 4 5 6 
#
# 1 144.8145 50.8277 38.2371 0.0000 5.7892 0.0000
# 2 50.8277 90.9464 24.3656 0.0000 12.0279 0.0000
# 3 38.2371 24.3656 72.9640 0.0000 15.2416 0.0000
# 4 0.0000 0.0000 0.0000 6.2449 0.0000 11.1376
# 5 5.7892 12.0279 15.2416 0.0000 31.1218 0.0000
# 6 0.0000 0.0000 0.0000 11.1376 0.0000 38.8871
#
#
#
# Elastic Compliance Matrix: (Units=1/GPa)
#
#
# Indices 1 2 3 4 5 6 
#
# 1 0.009414 -0.004482 -0.003824 0.000000 0.001854 0.000000
# 2 -0.004482 0.014466 -0.001658 0.000000 -0.003945 0.000000
# 3 -0.003824 -0.001658 0.017802 0.000000 -0.007366 0.000000
# 4 0.000000 0.000000 0.000000 0.327330 0.000000 -0.093750
# 5 0.001854 -0.003945 -0.007366 0.000000 0.036919 0.000000
# 6 0.000000 0.000000 0.000000 -0.093750 0.000000 0.052566
#
#
# Mechanical properties :
#
#
# Convention : Reuss Voigt Hill
#
# Bulk Modulus (GPa) = 45.96801 59.50954 52.73877
# Shear Modulus (GPa) = 10.29491 28.27038 19.28265
#
# Velocity S-wave (km/s) = 2.28717 3.79013 3.13019
# Velocity P-wave (km/s) = 5.50751 7.02795 6.31367
#
# Compressibility (1/GPa) = 0.02175426
#
# Stress axis : x y z
#
# Youngs Moduli (GPa) = 106.22375 69.12614 56.17417
#
# Poissons Ratio (x) = 0.30982 0.21481
# Poissons Ratio (y) = 0.47609 0.09313
# Poissons Ratio (z) = 0.40620 0.11461
#
# Static dielectric constant tensor:
#      x y z
#    x 1.818360 0.000000 -0.045440 
#    y 0.000000 1.750800 0.000000 
#    z -0.045440 0.000000 1.728790 
# 
# From -- ./inp_files/143914.got.cif
#   From: 2010.05.17/outbox.cif.g08.bks.cpg/sg12_72_cif.got.tgz:143914.got - 2010.06.03 13:09:07.
