data_PCOD9199586
_publ_section_title
;
Structure prediction by ZEFSAII (Michael W. Deem and Ramdas Pophale) SiO2 
 PCOD9199586
Probable space group: C 2/M
;
_chemical_formula_sum "Si O2"
_cell_formula_units_Z 64
_cell_length_a 19.034962
_cell_length_b 8.774032
_cell_length_c 21.273499
_cell_angle_alpha 90.000000
_cell_angle_beta 71.561054
_cell_angle_gamma 90.000000
_cell_volume 3370.554156
_symmetry_space_group_name_H-M "C 2/M"
_symmetry_group_IT_number 12
_symmetry_cell_setting 'monoclinic'
loop_
_space_group_symop_operation_xyz
x,y,z
-x,y,-z
-x,-y,-z
x,-y,z
1/2+x,1/2+y,z
1/2-x,1/2+y,-z
1/2-x,1/2-y,-z
1/2+x,1/2-y,z
loop_
_atom_site_type_symbol
_atom_site_label
_atom_site_fract_x
_atom_site_fract_y
_atom_site_fract_z
Si Si1 0.373242 0.818533 0.869477
Si Si2 0.399198 0.820141 0.311801
Si Si3 0.663755 0.821698 0.339902
Si Si4 0.568624 0.317612 0.025465
Si Si5 0.559257 0.321094 0.275325
Si Si6 0.789072 0.679905 0.082307
Si Si7 0.762581 0.816775 0.427709
Si Si8 0.295066 0.176297 0.228851
O O1 0.399129 0.764023 0.793533
O O2 0.292200 0.748479 0.906437
O O3 0.369198 0.000000 0.872710
O O4 0.430084 0.758016 0.906145
O O5 0.474604 0.730329 0.299111
O O6 0.334847 0.757035 0.375208
O O7 0.368269 0.801569 0.249585
O O8 0.410550 0.000000 0.319775
O O9 0.597114 0.726154 0.330039
O O10 0.693929 0.781011 0.400390
O O11 0.733064 0.786767 0.274366
O O12 0.645523 0.000000 0.343404
O O13 0.567185 0.500000 0.032460
O O14 0.645321 0.264343 0.972173
O O15 0.500000 0.272008 0.000000
O O16 0.567003 0.500000 0.262629
O O17 0.789178 0.500000 0.066431
O O18 0.804348 0.696500 0.152470
O O19 0.750000 0.750000 0.500000
O O20 0.770384 0.000000 0.427063
O O21 0.270449 0.000000 0.246576
#
# Coordination Sequence:
#
# PCOD9199586 Si02
#       8
#     8   8   8   8   8   8   8   8
#     4  12  25  42  64  88 117 158 203 249 304 364
#     4  10  21  38  60  90 125 161 201 247 299 353
#     4  10  20  36  60  90 122 157 200 244 290 348
#     4  11  26  45  62  86 119 156 200 252 308 365
#     4  12  24  39  60  90 126 160 199 250 305 358
#     4  11  22  39  63  90 119 154 200 248 301 364
#     4  10  21  39  64  94 126 164 205 246 293 351
#     4   9  19  35  58  87 117 153 196 243 294 353
#
# _framework density 18.987977000000001
#
# number of rings (size 3 to 8) (size 9 to 14) (size 15 to 20)
#    0.000    1.375    1.250    4.500    1.750    3.500 
#    0.000    0.625    0.000    3.750    0.000    0.000 
#    0.000    0.000    0.000    0.000    0.000    0.000 
#
# Total GULP energy -178894.496126 kJ/mol
# GULP energy per Si atom -5590.453004 kJ/mol
# Density = 1.894476 g / cm^3
# Si number density = 18.987977 Si / 1000 Ang^3
#
#
#
# Elastic Constant Matrix: (Units=GPa)
#
#
# Indices 1 2 3 4 5 6 
#
# 1 100.4350 33.5041 35.2599 0.0000 17.7749 0.0000
# 2 33.5041 81.1547 32.8743 0.0000 16.6102 0.0000
# 3 35.2599 32.8743 88.1048 0.0000 23.7207 0.0000
# 4 0.0000 0.0000 0.0000 29.3694 0.0000 -0.7298
# 5 17.7749 16.6102 23.7207 0.0000 21.0833 0.0000
# 6 0.0000 0.0000 0.0000 -0.7298 0.0000 31.2589
#
#
#
# Elastic Compliance Matrix: (Units=1/GPa)
#
#
# Indices 1 2 3 4 5 6 
#
# 1 0.012867 -0.003173 -0.002464 0.000000 -0.005576 0.000000
# 2 -0.003173 0.016216 -0.002957 0.000000 -0.006774 0.000000
# 3 -0.002464 -0.002957 0.017578 0.000000 -0.015369 0.000000
# 4 0.000000 0.000000 0.000000 0.034069 0.000000 0.000795
# 5 -0.005576 -0.006774 -0.015369 0.000000 0.074760 0.000000
# 6 0.000000 0.000000 0.000000 0.000795 0.000000 0.032009
#
#
# Mechanical properties :
#
#
# Convention : Reuss Voigt Hill
#
# Bulk Modulus (GPa) = 33.93022 52.55234 43.24128
# Shear Modulus (GPa) = 23.30870 27.54607 25.42739
#
# Velocity S-wave (km/s) = 3.50744 3.81295 3.66338
# Velocity P-wave (km/s) = 5.85756 6.86451 6.38093
#
# Compressibility (1/GPa) = 0.02947225
#
# Stress axis : x y z
#
# Youngs Moduli (GPa) = 77.71813 61.66648 56.89018
#
# Poissons Ratio (x) = 0.19564 0.14021
# Poissons Ratio (y) = 0.24656 0.16824
# Poissons Ratio (z) = 0.19154 0.18237
#
# Static dielectric constant tensor:
#      x y z
#    x 1.648230 0.000000 0.029140 
#    y 0.000000 1.637400 0.000000 
#    z 0.029140 0.000000 1.647980 
# 
# From -- ./inp_files/314051.got.cif
#   From: 2010.05.17/outbox.cif.g08.bks.cpg/sg12_158_cif.got.tgz:314051.got - 2010.06.03 13:09:07.
