data_PCOD9199702
_publ_section_title
;
Structure prediction by ZEFSAII (Michael W. Deem and Ramdas Pophale) SiO2 
 PCOD9199702
Probable space group: C 2/M
;
_chemical_formula_sum "Si O2"
_cell_formula_units_Z 48
_cell_length_a 29.397996
_cell_length_b 18.355278
_cell_length_c 13.208628
_cell_angle_alpha 90.000000
_cell_angle_beta 20.697783
_cell_angle_gamma 90.000000
_cell_volume 2519.129181
_symmetry_space_group_name_H-M "C 2/M"
_symmetry_group_IT_number 12
_symmetry_cell_setting 'monoclinic'
loop_
_space_group_symop_operation_xyz
x,y,z
-x,y,-z
-x,-y,-z
x,-y,z
1/2+x,1/2+y,z
1/2-x,1/2+y,-z
1/2-x,1/2-y,-z
1/2+x,1/2-y,z
loop_
_atom_site_type_symbol
_atom_site_label
_atom_site_fract_x
_atom_site_fract_y
_atom_site_fract_z
Si Si1 0.342237 0.587779 0.943205
Si Si2 0.517590 0.715069 0.844054
Si Si3 0.809326 0.086980 0.568073
Si Si4 0.752982 0.817801 0.313902
Si Si5 0.351012 0.412673 0.700614
Si Si6 0.149870 0.585819 0.705999
O O1 0.323249 0.500000 0.993034
O O2 0.496253 0.601499 0.630656
O O3 0.306121 0.612978 0.904401
O O4 0.270405 0.632045 0.179485
O O5 0.567502 0.632344 0.725373
O O6 0.630855 0.765194 0.564881
O O7 0.500000 0.729108 0.000000
O O8 0.384516 0.724978 0.062579
O O9 0.782392 0.110345 0.739943
O O10 0.696426 0.101161 0.722918
O O11 0.834821 0.000000 0.515051
O O12 0.731943 0.868131 0.456354
O O13 0.339390 0.500000 0.731051
O O14 0.169878 0.500000 0.645824
O O15 0.000000 0.601377 0.000000
#
# Coordination Sequence:
#
# PCOD9199702 Si02
#       6
#     8   8   8   8   8   8
#     4   9  17  33  60  90 115 147 191 246 294 342
#     4  12  25  39  56  85 120 162 196 242 294 349
#     4  10  20  36  61  88 114 146 192 243 291 347
#     4  12  24  38  58  84 121 160 200 239 289 355
#     4   8  15  31  59  90 117 143 185 246 302 338
#     4  10  22  38  59  88 119 152 192 246 298 343
#
# _framework density 19.054203000000001
#
# number of rings (size 3 to 8) (size 9 to 14) (size 15 to 20)
#    0.000    1.833    3.333    2.500    2.333    1.000 
#    0.000    0.833    0.000    1.000    0.000    5.833 
#    0.000    0.000    0.000    0.000    0.000    0.000 
#
# Total GULP energy -133954.018579 kJ/mol
# GULP energy per Si atom -5581.417441 kJ/mol
# Density = 1.901084 g / cm^3
# Si number density = 19.054203 Si / 1000 Ang^3
#
#
#
# Elastic Constant Matrix: (Units=GPa)
#
#
# Indices 1 2 3 4 5 6 
#
# 1 158.7703 48.9598 71.7805 0.0000 21.2643 0.0000
# 2 48.9598 70.1675 45.6005 0.0000 8.3719 0.0000
# 3 71.7805 45.6005 97.5469 0.0001 -1.4665 0.0000
# 4 0.0000 0.0000 0.0001 27.9446 0.0000 3.6677
# 5 21.2643 8.3719 -1.4665 0.0000 29.6606 0.0000
# 6 0.0000 0.0000 0.0000 3.6677 0.0000 2.2055
#
#
#
# Elastic Compliance Matrix: (Units=1/GPa)
#
#
# Indices 1 2 3 4 5 6 
#
# 1 0.011427 -0.002127 -0.007534 0.000000 -0.007965 0.000000
# 2 -0.002127 0.022096 -0.008842 0.000000 -0.005149 0.000000
# 3 -0.007534 -0.008842 0.020063 0.000000 0.008889 0.000000
# 4 0.000000 0.000000 0.000000 0.045777 0.000000 -0.076127
# 5 -0.007965 -0.005149 0.008889 0.000000 0.041318 0.000000
# 6 0.000000 0.000000 0.000000 -0.076127 0.000000 0.580022
#
#
# Mechanical properties :
#
#
# Convention : Reuss Voigt Hill
#
# Bulk Modulus (GPa) = 60.31290 73.24071 66.77680
# Shear Modulus (GPa) = 6.55106 22.63839 14.59473
#
# Velocity S-wave (km/s) = 1.85623 3.45063 2.77060
# Velocity P-wave (km/s) = 6.02629 7.37545 6.73474
#
# Compressibility (1/GPa) = 0.01658020
#
# Stress axis : x y z
#
# Youngs Moduli (GPa) = 87.51006 45.25713 49.84387
#
# Poissons Ratio (x) = 0.09625 0.37554
# Poissons Ratio (y) = 0.18610 0.44071
# Poissons Ratio (z) = 0.65934 0.40015
#
# Static dielectric constant tensor:
#      x y z
#    x 1.696780 0.000000 -0.005110 
#    y 0.000000 1.678570 0.000000 
#    z -0.005110 0.000000 1.632950 
# 
# From -- ./inp_files/184763.got.cif
#   From: 2010.05.17/outbox.cif.g08.bks.cpg/sg12_93_cif.got.tgz:184763.got - 2010.06.03 13:09:07.
