data_PCOD9199476
_publ_section_title
;
Structure prediction by ZEFSAII (Michael W. Deem and Ramdas Pophale) SiO2 
 PCOD9199476
Probable space group: C 2/M
;
_chemical_formula_sum "Si O2"
_cell_formula_units_Z 64
_cell_length_a 18.283279
_cell_length_b 20.005052
_cell_length_c 11.648166
_cell_angle_alpha 90.000000
_cell_angle_beta 131.144664
_cell_angle_gamma 90.000000
_cell_volume 3208.304267
_symmetry_space_group_name_H-M "C 2/M"
_symmetry_group_IT_number 12
_symmetry_cell_setting 'monoclinic'
loop_
_space_group_symop_operation_xyz
x,y,z
-x,y,-z
-x,-y,-z
x,-y,z
1/2+x,1/2+y,z
1/2-x,1/2+y,-z
1/2-x,1/2-y,-z
1/2+x,1/2-y,z
loop_
_atom_site_type_symbol
_atom_site_label
_atom_site_fract_x
_atom_site_fract_y
_atom_site_fract_z
Si Si1 0.140390 0.181214 0.343033
Si Si2 0.885113 0.701459 0.862850
Si Si3 0.435101 0.925353 0.774016
Si Si4 0.112274 0.665827 0.891980
Si Si5 0.956243 0.737854 0.569966
Si Si6 0.750119 0.424077 0.116795
Si Si7 0.979014 0.924805 0.113741
Si Si8 0.173310 0.611958 0.557673
O O1 0.146306 0.239259 0.252874
O O2 0.120978 0.216877 0.443304
O O3 0.237477 0.140046 0.424574
O O4 0.048966 0.132040 0.233396
O O5 0.878697 0.629889 0.792189
O O6 0.842982 0.699839 0.947878
O O7 0.000000 0.713745 0.000000
O O8 0.541382 0.892752 0.867439
O O9 0.389773 0.927779 0.599819
O O10 0.435509 0.000000 0.822312
O O11 0.190060 0.630811 0.891281
O O12 0.040611 0.715167 0.746866
O O13 0.898018 0.671144 0.475438
O O14 0.000000 0.768450 0.500000
O O15 0.769005 0.500000 0.094722
O O16 0.782997 0.421248 0.283948
O O17 0.635094 0.411054 0.988859
O O18 0.000041 0.000000 0.180503
O O19 0.000000 0.926265 0.000000
#
# Coordination Sequence:
#
# PCOD9199476 Si02
#       8
#     8   8   8   8   8   8   8   8
#     4  12  22  41  65  84 123 159 195 259 293 347
#     4  10  20  36  60  88 116 159 202 232 296 355
#     4  10  21  36  57  86 121 157 200 240 286 359
#     4  10  21  37  57  87 123 157 194 240 296 351
#     4  11  22  39  58  88 124 152 195 238 298 363
#     4  11  22  37  59  89 122 158 198 248 305 348
#     4  10  22  39  61  89 113 150 205 254 301 349
#     4  11  22  36  59  86 116 161 199 242 296 351
#
# _framework density 19.948232999999998
#
# number of rings (size 3 to 8) (size 9 to 14) (size 15 to 20)
#    0.000    1.375    6.250    1.500    0.000    3.250 
#    2.250    3.125    0.000    0.375    0.000    0.000 
#    0.000    0.000    0.000    0.000    0.000    0.000 
#
# Total GULP energy -178679.548020 kJ/mol
# GULP energy per Si atom -5583.735876 kJ/mol
# Density = 1.990283 g / cm^3
# Si number density = 19.948233 Si / 1000 Ang^3
#
#
#
# Elastic Constant Matrix: (Units=GPa)
#
#
# Indices 1 2 3 4 5 6 
#
# 1 88.7036 13.6581 17.5690 0.0000 -9.7080 0.0000
# 2 13.6581 64.8910 18.4479 0.0000 -1.5555 0.0000
# 3 17.5690 18.4479 55.8073 0.0000 -10.0867 0.0000
# 4 0.0000 0.0000 0.0000 9.8416 0.0000 2.4101
# 5 -9.7080 -1.5555 -10.0867 0.0000 25.2235 0.0000
# 6 0.0000 0.0000 0.0000 2.4101 0.0000 9.9670
#
#
#
# Elastic Compliance Matrix: (Units=1/GPa)
#
#
# Indices 1 2 3 4 5 6 
#
# 1 0.012475 -0.001775 -0.002687 0.000000 0.003617 0.000000
# 2 -0.001775 0.017301 -0.005487 0.000000 -0.001811 0.000000
# 3 -0.002687 -0.005487 0.021914 0.000000 0.007391 0.000000
# 4 0.000000 0.000000 0.000000 0.108005 0.000000 -0.026117
# 5 0.003617 -0.001811 0.007391 0.000000 0.043882 0.000000
# 6 0.000000 0.000000 0.000000 -0.026117 0.000000 0.106647
#
#
# Mechanical properties :
#
#
# Convention : Reuss Voigt Hill
#
# Bulk Modulus (GPa) = 31.45494 34.30577 32.88035
# Shear Modulus (GPa) = 14.67483 19.65487 17.16485
#
# Velocity S-wave (km/s) = 2.71522 3.14234 2.93656
# Velocity P-wave (km/s) = 5.06285 5.51366 5.29306
#
# Compressibility (1/GPa) = 0.03179151
#
# Stress axis : x y z
#
# Youngs Moduli (GPa) = 80.16110 57.80115 45.63207
#
# Poissons Ratio (x) = 0.10261 0.12260
# Poissons Ratio (y) = 0.14230 0.25040
# Poissons Ratio (z) = 0.21537 0.31718
#
# Static dielectric constant tensor:
#      x y z
#    x 1.691780 0.000000 -0.015200 
#    y 0.000000 1.736070 0.000000 
#    z -0.015200 0.000000 1.728120 
# 
# From -- ./inp_files/159587.got.cif
#   From: 2010.05.17/outbox.cif.g08.bks.cpg/sg12_80_cif.got.tgz:159587.got - 2010.06.03 13:09:07.
