data_PCOD9199310
_publ_section_title
;
Structure prediction by ZEFSAII (Michael W. Deem and Ramdas Pophale) SiO2 
 PCOD9199310
Probable space group: C 2/M
;
_chemical_formula_sum "Si O2"
_cell_formula_units_Z 52
_cell_length_a 12.803947
_cell_length_b 12.584892
_cell_length_c 26.412408
_cell_angle_alpha 90.000000
_cell_angle_beta 45.012348
_cell_angle_gamma 90.000000
_cell_volume 3010.093156
_symmetry_space_group_name_H-M "C 2/M"
_symmetry_group_IT_number 12
_symmetry_cell_setting 'monoclinic'
loop_
_space_group_symop_operation_xyz
x,y,z
-x,y,-z
-x,-y,-z
x,-y,z
1/2+x,1/2+y,z
1/2-x,1/2+y,-z
1/2-x,1/2-y,-z
1/2+x,1/2-y,z
loop_
_atom_site_type_symbol
_atom_site_label
_atom_site_fract_x
_atom_site_fract_y
_atom_site_fract_z
Si Si1 0.976816 0.375118 0.104370
Si Si2 0.186184 0.374929 0.129165
Si Si3 0.500000 0.272964 0.000000
Si Si4 0.173055 0.764382 0.232402
Si Si5 0.831587 0.627713 0.669924
Si Si6 0.102998 0.376314 0.515157
Si Si7 0.134337 0.871884 0.639288
O O1 0.986523 0.500000 0.088537
O O2 0.020710 0.302194 0.041830
O O3 0.809195 0.342967 0.175502
O O4 0.081544 0.354651 0.116755
O O5 0.176504 0.500000 0.144943
O O6 0.142643 0.302498 0.191883
O O7 0.354150 0.343240 0.058103
O O8 0.214997 0.683297 0.262705
O O9 0.027472 0.825032 0.300623
O O10 0.835595 0.500000 0.674121
O O11 0.720504 0.652052 0.662086
O O12 0.994964 0.665262 0.595781
O O13 0.129580 0.500000 0.518788
O O14 0.259537 0.331460 0.442773
O O15 0.000000 0.375416 0.500000
O O16 0.127402 0.000000 0.637404
#
# Coordination Sequence:
#
# PCOD9199310 Si02
#       7
#     8   8   4   8   8   8   8
#     4  10  21  36  52  73 101 126 150 188 235 278
#     4  10  21  36  52  73 101 126 150 188 235 278
#     4  10  20  36  60  78  88 118 164 194 220 272
#     4  11  20  30  48  73  98 128 160 187 228 286
#     4   9  17  30  47  67  93 125 162 202 238 274
#     4   7  12  25  44  64  88 120 158 202 244 270
#     4   9  17  30  47  67  93 125 162 202 238 274
#
# _framework density 17.275213000000001
#
# number of rings (size 3 to 8) (size 9 to 14) (size 15 to 20)
#    0.000    2.615    0.000    4.615    0.000    0.615 
#    0.000    0.000    0.000   14.769    0.000    0.000 
#    0.000   19.692    0.000    0.000    0.000    0.000 
#
# Total GULP energy -144870.102005 kJ/mol
# GULP energy per Si atom -5571.927000 kJ/mol
# Density = 1.723589 g / cm^3
# Si number density = 17.275213 Si / 1000 Ang^3
#
#
#
# Elastic Constant Matrix: (Units=GPa)
#
#
# Indices 1 2 3 4 5 6 
#
# 1 45.0002 22.1059 -6.0173 0.0000 -2.3418 0.0000
# 2 22.1059 30.5751 -2.8438 0.0000 0.8939 0.0000
# 3 -6.0173 -2.8438 41.4823 0.0000 -6.2621 0.0000
# 4 0.0000 0.0000 0.0000 51.9878 0.0000 -18.3239
# 5 -2.3418 0.8939 -6.2621 0.0000 26.5833 0.0000
# 6 0.0000 0.0000 0.0000 -18.3239 0.0000 21.1885
#
#
#
# Elastic Compliance Matrix: (Units=1/GPa)
#
#
# Indices 1 2 3 4 5 6 
#
# 1 0.035541 -0.025455 0.004160 0.000000 0.004967 0.000000
# 2 -0.025455 0.051156 -0.000812 0.000000 -0.004154 0.000000
# 3 0.004160 -0.000812 0.025625 0.000000 0.006430 0.000000
# 4 0.000000 0.000000 0.000000 0.027669 0.000000 0.023928
# 5 0.004967 -0.004154 0.006430 0.000000 0.039710 0.000000
# 6 0.000000 0.000000 0.000000 0.023928 0.000000 0.067889
#
#
# Mechanical properties :
#
#
# Convention : Reuss Voigt Hill
#
# Bulk Modulus (GPa) = 14.68241 15.94967 15.31604
# Shear Modulus (GPa) = 15.89794 26.87278 21.38536
#
# Velocity S-wave (km/s) = 3.03689 3.94835 3.52223
# Velocity P-wave (km/s) = 4.56230 5.48076 5.04248
#
# Compressibility (1/GPa) = 0.06810869
#
# Stress axis : x y z
#
# Youngs Moduli (GPa) = 28.13638 19.54808 39.02419
#
# Poissons Ratio (x) = 0.49759 -0.16235
# Poissons Ratio (y) = 0.71620 0.03170
# Poissons Ratio (z) = -0.11705 0.01588
#
# Static dielectric constant tensor:
#      x y z
#    x 1.568620 0.000000 -0.007970 
#    y 0.000000 1.561820 0.000000 
#    z -0.007970 0.000000 1.593120 
# 
# From -- ./inp_files/335581.got.cif
#   From: 2010.05.17/outbox.cif.g08.bks.cpg/sg12_168_cif.got.tgz:335581.got - 2010.06.03 13:09:07.
