data_PCOD9199832
_publ_section_title
;
Structure prediction by ZEFSAII (Michael W. Deem and Ramdas Pophale) SiO2 
 PCOD9199832
Probable space group: C 2/M
;
_chemical_formula_sum "Si O2"
_cell_formula_units_Z 64
_cell_length_a 30.422569
_cell_length_b 21.297587
_cell_length_c 14.293168
_cell_angle_alpha 90.000000
_cell_angle_beta 19.325651
_cell_angle_gamma 90.000000
_cell_volume 3064.784698
_symmetry_space_group_name_H-M "C 2/M"
_symmetry_group_IT_number 12
_symmetry_cell_setting 'monoclinic'
loop_
_space_group_symop_operation_xyz
x,y,z
-x,y,-z
-x,-y,-z
x,-y,z
1/2+x,1/2+y,z
1/2-x,1/2+y,-z
1/2-x,1/2-y,-z
1/2+x,1/2-y,z
loop_
_atom_site_type_symbol
_atom_site_label
_atom_site_fract_x
_atom_site_fract_y
_atom_site_fract_z
Si Si1 0.488220 0.874556 0.289826
Si Si2 0.173437 0.823023 0.070124
Si Si3 0.140458 0.924210 0.672004
Si Si4 0.882951 0.572389 0.311002
Si Si5 0.415205 0.257430 0.514986
Si Si6 0.198901 0.118144 0.344662
Si Si7 0.517010 0.430364 0.353233
Si Si8 0.860197 0.573275 0.730793
O O1 0.429736 0.889465 0.306289
O O2 0.474954 0.800835 0.338784
O O3 0.402053 0.912121 0.539693
O O4 0.643797 0.891089 0.982623
O O5 0.288111 0.772712 0.822096
O O6 0.254842 0.872644 0.974181
O O7 0.121593 0.879274 0.105360
O O8 0.033341 0.784893 0.343069
O O9 0.254342 0.903130 0.515058
O O10 0.160763 0.897558 0.527677
O O11 0.151122 0.000000 0.642537
O O12 0.000000 0.908680 0.000000
O O13 0.858725 0.500000 0.388853
O O14 0.000000 0.571893 0.000000
O O15 0.352845 0.312392 0.577786
O O16 0.117170 0.076034 0.435231
O O17 0.500000 0.418471 0.500000
O O18 0.568622 0.500000 0.238454
O O19 0.822242 0.500000 0.822623
O O20 0.000000 0.584217 0.500000
#
# Coordination Sequence:
#
# PCOD9199832 Si02
#       8
#     8   8   8   8   8   8   8   8
#     4  11  22  40  66  92 126 175 217 263 327 387
#     4  10  21  42  62  88 129 174 213 268 324 370
#     4  10  22  40  64  98 132 162 208 271 335 397
#     4  10  20  36  61  93 125 158 206 264 320 389
#     4  10  22  42  66  91 128 171 228 269 311 387
#     4  11  22  41  67  93 130 175 216 268 332 389
#     4  10  23  40  65 100 135 170 218 275 337 402
#     4  10  23  40  64  98 132 164 213 275 336 398
#
# _framework density 20.882379
#
# number of rings (size 3 to 8) (size 9 to 14) (size 15 to 20)
#    0.000    1.750    2.500    1.125    1.750    5.500 
#    0.000   21.250    0.000    0.000    0.000    0.000 
#    0.000    0.000    0.000    0.000    0.000    0.000 
#
# Total GULP energy -178322.649499 kJ/mol
# GULP energy per Si atom -5572.582797 kJ/mol
# Density = 2.083485 g / cm^3
# Si number density = 20.882379 Si / 1000 Ang^3
#
#
#
# Elastic Constant Matrix: (Units=GPa)
#
#
# Indices 1 2 3 4 5 6 
#
# 1 138.8148 46.4420 70.6035 0.0001 -26.1715 0.0001
# 2 46.4420 101.8341 33.4219 0.0008 -13.3273 0.0001
# 3 70.6035 33.4219 142.2921 0.0012 -40.0257 0.0003
# 4 0.0001 0.0008 0.0012 -58.8496 0.0008 -30.5436
# 5 -26.1715 -13.3273 -40.0257 0.0008 42.0679 0.0003
# 6 0.0001 0.0001 0.0003 -30.5436 0.0003 20.3568
#
#
#
# Elastic Compliance Matrix: (Units=1/GPa)
#
#
# Indices 1 2 3 4 5 6 
#
# 1 0.010700 -0.003325 -0.004031 0.000000 0.001768 0.000000
# 2 -0.003325 0.011731 -0.000876 0.000000 0.000814 0.000000
# 3 -0.004031 -0.000876 0.011538 0.000000 0.008193 0.000000
# 4 0.000000 0.000000 0.000000 -0.009553 0.000001 -0.014334
# 5 0.001768 0.000814 0.008193 0.000001 0.032924 0.000000
# 6 0.000000 0.000000 0.000000 -0.014334 0.000000 0.027617
#
#
# Mechanical properties :
#
#
# Convention : Reuss Voigt Hill
#
# Bulk Modulus (GPa) = 57.13118 75.98619 66.55868
# Shear Modulus (GPa) = 46.61735 16.21327 31.41531
#
# Velocity S-wave (km/s) = 4.72993 2.78943 3.88286
# Velocity P-wave (km/s) = 7.56621 6.84407 7.21418
#
# Compressibility (1/GPa) = 0.01750358
#
# Stress axis : x y z
#
# Youngs Moduli (GPa) = 93.45952 85.24712 86.66867
#
# Poissons Ratio (x) = 0.28349 0.34933
# Poissons Ratio (y) = 0.31080 0.07596
# Poissons Ratio (z) = 0.37670 0.07471
#
# Static dielectric constant tensor:
#      x y z
#    x 1.715330 0.000000 0.032360 
#    y 0.000000 1.770950 0.000000 
#    z 0.032360 0.000000 1.763400 
# 
# From -- ./inp_files/251921.got.cif
#   From: 2010.05.17/outbox.cif.g08.bks.cpg/sg12_126_cif.got.tgz:251921.got - 2010.06.03 13:09:07.
