data_PCOD9199423
_publ_section_title
;
Structure prediction by ZEFSAII (Michael W. Deem and Ramdas Pophale) SiO2 
 PCOD9199423
Probable space group: C 2/M
;
_chemical_formula_sum "Si O2"
_cell_formula_units_Z 56
_cell_length_a 14.546785
_cell_length_b 11.130774
_cell_length_c 17.020211
_cell_angle_alpha 90.000000
_cell_angle_beta 79.996961
_cell_angle_gamma 90.000000
_cell_volume 2713.967992
_symmetry_space_group_name_H-M "C 2/M"
_symmetry_group_IT_number 12
_symmetry_cell_setting 'monoclinic'
loop_
_space_group_symop_operation_xyz
x,y,z
-x,y,-z
-x,-y,-z
x,-y,z
1/2+x,1/2+y,z
1/2-x,1/2+y,-z
1/2-x,1/2-y,-z
1/2+x,1/2-y,z
loop_
_atom_site_type_symbol
_atom_site_label
_atom_site_fract_x
_atom_site_fract_y
_atom_site_fract_z
Si Si1 0.850573 0.640617 0.254071
Si Si2 0.629361 0.364324 0.542423
Si Si3 0.302296 0.138213 0.096211
Si Si4 0.797526 0.279345 0.617965
Si Si5 0.575751 0.861498 0.057858
Si Si6 0.583216 0.363847 0.165775
Si Si7 0.019433 0.265013 0.326206
O O1 0.828733 0.500000 0.252811
O O2 0.851732 0.693402 0.165521
O O3 0.767777 0.705012 0.313197
O O4 0.947322 0.656303 0.285993
O O5 0.599673 0.500000 0.535020
O O6 0.721951 0.361646 0.584338
O O7 0.659889 0.304479 0.456514
O O8 0.546486 0.291406 0.596759
O O9 0.194155 0.137608 0.134336
O O10 0.334596 0.000000 0.089065
O O11 0.332204 0.177316 0.005132
O O12 0.888458 0.327052 0.650935
O O13 0.553537 0.754385 0.121037
O O14 0.582968 0.000000 0.088920
O O15 0.500000 0.863185 0.000000
O O16 0.550199 0.500000 0.149324
O O17 0.556204 0.336347 0.259886
#
# Coordination Sequence:
#
# PCOD9199423 Si02
#       7
#     8   8   8   8   8   8   8
#     4  10  20  36  60  87 116 156 202 244 292 355
#     4  10  22  38  58  83 115 152 193 240 295 355
#     4   9  18  35  58  82 114 153 196 242 292 351
#     4  10  21  38  58  85 116 151 194 245 295 350
#     4  10  21  38  59  84 116 154 198 247 297 354
#     4  11  22  36  59  87 117 156 200 246 298 356
#     4  11  22  36  58  87 120 153 196 243 297 354
#
# _framework density 20.633994000000001
#
# number of rings (size 3 to 8) (size 9 to 14) (size 15 to 20)
#    0.000    1.857    1.429    2.571    0.000    4.857 
#    0.000    0.000    0.000    6.000    0.000    0.000 
#    0.000    0.000    0.000    0.000    0.000    0.000 
#
# Total GULP energy -156002.988706 kJ/mol
# GULP energy per Si atom -5571.535311 kJ/mol
# Density = 2.058703 g / cm^3
# Si number density = 20.633994 Si / 1000 Ang^3
#
#
#
# Elastic Constant Matrix: (Units=GPa)
#
#
# Indices 1 2 3 4 5 6 
#
# 1 104.8529 13.9346 3.4033 0.0000 -0.2580 0.0000
# 2 13.9346 62.8922 27.3185 0.0000 8.5227 0.0000
# 3 3.4033 27.3185 85.9952 0.0000 -13.6029 0.0000
# 4 0.0000 0.0000 0.0000 -1.2503 0.0000 3.8743
# 5 -0.2580 8.5227 -13.6029 0.0000 30.7938 0.0000
# 6 0.0000 0.0000 0.0000 3.8743 0.0000 8.5020
#
#
#
# Elastic Compliance Matrix: (Units=1/GPa)
#
#
# Indices 1 2 3 4 5 6 
#
# 1 0.009865 -0.002591 0.000601 0.000000 0.001065 0.000000
# 2 -0.002591 0.021319 -0.008178 0.000000 -0.009535 0.000000
# 3 0.000601 -0.008178 0.015655 0.000000 0.009184 0.000000
# 4 0.000000 0.000000 0.000000 -0.331581 0.000000 0.151101
# 5 0.001065 -0.009535 0.009184 0.000000 0.039179 0.000000
# 6 0.000000 0.000000 0.000000 0.151101 0.000000 0.048763
#
#
# Mechanical properties :
#
#
# Convention : Reuss Voigt Hill
#
# Bulk Modulus (GPa) = 37.73176 38.11701 37.92438
# Shear Modulus (GPa) = -29.82747 21.54802 -4.13973
#
# Velocity S-wave (km/s) = -3.80616 3.23506 -1.41796
# Velocity P-wave (km/s) = 0.99496 5.69800 3.96720
#
# Compressibility (1/GPa) = 0.02650287
#
# Stress axis : x y z
#
# Youngs Moduli (GPa) = 101.37221 46.90719 63.87543
#
# Poissons Ratio (x) = 0.12155 -0.03841
# Poissons Ratio (y) = 0.26268 0.52238
# Poissons Ratio (z) = -0.06095 0.38361
#
# Static dielectric constant tensor:
#      x y z
#    x 1.796120 0.000000 0.011990 
#    y 0.000000 1.710810 0.000000 
#    z 0.011990 0.000000 1.784820 
# 
# From -- ./inp_files/268605.got.cif
#   From: 2010.05.17/outbox.cif.g08.bks.cpg/sg12_135_cif.got.tgz:268605.got - 2010.06.03 13:09:07.
