data_PCOD9199997
_publ_section_title
;
Structure prediction by ZEFSAII (Michael W. Deem and Ramdas Pophale) SiO2 
 PCOD9199997
Probable space group: C 2/M
;
_chemical_formula_sum "Si O2"
_cell_formula_units_Z 36
_cell_length_a 29.794182
_cell_length_b 7.319587
_cell_length_c 14.140106
_cell_angle_alpha 90.000000
_cell_angle_beta 152.308750
_cell_angle_gamma 90.000000
_cell_volume 1433.011781
_symmetry_space_group_name_H-M "C 2/M"
_symmetry_group_IT_number 12
_symmetry_cell_setting 'monoclinic'
loop_
_space_group_symop_operation_xyz
x,y,z
-x,y,-z
-x,-y,-z
x,-y,z
1/2+x,1/2+y,z
1/2-x,1/2+y,-z
1/2-x,1/2-y,-z
1/2+x,1/2-y,z
loop_
_atom_site_type_symbol
_atom_site_label
_atom_site_fract_x
_atom_site_fract_y
_atom_site_fract_z
Si Si1 0.026300 0.000000 0.205880
Si Si2 0.276302 0.221240 0.268663
Si Si3 0.161336 0.713623 0.404373
Si Si4 0.440094 0.209186 0.194678
Si Si5 0.639045 0.216901 0.759938
O O1 0.071047 0.158954 0.219130
O O2 0.988928 0.159323 0.210891
O O3 0.303986 0.273274 0.425805
O O4 0.355210 0.280569 0.337833
O O5 0.268634 0.000000 0.250613
O O6 0.172277 0.297560 0.047488
O O7 0.139066 0.500000 0.362990
O O8 0.250000 0.750000 0.500000
O O9 0.430200 0.280600 0.284828
O O10 0.478880 0.000000 0.265896
O O11 0.622966 0.000000 0.727874
O O12 0.750000 0.250000 0.000000
#
# Coordination Sequence:
#
# PCOD9199997 Si02
#       5
#     4   8   8   8   8
#     4  12  24  42  64  94 129 158 202 264 315 354
#     4   9  18  37  64  91 122 165 210 245 294 370
#     4  11  24  44  66  86 117 163 208 255 313 374
#     4  10  20  36  62  95 129 159 198 252 302 356
#     4   8  15  29  54  88 124 161 197 239 292 358
#
# _framework density 25.121915999999999
#
# number of rings (size 3 to 8) (size 9 to 14) (size 15 to 20)
#    0.000    2.222    2.222    0.667    3.111    0.000 
#    0.000    4.444    0.000    8.000    0.000    0.000 
#    0.000    0.000    0.000    0.000    0.000    0.000 
#
# Total GULP energy -100219.940884 kJ/mol
# GULP energy per Si atom -5567.774494 kJ/mol
# Density = 2.506474 g / cm^3
# Si number density = 25.121916 Si / 1000 Ang^3
#
#
#
# Elastic Constant Matrix: (Units=GPa)
#
#
# Indices 1 2 3 4 5 6 
#
# 1 197.7420 51.0729 49.6283 0.0000 42.0656 0.0000
# 2 51.0729 171.6335 16.9358 0.0000 17.5681 0.0000
# 3 49.6283 16.9358 71.4937 0.0000 -2.7760 0.0000
# 4 0.0000 0.0000 0.0000 10.5694 0.0000 36.0938
# 5 42.0656 17.5681 -2.7760 0.0000 39.7683 0.0000
# 6 0.0000 0.0000 0.0000 36.0938 0.0000 74.2162
#
#
#
# Elastic Compliance Matrix: (Units=1/GPa)
#
#
# Indices 1 2 3 4 5 6 
#
# 1 0.008912 -0.001069 -0.006298 0.000000 -0.009395 0.000000
# 2 -0.001069 0.006408 -0.000844 0.000000 -0.001759 0.000000
# 3 -0.006298 -0.000844 0.018884 0.000000 0.008353 0.000000
# 4 0.000000 0.000000 0.000000 -0.143180 0.000000 0.069633
# 5 -0.009395 -0.001759 0.008353 0.000000 0.036443 0.000000
# 6 0.000000 0.000000 0.000000 0.069633 0.000000 -0.020391
#
#
# Mechanical properties :
#
#
# Convention : Reuss Voigt Hill
#
# Bulk Modulus (GPa) = 56.23970 75.12702 65.68336
# Shear Modulus (GPa) = -70.84731 46.45960 -12.19386
#
# Velocity S-wave (km/s) = -5.31626 4.30509 -2.20554
# Velocity P-wave (km/s) = 3.90489 7.39470 4.44035
#
# Compressibility (1/GPa) = 0.01778103
#
# Stress axis : x y z
#
# Youngs Moduli (GPa) = 112.20293 156.05978 52.95609
#
# Poissons Ratio (x) = 0.16682 0.33353
# Poissons Ratio (y) = 0.11994 0.04470
# Poissons Ratio (z) = 0.70668 0.13174
#
# Static dielectric constant tensor:
#      x y z
#    x 1.977360 0.000000 -0.017450 
#    y 0.000000 1.952480 0.000000 
#    z -0.017450 0.000000 2.108940 
# 
# From -- ./inp_files/249455.got.cif
#   From: 2010.05.17/outbox.cif.g08.bks.cpg/sg12_125_cif.got.tgz:249455.got - 2010.06.03 13:09:07.
