data_PCOD9199339
_publ_section_title
;
Structure prediction by ZEFSAII (Michael W. Deem and Ramdas Pophale) SiO2 
 PCOD9199339
Probable space group: C 2/M
;
_chemical_formula_sum "Si O2"
_cell_formula_units_Z 58
_cell_length_a 12.141643
_cell_length_b 13.997849
_cell_length_c 20.584178
_cell_angle_alpha 90.000000
_cell_angle_beta 51.965064
_cell_angle_gamma 90.000000
_cell_volume 2755.480956
_symmetry_space_group_name_H-M "C 2/M"
_symmetry_group_IT_number 12
_symmetry_cell_setting 'monoclinic'
loop_
_space_group_symop_operation_xyz
x,y,z
-x,y,-z
-x,-y,-z
x,-y,z
1/2+x,1/2+y,z
1/2-x,1/2+y,-z
1/2-x,1/2-y,-z
1/2+x,1/2-y,z
loop_
_atom_site_type_symbol
_atom_site_label
_atom_site_fract_x
_atom_site_fract_y
_atom_site_fract_z
Si Si1 0.905626 0.107839 0.823993
Si Si2 0.155688 0.208748 0.801388
Si Si3 0.536534 0.608056 0.411582
Si Si4 0.651349 0.857137 0.017294
Si Si5 0.853617 0.840769 0.047053
Si Si6 0.456467 0.760125 0.692264
Si Si7 0.500000 0.000000 0.000000
Si Si8 0.872786 0.610759 0.272040
O O1 0.770154 0.114575 0.920250
O O2 0.908102 0.182850 0.764700
O O3 0.042322 0.133594 0.816534
O O4 0.909296 0.000000 0.797604
O O5 0.174224 0.196256 0.871390
O O6 0.312737 0.194113 0.717643
O O7 0.104788 0.312561 0.794504
O O8 0.500000 0.623188 0.500000
O O9 0.489532 0.500000 0.410457
O O10 0.478571 0.692719 0.387010
O O11 0.705145 0.609621 0.343018
O O12 0.620441 0.747023 0.012971
O O13 0.717811 0.882861 0.062341
O O14 0.519006 0.917924 0.047979
O O15 0.000000 0.895082 0.000000
O O16 0.551315 0.838172 0.694106
O O17 0.916413 0.500000 0.247020
#
# Coordination Sequence:
#
# PCOD9199339 Si02
#       8
#     8   8   8   8   8   8   2   8
#     4  11  21  36  56  84 111 148 195 240 296 356
#     4  10  21  38  56  82 111 150 195 241 298 351
#     4   9  18  35  59  90 122 154 194 238 283 342
#     4  11  23  36  59  79 113 145 190 251 303 360
#     4  11  21  39  59  78 108 155 192 247 303 360
#     4  10  20  36  60  84 116 157 193 236 296 353
#     4  12  24  44  50  92 108 138 194 250 312 368
#     4   9  20  37  59  88 117 155 196 240 291 350
#
# _framework density 21.048957000000001
#
# number of rings (size 3 to 8) (size 9 to 14) (size 15 to 20)
#    0.000    1.793    4.138    0.414    0.000    1.655 
#    2.483    1.034    0.000    0.414    0.000    0.000 
#    0.000    0.000    0.000    0.000    0.000    0.000 
#
# Total GULP energy -161577.148871 kJ/mol
# GULP energy per Si atom -5571.625823 kJ/mol
# Density = 2.100105 g / cm^3
# Si number density = 21.048957 Si / 1000 Ang^3
#
#
#
# Elastic Constant Matrix: (Units=GPa)
#
#
# Indices 1 2 3 4 5 6 
#
# 1 84.4026 14.3508 -6.6894 0.0000 13.8654 0.0000
# 2 14.3508 91.9483 4.5805 0.0000 4.7463 0.0000
# 3 -6.6894 4.5805 53.8541 0.0000 18.0530 0.0000
# 4 0.0000 0.0000 0.0000 7.8827 0.0000 17.6600
# 5 13.8654 4.7463 18.0530 0.0000 20.5588 0.0000
# 6 0.0000 0.0000 0.0000 17.6600 0.0000 40.2564
#
#
#
# Elastic Compliance Matrix: (Units=1/GPa)
#
#
# Indices 1 2 3 4 5 6 
#
# 1 0.015560 -0.001945 0.007745 0.000001 -0.016847 0.000000
# 2 -0.001945 0.011250 -0.001088 0.000000 -0.000331 0.000000
# 3 0.007745 -0.001088 0.030172 0.000001 -0.031467 -0.000001
# 4 0.000001 0.000000 0.000001 7.380644 -0.000002 -3.237795
# 5 -0.016847 -0.000331 -0.031467 -0.000002 0.087711 0.000001
# 6 0.000000 0.000000 -0.000001 -3.237795 0.000001 1.445221
#
#
# Mechanical properties :
#
#
# Convention : Reuss Voigt Hill
#
# Bulk Modulus (GPa) = 15.05834 28.29875 21.67855
# Shear Modulus (GPa) = 0.55659 28.27045 14.41352
#
# Velocity S-wave (km/s) = 0.51478 3.66878 2.61963
# Velocity P-wave (km/s) = 2.74278 5.60536 4.41265
#
# Compressibility (1/GPa) = 0.06640837
#
# Stress axis : x y z
#
# Youngs Moduli (GPa) = 64.26728 88.88531 33.14372
#
# Poissons Ratio (x) = 0.17286 -0.25671
# Poissons Ratio (y) = 0.12498 0.03605
# Poissons Ratio (z) = -0.49778 0.09667
#
# Static dielectric constant tensor:
#      x y z
#    x 1.864260 0.000000 -0.035220 
#    y 0.000000 1.634110 0.000000 
#    z -0.035220 0.000000 1.790220 
# 
# From -- ./inp_files/305398.got.cif
#   From: 2010.05.17/outbox.cif.g08.bks.cpg/sg12_153_cif.got.tgz:305398.got - 2010.06.03 13:09:07.
