data_PCOD9199752
_publ_section_title
;
Structure prediction by ZEFSAII (Michael W. Deem and Ramdas Pophale) SiO2 
 PCOD9199752
Probable space group: C 2/M
;
_chemical_formula_sum "Si O2"
_cell_formula_units_Z 64
_cell_length_a 21.044250
_cell_length_b 17.451611
_cell_length_c 21.562809
_cell_angle_alpha 90.000000
_cell_angle_beta 22.867051
_cell_angle_gamma 90.000000
_cell_volume 3077.305129
_symmetry_space_group_name_H-M "C 2/M"
_symmetry_group_IT_number 12
_symmetry_cell_setting 'monoclinic'
loop_
_space_group_symop_operation_xyz
x,y,z
-x,y,-z
-x,-y,-z
x,-y,z
1/2+x,1/2+y,z
1/2-x,1/2+y,-z
1/2-x,1/2-y,-z
1/2+x,1/2-y,z
loop_
_atom_site_type_symbol
_atom_site_label
_atom_site_fract_x
_atom_site_fract_y
_atom_site_fract_z
Si Si1 0.676798 0.200865 0.319314
Si Si2 0.526750 0.086861 0.229965
Si Si3 0.232881 0.318412 0.135940
Si Si4 0.774142 0.335659 0.156119
Si Si5 0.407306 0.679594 0.215954
Si Si6 0.917388 0.362474 0.194435
Si Si7 0.931857 0.090043 0.454675
Si Si8 0.305893 0.661357 0.442651
O O1 0.500000 0.228124 0.500000
O O2 0.656599 0.158885 0.271259
O O3 0.787789 0.274307 0.200038
O O4 0.763996 0.157979 0.297053
O O5 0.648665 0.146392 0.152174
O O6 0.495907 0.098675 0.184879
O O7 0.352803 0.107588 0.416292
O O8 0.577072 0.000000 0.197129
O O9 0.230081 0.225534 0.140519
O O10 0.420741 0.342560 0.967824
O O11 0.613473 0.385888 0.313110
O O12 0.944413 0.373562 0.982786
O O13 0.402543 0.772317 0.223268
O O14 0.394529 0.651923 0.297573
O O15 0.729858 0.392252 0.358094
O O16 0.901092 0.136124 0.418482
O O17 0.930463 0.000000 0.443705
O O18 0.250000 0.750000 0.500000
#
# Coordination Sequence:
#
# PCOD9199752 Si02
#       8
#     8   8   8   8   8   8   8   8
#     4  10  20  36  61  90 116 149 198 256 301 342
#     4  11  22  38  56  86 127 163 195 236 302 367
#     4   9  22  36  58  89 116 151 202 248 295 348
#     4   9  22  37  60  89 119 153 208 249 301 351
#     4  11  20  35  61  89 118 145 197 258 303 341
#     4  10  21  35  58  86 120 157 193 250 303 348
#     4  11  22  37  57  89 128 164 198 239 301 366
#     4  11  20  34  60  86 118 151 197 248 297 347
#
# _framework density 20.797418
#
# number of rings (size 3 to 8) (size 9 to 14) (size 15 to 20)
#    0.750    1.000    2.500    4.125    1.750    2.000 
#    0.000    0.625    0.000    9.750    0.000    9.625 
#    0.000    0.000    0.000    0.000    0.000    0.000 
#
# Total GULP energy -178384.817823 kJ/mol
# GULP energy per Si atom -5574.525557 kJ/mol
# Density = 2.075008 g / cm^3
# Si number density = 20.797418 Si / 1000 Ang^3
#
#
#
# Elastic Constant Matrix: (Units=GPa)
#
#
# Indices 1 2 3 4 5 6 
#
# 1 67.3614 17.2631 42.9967 0.0014 7.7082 0.0001
# 2 17.2631 41.5654 6.0710 -0.0053 7.5328 0.0099
# 3 42.9967 6.0710 146.3711 0.0026 8.8673 0.0067
# 4 0.0014 -0.0053 0.0026 8.2222 0.0027 5.7830
# 5 7.7082 7.5328 8.8673 0.0027 26.4207 -0.0042
# 6 0.0001 0.0099 0.0067 5.7830 -0.0042 2.4573
#
#
#
# Elastic Compliance Matrix: (Units=1/GPa)
#
#
# Indices 1 2 3 4 5 6 
#
# 1 0.020537 -0.007345 -0.005606 0.000052 -0.002016 -0.000082
# 2 -0.007345 0.028053 0.001377 -0.000169 -0.006317 0.000270
# 3 -0.005606 0.001377 0.008519 -0.000033 -0.001616 0.000046
# 4 0.000052 -0.000169 -0.000033 -0.185604 0.000132 0.436806
# 5 -0.002016 -0.006317 -0.001616 0.000132 0.040781 -0.000211
# 6 -0.000082 0.000270 0.000046 0.436806 -0.000211 -0.621039
#
#
# Mechanical properties :
#
#
# Convention : Reuss Voigt Hill
#
# Bulk Modulus (GPa) = 29.44611 43.10661 36.27636
# Shear Modulus (GPa) = -7.41526 20.01785 6.30129
#
# Velocity S-wave (km/s) = -1.89029 3.10581 1.74253
# Velocity P-wave (km/s) = 3.07002 5.79942 4.63995
#
# Compressibility (1/GPa) = 0.03396034
#
# Stress axis : x y z
#
# Youngs Moduli (GPa) = 48.69360 35.64717 117.37791
#
# Poissons Ratio (x) = 0.26183 0.65800
# Poissons Ratio (y) = 0.35766 -0.16161
# Poissons Ratio (z) = 0.27297 -0.04908
#
# Static dielectric constant tensor:
#      x y z
#    x 1.826840 -0.000010 -0.008250 
#    y -0.000010 1.732410 0.000010 
#    z -0.008250 0.000010 1.773380 
# 
# From -- ./inp_files/350020.got.cif
#   From: 2010.05.17/outbox.cif.g08.bks.cpg/sg12_176_cif.got.tgz:350020.got - 2010.06.03 13:09:07.
