data_PCOD9199508
_publ_section_title
;
Structure prediction by ZEFSAII (Michael W. Deem and Ramdas Pophale) SiO2 
 PCOD9199508
Probable space group: C 2/M
;
_chemical_formula_sum "Si O2"
_cell_formula_units_Z 56
_cell_length_a 11.137545
_cell_length_b 28.888759
_cell_length_c 9.893652
_cell_angle_alpha 90.000000
_cell_angle_beta 69.705202
_cell_angle_gamma 90.000000
_cell_volume 2985.664359
_symmetry_space_group_name_H-M "C 2/M"
_symmetry_group_IT_number 12
_symmetry_cell_setting 'monoclinic'
loop_
_space_group_symop_operation_xyz
x,y,z
-x,y,-z
-x,-y,-z
x,-y,z
1/2+x,1/2+y,z
1/2-x,1/2+y,-z
1/2-x,1/2-y,-z
1/2+x,1/2-y,z
loop_
_atom_site_type_symbol
_atom_site_label
_atom_site_fract_x
_atom_site_fract_y
_atom_site_fract_z
Si Si1 0.394905 0.450398 0.873968
Si Si2 0.748264 0.087402 0.673568
Si Si3 0.124906 0.912502 0.652712
Si Si4 0.366060 0.286886 0.968607
Si Si5 0.767644 0.116674 0.119925
Si Si6 0.525432 0.946260 0.150121
Si Si7 0.926703 0.830736 0.656920
O O1 0.360085 0.500000 0.945770
O O2 0.306352 0.439448 0.779365
O O3 0.538140 0.449602 0.762286
O O4 0.372554 0.411199 0.991859
O O5 0.810883 0.071050 0.509297
O O6 0.599547 0.075822 0.731886
O O7 0.795469 0.141123 0.671702
O O8 0.218731 0.891061 0.726159
O O9 0.023785 0.872414 0.654636
O O10 0.406183 0.301016 0.799520
O O11 0.500000 0.276032 0.000000
O O12 0.250000 0.250000 0.000000
O O13 0.297431 0.330873 0.067259
O O14 0.639208 0.090192 0.127316
O O15 0.548578 0.000000 0.185419
O O16 0.500000 0.948271 0.000000
O O17 0.000000 0.807656 0.500000
#
# Coordination Sequence:
#
# PCOD9199508 Si02
#       7
#     8   8   8   8   8   8   8
#     4  11  20  34  58  87 120 163 209 251 301 362
#     4  10  20  36  60  88 120 166 209 251 303 368
#     4  10  21  36  60  87 120 163 200 259 314 354
#     4  12  24  43  70  99 127 163 210 271 333 391
#     4  12  22  40  62  85 124 163 209 256 313 378
#     4  11  22  37  58  84 124 171 212 256 307 368
#     4   9  18  39  68  91 121 160 201 253 319 376
#
# _framework density 18.756295000000001
#
# number of rings (size 3 to 8) (size 9 to 14) (size 15 to 20)
#    0.000    1.286    5.714    2.571    0.000    5.714 
#    0.000    1.429    3.143    0.000    0.000    0.000 
#    0.000    0.000    0.000    0.000    0.000    0.000 
#
# Total GULP energy -156034.363929 kJ/mol
# GULP energy per Si atom -5572.655855 kJ/mol
# Density = 1.871360 g / cm^3
# Si number density = 18.756295 Si / 1000 Ang^3
#
#
#
# Elastic Constant Matrix: (Units=GPa)
#
#
# Indices 1 2 3 4 5 6 
#
# 1 123.6494 50.5384 33.7356 0.0000 -13.0910 0.0000
# 2 50.5384 84.3404 17.0234 0.0000 -4.2248 0.0000
# 3 33.7356 17.0234 68.4404 0.0000 -8.8016 0.0000
# 4 0.0000 0.0000 0.0000 8.5427 0.0000 -4.8780
# 5 -13.0910 -4.2248 -8.8016 0.0000 34.1801 0.0000
# 6 0.0000 0.0000 0.0000 -4.8780 0.0000 13.0994
#
#
#
# Elastic Compliance Matrix: (Units=1/GPa)
#
#
# Indices 1 2 3 4 5 6 
#
# 1 0.012040 -0.006264 -0.004016 0.000000 0.002803 0.000000
# 2 -0.006264 0.015761 -0.000921 0.000000 -0.000688 0.000000
# 3 -0.004016 -0.000921 0.017177 0.000000 0.002771 0.000000
# 4 0.000000 0.000000 0.000000 0.148673 0.000000 0.055364
# 5 0.002803 -0.000688 0.002771 0.000000 0.030959 0.000000
# 6 0.000000 0.000000 0.000000 0.055364 0.000000 0.096956
#
#
# Mechanical properties :
#
#
# Convention : Reuss Voigt Hill
#
# Bulk Modulus (GPa) = 44.29617 53.22501 48.76059
# Shear Modulus (GPa) = 14.22502 22.83997 18.53249
#
# Velocity S-wave (km/s) = 2.75692 3.49337 3.14676
# Velocity P-wave (km/s) = 5.81396 6.68658 6.26548
#
# Compressibility (1/GPa) = 0.02257531
#
# Stress axis : x y z
#
# Youngs Moduli (GPa) = 83.05679 63.44596 58.21901
#
# Poissons Ratio (x) = 0.39739 0.23383
# Poissons Ratio (y) = 0.52023 0.05365
# Poissons Ratio (z) = 0.33358 0.05846
#
# Static dielectric constant tensor:
#      x y z
#    x 1.717150 0.000000 -0.000900 
#    y 0.000000 1.653550 0.000000 
#    z -0.000900 0.000000 1.685250 
# 
# From -- ./inp_files/53201.got.cif
#   From: 2010.05.17/outbox.cif.g08.bks.cpg/sg12_27_cif.got.tgz:53201.got - 2010.06.03 13:09:07.
