data_PCOD9199670
_publ_section_title
;
Structure prediction by ZEFSAII (Michael W. Deem and Ramdas Pophale) SiO2 
 PCOD9199670
Probable space group: C 2/M
;
_chemical_formula_sum "Si O2"
_cell_formula_units_Z 56
_cell_length_a 9.478283
_cell_length_b 24.255232
_cell_length_c 20.636438
_cell_angle_alpha 90.000000
_cell_angle_beta 35.943947
_cell_angle_gamma 90.000000
_cell_volume 2784.858513
_symmetry_space_group_name_H-M "C 2/M"
_symmetry_group_IT_number 12
_symmetry_cell_setting 'monoclinic'
loop_
_space_group_symop_operation_xyz
x,y,z
-x,y,-z
-x,-y,-z
x,-y,z
1/2+x,1/2+y,z
1/2-x,1/2+y,-z
1/2-x,1/2-y,-z
1/2+x,1/2-y,z
loop_
_atom_site_type_symbol
_atom_site_label
_atom_site_fract_x
_atom_site_fract_y
_atom_site_fract_z
Si Si1 0.565987 0.299573 0.050855
Si Si2 0.813183 0.433542 0.512779
Si Si3 0.978229 0.625647 0.931448
Si Si4 0.819114 0.225325 0.757742
Si Si5 0.779654 0.620137 0.393071
Si Si6 0.750245 0.435679 0.273635
Si Si7 0.298234 0.741819 0.618891
O O1 0.322678 0.282490 0.177462
O O2 0.500000 0.298219 0.000000
O O3 0.750000 0.250000 0.000000
O O4 0.707005 0.355013 0.016205
O O5 0.820140 0.500000 0.501578
O O6 0.889068 0.404281 0.417524
O O7 0.531657 0.418891 0.632205
O O8 0.000000 0.419321 0.500000
O O9 0.146414 0.676260 0.844119
O O10 0.086048 0.576000 0.849610
O O11 0.000000 0.618687 0.000000
O O12 0.880956 0.223218 0.658946
O O13 0.057093 0.223433 0.711955
O O14 0.500000 0.601678 0.500000
O O15 0.861688 0.597491 0.293099
O O16 0.775479 0.686056 0.392067
O O17 0.747883 0.500000 0.290919
O O18 0.500000 0.769558 0.500000
#
# Coordination Sequence:
#
# PCOD9199670 Si02
#       7
#     8   8   8   8   8   8   8
#     4  10  20  36  61  85 105 145 201 250 288 327
#     4   9  18  36  61  89 118 147 191 242 284 343
#     4  11  22  39  58  83 114 148 205 250 284 340
#     4  11  20  38  57  80 113 154 192 234 282 335
#     4   9  18  35  56  84 115 152 194 229 278 353
#     4  10  20  37  62  86 115 156 191 237 296 346
#     4  11  22  36  54  85 122 154 184 227 281 349
#
# _framework density 20.108740000000001
#
# number of rings (size 3 to 8) (size 9 to 14) (size 15 to 20)
#    0.000    1.857    1.429    5.143    0.000    2.000 
#    5.143    0.000    0.000    0.429    0.000    0.000 
#    0.000    0.000    0.000    0.000    0.000    0.000 
#
# Total GULP energy -156261.885638 kJ/mol
# GULP energy per Si atom -5580.781630 kJ/mol
# Density = 2.006297 g / cm^3
# Si number density = 20.108740 Si / 1000 Ang^3
#
#
#
# Elastic Constant Matrix: (Units=GPa)
#
#
# Indices 1 2 3 4 5 6 
#
# 1 104.7936 7.3446 12.2670 0.0001 21.0550 0.0002
# 2 7.3446 25.7828 -3.2735 0.0003 -1.6227 0.0001
# 3 12.2670 -3.2735 73.3034 0.0038 14.6176 -0.0001
# 4 0.0001 0.0003 0.0038 13.8685 0.0001 -6.0589
# 5 21.0550 -1.6227 14.6176 0.0001 38.5456 -0.0001
# 6 0.0002 0.0001 -0.0001 -6.0589 -0.0001 7.3096
#
#
#
# Elastic Compliance Matrix: (Units=1/GPa)
#
#
# Indices 1 2 3 4 5 6 
#
# 1 0.011078 -0.003633 -0.000843 0.000000 -0.005885 0.000000
# 2 -0.003633 0.040238 0.001808 -0.000002 0.002993 -0.000002
# 3 -0.000843 0.001808 0.014882 -0.000006 -0.005107 -0.000005
# 4 0.000000 -0.000002 -0.000006 0.113042 0.000002 0.093700
# 5 -0.005885 0.002993 -0.005107 0.000002 0.031221 0.000002
# 6 0.000000 -0.000002 -0.000005 0.093700 0.000002 0.214473
#
#
# Mechanical properties :
#
#
# Convention : Reuss Voigt Hill
#
# Bulk Modulus (GPa) = 16.43022 26.28399 21.35711
# Shear Modulus (GPa) = 11.09738 24.44753 17.77245
#
# Velocity S-wave (km/s) = 2.35174 3.49057 2.97613
# Velocity P-wave (km/s) = 3.94495 5.41708 4.73853
#
# Compressibility (1/GPa) = 0.06086345
#
# Stress axis : x y z
#
# Youngs Moduli (GPa) = 90.26751 24.85187 67.19451
#
# Poissons Ratio (x) = 0.09029 0.05662
# Poissons Ratio (y) = 0.32795 -0.12150
# Poissons Ratio (z) = 0.07606 -0.04494
#
# Static dielectric constant tensor:
#      x y z
#    x 1.707350 0.000000 -0.022770 
#    y 0.000000 1.723280 0.000000 
#    z -0.022770 0.000000 1.746160 
# 
# From -- ./inp_files/259806.got.cif
#   From: 2010.05.17/outbox.cif.g08.bks.cpg/sg12_130_cif.got.tgz:259806.got - 2010.06.03 13:09:07.
