data_PCOD9199927
_publ_section_title
;
Structure prediction by ZEFSAII (Michael W. Deem and Ramdas Pophale) SiO2 
 PCOD9199927
Probable space group: C 2/M
;
_chemical_formula_sum "Si O2"
_cell_formula_units_Z 64
_cell_length_a 22.880442
_cell_length_b 14.452973
_cell_length_c 14.456739
_cell_angle_alpha 90.000000
_cell_angle_beta 44.335048
_cell_angle_gamma 90.000000
_cell_volume 3341.009741
_symmetry_space_group_name_H-M "C 2/M"
_symmetry_group_IT_number 12
_symmetry_cell_setting 'monoclinic'
loop_
_space_group_symop_operation_xyz
x,y,z
-x,y,-z
-x,-y,-z
x,-y,z
1/2+x,1/2+y,z
1/2-x,1/2+y,-z
1/2-x,1/2-y,-z
1/2+x,1/2-y,z
loop_
_atom_site_type_symbol
_atom_site_label
_atom_site_fract_x
_atom_site_fract_y
_atom_site_fract_z
Si Si1 0.458696 0.770422 0.639246
Si Si2 0.482296 0.889742 0.254840
Si Si3 0.599962 0.717424 0.888619
Si Si4 0.955796 0.893150 0.356963
Si Si5 0.654828 0.728183 0.627364
Si Si6 0.387715 0.602949 0.945201
Si Si7 0.361599 0.105058 0.062652
Si Si8 0.292317 0.679239 0.882088
O O1 0.500000 0.807998 0.500000
O O2 0.475751 0.844119 0.701199
O O3 0.507592 0.675478 0.608253
O O4 0.362543 0.736735 0.746316
O O5 0.406436 0.818469 0.316601
O O6 0.556242 0.883918 0.095068
O O7 0.461011 0.000000 0.288917
O O8 0.639508 0.687286 0.747318
O O9 0.500000 0.704245 0.000000
O O10 0.631618 0.671627 0.948877
O O11 0.623951 0.824588 0.871039
O O12 0.870964 0.849092 0.418002
O O13 0.018044 0.882930 0.198001
O O14 0.953139 0.000000 0.386863
O O15 0.750000 0.750000 0.500000
O O16 0.377633 0.500000 0.993310
O O17 0.337589 0.612880 0.905571
O O18 0.356261 0.000000 0.099577
O O19 0.277918 0.131360 0.100516
O O20 0.250000 0.750000 0.000000
#
# Coordination Sequence:
#
# PCOD9199927 Si02
#       8
#     8   8   8   8   8   8   8   8
#     4  10  21  37  61  89 118 155 193 241 295 354
#     4  10  21  40  60  83 118 160 196 238 301 358
#     4  12  21  38  61  87 116 151 200 247 288 347
#     4   9  19  38  60  82 113 153 190 234 297 354
#     4  11  24  40  58  82 117 157 196 241 294 349
#     4  10  20  36  62  91 116 148 193 244 296 348
#     4  11  22  37  63  92 117 154 202 251 297 346
#     4  11  19  38  62  85 121 157 191 242 297 347
#
# _framework density 19.155885000000001
#
# number of rings (size 3 to 8) (size 9 to 14) (size 15 to 20)
#    0.000    1.500    5.000    1.125    0.000    5.000 
#    0.000    1.250    0.000    0.000    0.000    0.000 
#    0.000    0.000    0.000    0.000    0.000    0.000 
#
# Total GULP energy -178429.125737 kJ/mol
# GULP energy per Si atom -5575.910179 kJ/mol
# Density = 1.911229 g / cm^3
# Si number density = 19.155885 Si / 1000 Ang^3
#
#
#
# Elastic Constant Matrix: (Units=GPa)
#
#
# Indices 1 2 3 4 5 6 
#
# 1 34.2077 -4.5141 16.5663 0.0000 -11.8728 0.0000
# 2 -4.5141 57.5463 -14.7674 0.0000 -2.1816 0.0000
# 3 16.5663 -14.7674 45.3816 0.0000 -16.9330 0.0000
# 4 0.0000 0.0000 0.0000 14.5511 0.0000 -6.7660
# 5 -11.8728 -2.1816 -16.9330 0.0000 27.6841 0.0000
# 6 0.0000 0.0000 0.0000 -6.7660 0.0000 10.0148
#
#
#
# Elastic Compliance Matrix: (Units=1/GPa)
#
#
# Indices 1 2 3 4 5 6 
#
# 1 0.037570 0.000881 -0.009575 0.000000 0.010325 0.000000
# 2 0.000881 0.020032 0.008975 0.000000 0.007446 0.000000
# 3 -0.009575 0.008975 0.035221 0.000000 0.018144 0.000000
# 4 0.000000 0.000000 0.000000 0.100200 0.000000 0.067695
# 5 0.010325 0.007446 0.018144 0.000000 0.052235 0.000000
# 6 0.000000 0.000000 0.000000 0.067695 0.000000 0.145586
#
#
# Mechanical properties :
#
#
# Convention : Reuss Voigt Hill
#
# Bulk Modulus (GPa) = 10.70829 14.63393 12.67111
# Shear Modulus (GPa) = 11.86491 19.77339 15.81915
#
# Velocity S-wave (km/s) = 2.49145 3.21633 2.87681
# Velocity P-wave (km/s) = 3.72540 4.63131 4.20283
#
# Compressibility (1/GPa) = 0.09338561
#
# Stress axis : x y z
#
# Youngs Moduli (GPa) = 26.61665 49.92034 28.39197
#
# Poissons Ratio (x) = -0.04400 0.27187
# Poissons Ratio (y) = -0.02346 -0.25482
# Poissons Ratio (z) = 0.25487 -0.44804
#
# Static dielectric constant tensor:
#      x y z
#    x 1.789910 0.000000 -0.050850 
#    y 0.000000 1.692050 0.000000 
#    z -0.050850 0.000000 1.678250 
# 
# From -- ./inp_files/240678.got.cif
#   From: 2010.05.17/outbox.cif.g08.bks.cpg/sg12_121_cif.got.tgz:240678.got - 2010.06.03 13:09:07.
