data_PCOD9199498
_publ_section_title
;
Structure prediction by ZEFSAII (Michael W. Deem and Ramdas Pophale) SiO2 
 PCOD9199498
Probable space group: C 2/M
;
_chemical_formula_sum "Si O2"
_cell_formula_units_Z 36
_cell_length_a 15.101814
_cell_length_b 8.956314
_cell_length_c 22.253265
_cell_angle_alpha 90.000000
_cell_angle_beta 147.628118
_cell_angle_gamma 90.000000
_cell_volume 1611.538082
_symmetry_space_group_name_H-M "C 2/M"
_symmetry_group_IT_number 12
_symmetry_cell_setting 'monoclinic'
loop_
_space_group_symop_operation_xyz
x,y,z
-x,y,-z
-x,-y,-z
x,-y,z
1/2+x,1/2+y,z
1/2-x,1/2+y,-z
1/2-x,1/2-y,-z
1/2+x,1/2-y,z
loop_
_atom_site_type_symbol
_atom_site_label
_atom_site_fract_x
_atom_site_fract_y
_atom_site_fract_z
Si Si1 0.743342 0.320800 0.180221
Si Si2 0.000000 0.764330 0.500000
Si Si3 0.077496 0.832163 0.411114
Si Si4 0.699470 0.679617 0.907519
Si Si5 0.646302 0.672979 0.252149
O O1 0.729658 0.500000 0.168601
O O2 0.704452 0.249202 0.093792
O O3 0.649752 0.261645 0.186456
O O4 0.930994 0.269910 0.301812
O O5 0.956163 0.844634 0.536882
O O6 0.827892 0.682909 0.384956
O O7 0.250000 0.750000 0.500000
O O8 0.075105 0.000000 0.383377
O O9 0.717745 0.500000 0.917141
O O10 0.503911 0.726027 0.792712
O O11 0.750000 0.750000 0.000000
O O12 0.610064 0.500000 0.221837
#
# Coordination Sequence:
#
# PCOD9199498 Si02
#       5
#     8   4   8   8   8
#     4  10  21  39  60  85 114 150 194 244 298 353
#     4  10  20  36  60  88 119 154 195 244 295 348
#     4  11  22  36  55  84 120 159 197 240 290 348
#     4  11  23  41  62  87 118 156 198 244 293 350
#     4   9  20  37  60  87 119 155 194 239 295 355
#
# _framework density 22.338906999999999
#
# number of rings (size 3 to 8) (size 9 to 14) (size 15 to 20)
#    0.000    1.778    0.000    4.000    0.000    5.333 
#    0.000   16.667    0.000    0.000    0.000    0.000 
#    0.000    0.000    0.000    0.000    0.000    0.000 
#
# Total GULP energy -100424.463881 kJ/mol
# GULP energy per Si atom -5579.136882 kJ/mol
# Density = 2.228806 g / cm^3
# Si number density = 22.338907 Si / 1000 Ang^3
#
#
#
# Elastic Constant Matrix: (Units=GPa)
#
#
# Indices 1 2 3 4 5 6 
#
# 1 120.5157 25.8361 24.6725 0.0000 -26.6848 0.0000
# 2 25.8361 84.0805 0.5551 0.0000 -14.6365 0.0000
# 3 24.6725 0.5551 60.9435 0.0001 -20.6836 0.0000
# 4 0.0000 0.0000 0.0001 16.5475 0.0000 -6.5967
# 5 -26.6848 -14.6365 -20.6836 0.0000 48.3886 0.0000
# 6 0.0000 0.0000 0.0000 -6.5967 0.0000 22.1381
#
#
#
# Elastic Compliance Matrix: (Units=1/GPa)
#
#
# Indices 1 2 3 4 5 6 
#
# 1 0.010230 -0.002487 -0.002877 0.000000 0.003659 0.000000
# 2 -0.002487 0.013258 0.002084 0.000000 0.003529 0.000000
# 3 -0.002877 0.002084 0.020154 0.000000 0.007658 0.000000
# 4 0.000000 0.000000 0.000000 0.068579 0.000000 0.020435
# 5 0.003659 0.003529 0.007658 0.000000 0.027025 0.000000
# 6 0.000000 0.000000 0.000000 0.020435 0.000000 0.051260
#
#
# Mechanical properties :
#
#
# Convention : Reuss Voigt Hill
#
# Bulk Modulus (GPa) = 26.96764 40.85191 33.90978
# Shear Modulus (GPa) = 23.87463 31.71324 27.79393
#
# Velocity S-wave (km/s) = 3.27272 3.77190 3.53114
# Velocity P-wave (km/s) = 5.13606 6.10710 5.64251
#
# Compressibility (1/GPa) = 0.03708147
#
# Stress axis : x y z
#
# Youngs Moduli (GPa) = 97.74968 75.42420 49.61900
#
# Poissons Ratio (x) = 0.18762 0.14275
# Poissons Ratio (y) = 0.24315 -0.10341
# Poissons Ratio (z) = 0.28122 -0.15719
#
# Static dielectric constant tensor:
#      x y z
#    x 1.859570 0.000000 0.008590 
#    y 0.000000 1.783170 0.000000 
#    z 0.008590 0.000000 1.903700 
# 
# From -- ./inp_files/309101.got.cif
#   From: 2010.05.17/outbox.cif.g08.bks.cpg/sg12_155_cif.got.tgz:309101.got - 2010.06.03 13:09:07.
