data_PCOD9199457
_publ_section_title
;
Structure prediction by ZEFSAII (Michael W. Deem and Ramdas Pophale) SiO2 
 PCOD9199457
Probable space group: C 2/M
;
_chemical_formula_sum "Si O2"
_cell_formula_units_Z 28
_cell_length_a 9.531164
_cell_length_b 11.058247
_cell_length_c 16.337559
_cell_angle_alpha 90.000000
_cell_angle_beta 41.934829
_cell_angle_gamma 90.000000
_cell_volume 1150.750139
_symmetry_space_group_name_H-M "C 2/M"
_symmetry_group_IT_number 12
_symmetry_cell_setting 'monoclinic'
loop_
_space_group_symop_operation_xyz
x,y,z
-x,y,-z
-x,-y,-z
x,-y,z
1/2+x,1/2+y,z
1/2-x,1/2+y,-z
1/2-x,1/2-y,-z
1/2+x,1/2-y,z
loop_
_atom_site_type_symbol
_atom_site_label
_atom_site_fract_x
_atom_site_fract_y
_atom_site_fract_z
Si Si1 0.500000 0.733790 0.500000
Si Si2 0.988729 0.500000 0.100960
Si Si3 0.460746 0.141020 0.342222
Si Si4 0.483902 0.500000 0.910410
Si Si5 0.031458 0.253329 0.145139
O O1 0.489191 0.814282 0.587699
O O2 0.711827 0.658665 0.427915
O O3 0.905569 0.372834 0.170411
O O4 0.233184 0.500000 0.014493
O O5 0.000000 0.500000 0.000000
O O6 0.567025 0.222429 0.225283
O O7 0.513923 0.000000 0.308158
O O8 0.563061 0.622341 0.833415
O O9 0.500000 0.500000 0.000000
O O10 0.250000 0.250000 0.000000
#
# Coordination Sequence:
#
# PCOD9199457 Si02
#       5
#     4   4   8   4   8
#     4  10  26  46  74 104 136 186 248 294 356 414
#     4  10  20  36  60  87 130 175 214 262 333 414
#     4  11  23  48  74 104 142 186 238 300 354 423
#     4  10  22  38  58  91 136 173 220 268 331 418
#     4  10  22  42  66 101 138 180 223 285 357 425
#
# _framework density 24.331955000000001
#
# number of rings (size 3 to 8) (size 9 to 14) (size 15 to 20)
#    0.000    1.714    1.429    1.714    0.000    9.143 
#   15.429    0.000    0.000    0.000    0.000    0.000 
#    0.000    0.000    0.000    0.000    0.000    0.000 
#
# Total GULP energy -78252.431958 kJ/mol
# GULP energy per Si atom -5589.459426 kJ/mol
# Density = 2.427657 g / cm^3
# Si number density = 24.331955 Si / 1000 Ang^3
#
#
#
# Elastic Constant Matrix: (Units=GPa)
#
#
# Indices 1 2 3 4 5 6 
#
# 1 166.9325 60.6207 57.6101 0.0000 45.4365 0.0000
# 2 60.6207 271.8499 64.7417 0.0000 46.6654 0.0000
# 3 57.6101 64.7417 153.2270 0.0000 44.3002 0.0000
# 4 0.0000 0.0000 0.0000 41.4739 0.0000 5.4787
# 5 45.4365 46.6654 44.3002 0.0000 69.6841 0.0000
# 6 0.0000 0.0000 0.0000 5.4787 0.0000 37.7127
#
#
#
# Elastic Compliance Matrix: (Units=1/GPa)
#
#
# Indices 1 2 3 4 5 6 
#
# 1 0.007777 -0.000746 -0.001577 0.000000 -0.003569 0.000000
# 2 -0.000746 0.004405 -0.001064 0.000000 -0.001787 0.000000
# 3 -0.001577 -0.001064 0.008657 0.000000 -0.003762 0.000000
# 4 0.000000 0.000000 0.000000 0.024583 0.000000 -0.003571
# 5 -0.003569 -0.001787 -0.003762 0.000000 0.020266 0.000000
# 6 0.000000 0.000000 0.000000 -0.003571 0.000000 0.027035
#
#
# Mechanical properties :
#
#
# Convention : Reuss Voigt Hill
#
# Bulk Modulus (GPa) = 71.10195 106.43939 88.77067
# Shear Modulus (GPa) = 47.99147 57.04326 52.51737
#
# Velocity S-wave (km/s) = 4.44595 4.84713 4.65087
# Velocity P-wave (km/s) = 7.45925 8.66983 8.08722
#
# Compressibility (1/GPa) = 0.01406431
#
# Stress axis : x y z
#
# Youngs Moduli (GPa) = 128.58514 227.01311 115.51977
#
# Poissons Ratio (x) = 0.16936 0.18217
# Poissons Ratio (y) = 0.09593 0.12292
# Poissons Ratio (z) = 0.20278 0.24156
#
# Static dielectric constant tensor:
#      x y z
#    x 1.979550 0.000000 -0.073480 
#    y 0.000000 2.083110 0.000000 
#    z -0.073480 0.000000 1.938930 
# 
# From -- ./inp_files/193289.got.cif
#   From: 2010.05.17/outbox.cif.g08.bks.cpg/sg12_97_cif.got.tgz:193289.got - 2010.06.03 13:09:07.
