data_PCOD9199840
_publ_section_title
;
Structure prediction by ZEFSAII (Michael W. Deem and Ramdas Pophale) SiO2 
 PCOD9199840
Probable space group: C 2/M
;
_chemical_formula_sum "Si O2"
_cell_formula_units_Z 64
_cell_length_a 8.823690
_cell_length_b 31.919416
_cell_length_c 16.356839
_cell_angle_alpha 90.000000
_cell_angle_beta 138.546442
_cell_angle_gamma 90.000000
_cell_volume 3049.796861
_symmetry_space_group_name_H-M "C 2/M"
_symmetry_group_IT_number 12
_symmetry_cell_setting 'monoclinic'
loop_
_space_group_symop_operation_xyz
x,y,z
-x,y,-z
-x,-y,-z
x,-y,z
1/2+x,1/2+y,z
1/2-x,1/2+y,-z
1/2-x,1/2-y,-z
1/2+x,1/2-y,z
loop_
_atom_site_type_symbol
_atom_site_label
_atom_site_fract_x
_atom_site_fract_y
_atom_site_fract_z
Si Si1 0.132816 0.396676 0.189028
Si Si2 0.991086 0.234846 0.403196
Si Si3 0.080920 0.149003 0.364551
Si Si4 0.099063 0.383591 0.362481
Si Si5 0.655167 0.046364 0.642103
Si Si6 0.371940 0.624438 0.034821
Si Si7 0.250331 0.320525 0.730521
Si Si8 0.326064 0.452123 0.141180
O O1 0.360184 0.375596 0.246054
O O2 0.171237 0.399378 0.302192
O O3 0.140623 0.437970 0.134880
O O4 0.901401 0.369852 0.085594
O O5 0.812349 0.271859 0.309850
O O6 0.000000 0.220843 0.500000
O O7 0.250000 0.250000 0.500000
O O8 0.973252 0.193860 0.342658
O O9 0.204341 0.127172 0.491660
O O10 0.254244 0.157523 0.360611
O O11 0.924763 0.418047 0.328112
O O12 0.952962 0.340695 0.298372
O O13 0.500000 0.050744 0.500000
O O14 0.915913 0.048092 0.717683
O O15 0.619275 0.000000 0.664206
O O16 0.512442 0.662640 0.134109
O O17 0.365464 0.581352 0.084265
O O18 0.500000 0.617679 0.000000
O O19 0.284062 0.500000 0.097489
#
# Coordination Sequence:
#
# PCOD9199840 Si02
#       8
#     8   8   8   8   8   8   8   8
#     4  12  25  41  66  96 135 178 222 275 339 405
#     4  12  23  40  66 104 139 168 217 289 338 394
#     4  12  25  41  70 102 136 174 223 282 347 400
#     4  12  21  39  67  98 132 175 227 274 335 410
#     4  10  20  36  61  93 133 176 218 271 337 404
#     4  12  25  47  69  93 132 183 230 280 332 407
#     4  12  23  43  68  98 133 180 222 280 336 405
#     4  11  24  43  68 101 136 176 232 289 338 395
#
# _framework density 20.985005000000001
#
# number of rings (size 3 to 8) (size 9 to 14) (size 15 to 20)
#    0.000    0.375    6.250    3.375    0.000    1.750 
#    0.000    0.625    0.000    3.750    0.000    0.000 
#    0.000    0.000    0.000    0.000    0.000    0.000 
#
# Total GULP energy -178472.742788 kJ/mol
# GULP energy per Si atom -5577.273212 kJ/mol
# Density = 2.093724 g / cm^3
# Si number density = 20.985005 Si / 1000 Ang^3
#
#
#
# Elastic Constant Matrix: (Units=GPa)
#
#
# Indices 1 2 3 4 5 6 
#
# 1 98.5049 28.0417 17.3762 0.0000 -13.1324 0.0000
# 2 28.0417 111.0165 25.3401 0.0000 -6.7690 0.0000
# 3 17.3762 25.3401 101.6545 0.0000 11.5364 0.0000
# 4 0.0000 0.0000 0.0000 27.1009 0.0000 8.1084
# 5 -13.1324 -6.7690 11.5364 0.0000 39.0042 0.0000
# 6 0.0000 0.0000 0.0000 8.1084 0.0000 33.1417
#
#
#
# Elastic Compliance Matrix: (Units=1/GPa)
#
#
# Indices 1 2 3 4 5 6 
#
# 1 0.011678 -0.002267 -0.001896 0.000000 0.004099 0.000000
# 2 -0.002267 0.010222 -0.002354 0.000000 0.001707 0.000000
# 3 -0.001896 -0.002354 0.011245 0.000000 -0.004373 0.000000
# 4 0.000000 0.000000 0.000000 0.039814 0.000000 -0.009741
# 5 0.004099 0.001707 -0.004373 0.000000 0.028608 0.000000
# 6 0.000000 0.000000 0.000000 -0.009741 0.000000 0.032557
#
#
# Mechanical properties :
#
#
# Convention : Reuss Voigt Hill
#
# Bulk Modulus (GPa) = 49.72826 50.29909 50.01368
# Shear Modulus (GPa) = 32.49688 35.87721 34.18705
#
# Velocity S-wave (km/s) = 3.93946 4.13929 4.04061
# Velocity P-wave (km/s) = 6.66641 6.84588 6.75674
#
# Compressibility (1/GPa) = 0.02010929
#
# Stress axis : x y z
#
# Youngs Moduli (GPa) = 85.62997 97.83072 88.93224
#
# Poissons Ratio (x) = 0.22178 0.16864
# Poissons Ratio (y) = 0.19412 0.20937
# Poissons Ratio (z) = 0.16238 0.23032
#
# Static dielectric constant tensor:
#      x y z
#    x 10.525200 0.000000 7.847210 
#    y 0.000000 1.798770 0.000000 
#    z 7.847210 0.000000 8.772130 
# 
# From -- ./inp_files/260378.got.cif
#   From: 2010.05.17/outbox.cif.g08.bks.cpg/sg12_131_cif.got.tgz:260378.got - 2010.06.03 13:09:07.
