data_PCOD9199126
_publ_section_title
;
Structure prediction by ZEFSAII (Michael W. Deem and Ramdas Pophale) SiO2 
 PCOD9199126
Probable space group: C 2/M
;
_chemical_formula_sum "Si O2"
_cell_formula_units_Z 48
_cell_length_a 30.180035
_cell_length_b 8.743595
_cell_length_c 15.443778
_cell_angle_alpha 90.000000
_cell_angle_beta 140.025293
_cell_angle_gamma 90.000000
_cell_volume 2618.196491
_symmetry_space_group_name_H-M "C 2/M"
_symmetry_group_IT_number 12
_symmetry_cell_setting 'monoclinic'
loop_
_space_group_symop_operation_xyz
x,y,z
-x,y,-z
-x,-y,-z
x,-y,z
1/2+x,1/2+y,z
1/2-x,1/2+y,-z
1/2-x,1/2-y,-z
1/2+x,1/2-y,z
loop_
_atom_site_type_symbol
_atom_site_label
_atom_site_fract_x
_atom_site_fract_y
_atom_site_fract_z
Si Si1 0.828127 0.817231 0.400218
Si Si2 0.329044 0.816022 0.891956
Si Si3 0.675878 0.182382 0.416802
Si Si4 0.579956 0.815220 0.615385
Si Si5 0.323466 0.815664 0.081322
Si Si6 0.419569 0.682826 0.874738
O O1 0.749955 0.781091 0.252654
O O2 0.840289 0.740100 0.511022
O O3 0.880529 0.757619 0.406309
O O4 0.833332 0.000000 0.416445
O O5 0.380170 0.735814 0.902070
O O6 0.337728 0.000000 0.898342
O O7 0.340067 0.768639 0.007986
O O8 0.750000 0.250000 0.500000
O O9 0.619215 0.240034 0.263909
O O10 0.679926 0.000000 0.420646
O O11 0.500000 0.771027 0.500000
O O12 0.619674 0.770782 0.762868
O O13 0.583549 0.000000 0.612875
O O14 0.318560 0.000000 0.073796
O O15 0.250000 0.750000 0.000000
O O16 0.414385 0.500000 0.858049
O O17 0.500000 0.725201 0.000000
#
# Coordination Sequence:
#
# PCOD9199126 Si02
#       6
#     8   8   8   8   8   8
#     4  11  22  38  62  92 124 158 204 255 305 365
#     4  10  21  37  60  89 120 161 207 251 303 365
#     4  12  24  40  65  93 122 161 207 255 308 368
#     4  10  22  39  59  88 125 162 202 251 307 364
#     4  10  20  36  59  86 117 153 200 248 293 355
#     4  11  25  43  63  92 128 162 202 253 308 367
#
# _framework density 18.33323
#
# number of rings (size 3 to 8) (size 9 to 14) (size 15 to 20)
#    0.000    1.333    3.333    2.500    0.000    4.333 
#    0.000    1.667    0.000    0.000    0.000    0.000 
#    0.000    0.000    0.000    0.000    0.000    0.000 
#
# Total GULP energy -134171.882131 kJ/mol
# GULP energy per Si atom -5590.495089 kJ/mol
# Density = 1.829150 g / cm^3
# Si number density = 18.333230 Si / 1000 Ang^3
#
#
#
# Elastic Constant Matrix: (Units=GPa)
#
#
# Indices 1 2 3 4 5 6 
#
# 1 186.9280 71.6915 122.3139 0.0000 -10.9782 0.0000
# 2 71.6915 62.9837 73.2277 0.0000 0.2382 0.0000
# 3 122.3139 73.2277 190.2722 0.0000 -7.7783 0.0000
# 4 0.0000 0.0000 0.0000 21.9905 0.0000 -2.7414
# 5 -10.9782 0.2382 -7.7783 0.0000 42.9419 0.0000
# 6 0.0000 0.0000 0.0000 -2.7414 0.0000 36.3631
#
#
#
# Elastic Compliance Matrix: (Units=1/GPa)
#
#
# Indices 1 2 3 4 5 6 
#
# 1 0.011202 -0.008127 -0.003984 0.000000 0.002187 0.000000
# 2 -0.008127 0.034835 -0.008337 0.000000 -0.003781 0.000000
# 3 -0.003984 -0.008337 0.011067 0.000000 0.001032 0.000000
# 4 0.000000 0.000000 0.000000 0.045906 0.000000 0.003461
# 5 0.002187 -0.003781 0.001032 0.000000 0.024054 0.000000
# 6 0.000000 0.000000 0.000000 0.003461 0.000000 0.027761
#
#
# Mechanical properties :
#
#
# Convention : Reuss Voigt Hill
#
# Bulk Modulus (GPa) = 61.69507 108.29446 84.99476
# Shear Modulus (GPa) = 24.86050 31.78915 28.32483
#
# Velocity S-wave (km/s) = 3.68643 4.16861 3.93491
# Velocity P-wave (km/s) = 7.20033 9.07568 8.19185
#
# Compressibility (1/GPa) = 0.01620875
#
# Stress axis : x y z
#
# Youngs Moduli (GPa) = 89.27211 28.70716 90.35810
#
# Poissons Ratio (x) = 0.23330 0.35996
# Poissons Ratio (y) = 0.72552 0.75327
# Poissons Ratio (z) = 0.35563 0.23932
#
# Static dielectric constant tensor:
#      x y z
#    x 1.591910 0.000000 -0.011200 
#    y 0.000000 1.619310 0.000000 
#    z -0.011200 0.000000 1.615300 
# 
# From -- ./inp_files/229970.got.cif
#   From: 2010.05.17/outbox.cif.g08.bks.cpg/sg12_115_cif.got.tgz:229970.got - 2010.06.03 13:09:07.
