data_PCOD9199964
_publ_section_title
;
Structure prediction by ZEFSAII (Michael W. Deem and Ramdas Pophale) SiO2 
 PCOD9199964
Probable space group: C 2/M
;
_chemical_formula_sum "Si O2"
_cell_formula_units_Z 56
_cell_length_a 11.522913
_cell_length_b 26.365797
_cell_length_c 9.839286
_cell_angle_alpha 90.000000
_cell_angle_beta 55.111815
_cell_angle_gamma 90.000000
_cell_volume 2452.017218
_symmetry_space_group_name_H-M "C 2/M"
_symmetry_group_IT_number 12
_symmetry_cell_setting 'monoclinic'
loop_
_space_group_symop_operation_xyz
x,y,z
-x,y,-z
-x,-y,-z
x,-y,z
1/2+x,1/2+y,z
1/2-x,1/2+y,-z
1/2-x,1/2-y,-z
1/2+x,1/2-y,z
loop_
_atom_site_type_symbol
_atom_site_label
_atom_site_fract_x
_atom_site_fract_y
_atom_site_fract_z
Si Si1 0.828910 0.556595 0.381351
Si Si2 0.091851 0.661426 0.617886
Si Si3 0.469701 0.393504 0.367790
Si Si4 0.653533 0.203658 0.844996
Si Si5 0.172014 0.181367 0.744958
Si Si6 0.770724 0.442121 0.104603
Si Si7 0.202493 0.656673 0.072654
O O1 0.866783 0.500000 0.396753
O O2 0.916367 0.601146 0.392733
O O3 0.666489 0.569760 0.528854
O O4 0.837111 0.559931 0.211462
O O5 0.187773 0.672110 0.687530
O O6 0.177248 0.683400 0.435506
O O7 0.937574 0.680402 0.762866
O O8 0.500000 0.373907 0.500000
O O9 0.429303 0.349219 0.289006
O O10 0.606608 0.425471 0.231309
O O11 0.638304 0.261229 0.808194
O O12 0.500000 0.185788 0.000000
O O13 0.747581 0.191432 0.913776
O O14 0.187887 0.153089 0.878163
O O15 0.784881 0.500000 0.046426
O O16 0.830710 0.398292 0.968071
#
# Coordination Sequence:
#
# PCOD9199964 Si02
#       7
#     8   8   8   8   8   8   8
#     4   9  17  34  63  90 117 161 208 252 304 358
#     4  10  21  41  59  89 122 159 206 255 291 365
#     4   9  20  38  60  92 123 156 207 260 299 365
#     4  10  22  40  62  89 120 158 205 258 303 354
#     4  11  23  40  64  86 121 170 205 245 315 365
#     4  10  20  36  62  92 125 162 203 254 309 361
#     4  11  23  39  60  90 130 159 200 255 304 364
#
# _framework density 22.838339000000001
#
# number of rings (size 3 to 8) (size 9 to 14) (size 15 to 20)
#    0.000    2.000    1.429    1.714    2.000    2.286 
#    0.000    5.714    0.000    4.286    0.000    0.000 
#    0.000    0.000    0.000    0.000    0.000    0.000 
#
# Total GULP energy -156420.026539 kJ/mol
# GULP energy per Si atom -5586.429519 kJ/mol
# Density = 2.278636 g / cm^3
# Si number density = 22.838339 Si / 1000 Ang^3
#
#
#
# Elastic Constant Matrix: (Units=GPa)
#
#
# Indices 1 2 3 4 5 6 
#
# 1 35.2872 12.8711 24.4978 0.0000 18.7472 0.0000
# 2 12.8711 127.8791 28.1724 0.0000 22.1788 0.0000
# 3 24.4978 28.1724 111.8776 0.0000 19.4633 0.0000
# 4 0.0000 0.0000 0.0000 -22.7575 0.0000 -45.6149
# 5 18.7472 22.1788 19.4633 0.0000 37.7090 0.0000
# 6 0.0000 0.0000 0.0000 -45.6149 0.0000 -25.9349
#
#
#
# Elastic Compliance Matrix: (Units=1/GPa)
#
#
# Indices 1 2 3 4 5 6 
#
# 1 0.042005 0.000221 -0.006150 0.000000 -0.017839 0.000000
# 2 0.000221 0.008923 -0.001498 0.000000 -0.004585 0.000000
# 3 -0.006150 -0.001498 0.010961 0.000000 -0.001719 0.000000
# 4 0.000000 0.000000 0.000000 0.017400 0.000000 -0.030604
# 5 -0.017839 -0.004585 -0.001719 0.000000 0.038971 0.000000
# 6 0.000000 0.000000 0.000000 -0.030604 0.000000 0.015268
#
#
# Mechanical properties :
#
#
# Convention : Reuss Voigt Hill
#
# Bulk Modulus (GPa) = 21.26059 45.12520 33.19289
# Shear Modulus (GPa) = 30.47649 11.77016 21.12332
#
# Velocity S-wave (km/s) = 3.65697 2.27264 3.04453
# Velocity P-wave (km/s) = 5.21158 5.16604 5.18886
#
# Compressibility (1/GPa) = 0.04703538
#
# Stress axis : x y z
#
# Youngs Moduli (GPa) = 23.80666 112.07299 91.23056
#
# Poissons Ratio (x) = -0.02476 0.56108
# Poissons Ratio (y) = -0.00526 0.13663
# Poissons Ratio (z) = 0.14641 0.16784
#
# Static dielectric constant tensor:
#      x y z
#    x 1.962950 0.000000 -0.007750 
#    y 0.000000 1.825630 0.000000 
#    z -0.007750 0.000000 1.858170 
# 
# From -- ./inp_files/53146.got.cif
#   From: 2010.05.17/outbox.cif.g08.bks.cpg/sg12_27_cif.got.tgz:53146.got - 2010.06.03 13:09:07.
