data_PCOD9199506
_publ_section_title
;
Structure prediction by ZEFSAII (Michael W. Deem and Ramdas Pophale) SiO2 
 PCOD9199506
Probable space group: C 2/M
;
_chemical_formula_sum "Si O2"
_cell_formula_units_Z 44
_cell_length_a 21.674119
_cell_length_b 9.493885
_cell_length_c 11.284807
_cell_angle_alpha 90.000000
_cell_angle_beta 107.301912
_cell_angle_gamma 90.000000
_cell_volume 2217.020053
_symmetry_space_group_name_H-M "C 2/M"
_symmetry_group_IT_number 12
_symmetry_cell_setting 'monoclinic'
loop_
_space_group_symop_operation_xyz
x,y,z
-x,y,-z
-x,-y,-z
x,-y,z
1/2+x,1/2+y,z
1/2-x,1/2+y,-z
1/2-x,1/2-y,-z
1/2+x,1/2-y,z
loop_
_atom_site_type_symbol
_atom_site_label
_atom_site_fract_x
_atom_site_fract_y
_atom_site_fract_z
Si Si1 0.500000 0.252720 0.500000
Si Si2 0.852427 0.834376 0.794935
Si Si3 0.593010 0.659843 0.755715
Si Si4 0.198864 0.663425 0.686329
Si Si5 0.068015 0.664730 0.970399
Si Si6 0.884089 0.342307 0.589572
O O1 0.456154 0.337817 0.382927
O O2 0.550636 0.165765 0.450009
O O3 0.775187 0.817599 0.740272
O O4 0.882982 0.770980 0.692663
O O5 0.867315 0.000000 0.815972
O O6 0.879802 0.745497 0.919703
O O7 0.603481 0.500000 0.801590
O O8 0.658580 0.732468 0.746482
O O9 0.564762 0.755828 0.843771
O O10 0.183114 0.500000 0.707268
O O11 0.173301 0.684336 0.537530
O O12 0.083775 0.500000 0.963695
O O13 0.000000 0.673956 0.000000
O O14 0.877000 0.500000 0.635809
#
# Coordination Sequence:
#
# PCOD9199506 Si02
#       6
#     4   8   8   8   8   8
#     4  10  22  38  60  90 122 154 192 238 292 348
#     4  11  23  39  61  88 119 155 195 243 295 343
#     4  11  23  39  62  90 119 152 193 243 293 342
#     4   9  21  40  60  86 120 157 196 238 288 349
#     4  11  25  43  62  85 116 156 198 238 287 351
#     4  10  20  36  60  88 120 158 198 239 286 345
#
# _framework density 19.846461999999999
#
# number of rings (size 3 to 8) (size 9 to 14) (size 15 to 20)
#    0.000    1.636    0.000    3.818    0.000   12.364 
#    0.000    0.000    0.000    0.000    0.000    0.000 
#    0.000    0.000    0.000    0.000    0.000    0.000 
#
# Total GULP energy -122966.254992 kJ/mol
# GULP energy per Si atom -5589.375227 kJ/mol
# Density = 1.980129 g / cm^3
# Si number density = 19.846462 Si / 1000 Ang^3
#
#
#
# Elastic Constant Matrix: (Units=GPa)
#
#
# Indices 1 2 3 4 5 6 
#
# 1 69.4651 47.2722 39.2344 0.0000 -1.9718 0.0000
# 2 47.2722 149.4474 63.3284 0.0000 -13.3274 0.0000
# 3 39.2344 63.3284 83.4817 0.0000 -6.1466 0.0000
# 4 0.0000 0.0000 0.0000 -12.6380 0.0000 50.9171
# 5 -1.9718 -13.3274 -6.1466 0.0000 32.1429 0.0000
# 6 0.0000 0.0000 0.0000 50.9171 0.0000 -84.1376
#
#
#
# Elastic Compliance Matrix: (Units=1/GPa)
#
#
# Indices 1 2 3 4 5 6 
#
# 1 0.020914 -0.003750 -0.007104 0.000000 -0.001631 0.000000
# 2 -0.003750 0.010770 -0.006182 0.000000 0.003053 0.000000
# 3 -0.007104 -0.006182 0.020069 0.000000 0.000839 0.000000
# 4 0.000000 0.000000 0.000000 0.055020 0.000000 0.033296
# 5 -0.001631 0.003053 0.000839 0.000000 0.032437 0.000000
# 6 0.000000 0.000000 0.000000 0.033296 0.000000 0.008264
#
#
# Mechanical properties :
#
#
# Convention : Reuss Voigt Hill
#
# Bulk Modulus (GPa) = 56.56433 66.89603 61.73018
# Shear Modulus (GPa) = 26.67500 -2.75592 11.95954
#
# Velocity S-wave (km/s) = 3.67013 -1.17968 2.45746
# Velocity P-wave (km/s) = 6.82075 5.65017 6.26287
#
# Compressibility (1/GPa) = 0.01767899
#
# Stress axis : x y z
#
# Youngs Moduli (GPa) = 47.81453 92.85322 49.82785
#
# Poissons Ratio (x) = 0.34824 0.35399
# Poissons Ratio (y) = 0.17933 0.30805
# Poissons Ratio (z) = 0.33968 0.57405
#
# Static dielectric constant tensor:
#      x y z
#    x 1.677490 0.000000 0.007980 
#    y 0.000000 1.681140 0.000000 
#    z 0.007980 0.000000 1.690780 
# 
# From -- ./inp_files/163143.got.cif
#   From: 2010.05.17/outbox.cif.g08.bks.cpg/sg12_82_cif.got.tgz:163143.got - 2010.06.03 13:09:07.
