data_PCOD9199979
_publ_section_title
;
Structure prediction by ZEFSAII (Michael W. Deem and Ramdas Pophale) SiO2 
 PCOD9199979
Probable space group: C 2/M
;
_chemical_formula_sum "Si O2"
_cell_formula_units_Z 42
_cell_length_a 8.788769
_cell_length_b 10.745930
_cell_length_c 21.912029
_cell_angle_alpha 90.000000
_cell_angle_beta 68.859226
_cell_angle_gamma 90.000000
_cell_volume 1930.168760
_symmetry_space_group_name_H-M "C 2/M"
_symmetry_group_IT_number 12
_symmetry_cell_setting 'monoclinic'
loop_
_space_group_symop_operation_xyz
x,y,z
-x,y,-z
-x,-y,-z
x,-y,z
1/2+x,1/2+y,z
1/2-x,1/2+y,-z
1/2-x,1/2-y,-z
1/2+x,1/2-y,z
loop_
_atom_site_type_symbol
_atom_site_label
_atom_site_fract_x
_atom_site_fract_y
_atom_site_fract_z
Si Si1 0.862921 0.358885 0.566314
Si Si2 0.242006 0.360781 0.741528
Si Si3 0.611810 0.214767 0.068702
Si Si4 0.000000 0.500000 0.000000
Si Si5 0.452135 0.224260 0.346604
Si Si6 0.177766 0.140474 0.846162
O O1 0.823579 0.500000 0.553722
O O2 0.701404 0.277757 0.594278
O O3 0.000000 0.310427 0.500000
O O4 0.941141 0.356520 0.622550
O O5 0.227113 0.500000 0.769123
O O6 0.426760 0.334056 0.692630
O O7 0.120592 0.345193 0.701600
O O8 0.203779 0.248805 0.793193
O O9 0.694908 0.162267 0.117611
O O10 0.501479 0.333476 0.100398
O O11 0.750000 0.250000 0.000000
O O12 0.504881 0.108964 0.052272
O O13 0.191984 0.000000 0.820202
#
# Coordination Sequence:
#
# PCOD9199979 Si02
#       6
#     8   8   8   2   8   8
#     4  10  20  36  62  93 126 165 209 260 316 376
#     4  11  25  43  65  92 126 174 217 265 316 375
#     4  12  26  44  70  96 129 167 207 259 321 385
#     4  12  24  44  72  96 128 168 204 252 324 388
#     4  10  22  40  62  90 129 166 214 263 316 374
#     4  12  28  44  67  98 131 165 215 265 317 381
#
# _framework density 21.759755999999999
#
# number of rings (size 3 to 8) (size 9 to 14) (size 15 to 20)
#    0.000    0.952    2.857    2.857    2.667    9.143 
#    0.000    0.000    0.000    9.143    0.000    0.000 
#    0.000    0.000    0.000    0.000    0.000    0.000 
#
# Total GULP energy -117181.745215 kJ/mol
# GULP energy per Si atom -5580.083105 kJ/mol
# Density = 2.171023 g / cm^3
# Si number density = 21.759756 Si / 1000 Ang^3
#
#
#
# Elastic Constant Matrix: (Units=GPa)
#
#
# Indices 1 2 3 4 5 6 
#
# 1 68.2540 17.6646 8.0188 0.0000 -1.4952 0.0000
# 2 17.6646 136.6523 27.7276 0.0000 5.8224 0.0000
# 3 8.0188 27.7276 72.4636 0.0000 6.5250 0.0000
# 4 0.0000 0.0000 0.0000 27.1235 0.0000 5.9636
# 5 -1.4952 5.8224 6.5250 0.0000 25.4363 0.0000
# 6 0.0000 0.0000 0.0000 5.9636 0.0000 2.7851
#
#
#
# Elastic Compliance Matrix: (Units=1/GPa)
#
#
# Indices 1 2 3 4 5 6 
#
# 1 0.015290 -0.001813 -0.001143 0.000000 0.001607 0.000000
# 2 -0.001813 0.008177 -0.002815 0.000000 -0.001256 0.000000
# 3 -0.001143 -0.002815 0.015305 0.000000 -0.003349 0.000000
# 4 0.000000 0.000000 0.000000 0.069666 0.000000 -0.149173
# 5 0.001607 -0.001256 -0.003349 0.000000 0.040555 0.000000
# 6 0.000000 0.000000 0.000000 -0.149173 0.000000 0.678470
#
#
# Mechanical properties :
#
#
# Convention : Reuss Voigt Hill
#
# Bulk Modulus (GPa) = 36.72430 42.68798 39.70614
# Shear Modulus (GPa) = 5.89566 25.99957 15.94761
#
# Velocity S-wave (km/s) = 1.64782 3.46041 2.71014
# Velocity P-wave (km/s) = 4.53147 5.96878 5.29908
#
# Compressibility (1/GPa) = 0.02722992
#
# Stress axis : x y z
#
# Youngs Moduli (GPa) = 65.40279 122.29529 65.33714
#
# Poissons Ratio (x) = 0.22173 0.07468
# Poissons Ratio (y) = 0.11858 0.18393
# Poissons Ratio (z) = 0.07475 0.34427
#
# Static dielectric constant tensor:
#      x y z
#    x 1.802200 0.000000 -0.023740 
#    y 0.000000 1.765200 0.000000 
#    z -0.023740 0.000000 1.809940 
# 
# From -- ./inp_files/299189.got.cif
#   From: 2010.05.17/outbox.cif.g08.bks.cpg/sg12_150_cif.got.tgz:299189.got - 2010.06.03 13:09:07.
