data_PCOD9199939
_publ_section_title
;
Structure prediction by ZEFSAII (Michael W. Deem and Ramdas Pophale) SiO2 
 PCOD9199939
Probable space group: C 2/M
;
_chemical_formula_sum "Si O2"
_cell_formula_units_Z 40
_cell_length_a 9.655092
_cell_length_b 15.433919
_cell_length_c 12.351707
_cell_angle_alpha 90.000000
_cell_angle_beta 106.815107
_cell_angle_gamma 90.000000
_cell_volume 1761.902734
_symmetry_space_group_name_H-M "C 2/M"
_symmetry_group_IT_number 12
_symmetry_cell_setting 'monoclinic'
loop_
_space_group_symop_operation_xyz
x,y,z
-x,y,-z
-x,-y,-z
x,-y,z
1/2+x,1/2+y,z
1/2-x,1/2+y,-z
1/2-x,1/2-y,-z
1/2+x,1/2-y,z
loop_
_atom_site_type_symbol
_atom_site_label
_atom_site_fract_x
_atom_site_fract_y
_atom_site_fract_z
Si Si1 0.771526 0.895763 0.290833
Si Si2 0.085656 0.899763 0.333983
Si Si3 0.663983 0.893873 0.031120
Si Si4 0.844931 0.336674 0.523749
Si Si5 0.638557 0.603807 0.108530
O O1 0.743299 0.870220 0.160339
O O2 0.654525 0.861590 0.349824
O O3 0.936852 0.865590 0.354052
O O4 0.761059 0.000000 0.296218
O O5 0.231292 0.898516 0.436101
O O6 0.116095 0.859058 0.222990
O O7 0.047934 0.000000 0.305167
O O8 0.668931 0.000000 0.028795
O O9 0.500000 0.865730 0.000000
O O10 0.733489 0.860408 0.936293
O O11 0.750000 0.250000 0.500000
O O12 0.000000 0.334493 0.500000
O O13 0.664164 0.500000 0.127820
O O14 0.500000 0.612293 0.000000
#
# Coordination Sequence:
#
# PCOD9199939 Si02
#       5
#     8   8   8   8   8
#     4  10  20  37  61  90 122 154 190 235 287 340
#     4  10  20  36  62  91 121 153 190 237 284 340
#     4   9  17  28  49  84 124 155 182 227 280 333
#     4  12  27  44  61  80 110 153 199 246 295 347
#     4   9  15  28  51  84 120 153 185 220 277 341
#
# _framework density 22.702729000000001
#
# number of rings (size 3 to 8) (size 9 to 14) (size 15 to 20)
#    0.000    2.000    2.000    2.400    2.800    3.200 
#    0.000    0.000    0.000    2.400    0.000    0.000 
#    0.000    0.000    0.000    0.000    0.000    0.000 
#
# Total GULP energy -111589.147090 kJ/mol
# GULP energy per Si atom -5579.457355 kJ/mol
# Density = 2.265106 g / cm^3
# Si number density = 22.702729 Si / 1000 Ang^3
#
#
#
# Elastic Constant Matrix: (Units=GPa)
#
#
# Indices 1 2 3 4 5 6 
#
# 1 172.4429 10.7526 23.1509 0.0000 -33.1115 0.0000
# 2 10.7526 26.4761 4.2871 0.0000 -9.9429 0.0000
# 3 23.1509 4.2871 62.2554 0.0000 -18.2210 0.0000
# 4 0.0000 0.0000 0.0000 -11.5391 0.0000 -11.0793
# 5 -33.1115 -9.9429 -18.2210 0.0000 37.0174 0.0000
# 6 0.0000 0.0000 0.0000 -11.0793 0.0000 7.1551
#
#
#
# Elastic Compliance Matrix: (Units=1/GPa)
#
#
# Indices 1 2 3 4 5 6 
#
# 1 0.007053 -0.000574 -0.000914 0.000000 0.005705 0.000000
# 2 -0.000574 0.042066 0.000553 0.000000 0.011058 0.000000
# 3 -0.000914 0.000553 0.018890 0.000000 0.008630 0.000000
# 4 0.000000 0.000000 0.000000 -0.034850 0.000000 -0.053963
# 5 0.005705 0.011058 0.008630 0.000000 0.039335 0.000000
# 6 0.000000 0.000000 0.000000 -0.053963 0.000000 0.056202
#
#
# Mechanical properties :
#
#
# Convention : Reuss Voigt Hill
#
# Bulk Modulus (GPa) = 15.11933 37.50618 26.31275
# Shear Modulus (GPa) = 32.76266 21.39226 27.07746
#
# Velocity S-wave (km/s) = 3.80296 3.07298 3.45729
# Velocity P-wave (km/s) = 5.09485 5.39883 5.24904
#
# Compressibility (1/GPa) = 0.06614051
#
# Stress axis : x y z
#
# Youngs Moduli (GPa) = 141.78621 23.77204 52.93729
#
# Poissons Ratio (x) = 0.01365 0.04836
# Poissons Ratio (y) = 0.08139 -0.02928
# Poissons Ratio (z) = 0.12952 -0.01315
#
# Static dielectric constant tensor:
#      x y z
#    x 1.894340 0.000000 -0.038580 
#    y 0.000000 0.355550 0.000000 
#    z -0.038580 0.000000 1.916350 
# 
# From -- ./inp_files/118880.got.cif
#   From: 2010.05.17/outbox.cif.g08.bks.cpg/sg12_60_cif.got.tgz:118880.got - 2010.06.03 13:09:07.
