data_PCOD9199560
_publ_section_title
;
Structure prediction by ZEFSAII (Michael W. Deem and Ramdas Pophale) SiO2 
 PCOD9199560
Probable space group: C 2/M
;
_chemical_formula_sum "Si O2"
_cell_formula_units_Z 64
_cell_length_a 23.801550
_cell_length_b 11.272780
_cell_length_c 11.926902
_cell_angle_alpha 90.000000
_cell_angle_beta 95.125006
_cell_angle_gamma 90.000000
_cell_volume 3187.309289
_symmetry_space_group_name_H-M "C 2/M"
_symmetry_group_IT_number 12
_symmetry_cell_setting 'monoclinic'
loop_
_space_group_symop_operation_xyz
x,y,z
-x,y,-z
-x,-y,-z
x,-y,z
1/2+x,1/2+y,z
1/2-x,1/2+y,-z
1/2-x,1/2-y,-z
1/2+x,1/2-y,z
loop_
_atom_site_type_symbol
_atom_site_label
_atom_site_fract_x
_atom_site_fract_y
_atom_site_fract_z
Si Si1 0.896217 0.143731 0.668655
Si Si2 0.692848 0.867282 0.770830
Si Si3 0.062859 0.870203 0.963352
Si Si4 0.128726 0.772925 0.582148
Si Si5 0.743196 0.373218 0.568513
Si Si6 0.304743 0.785660 0.783805
Si Si7 0.370125 0.132532 0.003277
Si Si8 0.472633 0.634564 0.298113
O O1 0.880855 0.213589 0.551804
O O2 0.853686 0.194694 0.753598
O O3 0.962130 0.170061 0.704249
O O4 0.890084 0.000000 0.655118
O O5 0.655778 0.837077 0.654079
O O6 0.746599 0.783611 0.792352
O O7 0.714193 0.000000 0.765896
O O8 0.655950 0.857250 0.877010
O O9 0.056783 0.865544 0.828090
O O10 0.089051 0.000000 0.998763
O O11 0.091500 0.748563 0.005436
O O12 0.000000 0.872364 0.000000
O O13 0.180042 0.866681 0.608996
O O14 0.068240 0.795600 0.626825
O O15 0.748054 0.500000 0.507855
O O16 0.750000 0.250000 0.500000
O O17 0.789233 0.366713 0.674473
O O18 0.323719 0.854706 0.897446
O O19 0.396158 0.000000 0.998855
O O20 0.474051 0.500000 0.342327
#
# Coordination Sequence:
#
# PCOD9199560 Si02
#       8
#     8   8   8   8   8   8   8   8
#     4  11  22  37  61  94 128 164 209 264 318 377
#     4  10  23  41  64  91 127 173 214 262 318 382
#     4  10  21  39  63  93 126 166 216 268 320 377
#     4  11  21  38  61  91 123 164 209 256 310 379
#     4  11  23  39  61  91 125 163 205 253 307 375
#     4  11  23  40  62  93 125 166 208 262 313 376
#     4  11  23  43  65  92 129 168 215 265 321 386
#     4  10  20  36  60  89 125 160 205 263 318 372
#
# _framework density 20.079633999999999
#
# number of rings (size 3 to 8) (size 9 to 14) (size 15 to 20)
#    0.000    1.375    2.500    3.375    0.000    5.250 
#    0.000    0.625    0.000    3.000    0.000    0.000 
#    0.000    0.000    0.000    0.000    0.000    0.000 
#
# Total GULP energy -178376.111071 kJ/mol
# GULP energy per Si atom -5574.253471 kJ/mol
# Density = 2.003393 g / cm^3
# Si number density = 20.079634 Si / 1000 Ang^3
#
#
#
# Elastic Constant Matrix: (Units=GPa)
#
#
# Indices 1 2 3 4 5 6 
#
# 1 64.7141 30.7176 -12.2092 0.0000 10.1251 0.0000
# 2 30.7176 138.7042 28.6791 0.0000 7.9108 0.0000
# 3 -12.2092 28.6791 68.4086 0.0000 7.8835 0.0000
# 4 0.0000 0.0000 0.0000 19.4805 0.0000 3.8972
# 5 10.1251 7.9108 7.8835 0.0000 31.6159 0.0000
# 6 0.0000 0.0000 0.0000 3.8972 0.0000 15.7820
#
#
#
# Elastic Compliance Matrix: (Units=1/GPa)
#
#
# Indices 1 2 3 4 5 6 
#
# 1 0.020420 -0.005528 0.006750 0.000000 -0.006840 0.000000
# 2 -0.005528 0.009434 -0.005018 0.000000 0.000661 0.000000
# 3 0.006750 -0.005018 0.018564 0.000000 -0.005535 0.000000
# 4 0.000000 0.000000 0.000000 0.054001 0.000000 -0.013335
# 5 -0.006840 0.000661 -0.005535 0.000000 0.035035 0.000000
# 6 0.000000 0.000000 0.000000 -0.013335 0.000000 0.066656
#
#
# Mechanical properties :
#
#
# Convention : Reuss Voigt Hill
#
# Bulk Modulus (GPa) = 24.49346 40.68909 32.59127
# Shear Modulus (GPa) = 22.19165 28.35165 25.27165
#
# Velocity S-wave (km/s) = 3.32803 3.76168 3.55148
# Velocity P-wave (km/s) = 5.19542 6.25898 5.75184
#
# Compressibility (1/GPa) = 0.04082722
#
# Stress axis : x y z
#
# Youngs Moduli (GPa) = 48.97132 106.00456 53.86709
#
# Poissons Ratio (x) = 0.58598 -0.36361
# Poissons Ratio (y) = 0.27071 0.27028
# Poissons Ratio (z) = -0.33056 0.53189
#
# Static dielectric constant tensor:
#      x y z
#    x 1.710810 0.000000 -0.007930 
#    y 0.000000 1.737850 0.000000 
#    z -0.007930 0.000000 1.756950 
# 
# From -- ./inp_files/174685.got.cif
#   From: 2010.05.17/outbox.cif.g08.bks.cpg/sg12_88_cif.got.tgz:174685.got - 2010.06.03 13:09:07.
