data_PCOD9199566
_publ_section_title
;
Structure prediction by ZEFSAII (Michael W. Deem and Ramdas Pophale) SiO2 
 PCOD9199566
Probable space group: C 2/M
;
_chemical_formula_sum "Si O2"
_cell_formula_units_Z 32
_cell_length_a 17.448734
_cell_length_b 18.447393
_cell_length_c 9.150620
_cell_angle_alpha 90.000000
_cell_angle_beta 143.177968
_cell_angle_gamma 90.000000
_cell_volume 1765.291858
_symmetry_space_group_name_H-M "C 2/M"
_symmetry_group_IT_number 12
_symmetry_cell_setting 'monoclinic'
loop_
_space_group_symop_operation_xyz
x,y,z
-x,y,-z
-x,-y,-z
x,-y,z
1/2+x,1/2+y,z
1/2-x,1/2+y,-z
1/2-x,1/2-y,-z
1/2+x,1/2-y,z
loop_
_atom_site_type_symbol
_atom_site_label
_atom_site_fract_x
_atom_site_fract_y
_atom_site_fract_z
Si Si1 0.354353 0.000000 0.981361
Si Si2 0.994009 0.880313 0.826500
Si Si3 0.163106 0.000000 0.944120
Si Si4 0.634684 0.000000 0.488832
Si Si5 0.500000 0.757478 0.000000
Si Si6 0.305144 0.116738 0.663289
O O1 0.355804 0.069101 0.876306
O O2 0.227198 0.000000 0.883836
O O3 0.482050 0.000000 0.273094
O O4 0.038271 0.798090 0.928345
O O5 0.846920 0.876097 0.554965
O O6 0.077282 0.929409 0.847353
O O7 0.000000 0.914339 0.000000
O O8 0.720625 0.000000 0.762724
O O9 0.669321 0.069774 0.442838
O O10 0.617925 0.808535 0.221971
#
# Coordination Sequence:
#
# PCOD9199566 Si02
#       6
#     4   8   4   4   4   8
#     4  11  24  34  61  86 116 150 177 246 281 328
#     4  10  22  34  61  85 108 154 183 239 271 329
#     4  12  22  40  54  88 119 143 194 225 292 334
#     4  11  18  37  63  81 111 154 187 240 264 336
#     4  10  20  36  60  90 110 140 200 232 274 328
#     4  11  19  38  62  86 111 144 199 230 277 330
#
# _framework density 18.127314999999999
#
# number of rings (size 3 to 8) (size 9 to 14) (size 15 to 20)
#    0.750    0.500    5.000    3.750    0.000    2.000 
#    0.000    1.250    0.000    0.000    0.000    0.000 
#    0.000    0.000    0.000    0.000    0.000    0.000 
#
# Total GULP energy -89249.326081 kJ/mol
# GULP energy per Si atom -5578.082880 kJ/mol
# Density = 1.808606 g / cm^3
# Si number density = 18.127315 Si / 1000 Ang^3
#
#
#
# Elastic Constant Matrix: (Units=GPa)
#
#
# Indices 1 2 3 4 5 6 
#
# 1 50.3247 20.7365 -4.5034 0.0000 16.6538 0.0000
# 2 20.7365 120.5361 21.3251 0.0000 7.3930 0.0000
# 3 -4.5034 21.3251 90.4586 0.0000 -1.4690 0.0000
# 4 0.0000 0.0000 0.0000 12.9431 0.0000 4.4249
# 5 16.6538 7.3930 -1.4690 0.0000 24.8128 0.0000
# 6 0.0000 0.0000 0.0000 4.4249 0.0000 0.9560
#
#
#
# Elastic Compliance Matrix: (Units=1/GPa)
#
#
# Indices 1 2 3 4 5 6 
#
# 1 0.027347 -0.004019 0.002032 0.000000 -0.017037 0.000000
# 2 -0.004019 0.009433 -0.002428 0.000000 -0.000257 0.000000
# 3 0.002032 -0.002428 0.011729 0.000000 0.000054 0.000000
# 4 0.000000 0.000000 0.000000 -0.132667 0.000000 0.614052
# 5 -0.017037 -0.000257 0.000054 0.000000 0.051816 0.000000
# 6 0.000000 0.000000 0.000000 0.614052 0.000000 -1.796140
#
#
# Mechanical properties :
#
#
# Convention : Reuss Voigt Hill
#
# Bulk Modulus (GPa) = 25.20218 37.38177 31.29197
# Shear Modulus (GPa) = -2.76790 22.65979 9.94594
#
# Velocity S-wave (km/s) = -1.23703 3.53942 2.34492
# Velocity P-wave (km/s) = 3.44859 6.11309 4.96299
#
# Compressibility (1/GPa) = 0.03967911
#
# Stress axis : x y z
#
# Youngs Moduli (GPa) = 36.56725 106.01037 85.25710
#
# Poissons Ratio (x) = 0.42608 -0.17327
# Poissons Ratio (y) = 0.14697 0.20701
# Poissons Ratio (z) = -0.07431 0.25740
#
# Static dielectric constant tensor:
#      x y z
#    x 1.597040 0.000000 -0.012860 
#    y 0.000000 1.619030 0.000000 
#    z -0.012860 0.000000 1.649060 
# 
# From -- ./inp_files/147388.got.cif
#   From: 2010.05.17/outbox.cif.g08.bks.cpg/sg12_74_cif.got.tgz:147388.got - 2010.06.03 13:09:07.
