data_PCOD9199254
_publ_section_title
;
Structure prediction by ZEFSAII (Michael W. Deem and Ramdas Pophale) SiO2 
 PCOD9199254
Probable space group: C 2/M
;
_chemical_formula_sum "Si O2"
_cell_formula_units_Z 58
_cell_length_a 19.836905
_cell_length_b 12.450603
_cell_length_c 17.994429
_cell_angle_alpha 90.000000
_cell_angle_beta 41.294728
_cell_angle_gamma 90.000000
_cell_volume 2932.931441
_symmetry_space_group_name_H-M "C 2/M"
_symmetry_group_IT_number 12
_symmetry_cell_setting 'monoclinic'
loop_
_space_group_symop_operation_xyz
x,y,z
-x,y,-z
-x,-y,-z
x,-y,z
1/2+x,1/2+y,z
1/2-x,1/2+y,-z
1/2-x,1/2-y,-z
1/2+x,1/2-y,z
loop_
_atom_site_type_symbol
_atom_site_label
_atom_site_fract_x
_atom_site_fract_y
_atom_site_fract_z
Si Si1 0.056778 0.383704 0.529985
Si Si2 0.870689 0.123397 0.358779
Si Si3 0.000000 0.000000 0.000000
Si Si4 0.861890 0.373881 0.794612
Si Si5 0.786407 0.797158 0.579304
Si Si6 0.114069 0.622517 0.821901
Si Si7 0.049942 0.745644 0.142555
Si Si8 0.349093 0.691046 0.092213
O O1 0.108437 0.500000 0.503968
O O2 0.128300 0.282317 0.461176
O O3 0.000000 0.395050 0.500000
O O4 0.972107 0.365492 0.663413
O O5 0.839214 0.133761 0.470986
O O6 0.794545 0.209729 0.385207
O O7 0.981802 0.168511 0.244547
O O8 0.860642 0.000000 0.342523
O O9 0.910583 0.906065 0.078747
O O10 0.839927 0.500000 0.823935
O O11 0.876057 0.314292 0.861235
O O12 0.771957 0.327924 0.816937
O O13 0.722349 0.866811 0.689720
O O14 0.094496 0.500000 0.859253
O O15 0.123035 0.702984 0.884051
O O16 0.028073 0.664151 0.834916
O O17 0.109838 0.801513 0.026019
#
# Coordination Sequence:
#
# PCOD9199254 Si02
#       8
#     8   8   2   8   8   8   8   8
#     4  10  20  36  59  89 122 164 208 261 319 384
#     4  10  21  35  60  90 123 163 207 264 322 379
#     4  12  24  48  70  96 130 172 220 270 332 378
#     4  11  23  40  65  93 130 166 213 271 327 388
#     4  10  20  38  59  88 124 161 210 262 312 383
#     4  11  24  42  67  95 129 171 220 265 320 387
#     4  11  23  41  63  96 128 169 212 269 326 390
#     4  12  25  44  68  96 129 171 219 271 325 391
#
# _framework density 19.775437
#
# number of rings (size 3 to 8) (size 9 to 14) (size 15 to 20)
#    0.000    1.241    3.448    2.483    0.966    1.655 
#    1.241    0.690    0.000    1.655    0.000    0.000 
#    0.000    0.000    0.000    0.000    0.000    0.000 
#
# Total GULP energy -161613.093238 kJ/mol
# GULP energy per Si atom -5572.865284 kJ/mol
# Density = 1.973043 g / cm^3
# Si number density = 19.775437 Si / 1000 Ang^3
#
#
#
# Elastic Constant Matrix: (Units=GPa)
#
#
# Indices 1 2 3 4 5 6 
#
# 1 59.9475 13.8478 -7.1301 0.0000 -8.4889 0.0000
# 2 13.8478 109.8654 9.9724 0.0000 -0.6585 0.0000
# 3 -7.1301 9.9724 60.9793 0.0000 8.4292 0.0000
# 4 0.0000 0.0000 0.0000 23.1134 0.0000 0.2224
# 5 -8.4889 -0.6585 8.4292 0.0000 26.1809 0.0000
# 6 0.0000 0.0000 0.0000 0.2224 0.0000 39.5032
#
#
#
# Elastic Compliance Matrix: (Units=1/GPa)
#
#
# Indices 1 2 3 4 5 6 
#
# 1 0.018200 -0.002426 0.001798 0.000000 0.005262 0.000000
# 2 -0.002426 0.009577 -0.001857 0.000000 0.000052 0.000000
# 3 0.001798 -0.001857 0.017623 0.000000 -0.005138 0.000000
# 4 0.000000 0.000000 0.000000 0.043267 0.000000 -0.000244
# 5 0.005262 0.000052 -0.005138 0.000000 0.041557 0.000000
# 6 0.000000 0.000000 0.000000 -0.000244 0.000000 0.025316
#
#
# Mechanical properties :
#
#
# Convention : Reuss Voigt Hill
#
# Bulk Modulus (GPa) = 24.73419 29.35248 27.04333
# Shear Modulus (GPa) = 28.73771 32.03298 30.38535
#
# Velocity S-wave (km/s) = 3.81622 4.02909 3.92410
# Velocity P-wave (km/s) = 5.65268 6.04316 5.85118
#
# Compressibility (1/GPa) = 0.04042987
#
# Stress axis : x y z
#
# Youngs Moduli (GPa) = 54.94371 104.42058 56.74377
#
# Poissons Ratio (x) = 0.25329 -0.10200
# Poissons Ratio (y) = 0.13328 0.10537
# Poissons Ratio (z) = -0.09876 0.19391
#
# Static dielectric constant tensor:
#      x y z
#    x 1.704600 0.000000 -0.012930 
#    y 0.000000 1.697210 0.000000 
#    z -0.012930 0.000000 1.728460 
# 
# From -- ./inp_files/283531.got.cif
#   From: 2010.05.17/outbox.cif.g08.bks.cpg/sg12_142_cif.got.tgz:283531.got - 2010.06.03 13:09:07.
