data_PCOD9199470
_publ_section_title
;
Structure prediction by ZEFSAII (Michael W. Deem and Ramdas Pophale) SiO2 
 PCOD9199470
Probable space group: C 2/M
;
_chemical_formula_sum "Si O2"
_cell_formula_units_Z 64
_cell_length_a 30.802627
_cell_length_b 9.073249
_cell_length_c 11.668623
_cell_angle_alpha 90.000000
_cell_angle_beta 94.396962
_cell_angle_gamma 90.000000
_cell_volume 3251.547500
_symmetry_space_group_name_H-M "C 2/M"
_symmetry_group_IT_number 12
_symmetry_cell_setting 'monoclinic'
loop_
_space_group_symop_operation_xyz
x,y,z
-x,y,-z
-x,-y,-z
x,-y,z
1/2+x,1/2+y,z
1/2-x,1/2+y,-z
1/2-x,1/2-y,-z
1/2+x,1/2-y,z
loop_
_atom_site_type_symbol
_atom_site_label
_atom_site_fract_x
_atom_site_fract_y
_atom_site_fract_z
Si Si1 0.289696 0.176809 0.575706
Si Si2 0.620085 0.326072 0.454759
Si Si3 0.513970 0.171310 0.824640
Si Si4 0.544571 0.171696 0.570940
Si Si5 0.316549 0.325519 0.063737
Si Si6 0.772174 0.324350 0.836249
Si Si7 0.421766 0.673023 0.803957
Si Si8 0.099520 0.324627 0.975452
O O1 0.250000 0.250000 0.500000
O O2 0.334799 0.239039 0.536022
O O3 0.285785 0.214684 0.710374
O O4 0.287891 0.000000 0.565782
O O5 0.627655 0.500000 0.472013
O O6 0.585465 0.265355 0.538741
O O7 0.598161 0.303076 0.325455
O O8 0.535825 0.177619 0.704036
O O9 0.471283 0.270104 0.816022
O O10 0.501312 0.000000 0.844162
O O11 0.551336 0.215277 0.921323
O O12 0.500000 0.222005 0.500000
O O13 0.551441 0.000000 0.538894
O O14 0.323062 0.500000 0.056440
O O15 0.297338 0.263619 0.940106
O O16 0.362365 0.246213 0.092189
O O17 0.279187 0.297226 0.150560
O O18 0.779723 0.500000 0.854954
O O19 0.419563 0.500000 0.830224
O O20 0.396394 0.763770 0.895391
O O21 0.103195 0.500000 0.973232
#
# Coordination Sequence:
#
# PCOD9199470 Si02
#       8
#     8   8   8   8   8   8   8   8
#     4  11  24  42  63  88 121 158 198 244 297 354
#     4  11  24  40  61  90 121 155 199 247 298 352
#     4  10  22  39  58  84 116 154 196 241 294 350
#     4  10  20  38  64  88 115 153 200 248 295 351
#     4  10  20  36  60  88 116 148 192 241 291 348
#     4   9  20  39  62  87 116 152 192 237 294 352
#     4  11  23  38  59  86 117 153 196 243 291 345
#     4  11  23  37  55  82 119 156 193 237 291 351
#
# _framework density 19.682933999999999
#
# number of rings (size 3 to 8) (size 9 to 14) (size 15 to 20)
#    0.000    1.625    1.250    3.000    0.000    9.250 
#    0.000    2.500    0.000    0.000    0.000    0.000 
#    0.000    0.000    0.000    0.000    0.000    0.000 
#
# Total GULP energy -178913.866635 kJ/mol
# GULP energy per Si atom -5591.058332 kJ/mol
# Density = 1.963814 g / cm^3
# Si number density = 19.682934 Si / 1000 Ang^3
#
#
#
# Elastic Constant Matrix: (Units=GPa)
#
#
# Indices 1 2 3 4 5 6 
#
# 1 113.3088 45.1088 5.4524 0.0000 -10.0383 0.0000
# 2 45.1088 49.9670 11.1610 0.0000 -0.9419 0.0000
# 3 5.4524 11.1610 37.7087 0.0000 -10.5593 0.0000
# 4 0.0000 0.0000 0.0000 23.0885 0.0000 0.5051
# 5 -10.0383 -0.9419 -10.5593 0.0000 25.1196 0.0000
# 6 0.0000 0.0000 0.0000 0.5051 0.0000 38.1088
#
#
#
# Elastic Compliance Matrix: (Units=1/GPa)
#
#
# Indices 1 2 3 4 5 6 
#
# 1 0.014939 -0.014259 0.004060 0.000000 0.007142 0.000000
# 2 -0.014259 0.035139 -0.010842 0.000000 -0.008938 0.000000
# 3 0.004060 -0.010842 0.033415 0.000000 0.015262 0.000000
# 4 0.000000 0.000000 0.000000 0.043324 0.000000 -0.000574
# 5 0.007142 -0.008938 0.015262 0.000000 0.048744 0.000000
# 6 0.000000 0.000000 0.000000 -0.000574 0.000000 0.026248
#
#
# Mechanical properties :
#
#
# Convention : Reuss Voigt Hill
#
# Bulk Modulus (GPa) = 24.14740 36.04764 30.09752
# Shear Modulus (GPa) = 19.40274 26.54752 22.97513
#
# Velocity S-wave (km/s) = 3.14310 3.67653 3.42023
# Velocity P-wave (km/s) = 5.04647 6.03129 5.56072
#
# Compressibility (1/GPa) = 0.04141232
#
# Stress axis : x y z
#
# Youngs Moduli (GPa) = 66.93666 28.45816 29.92693
#
# Poissons Ratio (x) = 0.40579 -0.12151
# Poissons Ratio (y) = 0.95447 0.32446
# Poissons Ratio (z) = -0.27178 0.30853
#
# Static dielectric constant tensor:
#      x y z
#    x 1.688110 0.000000 -0.003880 
#    y 0.000000 1.659930 0.000000 
#    z -0.003880 0.000000 1.683800 
# 
# From -- ./inp_files/187428.got.cif
#   From: 2010.05.17/outbox.cif.g08.bks.cpg/sg12_94_cif.got.tgz:187428.got - 2010.06.03 13:09:07.
