data_PCOD9199774
_publ_section_title
;
Structure prediction by ZEFSAII (Michael W. Deem and Ramdas Pophale) SiO2 
 PCOD9199774
Probable space group: C 2/M
;
_chemical_formula_sum "Si O2"
_cell_formula_units_Z 56
_cell_length_a 24.122826
_cell_length_b 8.941950
_cell_length_c 14.776259
_cell_angle_alpha 90.000000
_cell_angle_beta 67.960176
_cell_angle_gamma 90.000000
_cell_volume 2954.395921
_symmetry_space_group_name_H-M "C 2/M"
_symmetry_group_IT_number 12
_symmetry_cell_setting 'monoclinic'
loop_
_space_group_symop_operation_xyz
x,y,z
-x,y,-z
-x,-y,-z
x,-y,z
1/2+x,1/2+y,z
1/2-x,1/2+y,-z
1/2-x,1/2-y,-z
1/2+x,1/2-y,z
loop_
_atom_site_type_symbol
_atom_site_label
_atom_site_fract_x
_atom_site_fract_y
_atom_site_fract_z
Si Si1 0.822594 0.822944 0.857733
Si Si2 0.381539 0.322093 0.540463
Si Si3 0.741656 0.177589 0.406533
Si Si4 0.304893 0.321910 0.079614
Si Si5 0.069805 0.322679 0.317727
Si Si6 0.365155 0.322947 0.222540
Si Si7 0.062512 0.323050 0.669755
O O1 0.757355 0.764125 0.868823
O O2 0.875071 0.736790 0.774981
O O3 0.827541 0.000000 0.837300
O O4 0.825886 0.796991 0.964045
O O5 0.379322 0.500000 0.542504
O O6 0.316279 0.254262 0.601443
O O7 0.426488 0.260156 0.588414
O O8 0.400757 0.263164 0.430360
O O9 0.750000 0.250000 0.500000
O O10 0.801615 0.200172 0.312133
O O11 0.731495 0.000000 0.421198
O O12 0.293150 0.500000 0.097603
O O13 0.353023 0.279730 0.126173
O O14 0.075094 0.500000 0.329751
O O15 0.007193 0.293445 0.306253
O O16 0.378942 0.500000 0.218617
O O17 0.414473 0.232829 0.247620
O O18 0.073214 0.500000 0.653343
#
# Coordination Sequence:
#
# PCOD9199774 Si02
#       7
#     8   8   8   8   8   8   8
#     4  10  20  36  61  91 117 146 188 237 286 339
#     4  12  24  38  59  86 114 150 193 239 289 342
#     4  11  21  34  55  84 118 152 186 230 281 334
#     4   9  19  37  61  89 120 150 184 231 288 344
#     4  11  24  41  59  81 112 152 194 239 290 342
#     4  10  21  37  58  83 114 153 191 230 283 338
#     4  11  24  40  58  80 112 153 195 239 286 340
#
# _framework density 18.954806000000001
#
# number of rings (size 3 to 8) (size 9 to 14) (size 15 to 20)
#    0.000    1.429    1.429    4.286    0.000    6.857 
#    0.000    0.714    0.000    4.286    0.000    0.000 
#    0.000    0.000    0.000    0.000    0.000    0.000 
#
# Total GULP energy -156564.971435 kJ/mol
# GULP energy per Si atom -5591.606123 kJ/mol
# Density = 1.891166 g / cm^3
# Si number density = 18.954806 Si / 1000 Ang^3
#
#
#
# Elastic Constant Matrix: (Units=GPa)
#
#
# Indices 1 2 3 4 5 6 
#
# 1 107.3064 52.3275 25.2540 0.0000 30.3212 0.0000
# 2 52.3275 72.7772 21.0019 0.0000 13.4201 0.0000
# 3 25.2540 21.0019 39.6806 0.0000 21.2693 0.0000
# 4 0.0000 0.0000 0.0000 23.3359 0.0000 6.5271
# 5 30.3212 13.4201 21.2693 0.0000 34.5853 0.0000
# 6 0.0000 0.0000 0.0000 6.5271 0.0000 31.2439
#
#
#
# Elastic Compliance Matrix: (Units=1/GPa)
#
#
# Indices 1 2 3 4 5 6 
#
# 1 0.017753 -0.010802 0.000768 0.000000 -0.011845 0.000000
# 2 -0.010802 0.022843 -0.008265 0.000000 0.005689 0.000000
# 3 0.000768 -0.008265 0.041364 0.000000 -0.022904 0.000000
# 4 0.000000 0.000000 0.000000 0.045512 0.000000 -0.009508
# 5 -0.011845 0.005689 -0.022904 0.000000 0.051176 0.000000
# 6 0.000000 0.000000 0.000000 -0.009508 0.000000 0.033993
#
#
# Mechanical properties :
#
#
# Convention : Reuss Voigt Hill
#
# Bulk Modulus (GPa) = 22.04527 46.32569 34.18548
# Shear Modulus (GPa) = 18.91361 25.91173 22.41267
#
# Velocity S-wave (km/s) = 3.16227 3.70134 3.44237
# Velocity P-wave (km/s) = 4.99889 6.53909 5.82017
#
# Compressibility (1/GPa) = 0.04536120
#
# Stress axis : x y z
#
# Youngs Moduli (GPa) = 56.32896 43.77661 24.17565
#
# Poissons Ratio (x) = 0.47287 -0.01856
# Poissons Ratio (y) = 0.60845 0.19981
# Poissons Ratio (z) = -0.04323 0.36182
#
# Static dielectric constant tensor:
#      x y z
#    x 1.657600 0.000000 0.025040 
#    y 0.000000 1.631560 0.000000 
#    z 0.025040 0.000000 1.657990 
# 
# From -- ./inp_files/237429.got.cif
#   From: 2010.05.17/outbox.cif.g08.bks.cpg/sg12_119_cif.got.tgz:237429.got - 2010.06.03 13:09:07.
