data_PCOD9199406
_publ_section_title
;
Structure prediction by ZEFSAII (Michael W. Deem and Ramdas Pophale) SiO2 
 PCOD9199406
Probable space group: C 2/M
;
_chemical_formula_sum "Si O2"
_cell_formula_units_Z 32
_cell_length_a 9.159956
_cell_length_b 11.214823
_cell_length_c 13.263030
_cell_angle_alpha 90.000000
_cell_angle_beta 89.859910
_cell_angle_gamma 90.000000
_cell_volume 1362.470993
_symmetry_space_group_name_H-M "C 2/M"
_symmetry_group_IT_number 12
_symmetry_cell_setting 'monoclinic'
loop_
_space_group_symop_operation_xyz
x,y,z
-x,y,-z
-x,-y,-z
x,-y,z
1/2+x,1/2+y,z
1/2-x,1/2+y,-z
1/2-x,1/2-y,-z
1/2+x,1/2-y,z
loop_
_atom_site_type_symbol
_atom_site_label
_atom_site_fract_x
_atom_site_fract_y
_atom_site_fract_z
Si Si1 0.897233 0.500000 0.402990
Si Si2 0.958663 0.237970 0.381884
Si Si3 0.894081 0.137328 0.801479
Si Si4 0.621351 0.798364 0.927629
Si Si5 0.649173 0.500000 0.559742
O O1 0.918449 0.372763 0.350569
O O2 0.748993 0.500000 0.462653
O O3 0.000000 0.500000 0.500000
O O4 0.845278 0.125055 0.379327
O O5 0.000000 0.246457 0.500000
O O6 0.087273 0.197552 0.307397
O O7 0.730174 0.142567 0.846321
O O8 0.017174 0.202024 0.871409
O O9 0.935055 0.000000 0.792522
O O10 0.500000 0.862000 0.000000
O O11 0.750000 0.750000 0.000000
O O12 0.500000 0.500000 0.500000
#
# Coordination Sequence:
#
# PCOD9199406 Si02
#       5
#     4   8   8   8   4
#     4  10  22  38  60  86 126 182 228 274 324 388
#     4  10  22  42  63  98 140 184 228 278 338 408
#     4  11  23  43  71 103 140 185 230 284 355 427
#     4   9  22  45  70 100 135 171 230 294 356 420
#     4  10  20  36  60  86 124 178 224 266 326 386
#
# _framework density 23.486737999999999
#
# number of rings (size 3 to 8) (size 9 to 14) (size 15 to 20)
#    0.000    2.000    1.250    0.750    0.000   13.000 
#    4.500    2.500    0.000    0.000    0.000    0.000 
#    0.000    0.000    0.000    0.000    0.000    0.000 
#
# Total GULP energy -89090.077642 kJ/mol
# GULP energy per Si atom -5568.129853 kJ/mol
# Density = 2.343328 g / cm^3
# Si number density = 23.486738 Si / 1000 Ang^3
#
#
#
# Elastic Constant Matrix: (Units=GPa)
#
#
# Indices 1 2 3 4 5 6 
#
# 1 139.4046 43.1820 49.5526 0.0000 -11.4758 0.0000
# 2 43.1820 233.7745 45.1813 0.0000 -21.5847 0.0000
# 3 49.5526 45.1813 133.3872 0.0000 -13.0925 0.0000
# 4 0.0000 0.0000 0.0000 17.4723 0.0000 -9.4711
# 5 -11.4758 -21.5847 -13.0925 0.0000 57.8490 0.0000
# 6 0.0000 0.0000 0.0000 -9.4711 0.0000 29.6010
#
#
#
# Elastic Compliance Matrix: (Units=1/GPa)
#
#
# Indices 1 2 3 4 5 6 
#
# 1 0.008515 -0.000974 -0.002765 0.000000 0.000700 0.000000
# 2 -0.000974 0.004800 -0.001132 0.000000 0.001342 0.000000
# 3 -0.002765 -0.001132 0.009013 0.000000 0.001069 0.000000
# 4 0.000000 0.000000 0.000000 0.069243 0.000000 0.022155
# 5 0.000700 0.001342 0.001069 0.000000 0.018168 0.000000
# 6 0.000000 0.000000 0.000000 0.022155 0.000000 0.040871
#
#
# Mechanical properties :
#
#
# Convention : Reuss Voigt Hill
#
# Bulk Modulus (GPa) = 79.45443 86.93313 83.19378
# Shear Modulus (GPa) = 30.38633 45.56117 37.97375
#
# Velocity S-wave (km/s) = 3.60080 4.40917 4.02533
# Velocity P-wave (km/s) = 7.15476 7.93821 7.55664
#
# Compressibility (1/GPa) = 0.01258583
#
# Stress axis : x y z
#
# Youngs Moduli (GPa) = 117.43336 208.32160 110.95605
#
# Poissons Ratio (x) = 0.20289 0.30677
# Poissons Ratio (y) = 0.11437 0.12565
# Poissons Ratio (z) = 0.32468 0.23592
#
# Static dielectric constant tensor:
#      x y z
#    x 1.878400 0.000000 0.000970 
#    y 0.000000 1.972520 0.000000 
#    z 0.000970 0.000000 1.931470 
# 
# From -- ./inp_files/193429.got.cif
#   From: 2010.05.17/outbox.cif.g08.bks.cpg/sg12_97_cif.got.tgz:193429.got - 2010.06.03 13:09:07.
