data_PCOD9199458
_publ_section_title
;
Structure prediction by ZEFSAII (Michael W. Deem and Ramdas Pophale) SiO2 
 PCOD9199458
Probable space group: C 2/M
;
_chemical_formula_sum "Si O2"
_cell_formula_units_Z 44
_cell_length_a 19.324742
_cell_length_b 13.064398
_cell_length_c 7.922511
_cell_angle_alpha 90.000000
_cell_angle_beta 90.914208
_cell_angle_gamma 90.000000
_cell_volume 1999.911011
_symmetry_space_group_name_H-M "C 2/M"
_symmetry_group_IT_number 12
_symmetry_cell_setting 'monoclinic'
loop_
_space_group_symop_operation_xyz
x,y,z
-x,y,-z
-x,-y,-z
x,-y,z
1/2+x,1/2+y,z
1/2-x,1/2+y,-z
1/2-x,1/2-y,-z
1/2+x,1/2-y,z
loop_
_atom_site_type_symbol
_atom_site_label
_atom_site_fract_x
_atom_site_fract_y
_atom_site_fract_z
Si Si1 0.921061 0.271509 0.660502
Si Si2 0.591910 0.000000 0.353639
Si Si3 0.968594 0.884066 0.183699
Si Si4 0.129749 0.724367 0.715088
Si Si5 0.769950 0.280012 0.812277
Si Si6 0.288426 0.000000 0.900271
Si Si7 0.640741 0.000000 0.746548
O O1 0.945988 0.390625 0.658307
O O2 0.900019 0.252723 0.468299
O O3 0.849411 0.263961 0.764107
O O4 0.976574 0.188772 0.718952
O O5 0.636115 0.000000 0.183300
O O6 0.637367 0.000000 0.534432
O O7 0.898797 0.816554 0.173341
O O8 0.959551 0.000000 0.251638
O O9 0.000000 0.893505 0.000000
O O10 0.212824 0.722511 0.699968
O O11 0.108552 0.611881 0.779899
O O12 0.755410 0.400496 0.817081
O O13 0.750000 0.250000 0.000000
O O14 0.297364 0.000000 0.105483
#
# Coordination Sequence:
#
# PCOD9199458 Si02
#       7
#     8   4   8   8   8   4   4
#     4  10  22  43  65  94 128 168 215 273 330 385
#     4   8  20  37  65  93 128 153 215 269 321 393
#     4  11  26  46  65  92 131 174 222 265 322 399
#     4  11  23  41  66  93 132 168 218 272 325 393
#     4  11  21  38  63  94 126 168 221 263 325 388
#     4  10  20  36  60  87 131 169 211 266 327 377
#     4  10  20  39  61  99 123 167 208 268 333 381
#
# _framework density 22.000979999999998
#
# number of rings (size 3 to 8) (size 9 to 14) (size 15 to 20)
#    0.000    1.636    1.818    2.182    3.818    2.182 
#    3.273    3.636    0.000    0.000    0.000    0.000 
#    0.000    0.000    0.000    0.000    0.000    0.000 
#
# Total GULP energy -122498.331406 kJ/mol
# GULP energy per Si atom -5568.105973 kJ/mol
# Density = 2.195090 g / cm^3
# Si number density = 22.000980 Si / 1000 Ang^3
#
#
#
# Elastic Constant Matrix: (Units=GPa)
#
#
# Indices 1 2 3 4 5 6 
#
# 1 100.8816 40.1824 14.0247 0.0000 -6.3802 0.0000
# 2 40.1824 150.6439 20.7890 0.0000 -9.5791 0.0000
# 3 14.0247 20.7890 54.8014 0.0000 -3.1255 0.0000
# 4 0.0000 0.0000 0.0000 24.7627 0.0000 0.6269
# 5 -6.3802 -9.5791 -3.1255 0.0000 41.3376 0.0000
# 6 0.0000 0.0000 0.0000 0.6269 0.0000 18.2879
#
#
#
# Elastic Compliance Matrix: (Units=1/GPa)
#
#
# Indices 1 2 3 4 5 6 
#
# 1 0.011303 -0.002703 -0.001811 0.000000 0.000981 0.000000
# 2 -0.002703 0.007736 -0.002174 0.000000 0.001211 0.000000
# 3 -0.001811 -0.002174 0.019576 0.000000 0.000697 0.000000
# 4 0.000000 0.000000 0.000000 0.040418 0.000000 -0.001385
# 5 0.000981 0.001211 0.000697 0.000000 0.024676 0.000000
# 6 0.000000 0.000000 0.000000 -0.001385 0.000000 0.054729
#
#
# Mechanical properties :
#
#
# Convention : Reuss Voigt Hill
#
# Bulk Modulus (GPa) = 39.62154 50.70211 45.16182
# Shear Modulus (GPa) = 27.74287 32.29968 30.02128
#
# Velocity S-wave (km/s) = 3.55489 3.83574 3.69798
# Velocity P-wave (km/s) = 5.90743 6.53549 6.22938
#
# Compressibility (1/GPa) = 0.02523880
#
# Stress axis : x y z
#
# Youngs Moduli (GPa) = 88.47242 129.26464 51.08369
#
# Poissons Ratio (x) = 0.34934 0.09254
# Poissons Ratio (y) = 0.23910 0.11105
# Poissons Ratio (z) = 0.16026 0.28102
#
# Static dielectric constant tensor:
#      x y z
#    x 2.016850 0.000000 0.001260 
#    y 0.000000 1.970560 0.000000 
#    z 0.001260 0.000000 1.837680 
# 
# From -- ./inp_files/84097.got.cif
#   From: 2010.05.17/outbox.cif.g08.bks.cpg/sg12_43_cif.got.tgz:84097.got - 2010.06.03 13:09:07.
