data_PCOD9199908
_publ_section_title
;
Structure prediction by ZEFSAII (Michael W. Deem and Ramdas Pophale) SiO2 
 PCOD9199908
Probable space group: C 2/M
;
_chemical_formula_sum "Si O2"
_cell_formula_units_Z 64
_cell_length_a 30.740255
_cell_length_b 14.699704
_cell_length_c 11.840397
_cell_angle_alpha 90.000000
_cell_angle_beta 137.882734
_cell_angle_gamma 90.000000
_cell_volume 3588.214248
_symmetry_space_group_name_H-M "C 2/M"
_symmetry_group_IT_number 12
_symmetry_cell_setting 'monoclinic'
loop_
_space_group_symop_operation_xyz
x,y,z
-x,y,-z
-x,-y,-z
x,-y,z
1/2+x,1/2+y,z
1/2-x,1/2+y,-z
1/2-x,1/2-y,-z
1/2+x,1/2-y,z
loop_
_atom_site_type_symbol
_atom_site_label
_atom_site_fract_x
_atom_site_fract_y
_atom_site_fract_z
Si Si1 0.803257 0.755347 0.702559
Si Si2 0.919854 0.392899 0.638094
Si Si3 0.067421 0.220258 0.186919
Si Si4 0.769344 0.399380 0.289118
Si Si5 0.388119 0.609507 0.510317
Si Si6 0.436701 0.228983 0.454180
Si Si7 0.299590 0.833543 0.100803
Si Si8 0.235065 0.396164 0.210326
O O1 0.750000 0.750000 0.500000
O O2 0.872503 0.777882 0.783429
O O3 0.777927 0.827693 0.745274
O O4 0.803019 0.662294 0.771757
O O5 0.937567 0.500000 0.683232
O O6 0.939633 0.321787 0.773115
O O7 0.841349 0.388035 0.479393
O O8 0.943840 0.345961 0.567933
O O9 0.085833 0.149719 0.321677
O O10 0.000000 0.194690 0.000000
O O11 0.745632 0.500000 0.268978
O O12 0.778803 0.387634 0.173221
O O13 0.396190 0.500000 0.514629
O O14 0.422446 0.672431 0.482477
O O15 0.311100 0.631900 0.355674
O O16 0.500000 0.230929 0.500000
O O17 0.372595 0.200518 0.261549
O O18 0.250000 0.750000 0.000000
O O19 0.292238 0.884576 0.968292
O O20 0.233350 0.500000 0.241542
#
# Coordination Sequence:
#
# PCOD9199908 Si02
#       8
#     8   8   8   8   8   8   8   8
#     4  12  21  38  61  87 116 151 200 247 287 343
#     4   9  19  38  60  83 115 154 191 234 295 357
#     4  11  24  40  58  82 117 157 196 241 295 349
#     4  10  20  36  62  90 115 151 196 242 294 348
#     4  10  21  40  60  82 116 159 196 238 299 351
#     4  10  21  37  61  89 118 156 192 236 292 354
#     4  11  19  38  62  85 121 155 189 242 294 346
#     4  11  22  37  63  93 118 151 198 249 295 344
#
# _framework density 17.836169999999999
#
# number of rings (size 3 to 8) (size 9 to 14) (size 15 to 20)
#    0.000    1.500    5.000    1.125    0.000    5.000 
#    0.000    1.250    0.000    0.000    0.000    0.000 
#    0.000    0.000    0.000    0.000    0.000    0.000 
#
# Total GULP energy -178593.609357 kJ/mol
# GULP energy per Si atom -5581.050292 kJ/mol
# Density = 1.779557 g / cm^3
# Si number density = 17.836170 Si / 1000 Ang^3
#
#
#
# Elastic Constant Matrix: (Units=GPa)
#
#
# Indices 1 2 3 4 5 6 
#
# 1 119.3529 36.9203 55.3089 0.0000 16.7476 0.0000
# 2 36.9203 82.7780 21.2524 0.0000 5.7366 0.0000
# 3 55.3089 21.2524 101.0778 0.0000 -4.2171 0.0000
# 4 0.0000 0.0000 0.0000 17.2649 0.0000 -0.1188
# 5 16.7476 5.7366 -4.2171 0.0000 23.6627 0.0000
# 6 0.0000 0.0000 0.0000 -0.1188 0.0000 -2.8729
#
#
#
# Elastic Compliance Matrix: (Units=1/GPa)
#
#
# Indices 1 2 3 4 5 6 
#
# 1 0.014612 -0.003807 -0.007645 0.000000 -0.010781 0.000000
# 2 -0.003807 0.014074 -0.000913 0.000000 -0.000880 0.000000
# 3 -0.007645 -0.000913 0.014612 0.000000 0.008236 0.000000
# 4 0.000000 0.000000 0.000000 0.057905 0.000000 -0.002395
# 5 -0.010781 -0.000880 0.008236 0.000000 0.051572 0.000000
# 6 0.000000 0.000000 0.000000 -0.002395 0.000000 -0.347986
#
#
# Mechanical properties :
#
#
# Convention : Reuss Voigt Hill
#
# Bulk Modulus (GPa) = 53.85451 58.90797 56.38124
# Shear Modulus (GPa) = -30.43324 20.25942 -5.08691
#
# Velocity S-wave (km/s) = -4.13518 3.37391 -1.69062
# Velocity P-wave (km/s) = 2.73129 6.94814 5.27904
#
# Compressibility (1/GPa) = 0.01856855
#
# Stress axis : x y z
#
# Youngs Moduli (GPa) = 68.43893 71.05376 68.43720
#
# Poissons Ratio (x) = 0.27051 0.52318
# Poissons Ratio (y) = 0.26056 0.06246
# Poissons Ratio (z) = 0.52319 0.06484
#
# Static dielectric constant tensor:
#      x y z
#    x 1.590580 0.000000 -0.021250 
#    y 0.000000 1.615040 0.000000 
#    z -0.021250 0.000000 1.607480 
# 
# From -- ./inp_files/189461.got.cif
#   From: 2010.05.17/outbox.cif.g08.bks.cpg/sg12_95_cif.got.tgz:189461.got - 2010.06.03 13:09:07.
