data_PCOD9199562
_publ_section_title
;
Structure prediction by ZEFSAII (Michael W. Deem and Ramdas Pophale) SiO2 
 PCOD9199562
Probable space group: C 2/M
;
_chemical_formula_sum "Si O2"
_cell_formula_units_Z 48
_cell_length_a 11.757194
_cell_length_b 27.047074
_cell_length_c 15.010875
_cell_angle_alpha 90.000000
_cell_angle_beta 28.093596
_cell_angle_gamma 90.000000
_cell_volume 2247.868606
_symmetry_space_group_name_H-M "C 2/M"
_symmetry_group_IT_number 12
_symmetry_cell_setting 'monoclinic'
loop_
_space_group_symop_operation_xyz
x,y,z
-x,y,-z
-x,-y,-z
x,-y,z
1/2+x,1/2+y,z
1/2-x,1/2+y,-z
1/2-x,1/2-y,-z
1/2+x,1/2-y,z
loop_
_atom_site_type_symbol
_atom_site_label
_atom_site_fract_x
_atom_site_fract_y
_atom_site_fract_z
Si Si1 0.629178 0.125929 0.703219
Si Si2 0.198097 0.806383 0.057188
Si Si3 0.548858 0.554563 0.187757
Si Si4 0.140239 0.136335 0.264275
Si Si5 0.992913 0.444079 0.361187
Si Si6 0.385507 0.627314 0.168428
O O1 0.718652 0.124357 0.743175
O O2 0.559296 0.074671 0.703235
O O3 0.861251 0.143713 0.486010
O O4 0.402984 0.162610 0.862928
O O5 0.219355 0.818134 0.147710
O O6 0.939005 0.830101 0.204648
O O7 0.250000 0.750000 0.000000
O O8 0.649511 0.500000 0.116526
O O9 0.666167 0.589970 0.179652
O O10 0.541409 0.581257 0.098216
O O11 0.267073 0.552917 0.411290
O O12 0.098270 0.500000 0.293072
O O13 0.139708 0.400088 0.309079
O O14 0.500000 0.648093 0.000000
#
# Coordination Sequence:
#
# PCOD9199562 Si02
#       6
#     8   8   8   8   8   8
#     4  10  20  41  61  88 124 153 199 245 299 360
#     4  11  24  42  64  84 113 155 208 259 310 356
#     4   9  19  35  58  87 119 161 200 236 292 362
#     4   9  21  39  64  86 118 161 194 252 298 351
#     4  10  20  36  60  89 125 162 194 236 299 366
#     4  11  21  36  54  84 119 154 195 245 302 353
#
# _framework density 21.353560999999999
#
# number of rings (size 3 to 8) (size 9 to 14) (size 15 to 20)
#    0.000    2.000    1.667    1.500    0.000    5.333 
#    0.000    3.333    7.333    3.000    0.000    0.000 
#    0.000    0.000    0.000    0.000    0.000    0.000 
#
# Total GULP energy -133797.926885 kJ/mol
# GULP energy per Si atom -5574.913620 kJ/mol
# Density = 2.130496 g / cm^3
# Si number density = 21.353561 Si / 1000 Ang^3
#
#
#
# Elastic Constant Matrix: (Units=GPa)
#
#
# Indices 1 2 3 4 5 6 
#
# 1 118.2456 37.7185 14.6854 -0.0004 14.1683 0.0006
# 2 37.7185 106.8327 12.1736 0.0001 -10.8949 -0.0001
# 3 14.6854 12.1736 62.4012 -0.0004 -10.9155 0.0008
# 4 -0.0004 0.0001 -0.0004 26.6350 0.0004 4.6581
# 5 14.1683 -10.8949 -10.9155 0.0004 31.5787 -0.0007
# 6 0.0006 -0.0001 0.0008 4.6581 -0.0007 13.5319
#
#
#
# Elastic Compliance Matrix: (Units=1/GPa)
#
#
# Indices 1 2 3 4 5 6 
#
# 1 0.011136 -0.004351 -0.003096 0.000000 -0.007567 -0.000001
# 2 -0.004351 0.011516 -0.000198 0.000000 0.005857 0.000001
# 3 -0.003096 -0.000198 0.018119 0.000000 0.007584 -0.000001
# 4 0.000000 0.000000 0.000000 0.039950 -0.000001 -0.013752
# 5 -0.007567 0.005857 0.007584 -0.000001 0.039704 0.000002
# 6 -0.000001 0.000001 -0.000001 -0.013752 0.000002 0.078633
#
#
# Mechanical properties :
#
#
# Convention : Reuss Voigt Hill
#
# Bulk Modulus (GPa) = 39.24328 46.29272 42.76800
# Shear Modulus (GPa) = 22.43744 29.20927 25.82335
#
# Velocity S-wave (km/s) = 3.24506 3.70251 3.48130
# Velocity P-wave (km/s) = 5.69722 6.32490 6.01924
#
# Compressibility (1/GPa) = 0.02548207
#
# Stress axis : x y z
#
# Youngs Moduli (GPa) = 89.79922 86.83321 55.19035
#
# Poissons Ratio (x) = 0.37778 0.17085
# Poissons Ratio (y) = 0.39068 0.01095
# Poissons Ratio (z) = 0.27799 0.01722
#
# Static dielectric constant tensor:
#      x y z
#    x 1.821870 0.000000 -0.038190 
#    y 0.000000 1.749910 0.000000 
#    z -0.038190 0.000000 1.861440 
# 
# From -- ./inp_files/209302.got.cif
#   From: 2010.05.17/outbox.cif.g08.bks.cpg/sg12_105_cif.got.tgz:209302.got - 2010.06.03 13:09:07.
