data_PCOD9199529
_publ_section_title
;
Structure prediction by ZEFSAII (Michael W. Deem and Ramdas Pophale) SiO2 
 PCOD9199529
Probable space group: C 2/M
;
_chemical_formula_sum "Si O2"
_cell_formula_units_Z 64
_cell_length_a 8.415568
_cell_length_b 31.905074
_cell_length_c 12.248200
_cell_angle_alpha 90.000000
_cell_angle_beta 89.999626
_cell_angle_gamma 90.000000
_cell_volume 3288.633369
_symmetry_space_group_name_H-M "C 2/M"
_symmetry_group_IT_number 12
_symmetry_cell_setting 'monoclinic'
loop_
_space_group_symop_operation_xyz
x,y,z
-x,y,-z
-x,-y,-z
x,-y,z
1/2+x,1/2+y,z
1/2-x,1/2+y,-z
1/2-x,1/2-y,-z
1/2+x,1/2-y,z
loop_
_atom_site_type_symbol
_atom_site_label
_atom_site_fract_x
_atom_site_fract_y
_atom_site_fract_z
Si Si1 0.692339 0.452968 0.764421
Si Si2 0.192016 0.374725 0.374671
Si Si3 0.690558 0.322808 1.000000
Si Si4 0.309989 0.794906 0.233951
Si Si5 0.806774 0.920342 0.000000
Si Si6 0.807981 0.625275 0.374673
Si Si7 0.809994 0.705094 0.766049
Si Si8 0.807663 0.952968 0.764421
O O1 0.743289 0.500000 0.734460
O O2 0.752739 0.416870 0.684883
O O3 0.500001 0.451999 0.763646
O O4 0.745078 0.442250 0.888182
O O5 0.246163 0.373187 0.499999
O O6 0.247492 0.334128 0.306452
O O7 0.999998 0.374092 0.374244
O O8 0.752601 0.301804 0.110134
O O9 0.741517 0.371660 0.999998
O O10 0.500000 0.321271 0.000000
O O11 0.752603 0.301804 0.889866
O O12 0.252504 0.834128 0.306453
O O13 0.249996 0.750000 0.274406
O O14 0.499997 0.794876 0.235024
O O15 0.754922 0.942249 0.888182
O O16 0.000000 0.921313 0.000000
O O17 0.752736 0.583130 0.315120
O O18 0.756714 0.000000 0.734462
#
# Coordination Sequence:
#
# PCOD9199529 Si02
#       8
#     8   8   8   8   8   8   8   8
#     4  10  20  36  60  89 118 149 188 234 283 336
#     4  10  23  42  60  80 112 153 194 237 285 336
#     4  11  20  35  61  88 117 152 188 227 283 343
#     4  11  23  39  60  86 116 149 189 235 286 340
#     4   9  17  32  57  86 117 149 181 225 283 337
#     4  10  23  42  60  80 112 153 194 237 285 336
#     4  11  23  39  60  86 116 149 189 235 286 340
#     4  10  20  36  60  89 118 149 188 234 283 336
#
# _framework density 19.46097
#
# number of rings (size 3 to 8) (size 9 to 14) (size 15 to 20)
#    0.000    1.750    2.500    1.875    0.000    4.500 
#    0.000    3.125    0.000    1.500    0.000    0.000 
#    0.000    0.000    0.000    0.000    0.000    0.000 
#
# Total GULP energy -178801.662571 kJ/mol
# GULP energy per Si atom -5587.551955 kJ/mol
# Density = 1.941668 g / cm^3
# Si number density = 19.460970 Si / 1000 Ang^3
#
#
#
# Elastic Constant Matrix: (Units=GPa)
#
#
# Indices 1 2 3 4 5 6 
#
# 1 21.8839 25.5915 18.7183 0.0000 0.0011 0.0000
# 2 25.5915 201.7072 90.4251 0.0000 0.0023 0.0000
# 3 18.7183 90.4251 155.4769 0.0000 0.0029 0.0000
# 4 0.0000 0.0000 0.0000 0.6165 0.0000 0.0004
# 5 0.0011 0.0023 0.0029 0.0000 14.9234 0.0000
# 6 0.0000 0.0000 0.0000 0.0004 0.0000 30.9989
#
#
#
# Elastic Compliance Matrix: (Units=1/GPa)
#
#
# Indices 1 2 3 4 5 6 
#
# 1 0.055005 -0.005424 -0.003467 0.000000 -0.000002 0.000000
# 2 -0.005424 0.007241 -0.003558 0.000000 0.000000 0.000000
# 3 -0.003467 -0.003558 0.008919 0.000000 -0.000001 0.000000
# 4 0.000000 0.000000 0.000000 1.622092 0.000000 -0.000020
# 5 -0.000002 0.000000 -0.000001 0.000000 0.067009 0.000000
# 6 0.000000 0.000000 0.000000 -0.000020 0.000000 0.032259
#
#
# Mechanical properties :
#
#
# Convention : Reuss Voigt Hill
#
# Bulk Modulus (GPa) = 21.61484 72.05975 46.83730
# Shear Modulus (GPa) = 2.72800 25.59665 14.16232
#
# Velocity S-wave (km/s) = 1.18525 3.63062 2.70057
# Velocity P-wave (km/s) = 3.60610 7.39482 5.81753
#
# Compressibility (1/GPa) = 0.04626451
#
# Stress axis : x y z
#
# Youngs Moduli (GPa) = 18.18027 138.10076 112.12242
#
# Poissons Ratio (x) = 0.74909 0.38878
# Poissons Ratio (y) = 0.09861 0.39897
# Poissons Ratio (z) = 0.06304 0.49141
#
# Static dielectric constant tensor:
#      x y z
#    x 1.675700 0.000000 0.000000 
#    y 0.000000 1.675510 0.000000 
#    z 0.000000 0.000000 1.653880 
# 
# From -- ./inp_files/125768.got.cif
#   From: 2010.05.17/outbox.cif.g08.bks.cpg/sg12_63_cif.got.tgz:125768.got - 2010.06.03 13:09:07.
