data_PCOD9199115
_publ_section_title
;
Structure prediction by ZEFSAII (Michael W. Deem and Ramdas Pophale) SiO2 
 PCOD9199115
Probable space group: C 2/M
;
_chemical_formula_sum "Si O2"
_cell_formula_units_Z 48
_cell_length_a 30.305121
_cell_length_b 8.773600
_cell_length_c 10.308822
_cell_angle_alpha 90.000000
_cell_angle_beta 80.512056
_cell_angle_gamma 90.000000
_cell_volume 2703.465732
_symmetry_space_group_name_H-M "C 2/M"
_symmetry_group_IT_number 12
_symmetry_cell_setting 'monoclinic'
loop_
_space_group_symop_operation_xyz
x,y,z
-x,y,-z
-x,-y,-z
x,-y,z
1/2+x,1/2+y,z
1/2-x,1/2+y,-z
1/2-x,1/2-y,-z
1/2+x,1/2-y,z
loop_
_atom_site_type_symbol
_atom_site_label
_atom_site_fract_x
_atom_site_fract_y
_atom_site_fract_z
Si Si1 0.116167 0.682067 0.669325
Si Si2 0.027645 0.181470 0.616422
Si Si3 0.113145 0.183127 0.957525
Si Si4 0.784329 0.817506 0.085764
Si Si5 0.972430 0.680813 0.880421
Si Si6 0.786502 0.183700 0.384658
O O1 0.118418 0.500000 0.671460
O O2 0.075738 0.737646 0.598857
O O3 0.105622 0.745029 0.818924
O O4 0.164170 0.751712 0.608783
O O5 0.000000 0.214975 0.500000
O O6 0.998788 0.240004 0.751666
O O7 0.034277 0.000000 0.623034
O O8 0.164111 0.222692 0.970455
O O9 0.109551 0.000000 0.949428
O O10 0.076301 0.248312 0.072128
O O11 0.776246 0.771404 0.239746
O O12 0.780982 0.000000 0.083163
O O13 0.750000 0.750000 0.000000
O O14 0.969520 0.500000 0.858864
O O15 0.000000 0.704704 0.000000
O O16 0.750000 0.250000 0.500000
O O17 0.787495 0.000000 0.390447
#
# Coordination Sequence:
#
# PCOD9199115 Si02
#       6
#     8   8   8   8   8   8
#     4  11  21  36  60  87 115 151 192 237 289 344
#     4  11  24  41  60  84 116 155 193 235 289 344
#     4  10  20  36  59  86 115 151 194 238 281 339
#     4   9  20  37  58  85 116 148 186 232 286 338
#     4  11  22  36  59  90 116 147 192 238 283 341
#     4  10  21  39  61  87 115 150 194 239 284 343
#
# _framework density 17.754988000000001
#
# number of rings (size 3 to 8) (size 9 to 14) (size 15 to 20)
#    0.000    1.667    1.667    4.500    0.000    6.000 
#    3.000    0.000    0.000    0.000    0.000    0.000 
#    0.000    0.000    0.000    0.000    0.000    0.000 
#
# Total GULP energy -134067.622823 kJ/mol
# GULP energy per Si atom -5586.150951 kJ/mol
# Density = 1.771458 g / cm^3
# Si number density = 17.754988 Si / 1000 Ang^3
#
#
#
# Elastic Constant Matrix: (Units=GPa)
#
#
# Indices 1 2 3 4 5 6 
#
# 1 154.6468 57.6332 76.0432 0.0000 -0.1045 0.0000
# 2 57.6332 69.7086 44.2762 0.0000 10.9124 0.0000
# 3 76.0432 44.2762 76.4722 0.0000 -3.0333 0.0000
# 4 0.0000 0.0000 0.0000 26.3402 0.0000 1.0602
# 5 -0.1045 10.9124 -3.0333 0.0000 33.4401 0.0000
# 6 0.0000 0.0000 0.0000 1.0602 0.0000 34.6565
#
#
#
# Elastic Compliance Matrix: (Units=1/GPa)
#
#
# Indices 1 2 3 4 5 6 
#
# 1 0.013370 -0.004257 -0.010812 0.000000 0.000450 0.000000
# 2 -0.004257 0.026829 -0.011691 0.000000 -0.009829 0.000000
# 3 -0.010812 -0.011691 0.030858 0.000000 0.006580 0.000000
# 4 0.000000 0.000000 0.000000 0.038012 0.000000 -0.001163
# 5 0.000450 -0.009829 0.006580 0.000000 0.033710 0.000000
# 6 0.000000 0.000000 0.000000 -0.001163 0.000000 0.028890
#
#
# Mechanical properties :
#
#
# Convention : Reuss Voigt Hill
#
# Bulk Modulus (GPa) = 57.02089 72.97030 64.99560
# Shear Modulus (GPa) = 21.64200 27.07903 24.36051
#
# Velocity S-wave (km/s) = 3.49510 3.90955 3.70812
# Velocity P-wave (km/s) = 6.96224 7.84648 7.41754
#
# Compressibility (1/GPa) = 0.01753743
#
# Stress axis : x y z
#
# Youngs Moduli (GPa) = 74.79649 37.27362 32.40662
#
# Poissons Ratio (x) = 0.15866 0.35039
# Poissons Ratio (y) = 0.31838 0.37885
# Poissons Ratio (z) = 0.80872 0.43575
#
# Static dielectric constant tensor:
#      x y z
#    x 1.603990 0.000000 0.003840 
#    y 0.000000 1.593550 0.000000 
#    z 0.003840 0.000000 1.583920 
# 
# From -- ./inp_files/108600.got.cif
#   From: 2010.05.17/outbox.cif.g08.bks.cpg/sg12_55_cif.got.tgz:108600.got - 2010.06.03 13:09:07.
