data_PCOD9199120
_publ_section_title
;
Structure prediction by ZEFSAII (Michael W. Deem and Ramdas Pophale) SiO2 
 PCOD9199120
Probable space group: C 2/M
;
_chemical_formula_sum "Si O2"
_cell_formula_units_Z 64
_cell_length_a 18.389201
_cell_length_b 8.863636
_cell_length_c 30.939847
_cell_angle_alpha 90.000000
_cell_angle_beta 137.746650
_cell_angle_gamma 90.000000
_cell_volume 3390.995030
_symmetry_space_group_name_H-M "C 2/M"
_symmetry_group_IT_number 12
_symmetry_cell_setting 'monoclinic'
loop_
_space_group_symop_operation_xyz
x,y,z
-x,y,-z
-x,-y,-z
x,-y,z
1/2+x,1/2+y,z
1/2-x,1/2+y,-z
1/2-x,1/2-y,-z
1/2+x,1/2-y,z
loop_
_atom_site_type_symbol
_atom_site_label
_atom_site_fract_x
_atom_site_fract_y
_atom_site_fract_z
Si Si1 0.584684 0.319752 0.427085
Si Si2 0.273575 0.179823 0.184806
Si Si3 0.131517 0.819576 0.941674
Si Si4 0.314979 0.319616 0.689909
Si Si5 0.259764 0.179589 0.574682
Si Si6 0.836396 0.819561 0.303949
Si Si7 0.565955 0.319814 0.813902
Si Si8 0.538084 0.820095 0.065845
O O1 0.596772 0.500000 0.424653
O O2 0.643041 0.233131 0.413727
O O3 0.650757 0.284527 0.499803
O O4 0.458253 0.285085 0.373259
O O5 0.317511 0.246528 0.249030
O O6 0.352029 0.233070 0.180946
O O7 0.154178 0.245317 0.124467
O O8 0.269364 0.000000 0.185201
O O9 0.091368 0.789516 0.875222
O O10 0.048761 0.747962 0.939301
O O11 0.135569 0.000000 0.949433
O O12 0.250000 0.750000 0.000000
O O13 0.306105 0.500000 0.689187
O O14 0.268869 0.262371 0.624131
O O15 0.249585 0.244416 0.700061
O O16 0.442013 0.280294 0.748916
O O17 0.264733 0.000000 0.583416
O O18 0.825713 0.000000 0.295920
O O19 0.579587 0.500000 0.812658
O O20 0.546133 0.000000 0.075783
O O21 0.500000 0.792587 0.000000
#
# Coordination Sequence:
#
# PCOD9199120 Si02
#       8
#     8   8   8   8   8   8   8   8
#     4   9  20  38  59  84 115 153 195 241 294 351
#     4  12  25  40  62  91 120 152 194 243 294 350
#     4  11  23  40  63  91 123 158 199 247 297 349
#     4  11  23  39  59  85 118 154 196 244 294 349
#     4  10  20  36  59  86 116 151 194 242 294 353
#     4  11  23  40  61  84 116 156 196 240 292 350
#     4  10  23  42  61  83 116 156 194 237 290 347
#     4  11  24  42  64  90 122 160 201 244 292 347
#
# _framework density 18.873515000000001
#
# number of rings (size 3 to 8) (size 9 to 14) (size 15 to 20)
#    0.000    1.375    0.000    5.250    0.000   12.000 
#    0.000    2.500    0.000    0.000    0.000    0.000 
#    0.000    0.000    0.000    0.000    0.000    0.000 
#
# Total GULP energy -179001.173370 kJ/mol
# GULP energy per Si atom -5593.786668 kJ/mol
# Density = 1.883056 g / cm^3
# Si number density = 18.873515 Si / 1000 Ang^3
#
#
#
# Elastic Constant Matrix: (Units=GPa)
#
#
# Indices 1 2 3 4 5 6 
#
# 1 171.6287 90.5550 92.8516 0.0000 7.0001 0.0000
# 2 90.5550 90.3901 78.7494 0.0000 1.2791 0.0000
# 3 92.8516 78.7494 124.2003 0.0000 8.3168 0.0000
# 4 0.0000 0.0000 0.0000 27.7140 0.0000 -1.4609
# 5 7.0001 1.2791 8.3168 0.0000 36.0193 0.0000
# 6 0.0000 0.0000 0.0000 -1.4609 0.0000 41.6574
#
#
#
# Elastic Compliance Matrix: (Units=1/GPa)
#
#
# Indices 1 2 3 4 5 6 
#
# 1 0.012992 -0.010317 -0.003075 0.000000 -0.001449 0.000000
# 2 -0.010317 0.033187 -0.013595 0.000000 0.003965 0.000000
# 3 -0.003075 -0.013595 0.019194 0.000000 -0.003352 0.000000
# 4 0.000000 0.000000 0.000000 0.036150 0.000000 0.001268
# 5 -0.001449 0.003965 -0.003352 0.000000 0.028677 0.000000
# 6 0.000000 0.000000 0.000000 0.001268 0.000000 0.024050
#
#
# Mechanical properties :
#
#
# Convention : Reuss Voigt Hill
#
# Bulk Modulus (GPa) = 87.71262 101.17013 94.44138
# Shear Modulus (GPa) = 23.58229 29.34902 26.46566
#
# Velocity S-wave (km/s) = 3.53865 3.94767 3.74874
# Velocity P-wave (km/s) = 7.95430 8.63131 8.29971
#
# Compressibility (1/GPa) = 0.01140087
#
# Stress axis : x y z
#
# Youngs Moduli (GPa) = 76.96764 30.13241 52.09900
#
# Poissons Ratio (x) = 0.31088 0.16018
# Poissons Ratio (y) = 0.79408 0.70827
# Poissons Ratio (z) = 0.23664 0.40964
#
# Static dielectric constant tensor:
#      x y z
#    x 1.606510 0.000000 0.001570 
#    y 0.000000 1.633390 0.000000 
#    z 0.001570 0.000000 1.638440 
# 
# From -- ./inp_files/378318.got.cif
#   From: 2010.05.17/outbox.cif.g08.bks.cpg/sg12_190_cif.got.tgz:378318.got - 2010.06.03 13:09:07.
