data_PCOD9199332
_publ_section_title
;
Structure prediction by ZEFSAII (Michael W. Deem and Ramdas Pophale) SiO2 
 PCOD9199332
Probable space group: C 2/M
;
_chemical_formula_sum "Si O2"
_cell_formula_units_Z 58
_cell_length_a 18.836210
_cell_length_b 12.811726
_cell_length_c 26.036360
_cell_angle_alpha 90.000000
_cell_angle_beta 26.152687
_cell_angle_gamma 90.000000
_cell_volume 2769.416741
_symmetry_space_group_name_H-M "C 2/M"
_symmetry_group_IT_number 12
_symmetry_cell_setting 'monoclinic'
loop_
_space_group_symop_operation_xyz
x,y,z
-x,y,-z
-x,-y,-z
x,-y,z
1/2+x,1/2+y,z
1/2-x,1/2+y,-z
1/2-x,1/2-y,-z
1/2+x,1/2-y,z
loop_
_atom_site_type_symbol
_atom_site_label
_atom_site_fract_x
_atom_site_fract_y
_atom_site_fract_z
Si Si1 0.053635 0.380431 0.566561
Si Si2 0.661251 0.118171 0.012749
Si Si3 0.500000 0.500000 0.000000
Si Si4 0.816226 0.380600 0.411986
Si Si5 0.382009 0.188748 0.844122
Si Si6 0.672072 0.880096 0.832031
Si Si7 0.231685 0.834103 0.839448
Si Si8 0.001958 0.166706 0.440808
O O1 0.069229 0.500000 0.539101
O O2 0.184242 0.357274 0.526698
O O3 0.890232 0.362807 0.704960
O O4 0.041177 0.290452 0.532701
O O5 0.619411 0.132404 0.100276
O O6 0.494951 0.135967 0.089779
O O7 0.713320 0.000000 0.969213
O O8 0.801137 0.199036 0.907145
O O9 0.594301 0.407566 0.907520
O O10 0.878825 0.500000 0.367520
O O11 0.640136 0.378048 0.502125
O O12 0.942455 0.312215 0.296814
O O13 0.268132 0.136267 0.874766
O O14 0.692300 0.787860 0.860112
O O15 0.825351 0.860762 0.695440
O O16 0.675932 0.000000 0.848608
O O17 0.000000 0.128387 0.500000
#
# Coordination Sequence:
#
# PCOD9199332 Si02
#       8
#     8   8   2   8   8   8   8   8
#     4   9  19  38  56  79 117 153 191 238 288 343
#     4  10  21  37  58  82 117 155 188 238 295 352
#     4  12  20  32  58  88 114 144 194 240 284 338
#     4  10  20  36  60  84 109 149 195 245 287 338
#     4  10  21  37  57  83 115 148 198 236 289 347
#     4  10  22  41  60  86 121 155 194 244 300 351
#     4  10  21  35  58  88 112 151 197 241 289 342
#     4  11  22  35  59  89 118 151 195 239 294 354
#
# _framework density 20.943038999999999
#
# number of rings (size 3 to 8) (size 9 to 14) (size 15 to 20)
#    0.000    1.931    0.690    2.897    1.931    3.034 
#    0.000    2.414    0.000    0.000    0.000    0.000 
#    0.000    0.000    0.000    0.000    0.000    0.000 
#
# Total GULP energy -161592.606665 kJ/mol
# GULP energy per Si atom -5572.158851 kJ/mol
# Density = 2.089537 g / cm^3
# Si number density = 20.943039 Si / 1000 Ang^3
#
#
#
# Elastic Constant Matrix: (Units=GPa)
#
#
# Indices 1 2 3 4 5 6 
#
# 1 69.0588 15.7452 15.6959 -0.0002 -1.4994 0.0004
# 2 15.7452 127.3969 11.5832 -0.0005 -9.7498 -0.0011
# 3 15.6959 11.5832 61.6621 -0.0021 -7.9154 -0.0022
# 4 -0.0002 -0.0005 -0.0021 24.1207 -0.0004 -6.6321
# 5 -1.4994 -9.7498 -7.9154 -0.0004 27.7160 0.0002
# 6 0.0004 -0.0011 -0.0022 -6.6321 0.0002 13.6621
#
#
#
# Elastic Compliance Matrix: (Units=1/GPa)
#
#
# Indices 1 2 3 4 5 6 
#
# 1 0.015702 -0.001659 -0.003790 -0.000001 -0.000816 -0.000002
# 2 -0.001659 0.008328 -0.000807 0.000000 0.002609 0.000001
# 3 -0.003790 -0.000807 0.017928 0.000003 0.004631 0.000004
# 4 -0.000001 0.000000 0.000003 0.047844 0.000001 0.023225
# 5 -0.000816 0.002609 0.004631 0.000001 0.038277 0.000001
# 6 -0.000002 0.000001 0.000004 0.023225 0.000001 0.084469
#
#
# Mechanical properties :
#
#
# Convention : Reuss Voigt Hill
#
# Bulk Modulus (GPa) = 33.96021 38.24072 36.10047
# Shear Modulus (GPa) = 21.28785 27.43932 24.36358
#
# Velocity S-wave (km/s) = 3.19166 3.62358 3.41446
# Velocity P-wave (km/s) = 5.46196 5.98382 5.72884
#
# Compressibility (1/GPa) = 0.02944622
#
# Stress axis : x y z
#
# Youngs Moduli (GPa) = 63.68500 120.08342 55.77764
#
# Poissons Ratio (x) = 0.19916 0.21141
# Poissons Ratio (y) = 0.10562 0.04502
# Poissons Ratio (z) = 0.24138 0.09693
#
# Static dielectric constant tensor:
#      x y z
#    x 1.771140 0.000000 -0.049050 
#    y 0.000000 1.790920 0.000000 
#    z -0.049050 0.000000 1.802090 
# 
# From -- ./inp_files/363766.got.cif
#   From: 2010.05.17/outbox.cif.g08.bks.cpg/sg12_182_cif.got.tgz:363766.got - 2010.06.03 13:09:07.
