data_PCOD9199340
_publ_section_title
;
Structure prediction by ZEFSAII (Michael W. Deem and Ramdas Pophale) SiO2 
 PCOD9199340
Probable space group: C 2/M
;
_chemical_formula_sum "Si O2"
_cell_formula_units_Z 40
_cell_length_a 12.364430
_cell_length_b 24.827413
_cell_length_c 5.710044
_cell_angle_alpha 90.000000
_cell_angle_beta 86.097634
_cell_angle_gamma 90.000000
_cell_volume 1748.787054
_symmetry_space_group_name_H-M "C 2/M"
_symmetry_group_IT_number 12
_symmetry_cell_setting 'monoclinic'
loop_
_space_group_symop_operation_xyz
x,y,z
-x,y,-z
-x,-y,-z
x,-y,z
1/2+x,1/2+y,z
1/2-x,1/2+y,-z
1/2-x,1/2-y,-z
1/2+x,1/2-y,z
loop_
_atom_site_type_symbol
_atom_site_label
_atom_site_fract_x
_atom_site_fract_y
_atom_site_fract_z
Si Si1 0.583725 0.061005 0.791970
Si Si2 0.685102 0.560537 0.982263
Si Si3 0.905572 0.849334 0.695034
Si Si4 0.313314 0.241337 0.744145
Si Si5 0.300280 0.873374 0.580707
O O1 0.704655 0.057607 0.881976
O O2 0.603465 0.098455 0.568980
O O3 0.549170 0.000000 0.739098
O O4 0.500000 0.081369 0.000000
O O5 0.639415 0.500000 0.976550
O O6 0.606921 0.606548 0.099213
O O7 0.732457 0.582289 0.732990
O O8 0.910014 0.785414 0.750037
O O9 0.788505 0.852979 0.590680
O O10 0.000000 0.863290 0.500000
O O11 0.250000 0.250000 0.500000
O O12 0.338159 0.177575 0.727799
O O13 0.250000 0.250000 0.000000
#
# Coordination Sequence:
#
# PCOD9199340 Si02
#       5
#     8   8   8   8   8
#     4   9  19  36  57  87 124 159 201 255 314 375
#     4  10  20  36  60  84 117 160 201 250 310 367
#     4  10  22  40  58  86 120 162 202 252 305 369
#     4  10  20  40  63  85 117 162 203 256 310 361
#     4  10  20  37  61  85 121 158 204 256 307 374
#
# _framework density 22.872995
#
# number of rings (size 3 to 8) (size 9 to 14) (size 15 to 20)
#    0.000    2.200    2.000    0.600    0.000    2.800 
#    3.600    4.000    0.000    0.000    0.000    0.000 
#    0.000    0.000    0.000    0.000    0.000    0.000 
#
# Total GULP energy -111489.088556 kJ/mol
# GULP energy per Si atom -5574.454428 kJ/mol
# Density = 2.282093 g / cm^3
# Si number density = 22.872995 Si / 1000 Ang^3
#
#
#
# Elastic Constant Matrix: (Units=GPa)
#
#
# Indices 1 2 3 4 5 6 
#
# 1 68.1076 28.2316 31.5586 0.0000 -20.2113 0.0000
# 2 28.2316 158.5538 71.0783 0.0000 -30.1138 0.0000
# 3 31.5586 71.0783 157.9515 0.0000 -47.7354 0.0000
# 4 0.0000 0.0000 0.0000 42.2301 0.0000 -15.5258
# 5 -20.2113 -30.1138 -47.7354 0.0000 50.9217 0.0000
# 6 0.0000 0.0000 0.0000 -15.5258 0.0000 6.1106
#
#
#
# Elastic Compliance Matrix: (Units=1/GPa)
#
#
# Indices 1 2 3 4 5 6 
#
# 1 0.017356 -0.001604 -0.001327 0.000000 0.004697 0.000000
# 2 -0.001604 0.008179 -0.002917 0.000000 0.001466 0.000000
# 3 -0.001327 -0.002917 0.010086 0.000000 0.007203 0.000000
# 4 0.000000 0.000000 0.000000 0.359423 0.000000 0.913219
# 5 0.004697 0.001466 0.007203 0.000000 0.029121 0.000000
# 6 0.000000 0.000000 0.000000 0.913219 0.000000 2.483950
#
#
# Mechanical properties :
#
#
# Convention : Reuss Voigt Hill
#
# Bulk Modulus (GPa) = 41.79629 71.81666 56.80647
# Shear Modulus (GPa) = 1.70778 36.76879 19.23828
#
# Velocity S-wave (km/s) = 0.86502 4.01374 2.90330
# Velocity P-wave (km/s) = 4.39438 7.27642 6.01069
#
# Compressibility (1/GPa) = 0.02392557
#
# Stress axis : x y z
#
# Youngs Moduli (GPa) = 57.61745 122.27065 99.15105
#
# Poissons Ratio (x) = 0.19607 0.13154
# Poissons Ratio (y) = 0.09239 0.28923
# Poissons Ratio (z) = 0.07644 0.35667
#
# Static dielectric constant tensor:
#      x y z
#    x 1.825870 0.000000 0.029880 
#    y 0.000000 1.882430 0.000000 
#    z 0.029880 0.000000 1.795770 
# 
# From -- ./inp_files/7591.got.cif
#   From: 2010.05.17/outbox.cif.g08.bks.cpg/sg12_4_cif.got.tgz:7591.got - 2010.06.03 13:09:07.
