data_PCOD9199688
_publ_section_title
;
Structure prediction by ZEFSAII (Michael W. Deem and Ramdas Pophale) SiO2 
 PCOD9199688
Probable space group: C 2/M
;
_chemical_formula_sum "Si O2"
_cell_formula_units_Z 52
_cell_length_a 21.265679
_cell_length_b 22.043177
_cell_length_c 11.467295
_cell_angle_alpha 90.000000
_cell_angle_beta 151.560133
_cell_angle_gamma 90.000000
_cell_volume 2559.981324
_symmetry_space_group_name_H-M "C 2/M"
_symmetry_group_IT_number 12
_symmetry_cell_setting 'monoclinic'
loop_
_space_group_symop_operation_xyz
x,y,z
-x,y,-z
-x,-y,-z
x,-y,z
1/2+x,1/2+y,z
1/2-x,1/2+y,-z
1/2-x,1/2-y,-z
1/2+x,1/2-y,z
loop_
_atom_site_type_symbol
_atom_site_label
_atom_site_fract_x
_atom_site_fract_y
_atom_site_fract_z
Si Si1 0.865439 0.431433 0.342140
Si Si2 0.812216 0.176257 0.015071
Si Si3 0.563073 0.186807 0.228773
Si Si4 0.000000 0.890982 0.000000
Si Si5 0.592359 0.314016 0.375282
Si Si6 0.213388 0.694897 0.114735
Si Si7 0.707148 0.933802 0.516157
O O1 0.840904 0.500000 0.258583
O O2 0.873483 0.434539 0.494452
O O3 0.000000 0.409438 0.500000
O O4 0.745101 0.386478 0.123550
O O5 0.762880 0.178508 0.067156
O O6 0.968163 0.185437 0.260751
O O7 0.763847 0.231845 0.853617
O O8 0.628928 0.247874 0.384780
O O9 0.655261 0.127737 0.371609
O O10 0.500000 0.199733 0.000000
O O11 0.439124 0.178808 0.114120
O O12 0.961701 0.851672 0.823364
O O13 0.863754 0.927289 0.798076
O O14 0.710460 0.333913 0.651890
O O15 0.686818 0.000000 0.424706
#
# Coordination Sequence:
#
# PCOD9199688 Si02
#       7
#     8   8   8   4   8   8   8
#     4  10  20  36  61  87 115 157 207 253 297 357
#     4  10  20  38  57  89 122 159 200 251 308 371
#     4  11  23  38  60  90 123 160 204 253 313 365
#     4  12  23  40  64  92 121 164 210 258 302 370
#     4  11  22  37  62  91 124 161 201 256 310 367
#     4  10  22  36  60  90 123 159 198 253 314 373
#     4  11  24  41  62  87 123 165 209 255 300 367
#
# _framework density 20.312647999999999
#
# number of rings (size 3 to 8) (size 9 to 14) (size 15 to 20)
#    0.000    1.385    2.308    3.462    2.154    4.000 
#    0.000    0.000    0.000    4.615    0.000    0.000 
#    0.000    0.000    0.000    0.000    0.000    0.000 
#
# Total GULP energy -144959.422090 kJ/mol
# GULP energy per Si atom -5575.362388 kJ/mol
# Density = 2.026642 g / cm^3
# Si number density = 20.312648 Si / 1000 Ang^3
#
#
#
# Elastic Constant Matrix: (Units=GPa)
#
#
# Indices 1 2 3 4 5 6 
#
# 1 104.1792 1.7360 15.5839 0.0000 15.9801 0.0000
# 2 1.7360 84.4869 11.7408 0.0000 -1.4976 0.0000
# 3 15.5839 11.7408 41.3822 0.0000 -1.4430 0.0000
# 4 0.0000 0.0000 0.0000 -14.8121 0.0000 -41.9551
# 5 15.9801 -1.4976 -1.4430 0.0000 32.6426 0.0000
# 6 0.0000 0.0000 0.0000 -41.9551 0.0000 -25.8568
#
#
#
# Elastic Compliance Matrix: (Units=1/GPa)
#
#
# Indices 1 2 3 4 5 6 
#
# 1 0.011126 0.000293 -0.004469 0.000000 -0.005631 0.000000
# 2 0.000293 0.012335 -0.003601 0.000000 0.000263 0.000000
# 3 -0.004469 -0.003601 0.026982 0.000000 0.003216 0.000000
# 4 0.000000 0.000000 0.000000 0.018774 0.000000 -0.030463
# 5 -0.005631 0.000263 0.003216 0.000000 0.033546 0.000000
# 6 0.000000 0.000000 0.000000 -0.030463 0.000000 0.010755
#
#
# Mechanical properties :
#
#
# Convention : Reuss Voigt Hill
#
# Bulk Modulus (GPa) = 28.66283 32.01886 30.34085
# Shear Modulus (GPa) = 35.53590 11.79389 23.66490
#
# Velocity S-wave (km/s) = 4.18718 2.41222 3.41696
# Velocity P-wave (km/s) = 6.12520 4.85341 5.52601
#
# Compressibility (1/GPa) = 0.03488839
#
# Stress axis : x y z
#
# Youngs Moduli (GPa) = 89.87733 81.06894 37.06200
#
# Poissons Ratio (x) = -0.02373 0.16564
# Poissons Ratio (y) = -0.02630 0.13345
# Poissons Ratio (z) = 0.40170 0.29191
#
# Static dielectric constant tensor:
#      x y z
#    x 1.744790 0.000000 0.027960 
#    y 0.000000 1.768160 0.000000 
#    z 0.027960 0.000000 1.707750 
# 
# From -- ./inp_files/133362.got.cif
#   From: 2010.05.17/outbox.cif.g08.bks.cpg/sg12_67_cif.got.tgz:133362.got - 2010.06.03 13:09:07.
