data_PCOD9199161
_publ_section_title
;
Structure prediction by ZEFSAII (Michael W. Deem and Ramdas Pophale) SiO2 
 PCOD9199161
Probable space group: C 2/M
;
_chemical_formula_sum "Si O2"
_cell_formula_units_Z 64
_cell_length_a 15.368769
_cell_length_b 25.710433
_cell_length_c 7.400472
_cell_angle_alpha 90.000000
_cell_angle_beta 96.516146
_cell_angle_gamma 90.000000
_cell_volume 2905.314912
_symmetry_space_group_name_H-M "C 2/M"
_symmetry_group_IT_number 12
_symmetry_cell_setting 'monoclinic'
loop_
_space_group_symop_operation_xyz
x,y,z
-x,y,-z
-x,-y,-z
x,-y,z
1/2+x,1/2+y,z
1/2-x,1/2+y,-z
1/2-x,1/2-y,-z
1/2+x,1/2-y,z
loop_
_atom_site_type_symbol
_atom_site_label
_atom_site_fract_x
_atom_site_fract_y
_atom_site_fract_z
Si Si1 0.970015 0.885045 0.279559
Si Si2 0.663029 0.853272 0.229299
Si Si3 0.441724 0.270876 0.305799
Si Si4 0.361249 0.557638 0.776301
Si Si5 0.298601 0.559271 0.347811
Si Si6 0.255519 0.250163 0.780306
Si Si7 0.218161 0.637693 0.832803
Si Si8 0.525052 0.157618 0.715267
O O1 0.958651 0.825602 0.214710
O O2 0.878684 0.916160 0.251828
O O3 0.000000 0.883555 0.500000
O O4 0.047593 0.912601 0.192512
O O5 0.720151 0.898282 0.337324
O O6 0.676876 0.792067 0.284813
O O7 0.560131 0.865586 0.209311
O O8 0.701476 0.852313 0.038471
O O9 0.500000 0.271057 0.500000
O O10 0.338140 0.268418 0.317117
O O11 0.460406 0.216584 0.209748
O O12 0.368646 0.500000 0.852806
O O13 0.337481 0.554774 0.557990
O O14 0.281359 0.589490 0.836452
O O15 0.274343 0.500000 0.285015
O O16 0.262249 0.312015 0.745731
O O17 0.250000 0.250000 0.000000
O O18 0.119155 0.630238 0.739778
O O19 0.500000 0.161235 0.500000
#
# Coordination Sequence:
#
# PCOD9199161 Si02
#       8
#     8   8   8   8   8   8   8   8
#     4   9  17  32  56  86 118 152 191 234 286 345
#     4  11  21  37  60  82 116 157 195 240 296 359
#     4   9  17  32  53  87 121 150 193 240 289 348
#     4  10  21  37  59  86 118 156 197 246 296 342
#     4  10  20  36  59  87 117 153 198 246 290 344
#     4   9  19  35  55  82 117 156 199 236 293 356
#     4  10  22  39  57  83 116 157 198 239 295 356
#     4  10  21  37  57  87 117 148 191 250 301 348
#
# _framework density 22.028593000000001
#
# number of rings (size 3 to 8) (size 9 to 14) (size 15 to 20)
#    0.000    2.250    1.250    1.500    1.750    2.000 
#    0.000    3.750    0.000    5.250    0.000    0.000 
#    0.000    0.000    0.000    0.000    0.000    0.000 
#
# Total GULP energy -178640.486706 kJ/mol
# GULP energy per Si atom -5582.515210 kJ/mol
# Density = 2.197845 g / cm^3
# Si number density = 22.028593 Si / 1000 Ang^3
#
#
#
# Elastic Constant Matrix: (Units=GPa)
#
#
# Indices 1 2 3 4 5 6 
#
# 1 113.5336 50.3585 -1.4225 0.0000 -7.0306 0.0000
# 2 50.3585 98.2510 0.7842 0.0000 -15.0076 0.0000
# 3 -1.4225 0.7842 41.8602 0.0000 5.6189 0.0000
# 4 0.0000 0.0000 0.0000 16.2285 0.0000 -1.1031
# 5 -7.0306 -15.0076 5.6189 0.0000 26.2506 0.0000
# 6 0.0000 0.0000 0.0000 -1.1031 0.0000 10.9081
#
#
#
# Elastic Compliance Matrix: (Units=1/GPa)
#
#
# Indices 1 2 3 4 5 6 
#
# 1 0.011415 -0.005924 0.000559 0.000000 -0.000449 0.000000
# 2 -0.005924 0.014275 -0.001391 0.000000 0.006872 0.000000
# 3 0.000559 -0.001391 0.024731 0.000000 -0.005939 0.000000
# 4 0.000000 0.000000 0.000000 0.062046 0.000000 0.006274
# 5 -0.000449 0.006872 -0.005939 0.000000 0.043174 0.000000
# 6 0.000000 0.000000 0.000000 0.006274 0.000000 0.092309
#
#
# Mechanical properties :
#
#
# Convention : Reuss Voigt Hill
#
# Bulk Modulus (GPa) = 27.09325 39.23171 33.16248
# Shear Modulus (GPa) = 18.26380 24.27241 21.26811
#
# Velocity S-wave (km/s) = 2.88253 3.32303 3.11058
# Velocity P-wave (km/s) = 4.83781 5.70714 5.29036
#
# Compressibility (1/GPa) = 0.03690957
#
# Stress axis : x y z
#
# Youngs Moduli (GPa) = 87.60687 70.05245 40.43455
#
# Poissons Ratio (x) = 0.41497 -0.02261
# Poissons Ratio (y) = 0.51895 0.05625
# Poissons Ratio (z) = -0.04899 0.09746
#
# Static dielectric constant tensor:
#      x y z
#    x 1.732390 0.000000 -0.026630 
#    y 0.000000 1.857640 0.000000 
#    z -0.026630 0.000000 1.858020 
# 
# From -- ./inp_files/66993.got.cif
#   From: 2010.05.17/outbox.cif.g08.bks.cpg/sg12_34_cif.got.tgz:66993.got - 2010.06.03 13:09:07.
