data_PCOD9199577
_publ_section_title
;
Structure prediction by ZEFSAII (Michael W. Deem and Ramdas Pophale) SiO2 
 PCOD9199577
Probable space group: C 2/M
;
_chemical_formula_sum "Si O2"
_cell_formula_units_Z 64
_cell_length_a 15.795454
_cell_length_b 7.726358
_cell_length_c 31.503183
_cell_angle_alpha 90.000000
_cell_angle_beta 135.684483
_cell_angle_gamma 90.000000
_cell_volume 2685.935664
_symmetry_space_group_name_H-M "C 2/M"
_symmetry_group_IT_number 12
_symmetry_cell_setting 'monoclinic'
loop_
_space_group_symop_operation_xyz
x,y,z
-x,y,-z
-x,-y,-z
x,-y,z
1/2+x,1/2+y,z
1/2-x,1/2+y,-z
1/2-x,1/2-y,-z
1/2+x,1/2-y,z
loop_
_atom_site_type_symbol
_atom_site_label
_atom_site_fract_x
_atom_site_fract_y
_atom_site_fract_z
Si Si1 0.126817 0.294356 0.432103
Si Si2 0.820006 0.787554 0.695719
Si Si3 0.820560 0.195775 0.093469
Si Si4 0.413088 0.296976 0.040928
Si Si5 0.757669 0.802649 0.766384
Si Si6 0.323524 0.199842 0.882708
Si Si7 0.933699 0.289191 0.433282
Si Si8 0.000862 0.801653 0.307421
O O1 0.121149 0.500000 0.423503
O O2 0.250000 0.250000 0.500000
O O3 0.108010 0.204238 0.380419
O O4 0.018253 0.240570 0.424217
O O5 0.806588 0.731057 0.739547
O O6 0.702058 0.731257 0.626471
O O7 0.941932 0.733799 0.715577
O O8 0.818772 0.000000 0.695568
O O9 0.909832 0.267566 0.088989
O O10 0.781365 0.276278 0.124439
O O11 0.864289 0.000000 0.117729
O O12 0.691062 0.200357 0.022370
O O13 0.379650 0.500000 0.029962
O O14 0.543829 0.281238 0.066809
O O15 0.789946 0.710729 0.821508
O O16 0.611595 0.799609 0.713387
O O17 0.801538 0.000000 0.786216
O O18 0.335748 0.000000 0.899575
O O19 0.930597 0.500000 0.434282
O O20 0.000000 0.228768 0.500000
O O21 0.961894 0.000000 0.287277
#
# Coordination Sequence:
#
# PCOD9199577 Si02
#       8
#     8   8   8   8   8   8   8   8
#     4  11  21  35  57  85 119 152 189 234 287 347
#     4   9  19  37  60  83 110 151 192 229 286 358
#     4   9  20  38  59  85 123 164 197 238 296 357
#     4  10  20  36  60  90 121 156 200 246 293 345
#     4  11  23  42  62  83 115 155 200 246 291 346
#     4  11  23  39  59  85 119 158 201 243 295 352
#     4   9  16  30  55  82 108 144 188 225 269 343
#     4  11  22  39  63  87 113 148 191 238 294 353
#
# _framework density 23.827824
#
# number of rings (size 3 to 8) (size 9 to 14) (size 15 to 20)
#    0.000    1.875    1.250    3.000    0.000    6.000 
#    0.000    7.500    0.000    1.500    0.000    0.000 
#    0.000    0.000    0.000    0.000    0.000    0.000 
#
# Total GULP energy -178837.127643 kJ/mol
# GULP energy per Si atom -5588.660239 kJ/mol
# Density = 2.377359 g / cm^3
# Si number density = 23.827824 Si / 1000 Ang^3
#
#
#
# Elastic Constant Matrix: (Units=GPa)
#
#
# Indices 1 2 3 4 5 6 
#
# 1 125.5812 10.9669 20.7016 0.0001 -40.6378 -0.0001
# 2 10.9669 54.4508 -3.1915 0.0001 -3.1713 -0.0001
# 3 20.7016 -3.1915 58.9862 0.0000 -21.6583 0.0000
# 4 0.0001 0.0001 0.0000 23.5379 0.0000 0.1590
# 5 -40.6378 -3.1713 -21.6583 0.0000 39.8260 0.0000
# 6 -0.0001 -0.0001 0.0000 0.1590 0.0000 18.1147
#
#
#
# Elastic Compliance Matrix: (Units=1/GPa)
#
#
# Indices 1 2 3 4 5 6 
#
# 1 0.012048 -0.001702 0.000180 0.000000 0.012256 0.000000
# 2 -0.001702 0.018867 0.001914 0.000000 0.000806 0.000000
# 3 0.000180 0.001914 0.021388 0.000000 0.011967 0.000000
# 4 0.000000 0.000000 0.000000 0.042487 0.000000 -0.000373
# 5 0.012256 0.000806 0.011967 0.000000 0.044187 0.000000
# 6 0.000000 0.000000 0.000000 -0.000373 0.000000 0.055207
#
#
# Mechanical properties :
#
#
# Convention : Reuss Voigt Hill
#
# Bulk Modulus (GPa) = 18.83733 32.88582 25.86157
# Shear Modulus (GPa) = 23.68595 30.33181 27.00888
#
# Velocity S-wave (km/s) = 3.15627 3.57172 3.37040
# Velocity P-wave (km/s) = 4.60494 5.55347 5.10130
#
# Compressibility (1/GPa) = 0.05308609
#
# Stress axis : x y z
#
# Youngs Moduli (GPa) = 83.00185 53.00198 46.75612
#
# Poissons Ratio (x) = 0.09022 -0.00840
# Poissons Ratio (y) = 0.14129 -0.08951
# Poissons Ratio (z) = -0.01490 -0.10147
#
# Static dielectric constant tensor:
#      x y z
#    x 1.937900 0.000000 0.001960 
#    y 0.000000 1.923320 0.000000 
#    z 0.001960 0.000000 1.968410 
# 
# From -- ./inp_files/375604.got.cif
#   From: 2010.05.17/outbox.cif.g08.bks.cpg/sg12_188_cif.got.tgz:375604.got - 2010.06.03 13:09:07.
