data_PCOD9199027
_publ_section_title
;
Structure prediction by ZEFSAII (Michael W. Deem and Ramdas Pophale) SiO2 
 PCOD9199027
Probable space group: C 2/M
;
_chemical_formula_sum "Si O2"
_cell_formula_units_Z 60
_cell_length_a 18.380969
_cell_length_b 15.106970
_cell_length_c 12.566570
_cell_angle_alpha 90.000000
_cell_angle_beta 65.328970
_cell_angle_gamma 90.000000
_cell_volume 3170.971197
_symmetry_space_group_name_H-M "C 2/M"
_symmetry_group_IT_number 12
_symmetry_cell_setting 'monoclinic'
loop_
_space_group_symop_operation_xyz
x,y,z
-x,y,-z
-x,-y,-z
x,-y,z
1/2+x,1/2+y,z
1/2-x,1/2+y,-z
1/2-x,1/2-y,-z
1/2+x,1/2-y,z
loop_
_atom_site_type_symbol
_atom_site_label
_atom_site_fract_x
_atom_site_fract_y
_atom_site_fract_z
Si Si1 0.565298 0.738423 0.251306
Si Si2 0.495931 0.397147 0.878555
Si Si3 0.864094 0.600842 0.088167
Si Si4 0.322936 0.401487 0.551989
Si Si5 0.999677 0.400602 0.823772
Si Si6 0.319712 0.601933 0.304184
Si Si7 0.237895 0.763596 0.235135
Si Si8 0.000000 0.144201 0.500000
O O1 0.556694 0.667379 0.161337
O O2 0.515782 0.824723 0.250262
O O3 0.657704 0.757382 0.219146
O O4 0.526897 0.699200 0.381179
O O5 0.468949 0.500000 0.889878
O O6 0.585692 0.392667 0.777855
O O7 0.500000 0.370549 0.000000
O O8 0.831116 0.500000 0.107044
O O9 0.799259 0.677948 0.128323
O O10 0.918419 0.611529 0.160777
O O11 0.927209 0.606730 0.953228
O O12 0.290603 0.500000 0.594924
O O13 0.307870 0.381365 0.437176
O O14 0.286296 0.328388 0.652068
O O15 0.418698 0.404306 0.514207
O O16 0.998964 0.500000 0.780308
O O17 0.294944 0.500000 0.296801
O O18 0.276166 0.674867 0.259472
#
# Coordination Sequence:
#
# PCOD9199027 Si02
#       8
#     8   8   8   8   8   8   8   4
#     4  11  23  37  61  87 120 156 192 241 299 346
#     4  10  22  40  63  91 118 153 203 246 291 355
#     4   9  19  37  60  85 110 145 195 246 289 337
#     4  10  20  36  59  84 116 156 196 244 295 345
#     4   9  20  39  61  81 109 155 201 236 281 344
#     4  10  21  39  59  82 119 164 198 234 291 357
#     4  11  23  35  56  90 123 148 194 245 297 347
#     4  10  21  36  57  92 118 152 195 242 293 356
#
# _framework density 18.921647
#
# number of rings (size 3 to 8) (size 9 to 14) (size 15 to 20)
#    0.000    2.000    1.333    2.600    3.733    3.733 
#    0.000    0.333    0.000    0.000    0.000    0.000 
#    0.000    0.000    0.000    0.000    0.000    0.000 
#
# Total GULP energy -167497.090193 kJ/mol
# GULP energy per Si atom -5583.236340 kJ/mol
# Density = 1.887858 g / cm^3
# Si number density = 18.921647 Si / 1000 Ang^3
#
#
#
# Elastic Constant Matrix: (Units=GPa)
#
#
# Indices 1 2 3 4 5 6 
#
# 1 36.3900 23.3116 -7.3642 0.0000 12.1707 0.0000
# 2 23.3116 71.3872 -0.9598 0.0000 22.1846 0.0000
# 3 -7.3642 -0.9598 28.0726 0.0000 15.4229 0.0000
# 4 0.0000 0.0000 0.0000 9.0711 0.0000 -16.8945
# 5 12.1707 22.1846 15.4229 0.0000 28.3491 0.0000
# 6 0.0000 0.0000 0.0000 -16.8945 0.0000 4.1490
#
#
#
# Elastic Compliance Matrix: (Units=1/GPa)
#
#
# Indices 1 2 3 4 5 6 
#
# 1 0.048134 -0.004802 0.031024 0.000000 -0.033785 0.000000
# 2 -0.004802 0.022505 0.011485 0.000000 -0.021798 0.000000
# 3 0.031024 0.011485 0.080455 0.000000 -0.066077 0.000000
# 4 0.000000 0.000000 0.000000 -0.016744 0.000000 -0.068181
# 5 -0.033785 -0.021798 -0.066077 0.000000 0.102785 0.000000
# 6 0.000000 0.000000 0.000000 -0.068181 0.000000 -0.036608
#
#
# Mechanical properties :
#
#
# Convention : Reuss Voigt Hill
#
# Bulk Modulus (GPa) = 4.41486 18.42501 11.41993
# Shear Modulus (GPa) = 24.92329 16.37129 20.64729
#
# Velocity S-wave (km/s) = 3.63324 2.94464 3.30691
# Velocity P-wave (km/s) = 4.46530 4.61735 4.54196
#
# Compressibility (1/GPa) = 0.22650785
#
# Stress axis : x y z
#
# Youngs Moduli (GPa) = 20.77536 44.43530 12.42926
#
# Poissons Ratio (x) = 0.21338 -0.38560
# Poissons Ratio (y) = 0.09976 -0.14275
# Poissons Ratio (z) = -0.64453 -0.51035
#
# Static dielectric constant tensor:
#      x y z
#    x 1.632600 0.000000 -0.012910 
#    y 0.000000 1.657750 0.000000 
#    z -0.012910 0.000000 1.646900 
# 
# From -- ./inp_files/156591.got.cif
#   From: 2010.05.17/outbox.cif.g08.bks.cpg/sg12_79_cif.got.tgz:156591.got - 2010.06.03 13:09:07.
