data_PCOD9199598
_publ_section_title
;
Structure prediction by ZEFSAII (Michael W. Deem and Ramdas Pophale) SiO2 
 PCOD9199598
Probable space group: C 2/M
;
_chemical_formula_sum "Si O2"
_cell_formula_units_Z 40
_cell_length_a 11.034502
_cell_length_b 19.384232
_cell_length_c 7.436929
_cell_angle_alpha 90.000000
_cell_angle_beta 98.220649
_cell_angle_gamma 90.000000
_cell_volume 1574.379438
_symmetry_space_group_name_H-M "C 2/M"
_symmetry_group_IT_number 12
_symmetry_cell_setting 'monoclinic'
loop_
_space_group_symop_operation_xyz
x,y,z
-x,y,-z
-x,-y,-z
x,-y,z
1/2+x,1/2+y,z
1/2-x,1/2+y,-z
1/2-x,1/2-y,-z
1/2+x,1/2-y,z
loop_
_atom_site_type_symbol
_atom_site_label
_atom_site_fract_x
_atom_site_fract_y
_atom_site_fract_z
Si Si1 0.616833 0.919960 0.758094
Si Si2 0.924154 0.920802 0.297144
Si Si3 0.726721 0.784455 0.803965
Si Si4 0.485957 0.278115 0.791544
Si Si5 0.849215 0.419251 0.666180
O O1 0.714252 0.865518 0.846607
O O2 0.478597 0.894401 0.772409
O O3 0.635970 0.916101 0.546175
O O4 0.631737 0.000000 0.814786
O O5 0.784387 0.895737 0.303430
O O6 0.000000 0.923489 0.500000
O O7 0.988083 0.859854 0.203476
O O8 0.924087 0.000000 0.226514
O O9 0.595476 0.758031 0.706183
O O10 0.844849 0.768031 0.708920
O O11 0.750000 0.750000 0.000000
O O12 0.500000 0.253616 0.000000
O O13 0.849642 0.500000 0.711826
#
# Coordination Sequence:
#
# PCOD9199598 Si02
#       5
#     8   8   8   8   8
#     4   9  17  34  62  90 120 156 199 244 305 364
#     4  10  20  36  60  90 125 155 198 255 302 353
#     4  10  22  40  59  82 118 159 200 250 298 352
#     4  10  23  41  59  82 117 166 201 242 304 360
#     4   8  16  31  56  93 125 152 187 247 309 359
#
# _framework density 25.406835999999998
#
# number of rings (size 3 to 8) (size 9 to 14) (size 15 to 20)
#    0.000    2.600    0.000    2.400    2.800    2.800 
#    3.600    5.000    0.000    5.400    0.000    0.000 
#    0.000    0.000    0.000    0.000    0.000    0.000 
#
# Total GULP energy -111744.835552 kJ/mol
# GULP energy per Si atom -5587.241778 kJ/mol
# Density = 2.534901 g / cm^3
# Si number density = 25.406836 Si / 1000 Ang^3
#
#
#
# Elastic Constant Matrix: (Units=GPa)
#
#
# Indices 1 2 3 4 5 6 
#
# 1 240.9316 54.7406 16.4360 0.0000 -0.3387 0.0000
# 2 54.7406 116.7603 15.8713 0.0000 7.1228 0.0000
# 3 16.4360 15.8713 54.5776 0.0000 -2.2113 0.0000
# 4 0.0000 0.0000 0.0000 34.6007 0.0000 4.5493
# 5 -0.3387 7.1228 -2.2113 0.0000 15.7032 0.0000
# 6 0.0000 0.0000 0.0000 4.5493 0.0000 48.2341
#
#
#
# Elastic Compliance Matrix: (Units=1/GPa)
#
#
# Indices 1 2 3 4 5 6 
#
# 1 0.004693 -0.002158 -0.000746 0.000000 0.000975 0.000000
# 2 -0.002158 0.010228 -0.002529 0.000000 -0.005042 0.000000
# 3 -0.000746 -0.002529 0.019439 0.000000 0.003868 0.000000
# 4 0.000000 0.000000 0.000000 0.029264 0.000000 -0.002760
# 5 0.000975 -0.005042 0.003868 0.000000 0.066534 0.000000
# 6 0.000000 0.000000 0.000000 -0.002760 0.000000 0.020993
#
#
# Mechanical properties :
#
#
# Convention : Reuss Voigt Hill
#
# Bulk Modulus (GPa) = 42.56395 65.15168 53.85781
# Shear Modulus (GPa) = 29.43806 41.38905 35.41355
#
# Velocity S-wave (km/s) = 3.40761 4.04053 3.73749
# Velocity P-wave (km/s) = 5.68082 6.88962 6.31422
#
# Compressibility (1/GPa) = 0.02349406
#
# Stress axis : x y z
#
# Youngs Moduli (GPa) = 213.07330 97.77337 51.44221
#
# Poissons Ratio (x) = 0.21103 0.03839
# Poissons Ratio (y) = 0.45989 0.13007
# Poissons Ratio (z) = 0.15899 0.24722
#
# Static dielectric constant tensor:
#      x y z
#    x 2.332220 0.000000 0.327360 
#    y 0.000000 2.006710 0.000000 
#    z 0.327360 0.000000 2.377730 
# 
# From -- ./inp_files/47132.got.cif
#   From: 2010.05.17/outbox.cif.g08.bks.cpg/sg12_24_cif.got.tgz:47132.got - 2010.06.03 13:09:07.
