data_PCOD9199143
_publ_section_title
;
Structure prediction by ZEFSAII (Michael W. Deem and Ramdas Pophale) SiO2 
 PCOD9199143
Probable space group: C 2/M
;
_chemical_formula_sum "Si O2"
_cell_formula_units_Z 48
_cell_length_a 29.841541
_cell_length_b 14.315441
_cell_length_c 14.330404
_cell_angle_alpha 90.000000
_cell_angle_beta 22.047943
_cell_angle_gamma 90.000000
_cell_volume 2298.043247
_symmetry_space_group_name_H-M "C 2/M"
_symmetry_group_IT_number 12
_symmetry_cell_setting 'monoclinic'
loop_
_space_group_symop_operation_xyz
x,y,z
-x,y,-z
-x,-y,-z
x,-y,z
1/2+x,1/2+y,z
1/2-x,1/2+y,-z
1/2-x,1/2-y,-z
1/2+x,1/2-y,z
loop_
_atom_site_type_symbol
_atom_site_label
_atom_site_fract_x
_atom_site_fract_y
_atom_site_fract_z
Si Si1 0.628337 0.860002 0.782090
Si Si2 0.901789 0.690598 0.763426
Si Si3 0.233527 0.389203 0.310391
Si Si4 0.369964 0.354945 0.225247
Si Si5 0.190651 0.888928 0.049642
Si Si6 0.466048 0.111880 0.839443
O O1 0.625176 0.753115 0.754206
O O2 0.752631 0.897601 0.501498
O O3 0.500000 0.901873 0.000000
O O4 0.621341 0.864416 0.907128
O O5 0.903182 0.803876 0.764057
O O6 0.924896 0.654495 0.821909
O O7 0.000000 0.658622 0.500000
O O8 0.782096 0.643356 0.953729
O O9 0.233124 0.500000 0.325053
O O10 0.337886 0.354749 0.177192
O O11 0.102474 0.353960 0.593645
O O12 0.252401 0.374654 0.163733
O O13 0.500000 0.394541 0.000000
O O14 0.159070 0.000000 0.118853
O O15 0.470649 0.000000 0.821723
#
# Coordination Sequence:
#
# PCOD9199143 Si02
#       6
#     8   8   8   8   8   8
#     4  10  20  37  58  84 121 161 209 264 315 368
#     4  11  22  39  64  92 125 166 209 264 323 379
#     4  10  20  36  59  86 119 159 206 261 315 376
#     4  10  21  37  58  86 121 166 210 255 316 389
#     4  10  22  40  62  92 127 163 207 260 322 388
#     4  11  22  36  61  93 122 161 215 269 317 374
#
# _framework density 20.887335
#
# number of rings (size 3 to 8) (size 9 to 14) (size 15 to 20)
#    0.000    1.667    3.333    1.500    0.000    2.333 
#    0.000    0.000    0.000    4.000    0.000    0.000 
#    0.000    0.000    0.000    0.000    0.000    0.000 
#
# Total GULP energy -133791.653420 kJ/mol
# GULP energy per Si atom -5574.652226 kJ/mol
# Density = 2.083979 g / cm^3
# Si number density = 20.887335 Si / 1000 Ang^3
#
#
#
# Elastic Constant Matrix: (Units=GPa)
#
#
# Indices 1 2 3 4 5 6 
#
# 1 145.7634 26.8975 52.1695 0.0000 -3.5573 0.0000
# 2 26.8975 95.9756 23.2753 0.0000 3.0106 0.0000
# 3 52.1695 23.2753 105.6362 0.0000 -9.0131 0.0000
# 4 0.0000 0.0000 0.0000 10.2602 0.0000 12.3976
# 5 -3.5573 3.0106 -9.0131 0.0000 31.7609 0.0000
# 6 0.0000 0.0000 0.0000 12.3976 0.0000 32.9894
#
#
#
# Elastic Compliance Matrix: (Units=1/GPa)
#
#
# Indices 1 2 3 4 5 6 
#
# 1 0.008519 -0.001444 -0.003890 0.000000 -0.000013 0.000000
# 2 -0.001444 0.011351 -0.001941 0.000000 -0.001788 0.000000
# 3 -0.003890 -0.001941 0.012086 0.000000 0.003178 0.000000
# 4 0.000000 0.000000 0.000000 0.178534 0.000000 -0.067094
# 5 -0.000013 -0.001788 0.003178 0.000000 0.032555 0.000000
# 6 0.000000 0.000000 0.000000 -0.067094 0.000000 0.055527
#
#
# Mechanical properties :
#
#
# Convention : Reuss Voigt Hill
#
# Bulk Modulus (GPa) = 57.44766 61.34000 59.39383
# Shear Modulus (GPa) = 15.67776 31.33764 23.50770
#
# Velocity S-wave (km/s) = 2.74266 3.87760 3.35842
# Velocity P-wave (km/s) = 6.13130 7.03409 6.59816
#
# Compressibility (1/GPa) = 0.01740715
#
# Stress axis : x y z
#
# Youngs Moduli (GPa) = 117.38740 88.10108 82.73780
#
# Poissons Ratio (x) = 0.12718 0.32186
# Poissons Ratio (y) = 0.16946 0.16056
# Poissons Ratio (z) = 0.45665 0.17097
#
# Static dielectric constant tensor:
#      x y z
#    x 1.756770 0.000000 -0.030500 
#    y 0.000000 1.754000 0.000000 
#    z -0.030500 0.000000 1.809220 
# 
# From -- ./inp_files/251429.got.cif
#   From: 2010.05.17/outbox.cif.g08.bks.cpg/sg12_126_cif.got.tgz:251429.got - 2010.06.03 13:09:07.
