data_PCOD9199196
_publ_section_title
;
Structure prediction by ZEFSAII (Michael W. Deem and Ramdas Pophale) SiO2 
 PCOD9199196
Probable space group: C 2/M
;
_chemical_formula_sum "Si O2"
_cell_formula_units_Z 40
_cell_length_a 9.634407
_cell_length_b 18.237306
_cell_length_c 12.627669
_cell_angle_alpha 90.000000
_cell_angle_beta 102.110842
_cell_angle_gamma 90.000000
_cell_volume 2169.370972
_symmetry_space_group_name_H-M "C 2/M"
_symmetry_group_IT_number 12
_symmetry_cell_setting 'monoclinic'
loop_
_space_group_symop_operation_xyz
x,y,z
-x,y,-z
-x,-y,-z
x,-y,z
1/2+x,1/2+y,z
1/2-x,1/2+y,-z
1/2-x,1/2-y,-z
1/2+x,1/2-y,z
loop_
_atom_site_type_symbol
_atom_site_label
_atom_site_fract_x
_atom_site_fract_y
_atom_site_fract_z
Si Si1 0.711633 0.293695 0.308418
Si Si2 0.847532 0.280462 0.923455
Si Si3 0.685027 0.914505 0.231026
Si Si4 0.946961 0.587518 0.372397
Si Si5 0.426539 0.333943 0.380993
O O1 0.683212 0.268818 0.184216
O O2 0.804495 0.367231 0.328591
O O3 0.557802 0.302524 0.335254
O O4 0.811041 0.231144 0.377718
O O5 0.827367 0.362268 0.872956
O O6 0.750000 0.250000 0.000000
O O7 0.000000 0.275564 0.000000
O O8 0.564937 0.895271 0.300869
O O9 0.837001 0.896362 0.307995
O O10 0.670831 0.000000 0.204000
O O11 0.923456 0.500000 0.365791
O O12 0.000000 0.606025 0.500000
O O13 0.500000 0.359764 0.500000
#
# Coordination Sequence:
#
# PCOD9199196 Si02
#       5
#     8   8   8   8   8
#     4  11  21  36  56  83 114 147 195 238 279 336
#     4  11  22  39  59  79 106 146 193 243 292 328
#     4  10  22  39  58  85 116 148 191 234 280 342
#     4  10  20  36  59  87 122 157 185 223 279 343
#     4  11  21  34  57  85 117 152 184 228 281 341
#
# _framework density 18.438524999999998
#
# number of rings (size 3 to 8) (size 9 to 14) (size 15 to 20)
#    0.000    1.400    0.000    8.400    0.000    1.600 
#    0.000    1.000    0.000    2.400    0.000    0.000 
#    0.000    0.000    0.000    0.000    0.000    0.000 
#
# Total GULP energy -111656.600309 kJ/mol
# GULP energy per Si atom -5582.830015 kJ/mol
# Density = 1.839656 g / cm^3
# Si number density = 18.438525 Si / 1000 Ang^3
#
#
#
# Elastic Constant Matrix: (Units=GPa)
#
#
# Indices 1 2 3 4 5 6 
#
# 1 93.8383 34.7134 22.6996 0.0000 4.5150 0.0000
# 2 34.7134 76.3625 30.4639 0.0000 -4.1676 0.0000
# 3 22.6996 30.4639 74.8844 0.0000 12.5189 0.0000
# 4 0.0000 0.0000 0.0000 39.8172 0.0000 0.6980
# 5 4.5150 -4.1676 12.5189 0.0000 41.3938 0.0000
# 6 0.0000 0.0000 0.0000 0.6980 0.0000 24.3835
#
#
#
# Elastic Compliance Matrix: (Units=1/GPa)
#
#
# Indices 1 2 3 4 5 6 
#
# 1 0.013107 -0.005441 -0.001505 0.000000 -0.001522 0.000000
# 2 -0.005441 0.018443 -0.006597 0.000000 0.004445 0.000000
# 3 -0.001505 -0.006597 0.017460 0.000000 -0.005781 0.000000
# 4 0.000000 0.000000 0.000000 0.025127 0.000000 -0.000719
# 5 -0.001522 0.004445 -0.005781 0.000000 0.026520 0.000000
# 6 0.000000 0.000000 0.000000 -0.000719 0.000000 0.041032
#
#
# Mechanical properties :
#
#
# Convention : Reuss Voigt Hill
#
# Bulk Modulus (GPa) = 45.61103 46.75991 46.18547
# Shear Modulus (GPa) = 28.39572 31.59944 29.99758
#
# Velocity S-wave (km/s) = 3.92857 4.14426 4.03786
# Velocity P-wave (km/s) = 6.73563 6.95089 6.84411
#
# Compressibility (1/GPa) = 0.02192452
#
# Stress axis : x y z
#
# Youngs Moduli (GPa) = 76.29715 54.22100 57.27305
#
# Poissons Ratio (x) = 0.29500 0.08621
# Poissons Ratio (y) = 0.41511 0.37782
# Poissons Ratio (z) = 0.11484 0.35768
#
# Static dielectric constant tensor:
#      x y z
#    x 1.661200 0.000000 -0.140750 
#    y 0.000000 1.660510 0.000000 
#    z -0.140750 0.000000 1.919130 
# 
# From -- ./inp_files/118889.got.cif
#   From: 2010.05.17/outbox.cif.g08.bks.cpg/sg12_60_cif.got.tgz:118889.got - 2010.06.03 13:09:07.
