data_PCOD9199667
_publ_section_title
;
Structure prediction by ZEFSAII (Michael W. Deem and Ramdas Pophale) SiO2 
 PCOD9199667
Probable space group: C 2/M
;
_chemical_formula_sum "Si O2"
_cell_formula_units_Z 60
_cell_length_a 25.574155
_cell_length_b 14.376346
_cell_length_c 14.796236
_cell_angle_alpha 90.000000
_cell_angle_beta 30.161122
_cell_angle_gamma 90.000000
_cell_volume 2733.251167
_symmetry_space_group_name_H-M "C 2/M"
_symmetry_group_IT_number 12
_symmetry_cell_setting 'monoclinic'
loop_
_space_group_symop_operation_xyz
x,y,z
-x,y,-z
-x,-y,-z
x,-y,z
1/2+x,1/2+y,z
1/2-x,1/2+y,-z
1/2-x,1/2-y,-z
1/2+x,1/2-y,z
loop_
_atom_site_type_symbol
_atom_site_label
_atom_site_fract_x
_atom_site_fract_y
_atom_site_fract_z
Si Si1 0.409750 0.683512 0.036039
Si Si2 0.098854 0.603892 0.225523
Si Si3 0.682481 0.394616 0.992477
Si Si4 0.131556 0.107963 0.710561
Si Si5 0.231275 0.394451 0.656692
Si Si6 0.739302 0.889149 0.853580
Si Si7 0.000000 0.346827 0.000000
Si Si8 0.078501 0.193864 0.310612
O O1 0.356874 0.661134 0.211464
O O2 0.468174 0.780764 0.963937
O O3 0.330601 0.671088 0.073658
O O4 0.508245 0.615098 0.874196
O O5 0.052105 0.500000 0.309944
O O6 0.046411 0.700266 0.334189
O O7 0.206992 0.606333 0.121305
O O8 0.131615 0.612154 0.071156
O O9 0.665674 0.500000 0.987652
O O10 0.595265 0.362760 0.194191
O O11 0.199739 0.148531 0.526348
O O12 0.159541 0.000000 0.683794
O O13 0.270099 0.500000 0.603170
O O14 0.240088 0.361741 0.747300
O O15 0.108491 0.395939 0.816661
O O16 0.812531 0.819928 0.800363
O O17 0.771684 0.000000 0.812676
O O18 0.000000 0.152341 0.500000
#
# Coordination Sequence:
#
# PCOD9199667 Si02
#       8
#     8   8   8   8   8   8   4   8
#     4  10  21  34  56  85 113 153 190 239 295 346
#     4   9  20  39  60  82 113 154 196 231 276 346
#     4  10  20  36  61  84 113 153 191 239 292 347
#     4   9  18  35  55  80 113 149 192 237 283 342
#     4  10  21  37  60  83 115 157 197 244 294 344
#     4   9  19  36  59  85 114 154 192 236 294 343
#     4  10  23  36  55  82 116 154 202 250 282 340
#     4  11  23  35  56  93 122 147 184 237 290 353
#
# _framework density 21.951878000000001
#
# number of rings (size 3 to 8) (size 9 to 14) (size 15 to 20)
#    0.000    2.400    0.000    4.600    5.600    3.467 
#    0.000    1.333    0.000    0.000    0.000    0.000 
#    0.000    0.000    0.000    0.000    0.000    0.000 
#
# Total GULP energy -167181.649895 kJ/mol
# GULP energy per Si atom -5572.721663 kJ/mol
# Density = 2.190191 g / cm^3
# Si number density = 21.951878 Si / 1000 Ang^3
#
#
#
# Elastic Constant Matrix: (Units=GPa)
#
#
# Indices 1 2 3 4 5 6 
#
# 1 95.8362 11.8243 26.5046 0.0000 33.9449 0.0000
# 2 11.8243 53.8146 -1.8442 0.0000 5.0027 0.0000
# 3 26.5046 -1.8442 72.9555 0.0000 34.0582 0.0000
# 4 0.0000 0.0000 0.0000 19.4413 0.0000 -0.7884
# 5 33.9449 5.0027 34.0582 0.0000 27.4933 0.0000
# 6 0.0000 0.0000 0.0000 -0.7884 0.0000 16.9191
#
#
#
# Elastic Compliance Matrix: (Units=1/GPa)
#
#
# Indices 1 2 3 4 5 6 
#
# 1 0.021729 -0.000678 0.010803 0.000000 -0.040087 0.000000
# 2 -0.000678 0.019705 0.004808 0.000000 -0.008705 0.000000
# 3 0.010803 0.004808 0.039220 0.000000 -0.062798 0.000000
# 4 0.000000 0.000000 0.000000 0.051534 0.000000 0.002401
# 5 -0.040087 -0.008705 -0.062798 0.000000 0.165243 0.000000
# 6 0.000000 0.000000 0.000000 0.002401 0.000000 0.059217
#
#
# Mechanical properties :
#
#
# Convention : Reuss Voigt Hill
#
# Bulk Modulus (GPa) = 9.04804 32.84175 20.94490
# Shear Modulus (GPa) = 13.75054 25.17885 19.46469
#
# Velocity S-wave (km/s) = 2.50550 3.39042 2.98098
# Velocity P-wave (km/s) = 3.53564 5.50634 4.62713
#
# Compressibility (1/GPa) = 0.11052117
#
# Stress axis : x y z
#
# Youngs Moduli (GPa) = 46.02116 50.74793 25.49712
#
# Poissons Ratio (x) = 0.03439 -0.27544
# Poissons Ratio (y) = 0.03119 -0.12260
# Poissons Ratio (z) = -0.49715 -0.24401
#
# Static dielectric constant tensor:
#      x y z
#    x 1.818230 0.000000 -0.012410 
#    y 0.000000 1.863910 0.000000 
#    z -0.012410 0.000000 1.856040 
# 
# From -- ./inp_files/246714.got.cif
#   From: 2010.05.17/outbox.cif.g08.bks.cpg/sg12_124_cif.got.tgz:246714.got - 2010.06.03 13:09:07.
