data_PCOD9199294
_publ_section_title
;
Structure prediction by ZEFSAII (Michael W. Deem and Ramdas Pophale) SiO2 
 PCOD9199294
Probable space group: C 2/M
;
_chemical_formula_sum "Si O2"
_cell_formula_units_Z 44
_cell_length_a 28.889388
_cell_length_b 7.381062
_cell_length_c 8.314132
_cell_angle_alpha 90.000000
_cell_angle_beta 93.198972
_cell_angle_gamma 90.000000
_cell_volume 1770.096120
_symmetry_space_group_name_H-M "C 2/M"
_symmetry_group_IT_number 12
_symmetry_cell_setting 'monoclinic'
loop_
_space_group_symop_operation_xyz
x,y,z
-x,y,-z
-x,-y,-z
x,-y,z
1/2+x,1/2+y,z
1/2-x,1/2+y,-z
1/2-x,1/2-y,-z
1/2+x,1/2-y,z
loop_
_atom_site_type_symbol
_atom_site_label
_atom_site_fract_x
_atom_site_fract_y
_atom_site_fract_z
Si Si1 0.050740 0.719392 0.947332
Si Si2 0.951900 0.282250 0.419184
Si Si3 0.288472 0.000000 0.095826
Si Si4 0.651633 0.287981 0.095305
Si Si5 0.725851 0.712559 0.666728
Si Si6 0.144514 0.212297 0.451926
O O1 0.050659 0.500000 0.951367
O O2 0.056237 0.780762 0.763882
O O3 0.096024 0.777968 0.053411
O O4 0.000000 0.777601 0.000000
O O5 0.954615 0.500000 0.412455
O O6 0.909147 0.236789 0.524417
O O7 0.000000 0.214368 0.500000
O O8 0.321077 0.158585 0.018995
O O9 0.259080 0.158984 0.188297
O O10 0.663587 0.500000 0.077743
O O11 0.658844 0.219208 0.280169
O O12 0.729005 0.500000 0.709393
O O13 0.750000 0.750000 0.500000
O O14 0.673569 0.779678 0.610707
O O15 0.155494 0.000000 0.449815
#
# Coordination Sequence:
#
# PCOD9199294 Si02
#       6
#     8   8   4   8   8   8
#     4  10  20  36  59  91 133 178 226 278 333 386
#     4  10  21  35  59  94 128 173 226 271 322 389
#     4  12  24  42  71  98 130 172 207 276 329 398
#     4  11  24  42  64  97 135 177 223 269 335 398
#     4  11  24  46  74 102 132 169 224 272 331 400
#     4  10  24  42  66  95 133 175 220 275 326 395
#
# _framework density 24.857406999999998
#
# number of rings (size 3 to 8) (size 9 to 14) (size 15 to 20)
#    0.000    1.455    1.818    2.727    5.091    4.364 
#    0.000    0.909    0.000    0.000    0.000    0.000 
#    0.000    0.000    0.000    0.000    0.000    0.000 
#
# Total GULP energy -122738.220553 kJ/mol
# GULP energy per Si atom -5579.010025 kJ/mol
# Density = 2.480083 g / cm^3
# Si number density = 24.857407 Si / 1000 Ang^3
#
#
#
# Elastic Constant Matrix: (Units=GPa)
#
#
# Indices 1 2 3 4 5 6 
#
# 1 115.6283 24.9644 32.7427 0.0000 -6.8400 0.0000
# 2 24.9644 174.7449 39.3943 0.0000 -7.7474 0.0000
# 3 32.7427 39.3943 112.6717 0.0000 -18.8173 0.0000
# 4 0.0000 0.0000 0.0000 635.7255 0.0000 -370.0033
# 5 -6.8400 -7.7474 -18.8173 0.0000 54.0934 0.0000
# 6 0.0000 0.0000 0.0000 -370.0033 0.0000 238.4618
#
#
#
# Elastic Compliance Matrix: (Units=1/GPa)
#
#
# Indices 1 2 3 4 5 6 
#
# 1 0.009529 -0.000798 -0.002450 0.000000 0.000238 0.000000
# 2 -0.000798 0.006280 -0.001943 0.000000 0.000122 0.000000
# 3 -0.002450 -0.001943 0.010796 0.000000 0.003167 0.000000
# 4 0.000000 0.000000 0.000000 0.016229 0.000000 0.025181
# 5 0.000238 0.000122 0.003167 0.000000 0.019636 0.000000
# 6 0.000000 0.000000 0.000000 0.025181 0.000000 0.043265
#
#
# Mechanical properties :
#
#
# Convention : Reuss Voigt Hill
#
# Bulk Modulus (GPa) = 61.64843 66.36086 64.00465
# Shear Modulus (GPa) = 41.14382 206.05237 123.59809
#
# Velocity S-wave (km/s) = 4.07282 9.11448 7.05909
# Velocity P-wave (km/s) = 6.85360 11.72687 9.60446
#
# Compressibility (1/GPa) = 0.01622101
#
# Stress axis : x y z
#
# Youngs Moduli (GPa) = 104.94640 159.23011 92.62855
#
# Poissons Ratio (x) = 0.12712 0.22695
# Poissons Ratio (y) = 0.08379 0.18001
# Poissons Ratio (z) = 0.25713 0.30944
#
# Static dielectric constant tensor:
#      x y z
#    x 2.010650 0.000000 0.089430 
#    y 0.000000 1.980530 0.000000 
#    z 0.089430 0.000000 2.010060 
# 
# From -- ./inp_files/108030.got.cif
#   From: 2010.05.17/outbox.cif.g08.bks.cpg/sg12_55_cif.got.tgz:108030.got - 2010.06.03 13:09:07.
