data_PCOD9199267
_publ_section_title
;
Structure prediction by ZEFSAII (Michael W. Deem and Ramdas Pophale) SiO2 
 PCOD9199267
Probable space group: C 2/M
;
_chemical_formula_sum "Si O2"
_cell_formula_units_Z 64
_cell_length_a 29.327603
_cell_length_b 12.121904
_cell_length_c 15.705530
_cell_angle_alpha 90.000000
_cell_angle_beta 34.393802
_cell_angle_gamma 90.000000
_cell_volume 3153.947566
_symmetry_space_group_name_H-M "C 2/M"
_symmetry_group_IT_number 12
_symmetry_cell_setting 'monoclinic'
loop_
_space_group_symop_operation_xyz
x,y,z
-x,y,-z
-x,-y,-z
x,-y,z
1/2+x,1/2+y,z
1/2-x,1/2+y,-z
1/2-x,1/2-y,-z
1/2+x,1/2-y,z
loop_
_atom_site_type_symbol
_atom_site_label
_atom_site_fract_x
_atom_site_fract_y
_atom_site_fract_z
Si Si1 0.218978 0.234478 0.248218
Si Si2 0.493253 0.747279 0.830573
Si Si3 0.707015 0.874834 0.568250
Si Si4 0.586893 0.631827 0.332301
Si Si5 0.643619 0.809578 0.839402
Si Si6 0.413151 0.625222 0.177815
Si Si7 0.390775 0.875993 0.456908
Si Si8 0.142872 0.869703 0.058588
O O1 0.158785 0.161129 0.285726
O O2 0.279947 0.170915 0.218213
O O3 0.161714 0.311322 0.393582
O O4 0.279179 0.304624 0.095471
O O5 0.568155 0.690681 0.764308
O O6 0.528064 0.814652 0.697842
O O7 0.430528 0.656699 0.892832
O O8 0.439206 0.819779 0.979657
O O9 0.750000 0.750000 0.500000
O O10 0.651249 0.871817 0.738667
O O11 0.660238 0.879980 0.551877
O O12 0.745921 0.000000 0.516087
O O13 0.500000 0.674891 0.500000
O O14 0.578957 0.500000 0.338767
O O15 0.613391 0.668965 0.197141
O O16 0.644380 0.683159 0.802227
O O17 0.393596 0.500000 0.222496
O O18 0.500000 0.629057 0.000000
O O19 0.407166 0.000000 0.460554
O O20 0.159003 0.000000 0.035511
#
# Coordination Sequence:
#
# PCOD9199267 Si02
#       8
#     8   8   8   8   8   8   8   8
#     4  11  22  39  63  90 126 162 206 248 322 374
#     4  10  20  36  59  89 127 166 215 253 319 362
#     4  11  23  41  58  85 125 171 218 268 321 373
#     4  10  22  42  68  95 123 155 199 259 324 384
#     4  10  21  36  56  88 123 167 211 264 309 369
#     4   9  17  30  51  83 124 164 210 256 304 363
#     4  11  23  38  58  84 123 167 211 257 312 374
#     4  10  21  39  65  96 125 162 206 256 314 378
#
# _framework density 20.29203
#
# number of rings (size 3 to 8) (size 9 to 14) (size 15 to 20)
#    0.000    1.750    2.500    1.875    0.000    5.000 
#    0.000    3.750    0.000    9.750    0.000    0.000 
#    0.000    0.000    0.000    0.000    0.000    0.000 
#
# Total GULP energy -178302.661046 kJ/mol
# GULP energy per Si atom -5571.958158 kJ/mol
# Density = 2.024584 g / cm^3
# Si number density = 20.292030 Si / 1000 Ang^3
#
#
#
# Elastic Constant Matrix: (Units=GPa)
#
#
# Indices 1 2 3 4 5 6 
#
# 1 75.3130 -16.8404 13.5517 0.0000 5.3380 0.0000
# 2 -16.8404 42.8040 11.9730 0.0000 5.1740 0.0000
# 3 13.5517 11.9730 139.4307 0.0000 18.8935 0.0000
# 4 0.0000 0.0000 0.0000 16.0920 0.0000 -1.1445
# 5 5.3380 5.1740 18.8935 0.0000 34.8722 0.0000
# 6 0.0000 0.0000 0.0000 -1.1445 0.0000 26.0307
#
#
#
# Elastic Compliance Matrix: (Units=1/GPa)
#
#
# Indices 1 2 3 4 5 6 
#
# 1 0.015280 0.006789 -0.001743 0.000000 -0.002402 0.000000
# 2 0.006789 0.027180 -0.002489 0.000000 -0.003723 0.000000
# 3 -0.001743 -0.002489 0.008061 0.000000 -0.003731 0.000000
# 4 0.000000 0.000000 0.000000 0.062338 0.000000 0.002741
# 5 -0.002402 -0.003723 -0.003731 0.000000 0.031618 0.000000
# 6 0.000000 0.000000 0.000000 0.002741 0.000000 0.038537
#
#
# Mechanical properties :
#
#
# Convention : Reuss Voigt Hill
#
# Bulk Modulus (GPa) = 17.97416 30.54625 24.26020
# Shear Modulus (GPa) = 25.45268 31.98985 28.72127
#
# Velocity S-wave (km/s) = 3.54548 3.97479 3.76626
# Velocity P-wave (km/s) = 5.06335 6.01259 5.55827
#
# Compressibility (1/GPa) = 0.05563542
#
# Stress axis : x y z
#
# Youngs Moduli (GPa) = 65.44554 36.79195 124.05811
#
# Poissons Ratio (x) = -0.24980 0.21618
# Poissons Ratio (y) = -0.44434 0.30882
# Poissons Ratio (z) = 0.11405 0.09159
#
# Static dielectric constant tensor:
#      x y z
#    x 1.709540 0.000000 0.010570 
#    y 0.000000 1.767740 0.000000 
#    z 0.010570 0.000000 1.803090 
# 
# From -- ./inp_files/245932.got.cif
#   From: 2010.05.17/outbox.cif.g08.bks.cpg/sg12_123_cif.got.tgz:245932.got - 2010.06.03 13:09:07.
