data_PCOD9199549
_publ_section_title
;
Structure prediction by ZEFSAII (Michael W. Deem and Ramdas Pophale) SiO2 
 PCOD9199549
Probable space group: C 2/M
;
_chemical_formula_sum "Si O2"
_cell_formula_units_Z 64
_cell_length_a 8.615311
_cell_length_b 19.423686
_cell_length_c 22.708372
_cell_angle_alpha 90.000000
_cell_angle_beta 56.011254
_cell_angle_gamma 90.000000
_cell_volume 3150.796452
_symmetry_space_group_name_H-M "C 2/M"
_symmetry_group_IT_number 12
_symmetry_cell_setting 'monoclinic'
loop_
_space_group_symop_operation_xyz
x,y,z
-x,y,-z
-x,-y,-z
x,-y,z
1/2+x,1/2+y,z
1/2-x,1/2+y,-z
1/2-x,1/2-y,-z
1/2+x,1/2-y,z
loop_
_atom_site_type_symbol
_atom_site_label
_atom_site_fract_x
_atom_site_fract_y
_atom_site_fract_z
Si Si1 0.089129 0.920243 0.916591
Si Si2 0.101332 0.306376 0.312748
Si Si3 0.114717 0.075990 0.719814
Si Si4 0.349689 0.823710 0.479554
Si Si5 0.987832 0.416170 0.146237
Si Si6 0.209967 0.660524 0.707643
Si Si7 0.704309 0.578226 0.115758
Si Si8 0.463776 0.580024 0.403740
O O1 0.300992 0.893506 0.881282
O O2 0.933484 0.889527 0.904589
O O3 0.113734 0.000000 0.890852
O O4 0.000000 0.920614 0.000000
O O5 0.265867 0.361519 0.280668
O O6 0.171777 0.228483 0.302784
O O7 0.966351 0.326727 0.395225
O O8 0.979934 0.313737 0.280802
O O9 0.084090 0.085964 0.656372
O O10 0.927985 0.074191 0.798433
O O11 0.204957 0.000000 0.707983
O O12 0.500000 0.827256 0.500000
O O13 0.250000 0.750000 0.500000
O O14 0.192139 0.880636 0.525574
O O15 0.984822 0.500000 0.146851
O O16 0.851896 0.386217 0.224968
O O17 0.899922 0.393821 0.101373
O O18 0.335669 0.616721 0.635594
O O19 0.746049 0.500000 0.085826
O O20 0.471994 0.500000 0.417003
#
# Coordination Sequence:
#
# PCOD9199549 Si02
#       8
#     8   8   8   8   8   8   8   8
#     4   9  18  32  52  89 135 168 200 245 299 367
#     4  12  25  39  61  86 116 156 199 252 312 376
#     4  10  20  38  61  89 118 150 196 252 311 364
#     4  12  24  41  61  81 113 157 200 247 309 375
#     4  10  20  36  60  89 121 163 209 255 311 365
#     4  12  24  40  60  87 119 154 204 259 311 362
#     4   9  17  31  56  84 120 162 197 247 307 356
#     4  11  23  40  62  85 116 155 200 257 312 367
#
# _framework density 20.312324
#
# number of rings (size 3 to 8) (size 9 to 14) (size 15 to 20)
#    0.000    1.375    3.750    2.625    0.000    3.250 
#    0.000    3.125    0.000    0.000    0.000    3.500 
#    0.000    0.000    0.000    0.000    0.000    0.000 
#
# Total GULP energy -178518.840678 kJ/mol
# GULP energy per Si atom -5578.713771 kJ/mol
# Density = 2.026609 g / cm^3
# Si number density = 20.312324 Si / 1000 Ang^3
#
#
#
# Elastic Constant Matrix: (Units=GPa)
#
#
# Indices 1 2 3 4 5 6 
#
# 1 117.9898 21.0795 17.7479 0.0000 2.0124 0.0000
# 2 21.0795 82.8725 3.7580 0.0000 -14.3763 0.0000
# 3 17.7479 3.7580 39.7026 0.0000 0.2976 0.0000
# 4 0.0000 0.0000 0.0000 4.4420 0.0000 -28.6171
# 5 2.0124 -14.3763 0.2976 0.0000 27.7825 0.0000
# 6 0.0000 0.0000 0.0000 -28.6171 0.0000 -42.7522
#
#
#
# Elastic Compliance Matrix: (Units=1/GPa)
#
#
# Indices 1 2 3 4 5 6 
#
# 1 0.009579 -0.002600 -0.004021 0.000000 -0.001996 0.000000
# 2 -0.002600 0.014031 -0.000221 0.000000 0.007451 0.000000
# 3 -0.004021 -0.000221 0.027006 0.000000 -0.000113 0.000000
# 4 0.000000 0.000000 0.000000 0.042378 0.000000 -0.028366
# 5 -0.001996 0.007451 -0.000113 0.000000 0.039995 0.000000
# 6 0.000000 0.000000 0.000000 -0.028366 0.000000 -0.004403
#
#
# Mechanical properties :
#
#
# Convention : Reuss Voigt Hill
#
# Bulk Modulus (GPa) = 27.07783 36.19286 31.63534
# Shear Modulus (GPa) = 32.34539 11.09308 21.71924
#
# Velocity S-wave (km/s) = 3.99482 2.33947 3.27351
# Velocity P-wave (km/s) = 5.88539 5.01541 5.46773
#
# Compressibility (1/GPa) = 0.03693058
#
# Stress axis : x y z
#
# Youngs Moduli (GPa) = 104.39786 71.27167 37.02821
#
# Poissons Ratio (x) = 0.18534 0.14888
# Poissons Ratio (y) = 0.27148 0.00820
# Poissons Ratio (z) = 0.41976 0.01578
#
# Static dielectric constant tensor:
#      x y z
#    x 1.791150 0.000000 0.006500 
#    y 0.000000 1.681180 0.000000 
#    z 0.006500 0.000000 1.720640 
# 
# From -- ./inp_files/333710.got.cif
#   From: 2010.05.17/outbox.cif.g08.bks.cpg/sg12_167_cif.got.tgz:333710.got - 2010.06.03 13:09:07.
