data_PCOD9199953
_publ_section_title
;
Structure prediction by ZEFSAII (Michael W. Deem and Ramdas Pophale) SiO2 
 PCOD9199953
Probable space group: C 2/M
;
_chemical_formula_sum "Si O2"
_cell_formula_units_Z 48
_cell_length_a 23.975476
_cell_length_b 14.175377
_cell_length_c 8.057125
_cell_angle_alpha 90.000000
_cell_angle_beta 132.357985
_cell_angle_gamma 90.000000
_cell_volume 2023.470050
_symmetry_space_group_name_H-M "C 2/M"
_symmetry_group_IT_number 12
_symmetry_cell_setting 'monoclinic'
loop_
_space_group_symop_operation_xyz
x,y,z
-x,y,-z
-x,-y,-z
x,-y,z
1/2+x,1/2+y,z
1/2-x,1/2+y,-z
1/2-x,1/2-y,-z
1/2+x,1/2-y,z
loop_
_atom_site_type_symbol
_atom_site_label
_atom_site_fract_x
_atom_site_fract_y
_atom_site_fract_z
Si Si1 0.265758 0.390209 0.202662
Si Si2 0.826763 0.283960 0.495881
Si Si3 0.529197 0.193032 0.370940
Si Si4 0.485037 0.396313 0.271032
Si Si5 0.806562 0.109774 0.909961
Si Si6 0.112380 0.392250 0.076005
O O1 0.286837 0.500000 0.263194
O O2 0.311006 0.324034 0.419381
O O3 0.176718 0.381846 0.063505
O O4 0.287273 0.360128 0.059807
O O5 0.745314 0.332112 0.317038
O O6 0.866098 0.315942 0.742955
O O7 0.883061 0.329435 0.471351
O O8 0.500000 0.193546 0.500000
O O9 0.523022 0.300131 0.287873
O O10 0.471355 0.127339 0.156787
O O11 0.500000 0.399938 0.500000
O O12 0.507810 0.500000 0.250844
O O13 0.395833 0.382508 0.065114
O O14 0.786393 0.000000 0.854585
O O15 0.118617 0.500000 0.151644
#
# Coordination Sequence:
#
# PCOD9199953 Si02
#       6
#     8   8   8   8   8   8
#     4  10  21  38  61  88 117 151 195 244 291 344
#     4  12  23  38  61  87 121 157 194 243 295 351
#     4  11  23  39  62  89 117 155 198 240 291 350
#     4   9  18  35  60  90 122 151 186 236 290 346
#     4  10  20  36  62  92 119 153 197 242 289 343
#     4  11  25  43  60  82 117 158 199 245 297 351
#
# _framework density 23.721626000000001
#
# number of rings (size 3 to 8) (size 9 to 14) (size 15 to 20)
#    0.000    1.500    0.000    6.000    0.000    4.333 
#    0.000    2.500    0.000    2.000    0.000    0.000 
#    0.000    0.000    0.000    0.000    0.000    0.000 
#
# Total GULP energy -134300.392343 kJ/mol
# GULP energy per Si atom -5595.849681 kJ/mol
# Density = 2.366763 g / cm^3
# Si number density = 23.721626 Si / 1000 Ang^3
#
#
#
# Elastic Constant Matrix: (Units=GPa)
#
#
# Indices 1 2 3 4 5 6 
#
# 1 43.2244 -16.0967 -1.8203 0.0000 9.8748 0.0000
# 2 -16.0967 51.3960 25.3206 0.0000 -1.4223 0.0000
# 3 -1.8203 25.3206 88.0785 0.0000 13.9514 0.0000
# 4 0.0000 0.0000 0.0000 20.7471 0.0000 2.6730
# 5 9.8748 -1.4223 13.9514 0.0000 34.6576 0.0000
# 6 0.0000 0.0000 0.0000 2.6730 0.0000 23.6651
#
#
#
# Elastic Compliance Matrix: (Units=1/GPa)
#
#
# Indices 1 2 3 4 5 6 
#
# 1 0.028129 0.009031 -0.000859 0.000000 -0.007298 0.000000
# 2 0.009031 0.026044 -0.007543 0.000000 0.001532 0.000000
# 3 -0.000859 -0.007543 0.014435 0.000000 -0.005876 0.000000
# 4 0.000000 0.000000 0.000000 0.048911 0.000000 -0.005525
# 5 -0.007298 0.001532 -0.005876 0.000000 0.033361 0.000000
# 6 0.000000 0.000000 0.000000 -0.005525 0.000000 0.042880
#
#
# Mechanical properties :
#
#
# Convention : Reuss Voigt Hill
#
# Bulk Modulus (GPa) = 14.31306 21.94512 18.12909
# Shear Modulus (GPa) = 23.17050 27.50028 25.33539
#
# Velocity S-wave (km/s) = 3.12872 3.40853 3.27162
# Velocity P-wave (km/s) = 4.37020 4.97614 4.68298
#
# Compressibility (1/GPa) = 0.06986624
#
# Stress axis : x y z
#
# Youngs Moduli (GPa) = 35.55003 38.39699 69.27650
#
# Poissons Ratio (x) = -0.34676 0.05949
# Poissons Ratio (y) = -0.32105 0.52255
# Poissons Ratio (z) = 0.03053 0.28963
#
# Static dielectric constant tensor:
#      x y z
#    x 1.991720 0.000000 -0.038590 
#    y 0.000000 1.898680 0.000000 
#    z -0.038590 0.000000 1.856890 
# 
# From -- ./inp_files/104927.got.cif
#   From: 2010.05.17/outbox.cif.g08.bks.cpg/sg12_53_cif.got.tgz:104927.got - 2010.06.03 13:09:07.
