data_PCOD9199540
_publ_section_title
;
Structure prediction by ZEFSAII (Michael W. Deem and Ramdas Pophale) SiO2 
 PCOD9199540
Probable space group: C 2/M
;
_chemical_formula_sum "Si O2"
_cell_formula_units_Z 64
_cell_length_a 29.183440
_cell_length_b 8.508364
_cell_length_c 14.683930
_cell_angle_alpha 90.000000
_cell_angle_beta 108.134337
_cell_angle_gamma 90.000000
_cell_volume 3464.966207
_symmetry_space_group_name_H-M "C 2/M"
_symmetry_group_IT_number 12
_symmetry_cell_setting 'monoclinic'
loop_
_space_group_symop_operation_xyz
x,y,z
-x,y,-z
-x,-y,-z
x,-y,z
1/2+x,1/2+y,z
1/2-x,1/2+y,-z
1/2-x,1/2-y,-z
1/2+x,1/2-y,z
loop_
_atom_site_type_symbol
_atom_site_label
_atom_site_fract_x
_atom_site_fract_y
_atom_site_fract_z
Si Si1 0.402641 0.686254 0.637756
Si Si2 0.688845 0.186283 0.865909
Si Si3 0.353272 0.817868 0.436681
Si Si4 0.502214 0.814356 0.394811
Si Si5 0.201307 0.810350 0.075169
Si Si6 0.247136 0.186246 0.600799
Si Si7 0.339707 0.688828 0.761353
Si Si8 0.598013 0.681309 0.700854
O O1 0.395460 0.500000 0.620530
O O2 0.366227 0.777783 0.548338
O O3 0.455478 0.732368 0.635903
O O4 0.387671 0.723890 0.732543
O O5 0.742958 0.233521 0.867248
O O6 0.644247 0.267071 0.788003
O O7 0.684414 0.000000 0.849580
O O8 0.688049 0.229011 0.972304
O O9 0.298187 0.775368 0.383418
O O10 0.386213 0.711370 0.393398
O O11 0.363011 0.000000 0.423427
O O12 0.500000 0.761306 0.500000
O O13 0.450618 0.780336 0.317460
O O14 0.512428 0.000000 0.403013
O O15 0.165805 0.769034 0.136094
O O16 0.200684 0.000000 0.061537
O O17 0.250000 0.250000 0.500000
O O18 0.295709 0.228219 0.682866
O O19 0.238384 0.000000 0.594849
O O20 0.332134 0.500000 0.751670
O O21 0.587162 0.500000 0.710404
#
# Coordination Sequence:
#
# PCOD9199540 Si02
#       8
#     8   8   8   8   8   8   8   8
#     4  11  22  36  56  81 111 149 194 236 283 339
#     4  10  20  36  60  89 120 152 190 237 287 342
#     4  12  23  36  53  77 112 151 190 233 284 339
#     4  11  23  39  59  82 113 152 194 240 294 347
#     4   9  19  37  60  86 118 155 191 233 284 342
#     4  12  23  34  50  75 110 151 193 233 277 334
#     4  10  21  37  57  81 114 154 194 236 286 344
#     4  12  24  38  60  86 114 148 191 241 292 348
#
# _framework density 18.470597999999999
#
# number of rings (size 3 to 8) (size 9 to 14) (size 15 to 20)
#    0.000    1.125    2.500    5.250    0.000    3.000 
#    0.000    0.000    0.000    0.750    0.000    5.250 
#    0.000    0.000    0.000    0.000    0.000    0.000 
#
# Total GULP energy -178781.892218 kJ/mol
# GULP energy per Si atom -5586.934132 kJ/mol
# Density = 1.842856 g / cm^3
# Si number density = 18.470598 Si / 1000 Ang^3
#
#
#
# Elastic Constant Matrix: (Units=GPa)
#
#
# Indices 1 2 3 4 5 6 
#
# 1 97.1991 2.4519 24.7270 0.0000 -12.1762 0.0000
# 2 2.4519 31.5935 9.0986 0.0000 -2.9138 0.0000
# 3 24.7270 9.0986 58.5635 0.0000 -11.0329 0.0000
# 4 0.0000 0.0000 0.0000 26.9933 0.0000 3.1390
# 5 -12.1762 -2.9138 -11.0329 0.0000 28.8458 0.0000
# 6 0.0000 0.0000 0.0000 3.1390 0.0000 22.0166
#
#
#
# Elastic Compliance Matrix: (Units=1/GPa)
#
#
# Indices 1 2 3 4 5 6 
#
# 1 0.011828 0.000678 -0.004468 0.000000 0.003352 0.000000
# 2 0.000678 0.033233 -0.005133 0.000000 0.001680 0.000000
# 3 -0.004468 -0.005133 0.020806 0.000000 0.005553 0.000000
# 4 0.000000 0.000000 0.000000 0.037671 0.000000 -0.005371
# 5 0.003352 0.001680 0.005553 0.000000 0.038376 0.000000
# 6 0.000000 0.000000 0.000000 -0.005371 0.000000 0.046186
#
#
# Mechanical properties :
#
#
# Convention : Reuss Voigt Hill
#
# Bulk Modulus (GPa) = 20.82447 28.87901 24.85174
# Shear Modulus (GPa) = 22.52755 25.64305 24.08530
#
# Velocity S-wave (km/s) = 3.49613 3.73006 3.61498
# Velocity P-wave (km/s) = 5.25320 5.84980 5.55951
#
# Compressibility (1/GPa) = 0.04802044
#
# Stress axis : x y z
#
# Youngs Moduli (GPa) = 84.54836 30.09089 48.06413
#
# Poissons Ratio (x) = -0.02040 0.21473
# Poissons Ratio (y) = -0.05732 0.24671
# Poissons Ratio (z) = 0.37773 0.15445
#
# Static dielectric constant tensor:
#      x y z
#    x 1.656010 0.000000 -0.014140 
#    y 0.000000 1.619160 0.000000 
#    z -0.014140 0.000000 1.621970 
# 
# From -- ./inp_files/244171.got.cif
#   From: 2010.05.17/outbox.cif.g08.bks.cpg/sg12_123_cif.got.tgz:244171.got - 2010.06.03 13:09:07.
