data_PCOD9199984
_publ_section_title
;
Structure prediction by ZEFSAII (Michael W. Deem and Ramdas Pophale) SiO2 
 PCOD9199984
Probable space group: C 2/M
;
_chemical_formula_sum "Si O2"
_cell_formula_units_Z 48
_cell_length_a 17.087460
_cell_length_b 24.182659
_cell_length_c 12.457070
_cell_angle_alpha 90.000000
_cell_angle_beta 23.909288
_cell_angle_gamma 90.000000
_cell_volume 2086.234526
_symmetry_space_group_name_H-M "C 2/M"
_symmetry_group_IT_number 12
_symmetry_cell_setting 'monoclinic'
loop_
_space_group_symop_operation_xyz
x,y,z
-x,y,-z
-x,-y,-z
x,-y,z
1/2+x,1/2+y,z
1/2-x,1/2+y,-z
1/2-x,1/2-y,-z
1/2+x,1/2-y,z
loop_
_atom_site_type_symbol
_atom_site_label
_atom_site_fract_x
_atom_site_fract_y
_atom_site_fract_z
Si Si1 0.447788 0.394477 0.758484
Si Si2 0.773218 0.563408 0.752311
Si Si3 0.607889 0.173597 0.479808
Si Si4 0.109084 0.359239 0.051601
Si Si5 0.656804 0.057863 0.709454
Si Si6 0.348012 0.293965 0.591729
O O1 0.632706 0.432487 0.508219
O O2 0.540899 0.332376 0.634359
O O3 0.348344 0.414774 0.992740
O O4 0.287688 0.397036 0.865910
O O5 0.714328 0.500000 0.796220
O O6 0.772202 0.616020 0.672221
O O7 0.000000 0.558934 0.500000
O O8 0.500000 0.173998 0.500000
O O9 0.442264 0.175099 0.778266
O O10 0.712654 0.232256 0.363365
O O11 0.916280 0.392693 0.270690
O O12 0.173454 0.326527 0.866226
O O13 0.651187 0.000000 0.655234
O O14 0.500000 0.055956 0.000000
O O15 0.500000 0.289574 0.500000
#
# Coordination Sequence:
#
# PCOD9199984 Si02
#       6
#     8   8   8   8   8   8
#     4  11  21  42  68  97 131 176 219 277 337 395
#     4  10  20  36  62  93 131 175 220 269 326 395
#     4  10  20  38  65 100 132 177 224 272 335 397
#     4  11  22  42  69  98 134 177 223 275 342 403
#     4  11  25  43  65  98 138 172 220 282 334 400
#     4   9  21  34  65 100 131 170 222 277 333 403
#
# _framework density 23.007959
#
# number of rings (size 3 to 8) (size 9 to 14) (size 15 to 20)
#    0.000    1.667    5.000    0.500    2.333    4.000 
#    0.000    3.333    3.667    2.000    0.000    0.000 
#    0.000    0.000    0.000    0.000    0.000    0.000 
#
# Total GULP energy -133812.881101 kJ/mol
# GULP energy per Si atom -5575.536713 kJ/mol
# Density = 2.295559 g / cm^3
# Si number density = 23.007959 Si / 1000 Ang^3
#
#
#
# Elastic Constant Matrix: (Units=GPa)
#
#
# Indices 1 2 3 4 5 6 
#
# 1 41.4910 12.5091 42.0148 0.6669 0.6620 -0.0324
# 2 12.5091 169.2098 47.0498 0.9377 11.1400 -0.0409
# 3 42.0148 47.0498 133.7282 1.3827 20.4769 -0.1336
# 4 0.6669 0.9377 1.3827 249.9685 -0.1093 -29.7923
# 5 0.6620 11.1400 20.4769 -0.1093 34.5846 -0.0095
# 6 -0.0324 -0.0409 -0.1336 -29.7923 -0.0095 9.3642
#
#
#
# Elastic Compliance Matrix: (Units=1/GPa)
#
#
# Indices 1 2 3 4 5 6 
#
# 1 0.036744 0.000375 -0.012701 -0.000051 0.006696 -0.000208
# 2 0.000375 0.006576 -0.002316 -0.000022 -0.000754 -0.000074
# 3 -0.012701 -0.002316 0.013341 -0.000030 -0.006910 0.000033
# 4 -0.000051 -0.000022 -0.000030 0.006444 0.000052 0.020503
# 5 0.006696 -0.000754 -0.006910 0.000052 0.033121 0.000120
# 6 -0.000208 -0.000074 0.000033 0.020503 0.000120 0.172018
#
#
# Mechanical properties :
#
#
# Convention : Reuss Voigt Hill
#
# Bulk Modulus (GPa) = 36.52678 60.84179 48.68429
# Shear Modulus (GPa) = 16.30500 74.97381 45.63940
#
# Velocity S-wave (km/s) = 2.66497 5.71461 4.45863
# Velocity P-wave (km/s) = 5.03782 8.36920 6.90736
#
# Compressibility (1/GPa) = 0.02737717
#
# Stress axis : x y z
#
# Youngs Moduli (GPa) = 27.21544 152.07359 74.95443
#
# Poissons Ratio (x) = -0.05697 0.95200
# Poissons Ratio (y) = -0.01020 0.17357
# Poissons Ratio (z) = 0.34566 0.35214
#
# Static dielectric constant tensor:
#      x y z
#    x 1.871330 -0.000020 0.027330 
#    y -0.000020 1.965050 0.000050 
#    z 0.027330 0.000050 1.862660 
# 
# From -- ./inp_files/235523.got.cif
#   From: 2010.05.17/outbox.cif.g08.bks.cpg/sg12_118_cif.got.tgz:235523.got - 2010.06.03 13:09:07.
