data_PCOD9199608
_publ_section_title
;
Structure prediction by ZEFSAII (Michael W. Deem and Ramdas Pophale) SiO2 
 PCOD9199608
Probable space group: C 2/M
;
_chemical_formula_sum "Si O2"
_cell_formula_units_Z 52
_cell_length_a 16.940510
_cell_length_b 22.228393
_cell_length_c 9.576613
_cell_angle_alpha 90.000000
_cell_angle_beta 48.670065
_cell_angle_gamma 90.000000
_cell_volume 2707.944105
_symmetry_space_group_name_H-M "C 2/M"
_symmetry_group_IT_number 12
_symmetry_cell_setting 'monoclinic'
loop_
_space_group_symop_operation_xyz
x,y,z
-x,y,-z
-x,-y,-z
x,-y,z
1/2+x,1/2+y,z
1/2-x,1/2+y,-z
1/2-x,1/2-y,-z
1/2+x,1/2-y,z
loop_
_atom_site_type_symbol
_atom_site_label
_atom_site_fract_x
_atom_site_fract_y
_atom_site_fract_z
Si Si1 0.350342 0.381023 0.419213
Si Si2 0.262038 0.307917 0.273276
Si Si3 0.769488 0.826791 0.782347
Si Si4 0.533518 0.822781 0.123410
Si Si5 0.088773 0.603473 0.504091
Si Si6 0.065782 0.813379 0.161262
Si Si7 0.247036 0.000000 0.589217
O O1 0.291334 0.331805 0.391280
O O2 0.301770 0.375565 0.630295
O O3 0.470709 0.359717 0.281688
O O4 0.330869 0.446147 0.377833
O O5 0.244847 0.237273 0.278080
O O6 0.157017 0.343253 0.353222
O O7 0.359556 0.324331 0.059317
O O8 0.859322 0.818182 0.792273
O O9 0.656899 0.839382 0.983419
O O10 0.465459 0.867766 0.295771
O O11 0.522746 0.754682 0.193702
O O12 0.500000 0.823492 0.000000
O O13 0.169610 0.552234 0.453579
O O14 0.000000 0.583006 0.500000
#
# Coordination Sequence:
#
# PCOD9199608 Si02
#       7
#     8   8   8   8   8   8   4
#     4  11  22  40  59  79 113 159 199 236 283 334
#     4  10  20  36  60  91 120 145 181 231 290 361
#     4  11  21  36  58  92 122 146 183 234 289 353
#     4  11  21  36  61  93 124 152 180 227 296 362
#     4  11  21  39  62  86 115 153 194 242 290 334
#     4  11  21  36  59  91 122 149 182 232 291 351
#     4  10  25  42  59  80 111 156 209 248 276 328
#
# _framework density 19.202760999999999
#
# number of rings (size 3 to 8) (size 9 to 14) (size 15 to 20)
#    0.000    1.231    0.000    9.923    0.000    0.000 
#    0.000   11.154    0.000    0.000    0.000    0.000 
#    0.000    0.000    0.000    0.000    0.000    0.000 
#
# Total GULP energy -144818.171092 kJ/mol
# GULP energy per Si atom -5569.929657 kJ/mol
# Density = 1.915905 g / cm^3
# Si number density = 19.202761 Si / 1000 Ang^3
#
#
#
# Elastic Constant Matrix: (Units=GPa)
#
#
# Indices 1 2 3 4 5 6 
#
# 1 98.1555 28.7015 20.6246 0.0000 -9.7138 0.0000
# 2 28.7015 40.9737 28.5931 0.0000 -12.8195 0.0000
# 3 20.6246 28.5931 49.7901 0.0000 -1.3916 0.0000
# 4 0.0000 0.0000 0.0000 -2.1208 0.0000 -0.3810
# 5 -9.7138 -12.8195 -1.3916 0.0000 29.9633 0.0000
# 6 0.0000 0.0000 0.0000 -0.3810 0.0000 17.9230
#
#
#
# Elastic Compliance Matrix: (Units=1/GPa)
#
#
# Indices 1 2 3 4 5 6 
#
# 1 0.012820 -0.008570 -0.000375 0.000000 0.000472 0.000000
# 2 -0.008570 0.056426 -0.028294 0.000000 0.020049 0.000000
# 3 -0.000375 -0.028294 0.036193 0.000000 -0.010546 0.000000
# 4 0.000000 0.000000 0.000000 -0.469725 0.000000 -0.009984
# 5 0.000472 0.020049 -0.010546 0.000000 0.041615 0.000000
# 6 0.000000 0.000000 0.000000 -0.009984 0.000000 0.055582
#
#
# Mechanical properties :
#
#
# Convention : Reuss Voigt Hill
#
# Bulk Modulus (GPa) = 32.29917 38.30641 35.30279
# Shear Modulus (GPa) = -27.42893 16.55312 -5.43791
#
# Velocity S-wave (km/s) = -3.78350 2.93920 -1.68463
# Velocity P-wave (km/s) = 1.49328 5.61340 3.82625
#
# Compressibility (1/GPa) = 0.03096055
#
# Stress axis : x y z
#
# Youngs Moduli (GPa) = 78.00612 17.72219 27.62943
#
# Poissons Ratio (x) = 0.15189 0.01037
# Poissons Ratio (y) = 0.66854 0.78174
# Poissons Ratio (z) = 0.02928 0.50143
#
# Static dielectric constant tensor:
#      x y z
#    x 1.699030 0.000000 0.003370 
#    y 0.000000 1.629910 0.000000 
#    z 0.003370 0.000000 1.693150 
# 
# From -- ./inp_files/77940.got.cif
#   From: 2010.05.17/outbox.cif.g08.bks.cpg/sg12_39_cif.got.tgz:77940.got - 2010.06.03 13:09:07.
