data_PCOD9199397
_publ_section_title
;
Structure prediction by ZEFSAII (Michael W. Deem and Ramdas Pophale) SiO2 
 PCOD9199397
Probable space group: C 2/M
;
_chemical_formula_sum "Si O2"
_cell_formula_units_Z 64
_cell_length_a 12.994154
_cell_length_b 14.081401
_cell_length_c 17.944832
_cell_angle_alpha 90.000000
_cell_angle_beta 61.407444
_cell_angle_gamma 90.000000
_cell_volume 2883.036404
_symmetry_space_group_name_H-M "C 2/M"
_symmetry_group_IT_number 12
_symmetry_cell_setting 'monoclinic'
loop_
_space_group_symop_operation_xyz
x,y,z
-x,y,-z
-x,-y,-z
x,-y,z
1/2+x,1/2+y,z
1/2-x,1/2+y,-z
1/2-x,1/2-y,-z
1/2+x,1/2-y,z
loop_
_atom_site_type_symbol
_atom_site_label
_atom_site_fract_x
_atom_site_fract_y
_atom_site_fract_z
Si Si1 0.970320 0.895177 0.111171
Si Si2 0.604057 0.799197 0.015130
Si Si3 0.399979 0.252422 0.584047
Si Si4 0.741843 0.845532 0.106665
Si Si5 0.457000 0.191190 0.718575
Si Si6 0.246755 0.394340 0.458946
Si Si7 0.790023 0.391384 0.350938
Si Si8 0.973342 0.895028 0.279231
O O1 0.862178 0.894771 0.090884
O O2 0.922748 0.890072 0.212577
O O3 0.046901 0.799266 0.070238
O O4 0.029389 0.000000 0.085877
O O5 0.664565 0.861914 0.058550
O O6 0.500000 0.840543 0.000000
O O7 0.708670 0.760863 0.926431
O O8 0.500000 0.301432 0.500000
O O9 0.452851 0.188429 0.631062
O O10 0.330306 0.185282 0.552245
O O11 0.308714 0.325914 0.650629
O O12 0.651761 0.858072 0.204935
O O13 0.580704 0.150850 0.703411
O O14 0.449169 0.302093 0.741965
O O15 0.203929 0.500000 0.454068
O O16 0.241737 0.387040 0.549621
O O17 0.374753 0.385002 0.377263
O O18 0.785764 0.500000 0.328433
O O19 0.026960 0.000000 0.269151
#
# Coordination Sequence:
#
# PCOD9199397 Si02
#       8
#     8   8   8   8   8   8   8   8
#     4  10  20  37  61  90 120 151 197 254 303 351
#     4   9  19  37  59  88 124 156 191 240 302 365
#     4  12  23  37  63  90 118 159 214 249 299 359
#     4  10  21  34  59  92 118 156 200 238 297 363
#     4  12  23  38  63  86 125 160 204 251 302 360
#     4  10  20  38  60  84 118 156 200 253 301 350
#     4  11  25  42  58  84 125 165 201 250 306 356
#     4  10  20  36  60  86 116 156 201 251 304 353
#
# _framework density 22.198817999999999
#
# number of rings (size 3 to 8) (size 9 to 14) (size 15 to 20)
#    0.000    1.500    3.750    1.875    0.000    4.250 
#    0.000    0.000    0.000    0.375    0.000    2.625 
#    0.000    0.000    0.000    0.000    0.000    0.000 
#
# Total GULP energy -178520.951803 kJ/mol
# GULP energy per Si atom -5578.779744 kJ/mol
# Density = 2.214829 g / cm^3
# Si number density = 22.198818 Si / 1000 Ang^3
#
#
#
# Elastic Constant Matrix: (Units=GPa)
#
#
# Indices 1 2 3 4 5 6 
#
# 1 80.1728 9.9707 -4.7132 0.0000 -0.2521 0.0000
# 2 9.9707 74.5271 -17.3677 0.0000 -4.2104 0.0000
# 3 -4.7132 -17.3677 73.8198 0.0000 -10.2885 0.0000
# 4 0.0000 0.0000 0.0000 4.9140 0.0000 1.8846
# 5 -0.2521 -4.2104 -10.2885 0.0000 38.6365 0.0000
# 6 0.0000 0.0000 0.0000 1.8846 0.0000 3.3954
#
#
#
# Elastic Compliance Matrix: (Units=1/GPa)
#
#
# Indices 1 2 3 4 5 6 
#
# 1 0.012697 -0.001595 0.000439 0.000000 0.000026 0.000000
# 2 -0.001595 0.014639 0.003701 0.000000 0.002570 0.000000
# 3 0.000439 0.003701 0.015061 0.000000 0.004417 0.000000
# 4 0.000000 0.000000 0.000000 0.258532 0.000000 -0.143496
# 5 0.000026 0.002570 0.004417 0.000000 0.027339 0.000000
# 6 0.000000 0.000000 0.000000 -0.143496 0.000000 0.374166
#
#
# Mechanical properties :
#
#
# Convention : Reuss Voigt Hill
#
# Bulk Modulus (GPa) = 21.05878 22.69993 21.87935
# Shear Modulus (GPa) = 7.01093 25.43116 16.22104
#
# Velocity S-wave (km/s) = 1.77907 3.38836 2.70611
# Velocity P-wave (km/s) = 3.70502 5.05528 4.43188
#
# Compressibility (1/GPa) = 0.04748614
#
# Stress axis : x y z
#
# Youngs Moduli (GPa) = 78.75681 68.31118 66.39795
#
# Poissons Ratio (x) = 0.10895 -0.02915
# Poissons Ratio (y) = 0.12561 -0.24571
# Poissons Ratio (z) = -0.03458 -0.25279
#
# Static dielectric constant tensor:
#      x y z
#    x 1.826970 0.000000 0.005560 
#    y 0.000000 1.840060 0.000000 
#    z 0.005560 0.000000 1.868180 
# 
# From -- ./inp_files/270266.got.cif
#   From: 2010.05.17/outbox.cif.g08.bks.cpg/sg12_136_cif.got.tgz:270266.got - 2010.06.03 13:09:07.
