data_PCOD9199019
_publ_section_title
;
Structure prediction by ZEFSAII (Michael W. Deem and Ramdas Pophale) SiO2 
 PCOD9199019
Probable space group: C 2/M
;
_chemical_formula_sum "Si O2"
_cell_formula_units_Z 48
_cell_length_a 15.650947
_cell_length_b 10.790474
_cell_length_c 25.335897
_cell_angle_alpha 90.000000
_cell_angle_beta 35.748766
_cell_angle_gamma 90.000000
_cell_volume 2499.786438
_symmetry_space_group_name_H-M "C 2/M"
_symmetry_group_IT_number 12
_symmetry_cell_setting 'monoclinic'
loop_
_space_group_symop_operation_xyz
x,y,z
-x,y,-z
-x,-y,-z
x,-y,z
1/2+x,1/2+y,z
1/2-x,1/2+y,-z
1/2-x,1/2-y,-z
1/2+x,1/2-y,z
loop_
_atom_site_type_symbol
_atom_site_label
_atom_site_fract_x
_atom_site_fract_y
_atom_site_fract_z
Si Si1 0.698147 0.857235 0.433744
Si Si2 0.142554 0.146633 0.146717
Si Si3 0.592636 0.362338 0.826229
Si Si4 0.893759 0.293410 0.630775
Si Si5 0.509921 0.647457 0.320423
Si Si6 0.457082 0.143501 0.960134
O O1 0.550029 0.857342 0.541956
O O2 0.668168 0.773483 0.397296
O O3 0.841352 0.816464 0.393624
O O4 0.721521 0.000000 0.403225
O O5 0.002671 0.157353 0.179228
O O6 0.105771 0.198263 0.223148
O O7 0.172013 0.000000 0.139030
O O8 0.289110 0.191141 0.044560
O O9 0.552661 0.500000 0.867282
O O10 0.762649 0.362661 0.725926
O O11 0.554178 0.244983 0.881755
O O12 0.932770 0.184005 0.651198
O O13 0.513741 0.500000 0.314499
O O14 0.469397 0.000000 0.933790
O O15 0.500000 0.139497 0.000000
#
# Coordination Sequence:
#
# PCOD9199019 Si02
#       6
#     8   8   8   8   8   8
#     4  10  20  37  58  81 112 150 195 239 287 351
#     4   9  18  35  56  81 111 147 192 235 282 345
#     4  11  21  35  58  85 114 149 192 242 291 341
#     4  11  20  33  58  87 113 147 194 240 289 339
#     4  10  20  36  59  84 114 153 196 237 286 350
#     4  10  21  37  57  81 111 150 193 236 286 349
#
# _framework density 19.201640999999999
#
# number of rings (size 3 to 8) (size 9 to 14) (size 15 to 20)
#    0.000    1.833    1.667    4.000    0.000    2.333 
#    0.000    1.667    0.000    6.000    0.000    0.000 
#    0.000    0.000    0.000    0.000    0.000    0.000 
#
# Total GULP energy -133676.708786 kJ/mol
# GULP energy per Si atom -5569.862866 kJ/mol
# Density = 1.915794 g / cm^3
# Si number density = 19.201641 Si / 1000 Ang^3
#
#
#
# Elastic Constant Matrix: (Units=GPa)
#
#
# Indices 1 2 3 4 5 6 
#
# 1 73.9584 26.1929 31.2467 0.0000 -6.3686 0.0000
# 2 26.1929 62.1332 50.5619 0.0000 4.2207 0.0000
# 3 31.2467 50.5619 115.5542 0.0000 -9.3956 0.0000
# 4 0.0000 0.0000 0.0000 24.3911 0.0000 4.1334
# 5 -6.3686 4.2207 -9.3956 0.0000 30.0465 0.0000
# 6 0.0000 0.0000 0.0000 4.1334 0.0000 22.2590
#
#
#
# Elastic Compliance Matrix: (Units=1/GPa)
#
#
# Indices 1 2 3 4 5 6 
#
# 1 0.016642 -0.006018 -0.001551 0.000000 0.003888 0.000000
# 2 -0.006018 0.028744 -0.011679 0.000000 -0.008965 0.000000
# 3 -0.001551 -0.011679 0.014663 0.000000 0.005897 0.000000
# 4 0.000000 0.000000 0.000000 0.042331 0.000000 -0.007861
# 5 0.003888 -0.008965 0.005897 0.000000 0.037209 0.000000
# 6 0.000000 0.000000 0.000000 -0.007861 0.000000 0.046385
#
#
# Mechanical properties :
#
#
# Convention : Reuss Voigt Hill
#
# Bulk Modulus (GPa) = 46.39461 51.96099 49.17780
# Shear Modulus (GPa) = 21.58378 24.91562 23.24970
#
# Velocity S-wave (km/s) = 3.35634 3.60610 3.48346
# Velocity P-wave (km/s) = 6.26372 6.66769 6.46886
#
# Compressibility (1/GPa) = 0.02155423
#
# Stress axis : x y z
#
# Youngs Moduli (GPa) = 60.08751 34.78938 68.19813
#
# Poissons Ratio (x) = 0.20935 0.10577
# Poissons Ratio (y) = 0.36159 0.79650
# Poissons Ratio (z) = 0.09320 0.40631
#
# Static dielectric constant tensor:
#      x y z
#    x 1.695110 0.000000 -0.027880 
#    y 0.000000 1.656540 0.000000 
#    z -0.027880 0.000000 1.723950 
# 
# From -- ./inp_files/310188.got.cif
#   From: 2010.05.17/outbox.cif.g08.bks.cpg/sg12_156_cif.got.tgz:310188.got - 2010.06.03 13:09:07.
