data_PCOD9199167
_publ_section_title
;
Structure prediction by ZEFSAII (Michael W. Deem and Ramdas Pophale) SiO2 
 PCOD9199167
Probable space group: C 2/M
;
_chemical_formula_sum "Si O2"
_cell_formula_units_Z 56
_cell_length_a 18.129211
_cell_length_b 8.847621
_cell_length_c 19.121984
_cell_angle_alpha 90.000000
_cell_angle_beta 76.031173
_cell_angle_gamma 90.000000
_cell_volume 2976.468756
_symmetry_space_group_name_H-M "C 2/M"
_symmetry_group_IT_number 12
_symmetry_cell_setting 'monoclinic'
loop_
_space_group_symop_operation_xyz
x,y,z
-x,y,-z
-x,-y,-z
x,-y,z
1/2+x,1/2+y,z
1/2-x,1/2+y,-z
1/2-x,1/2-y,-z
1/2+x,1/2-y,z
loop_
_atom_site_type_symbol
_atom_site_label
_atom_site_fract_x
_atom_site_fract_y
_atom_site_fract_z
Si Si1 0.831446 0.181064 0.002755
Si Si2 0.196841 0.680091 0.849069
Si Si3 0.992702 0.321435 0.709058
Si Si4 0.154087 0.819668 0.710176
Si Si5 0.875264 0.820372 0.842273
Si Si6 0.441949 0.679991 0.575757
Si Si7 0.268510 0.680434 0.571047
O O1 0.848176 0.252599 0.074059
O O2 0.825326 0.000000 0.010109
O O3 0.750000 0.250000 0.000000
O O4 0.883341 0.213727 0.923236
O O5 0.186412 0.500000 0.848341
O O6 0.172032 0.756187 0.782962
O O7 0.287186 0.708092 0.841172
O O8 0.005744 0.500000 0.707923
O O9 0.071005 0.235320 0.706236
O O10 0.931372 0.272987 0.781180
O O11 0.961801 0.270697 0.640723
O O12 0.214664 0.752672 0.641790
O O13 0.157988 0.000000 0.709117
O O14 0.888780 0.000000 0.829150
O O15 0.500000 0.716545 0.500000
O O16 0.448999 0.500000 0.589043
O O17 0.356174 0.709070 0.570715
O O18 0.256860 0.500000 0.571983
O O19 0.250000 0.750000 0.500000
#
# Coordination Sequence:
#
# PCOD9199167 Si02
#       7
#     8   8   8   8   8   8   8
#     4   9  17  31  54  84 116 152 193 238 290 346
#     4  10  20  36  59  87 118 151 193 244 294 348
#     4  12  25  39  59  86 116 151 195 245 291 343
#     4  12  25  41  60  82 116 158 198 242 293 348
#     4   9  19  36  58  84 117 154 190 234 289 348
#     4  10  22  41  64  89 119 155 190 229 284 344
#     4  11  23  40  64  93 124 156 194 238 284 340
#
# _framework density 18.814240999999999
#
# number of rings (size 3 to 8) (size 9 to 14) (size 15 to 20)
#    0.000    1.571    0.000    6.429    0.000    9.429 
#    0.000    0.714    0.000    4.286    0.000    0.000 
#    0.000    0.000    0.000    0.000    0.000    0.000 
#
# Total GULP energy -156494.971223 kJ/mol
# GULP energy per Si atom -5589.106115 kJ/mol
# Density = 1.877142 g / cm^3
# Si number density = 18.814241 Si / 1000 Ang^3
#
#
#
# Elastic Constant Matrix: (Units=GPa)
#
#
# Indices 1 2 3 4 5 6 
#
# 1 84.3350 73.9965 70.9081 0.0000 7.5512 0.0000
# 2 73.9965 120.8304 93.3417 0.0000 5.9436 0.0000
# 3 70.9081 93.3417 177.5193 0.0000 15.8978 0.0000
# 4 0.0000 0.0000 0.0000 37.0411 0.0000 2.0982
# 5 7.5512 5.9436 15.8978 0.0000 29.8125 0.0000
# 6 0.0000 0.0000 0.0000 2.0982 0.0000 29.7998
#
#
#
# Elastic Compliance Matrix: (Units=1/GPa)
#
#
# Indices 1 2 3 4 5 6 
#
# 1 0.027014 -0.013901 -0.003273 0.000000 -0.002326 0.000000
# 2 -0.013901 0.021130 -0.005772 0.000000 0.002386 0.000000
# 3 -0.003273 -0.005772 0.010290 0.000000 -0.003507 0.000000
# 4 0.000000 0.000000 0.000000 0.027105 0.000000 -0.001908
# 5 -0.002326 0.002386 -0.003507 0.000000 0.035527 0.000000
# 6 0.000000 0.000000 0.000000 -0.001908 0.000000 0.033692
#
#
# Mechanical properties :
#
#
# Convention : Reuss Voigt Hill
#
# Bulk Modulus (GPa) = 79.72598 95.46413 87.59505
# Shear Modulus (GPa) = 24.41059 28.95991 26.68525
#
# Velocity S-wave (km/s) = 3.60592 3.92759 3.77019
# Velocity P-wave (km/s) = 7.73332 8.45094 8.10008
#
# Compressibility (1/GPa) = 0.01254296
#
# Stress axis : x y z
#
# Youngs Moduli (GPa) = 37.01741 47.32604 97.18624
#
# Poissons Ratio (x) = 0.65786 0.31811
# Poissons Ratio (y) = 0.51456 0.56092
# Poissons Ratio (z) = 0.12117 0.27315
#
# Static dielectric constant tensor:
#      x y z
#    x 1.616750 0.000000 -0.004580 
#    y 0.000000 1.624670 0.000000 
#    z -0.004580 0.000000 1.640860 
# 
# From -- ./inp_files/275133.got.cif
#   From: 2010.05.17/outbox.cif.g08.bks.cpg/sg12_138_cif.got.tgz:275133.got - 2010.06.03 13:09:07.
