data_PCOD9199277
_publ_section_title
;
Structure prediction by ZEFSAII (Michael W. Deem and Ramdas Pophale) SiO2 
 PCOD9199277
Probable space group: C 2/M
;
_chemical_formula_sum "Si O2"
_cell_formula_units_Z 36
_cell_length_a 21.933272
_cell_length_b 12.869708
_cell_length_c 9.034733
_cell_angle_alpha 90.000000
_cell_angle_beta 37.843541
_cell_angle_gamma 90.000000
_cell_volume 1564.613974
_symmetry_space_group_name_H-M "C 2/M"
_symmetry_group_IT_number 12
_symmetry_cell_setting 'monoclinic'
loop_
_space_group_symop_operation_xyz
x,y,z
-x,y,-z
-x,-y,-z
x,-y,z
1/2+x,1/2+y,z
1/2-x,1/2+y,-z
1/2-x,1/2-y,-z
1/2+x,1/2-y,z
loop_
_atom_site_type_symbol
_atom_site_label
_atom_site_fract_x
_atom_site_fract_y
_atom_site_fract_z
Si Si1 0.145148 0.673813 0.956364
Si Si2 0.500000 0.834582 0.000000
Si Si3 0.884936 0.614895 0.669175
Si Si4 0.858033 0.210352 0.472351
Si Si5 0.538215 0.614218 0.258882
O O1 0.054667 0.618930 0.039892
O O2 0.246541 0.673145 0.670807
O O3 0.170189 0.625410 0.068236
O O4 0.105736 0.790318 0.073437
O O5 0.409646 0.766737 0.236440
O O6 0.868925 0.500000 0.636316
O O7 0.858948 0.705081 0.604617
O O8 0.000000 0.624495 0.500000
O O9 0.936247 0.121532 0.362941
O O10 0.500000 0.629288 0.500000
O O11 0.584902 0.500000 0.156329
#
# Coordination Sequence:
#
# PCOD9199277 Si02
#       5
#     8   4   8   8   8
#     4  11  21  40  62  91 121 161 203 251 302 367
#     4  10  22  40  60  86 124 164 202 242 302 360
#     4  11  21  38  62  89 122 156 200 256 308 352
#     4  11  21  40  62  91 121 161 203 251 302 367
#     4  10  20  36  59  90 123 155 194 250 306 357
#
# _framework density 23.008870999999999
#
# number of rings (size 3 to 8) (size 9 to 14) (size 15 to 20)
#    0.000    1.333    6.667    1.333    0.000    1.778 
#    0.000   11.111    0.000   10.667    0.000    0.000 
#    0.000    0.000    0.000    0.000    0.000    0.000 
#
# Total GULP energy -100482.716049 kJ/mol
# GULP energy per Si atom -5582.373114 kJ/mol
# Density = 2.295650 g / cm^3
# Si number density = 23.008871 Si / 1000 Ang^3
#
#
#
# Elastic Constant Matrix: (Units=GPa)
#
#
# Indices 1 2 3 4 5 6 
#
# 1 50.3764 -7.5280 -5.4274 0.0000 8.3291 0.0000
# 2 -7.5280 105.7990 -15.8018 0.0000 4.2217 0.0000
# 3 -5.4274 -15.8018 101.2141 0.0000 -8.5334 0.0000
# 4 0.0000 0.0000 0.0000 -5.1835 0.0000 -8.4387
# 5 8.3291 4.2217 -8.5334 0.0000 40.6246 0.0000
# 6 0.0000 0.0000 0.0000 -8.4387 0.0000 -6.9812
#
#
#
# Elastic Compliance Matrix: (Units=1/GPa)
#
#
# Indices 1 2 3 4 5 6 
#
# 1 0.020939 0.001816 0.001047 0.000000 -0.004262 0.000000
# 2 0.001816 0.009855 0.001546 0.000000 -0.001072 0.000000
# 3 0.001047 0.001546 0.010329 0.000000 0.001794 0.000000
# 4 0.000000 0.000000 0.000000 0.199325 0.000000 -0.240939
# 5 -0.004262 -0.001072 0.001794 0.000000 0.025978 0.000000
# 6 0.000000 0.000000 0.000000 -0.240939 0.000000 0.147999
#
#
# Mechanical properties :
#
#
# Convention : Reuss Voigt Hill
#
# Bulk Modulus (GPa) = 20.02359 22.20833 21.11596
# Shear Modulus (GPa) = 11.84124 24.76843 18.30483
#
# Velocity S-wave (km/s) = 2.27102 3.28452 2.82362
# Velocity P-wave (km/s) = 3.94945 4.90481 4.45283
#
# Compressibility (1/GPa) = 0.04994110
#
# Stress axis : x y z
#
# Youngs Moduli (GPa) = 47.75668 101.47400 96.81689
#
# Poissons Ratio (x) = -0.18431 -0.10138
# Poissons Ratio (y) = -0.08674 -0.14964
# Poissons Ratio (z) = -0.05001 -0.15684
#
# Static dielectric constant tensor:
#      x y z
#    x 1.971770 0.000000 0.078890 
#    y 0.000000 1.842350 0.000000 
#    z 0.078890 0.000000 1.897960 
# 
# From -- ./inp_files/86242.got.cif
#   From: 2010.05.17/outbox.cif.g08.bks.cpg/sg12_44_cif.got.tgz:86242.got - 2010.06.03 13:09:07.
