data_PCOD9199928
_publ_section_title
;
Structure prediction by ZEFSAII (Michael W. Deem and Ramdas Pophale) SiO2 
 PCOD9199928
Probable space group: C 2/M
;
_chemical_formula_sum "Si O2"
_cell_formula_units_Z 56
_cell_length_a 17.218680
_cell_length_b 16.650295
_cell_length_c 28.562452
_cell_angle_alpha 90.000000
_cell_angle_beta 160.574494
_cell_angle_gamma 90.000000
_cell_volume 2723.420445
_symmetry_space_group_name_H-M "C 2/M"
_symmetry_group_IT_number 12
_symmetry_cell_setting 'monoclinic'
loop_
_space_group_symop_operation_xyz
x,y,z
-x,y,-z
-x,-y,-z
x,-y,z
1/2+x,1/2+y,z
1/2-x,1/2+y,-z
1/2-x,1/2-y,-z
1/2+x,1/2-y,z
loop_
_atom_site_type_symbol
_atom_site_label
_atom_site_fract_x
_atom_site_fract_y
_atom_site_fract_z
Si Si1 0.512019 0.590998 0.159448
Si Si2 0.003349 0.851789 0.252777
Si Si3 0.746270 0.660486 0.521555
Si Si4 0.267520 0.194739 0.642188
Si Si5 0.516408 0.905660 0.425040
Si Si6 0.988345 0.597510 0.139226
Si Si7 0.732049 0.404353 0.791342
O O1 0.533712 0.500000 0.153487
O O2 0.467126 0.588677 0.189384
O O3 0.766184 0.629671 0.297147
O O4 0.277713 0.626181 0.004276
O O5 0.042960 0.765902 0.251762
O O6 0.256130 0.869813 0.420233
O O7 0.807990 0.861060 0.181614
O O8 0.750000 0.750000 0.500000
O O9 0.771429 0.662755 0.591227
O O10 0.506243 0.616638 0.371724
O O11 0.946265 0.611669 0.608351
O O12 0.344055 0.133440 0.726045
O O13 0.000000 0.221106 0.500000
O O14 0.521540 0.000000 0.438981
O O15 0.993921 0.500000 0.144012
O O16 0.070309 0.620387 0.133236
O O17 0.747167 0.500000 0.808796
#
# Coordination Sequence:
#
# PCOD9199928 Si02
#       7
#     8   8   8   8   8   8   8
#     4  10  21  39  60  85 121 159 196 242 294 352
#     4  11  21  35  61  93 117 152 194 248 305 352
#     4  11  20  36  58  88 121 152 191 246 300 350
#     4  12  23  37  61  89 119 156 196 244 300 354
#     4  10  20  36  62  91 116 150 197 248 299 352
#     4  10  24  41  59  86 121 162 204 241 289 355
#     4  10  20  37  60  88 120 152 196 247 296 350
#
# _framework density 20.562377999999999
#
# number of rings (size 3 to 8) (size 9 to 14) (size 15 to 20)
#    0.000    1.429    4.286    3.857    0.000    3.714 
#    0.000    2.857    3.143    2.571    0.000    0.000 
#    0.000    0.000    0.000    0.000    0.000    0.000 
#
# Total GULP energy -156192.717752 kJ/mol
# GULP energy per Si atom -5578.311348 kJ/mol
# Density = 2.051558 g / cm^3
# Si number density = 20.562378 Si / 1000 Ang^3
#
#
#
# Elastic Constant Matrix: (Units=GPa)
#
#
# Indices 1 2 3 4 5 6 
#
# 1 97.1657 3.3562 26.3340 -0.0040 5.2164 0.0006
# 2 3.3562 26.5412 4.3584 0.0099 1.9289 -0.0029
# 3 26.3340 4.3584 63.6687 0.0379 14.0483 -0.0040
# 4 -0.0040 0.0099 0.0379 12.9163 -0.0045 0.9344
# 5 5.2164 1.9289 14.0483 -0.0045 23.0847 -0.0025
# 6 0.0006 -0.0029 -0.0040 0.9344 -0.0025 30.5507
#
#
#
# Elastic Compliance Matrix: (Units=1/GPa)
#
#
# Indices 1 2 3 4 5 6 
#
# 1 0.011606 -0.000701 -0.004836 0.000019 0.000379 -0.000001
# 2 -0.000701 0.038216 -0.001913 -0.000025 -0.001870 0.000004
# 3 -0.004836 -0.001913 0.020285 -0.000064 -0.011092 0.000004
# 4 0.000019 -0.000025 -0.000064 0.077593 0.000051 -0.002373
# 5 0.000379 -0.001870 -0.011092 0.000051 0.050139 0.000001
# 6 -0.000001 0.000004 0.000004 -0.002373 0.000001 0.032805
#
#
# Mechanical properties :
#
#
# Convention : Reuss Voigt Hill
#
# Bulk Modulus (GPa) = 18.11390 28.38586 23.24988
# Shear Modulus (GPa) = 18.94311 23.53215 21.23763
#
# Velocity S-wave (km/s) = 3.03850 3.38661 3.21727
# Velocity P-wave (km/s) = 4.59765 5.39693 5.01325
#
# Compressibility (1/GPa) = 0.05520622
#
# Stress axis : x y z
#
# Youngs Moduli (GPa) = 86.16040 26.16704 49.29749
#
# Poissons Ratio (x) = 0.01834 0.23841
# Poissons Ratio (y) = 0.06040 0.09433
# Poissons Ratio (z) = 0.41668 0.05007
#
# Static dielectric constant tensor:
#      x y z
#    x 1.761230 0.000000 0.025780 
#    y 0.000000 1.786700 -0.000010 
#    z 0.025780 -0.000010 1.740950 
# 
# From -- ./inp_files/379694.got.cif
#   From: 2010.05.17/outbox.cif.g08.bks.cpg/sg12_190_cif.got.tgz:379694.got - 2010.06.03 13:09:07.
