data_PCOD9199731
_publ_section_title
;
Structure prediction by ZEFSAII (Michael W. Deem and Ramdas Pophale) SiO2 
 PCOD9199731
Probable space group: C 2/M
;
_chemical_formula_sum "Si O2"
_cell_formula_units_Z 64
_cell_length_a 30.042806
_cell_length_b 7.958593
_cell_length_c 15.348941
_cell_angle_alpha 90.000000
_cell_angle_beta 52.585259
_cell_angle_gamma 90.000000
_cell_volume 2914.855188
_symmetry_space_group_name_H-M "C 2/M"
_symmetry_group_IT_number 12
_symmetry_cell_setting 'monoclinic'
loop_
_space_group_symop_operation_xyz
x,y,z
-x,y,-z
-x,-y,-z
x,-y,z
1/2+x,1/2+y,z
1/2-x,1/2+y,-z
1/2-x,1/2-y,-z
1/2+x,1/2-y,z
loop_
_atom_site_type_symbol
_atom_site_label
_atom_site_fract_x
_atom_site_fract_y
_atom_site_fract_z
Si Si1 0.059318 0.801587 0.891051
Si Si2 0.270096 0.311574 0.381890
Si Si3 0.563093 0.205592 0.221294
Si Si4 0.132696 0.703907 0.968442
Si Si5 0.755458 0.194168 0.776693
Si Si6 0.622984 0.808675 0.669531
Si Si7 0.119511 0.300850 0.331567
Si Si8 0.437900 0.205723 0.424559
O O1 0.104006 0.760229 0.913034
O O2 0.067367 0.699286 0.792703
O O3 0.059062 0.000000 0.872486
O O4 0.000000 0.753449 0.000000
O O5 0.250798 0.500000 0.388011
O O6 0.250000 0.250000 0.500000
O O7 0.253376 0.207703 0.317305
O O8 0.336027 0.302277 0.321336
O O9 0.599156 0.262069 0.262194
O O10 0.499021 0.259467 0.317733
O O11 0.562316 0.000000 0.219188
O O12 0.594467 0.260431 0.095509
O O13 0.134328 0.500000 0.966953
O O14 0.197876 0.762346 0.888536
O O15 0.814588 0.275597 0.730618
O O16 0.760092 0.000000 0.795786
O O17 0.609589 0.746728 0.589389
O O18 0.644176 0.000000 0.641729
O O19 0.108794 0.500000 0.343438
O O20 0.082094 0.234629 0.456882
O O21 0.438620 0.000000 0.423853
#
# Coordination Sequence:
#
# PCOD9199731 Si02
#       8
#     8   8   8   8   8   8   8   8
#     4  11  23  37  55  83 118 155 197 247 303 361
#     4  12  24  39  60  86 120 158 199 244 296 355
#     4   9  18  35  60  89 116 150 200 255 307 359
#     4  10  21  38  60  84 115 157 204 251 300 362
#     4  11  23  39  58  84 120 160 205 251 297 357
#     4  11  21  35  57  86 118 156 200 240 293 358
#     4  10  20  36  61  89 117 154 199 252 311 364
#     4   9  18  33  57  89 120 149 193 250 303 361
#
# _framework density 21.956493999999999
#
# number of rings (size 3 to 8) (size 9 to 14) (size 15 to 20)
#    0.000    1.625    1.250    4.125    0.000    5.500 
#    0.000    1.250    0.000    3.750    0.000    0.000 
#    0.000    0.000    0.000    0.000    0.000    0.000 
#
# Total GULP energy -178686.872553 kJ/mol
# GULP energy per Si atom -5583.964767 kJ/mol
# Density = 2.190652 g / cm^3
# Si number density = 21.956494 Si / 1000 Ang^3
#
#
#
# Elastic Constant Matrix: (Units=GPa)
#
#
# Indices 1 2 3 4 5 6 
#
# 1 79.1394 -10.0220 26.6184 0.0000 6.4701 0.0000
# 2 -10.0220 20.5668 4.2221 -0.0001 1.8889 0.0001
# 3 26.6184 4.2221 136.1108 0.0000 2.5327 0.0000
# 4 0.0000 -0.0001 0.0000 12.5763 0.0000 -8.7655
# 5 6.4701 1.8889 2.5327 0.0000 37.7481 0.0000
# 6 0.0000 0.0001 0.0000 -8.7655 0.0000 13.5326
#
#
#
# Elastic Compliance Matrix: (Units=1/GPa)
#
#
# Indices 1 2 3 4 5 6 
#
# 1 0.014949 0.008180 -0.003126 0.000000 -0.002762 0.000000
# 2 0.008180 0.053619 -0.003191 0.000000 -0.003871 0.000000
# 3 -0.003126 -0.003191 0.008054 0.000000 0.000155 0.000000
# 4 0.000000 0.000000 0.000000 0.144955 0.000000 0.093892
# 5 -0.002762 -0.003871 0.000155 0.000000 0.027148 0.000000
# 6 0.000000 0.000000 0.000000 0.093892 0.000000 0.134712
#
#
# Mechanical properties :
#
#
# Convention : Reuss Voigt Hill
#
# Bulk Modulus (GPa) = 12.44583 30.82821 21.63702
# Shear Modulus (GPa) = 12.30030 27.10465 19.70248
#
# Velocity S-wave (km/s) = 2.36945 3.51732 2.99882
# Velocity P-wave (km/s) = 3.62856 5.52869 4.67615
#
# Compressibility (1/GPa) = 0.08034818
#
# Stress axis : x y z
#
# Youngs Moduli (GPa) = 66.89425 18.65026 124.15657
#
# Poissons Ratio (x) = -0.15256 0.38809
# Poissons Ratio (y) = -0.54719 0.39617
# Poissons Ratio (z) = 0.20910 0.05951
#
# Static dielectric constant tensor:
#      x y z
#    x 1.865830 0.000000 -0.125280 
#    y 0.000000 1.790640 0.000000 
#    z -0.125280 0.000000 1.980710 
# 
# From -- ./inp_files/249679.got.cif
#   From: 2010.05.17/outbox.cif.g08.bks.cpg/sg12_125_cif.got.tgz:249679.got - 2010.06.03 13:09:07.
