data_PCOD9199959
_publ_section_title
;
Structure prediction by ZEFSAII (Michael W. Deem and Ramdas Pophale) SiO2 
 PCOD9199959
Probable space group: C 2/M
;
_chemical_formula_sum "Si O2"
_cell_formula_units_Z 48
_cell_length_a 12.228606
_cell_length_b 16.200608
_cell_length_c 12.987280
_cell_angle_alpha 90.000000
_cell_angle_beta 109.074148
_cell_angle_gamma 90.000000
_cell_volume 2431.658625
_symmetry_space_group_name_H-M "C 2/M"
_symmetry_group_IT_number 12
_symmetry_cell_setting 'monoclinic'
loop_
_space_group_symop_operation_xyz
x,y,z
-x,y,-z
-x,-y,-z
x,-y,z
1/2+x,1/2+y,z
1/2-x,1/2+y,-z
1/2-x,1/2-y,-z
1/2+x,1/2-y,z
loop_
_atom_site_type_symbol
_atom_site_label
_atom_site_fract_x
_atom_site_fract_y
_atom_site_fract_z
Si Si1 0.099226 0.161915 0.859756
Si Si2 0.228787 0.903732 0.094145
Si Si3 0.023175 0.343795 0.885125
Si Si4 0.225169 0.598292 0.252289
Si Si5 0.858644 0.096251 0.720178
Si Si6 0.628287 0.399466 0.504410
O O1 0.050463 0.253946 0.847886
O O2 0.203978 0.146674 0.813510
O O3 0.993384 0.104439 0.791829
O O4 0.147067 0.141617 0.987632
O O5 0.360666 0.895317 0.099298
O O6 0.210542 0.868623 0.203492
O O7 0.195271 0.000000 0.083534
O O8 0.909546 0.381773 0.798789
O O9 0.000000 0.338236 0.000000
O O10 0.243420 0.500000 0.241369
O O11 0.279589 0.620896 0.379317
O O12 0.843135 0.132156 0.601295
O O13 0.826162 0.000000 0.703428
O O14 0.500000 0.372467 0.500000
O O15 0.623651 0.500000 0.497079
#
# Coordination Sequence:
#
# PCOD9199959 Si02
#       6
#     8   8   8   8   8   8
#     4  12  23  37  63  91 125 159 203 259 312 363
#     4  11  23  39  62  91 124 161 210 257 306 367
#     4  12  26  40  60  88 132 170 200 248 321 378
#     4  11  23  41  68  94 120 162 216 256 296 369
#     4  10  20  36  62  92 122 155 204 263 310 356
#     4   9  17  35  63  93 118 155 209 261 301 352
#
# _framework density 19.739614
#
# number of rings (size 3 to 8) (size 9 to 14) (size 15 to 20)
#    0.000    1.167    3.333    4.000    2.333    2.000 
#    0.000    1.667    3.667    4.000    0.000    0.000 
#    0.000    0.000    0.000    0.000    0.000    0.000 
#
# Total GULP energy -134119.056683 kJ/mol
# GULP energy per Si atom -5588.294028 kJ/mol
# Density = 1.969469 g / cm^3
# Si number density = 19.739614 Si / 1000 Ang^3
#
#
#
# Elastic Constant Matrix: (Units=GPa)
#
#
# Indices 1 2 3 4 5 6 
#
# 1 68.2346 2.9000 42.0025 0.0000 -0.0081 0.0000
# 2 2.9000 31.2991 20.0086 0.0000 -5.5472 0.0000
# 3 42.0025 20.0086 158.6346 0.0000 -11.0068 0.0000
# 4 0.0000 0.0000 0.0000 -15.3849 0.0000 -11.0491
# 5 -0.0081 -5.5472 -11.0068 0.0000 37.7474 0.0000
# 6 0.0000 0.0000 0.0000 -11.0491 0.0000 21.9611
#
#
#
# Elastic Compliance Matrix: (Units=1/GPa)
#
#
# Indices 1 2 3 4 5 6 
#
# 1 0.017626 0.001289 -0.004916 0.000000 -0.001240 0.000000
# 2 0.001289 0.035420 -0.004540 0.000000 0.003882 0.000000
# 3 -0.004916 -0.004540 0.008299 0.000000 0.001752 0.000000
# 4 0.000000 0.000000 0.000000 -0.047747 0.000000 -0.024022
# 5 -0.001240 0.003882 0.001752 0.000000 0.027573 0.000000
# 6 0.000000 0.000000 0.000000 -0.024022 0.000000 0.033449
#
#
# Mechanical properties :
#
#
# Convention : Reuss Voigt Hill
#
# Bulk Modulus (GPa) = 22.21511 43.11007 32.66259
# Shear Modulus (GPa) = 47.18853 21.74853 34.46853
#
# Velocity S-wave (km/s) = 4.89463 3.32289 4.18324
# Velocity P-wave (km/s) = 6.57432 6.05053 6.31786
#
# Compressibility (1/GPa) = 0.04501441
#
# Stress axis : x y z
#
# Youngs Moduli (GPa) = 56.73353 28.23234 120.48938
#
# Poissons Ratio (x) = -0.03641 0.59229
# Poissons Ratio (y) = -0.07316 0.54698
# Poissons Ratio (z) = 0.27888 0.12816
#
# Static dielectric constant tensor:
#      x y z
#    x 1.678050 0.000000 -0.031460 
#    y 0.000000 1.721490 0.000000 
#    z -0.031460 0.000000 1.694360 
# 
# From -- ./inp_files/131089.got.cif
#   From: 2010.05.17/outbox.cif.g08.bks.cpg/sg12_66_cif.got.tgz:131089.got - 2010.06.03 13:09:07.
