data_PCOD9199881
_publ_section_title
;
Structure prediction by ZEFSAII (Michael W. Deem and Ramdas Pophale) SiO2 
 PCOD9199881
Probable space group: C 2/M
;
_chemical_formula_sum "Si O2"
_cell_formula_units_Z 46
_cell_length_a 10.646889
_cell_length_b 21.205711
_cell_length_c 8.884625
_cell_angle_alpha 90.000000
_cell_angle_beta 76.065170
_cell_angle_gamma 90.000000
_cell_volume 1946.891055
_symmetry_space_group_name_H-M "C 2/M"
_symmetry_group_IT_number 12
_symmetry_cell_setting 'monoclinic'
loop_
_space_group_symop_operation_xyz
x,y,z
-x,y,-z
-x,-y,-z
x,-y,z
1/2+x,1/2+y,z
1/2-x,1/2+y,-z
1/2-x,1/2-y,-z
1/2+x,1/2-y,z
loop_
_atom_site_type_symbol
_atom_site_label
_atom_site_fract_x
_atom_site_fract_y
_atom_site_fract_z
Si Si1 0.889998 0.928846 0.710467
Si Si2 0.818188 0.608406 0.994674
Si Si3 0.829134 0.927215 0.233103
Si Si4 0.500000 0.221941 0.000000
Si Si5 0.000000 0.500000 0.000000
Si Si6 0.932899 0.253372 0.352507
Si Si7 0.253270 0.353289 0.508000
O O1 0.858842 0.877327 0.595637
O O2 0.023096 0.916131 0.758630
O O3 0.897736 0.000000 0.646525
O O4 0.765308 0.924943 0.852137
O O5 0.719091 0.615900 0.887160
O O6 0.877463 0.674569 0.026126
O O7 0.927608 0.556938 0.923892
O O8 0.736985 0.911527 0.400540
O O9 0.822795 0.000000 0.188083
O O10 0.501623 0.254101 0.832024
O O11 0.870852 0.323529 0.377812
O O12 0.817658 0.202452 0.392092
O O13 0.000000 0.248000 0.500000
#
# Coordination Sequence:
#
# PCOD9199881 Si02
#       7
#     8   8   8   4   2   8   8
#     4  11  21  39  66  98 136 178 218 273 346 408
#     4  11  21  39  64  98 133 173 225 274 337 404
#     4  11  22  39  64  99 136 175 223 278 338 415
#     4  11  24  45  72  98 135 182 229 284 340 412
#     4  10  20  36  62  86 140 176 206 278 324 390
#     4  11  24  47  71  96 136 180 233 290 343 399
#     4  11  24  44  65  98 137 175 227 286 342 405
#
# _framework density 23.627414999999999
#
# number of rings (size 3 to 8) (size 9 to 14) (size 15 to 20)
#    0.000    1.043    3.478    3.652    0.000    2.783 
#    6.261    2.609    0.000    3.130    0.000    0.000 
#    0.000    0.000    0.000    0.000    0.000    0.000 
#
# Total GULP energy -128140.138991 kJ/mol
# GULP energy per Si atom -5571.310391 kJ/mol
# Density = 2.357364 g / cm^3
# Si number density = 23.627415 Si / 1000 Ang^3
#
#
#
# Elastic Constant Matrix: (Units=GPa)
#
#
# Indices 1 2 3 4 5 6 
#
# 1 18.0320 9.1067 19.1858 0.0000 5.7885 0.0000
# 2 9.1067 47.6425 18.5993 0.0000 7.0705 0.0000
# 3 19.1858 18.5993 121.3665 0.0000 8.4985 0.0000
# 4 0.0000 0.0000 0.0000 29.9655 0.0000 -2.3122
# 5 5.7885 7.0705 8.4985 0.0000 22.3648 0.0000
# 6 0.0000 0.0000 0.0000 -2.3122 0.0000 13.4191
#
#
#
# Elastic Compliance Matrix: (Units=1/GPa)
#
#
# Indices 1 2 3 4 5 6 
#
# 1 0.073985 -0.008531 -0.009489 0.000000 -0.012846 0.000000
# 2 -0.008531 0.024098 -0.002019 0.000000 -0.004643 0.000000
# 3 -0.009489 -0.002019 0.010101 0.000000 -0.000744 0.000000
# 4 0.000000 0.000000 0.000000 0.033821 0.000000 0.005828
# 5 -0.012846 -0.004643 -0.000744 0.000000 0.049789 0.000000
# 6 0.000000 0.000000 0.000000 0.005828 0.000000 0.075525
#
#
# Mechanical properties :
#
#
# Convention : Reuss Voigt Hill
#
# Bulk Modulus (GPa) = 14.68312 31.20274 22.94293
# Shear Modulus (GPa) = 15.14700 22.49317 18.82009
#
# Velocity S-wave (km/s) = 2.53470 3.08879 2.82536
# Velocity P-wave (km/s) = 3.84632 5.09467 4.51386
#
# Compressibility (1/GPa) = 0.06810543
#
# Stress axis : x y z
#
# Youngs Moduli (GPa) = 13.51626 41.49766 98.99972
#
# Poissons Ratio (x) = 0.35403 0.93938
# Poissons Ratio (y) = 0.11531 0.19990
# Poissons Ratio (z) = 0.12825 0.08379
#
# Static dielectric constant tensor:
#      x y z
#    x 1.944140 0.000000 -0.012300 
#    y 0.000000 1.892090 0.000000 
#    z -0.012300 0.000000 2.014760 
# 
# From -- ./inp_files/50658.got.cif
#   From: 2010.05.17/outbox.cif.g08.bks.cpg/sg12_26_cif.got.tgz:50658.got - 2010.06.03 13:09:07.
