data_PCOD9199858
_publ_section_title
;
Structure prediction by ZEFSAII (Michael W. Deem and Ramdas Pophale) SiO2 
 PCOD9199858
Probable space group: C 2/M
;
_chemical_formula_sum "Si O2"
_cell_formula_units_Z 58
_cell_length_a 13.457375
_cell_length_b 21.057200
_cell_length_c 20.473192
_cell_angle_alpha 90.000000
_cell_angle_beta 30.891729
_cell_angle_gamma 90.000000
_cell_volume 2978.633721
_symmetry_space_group_name_H-M "C 2/M"
_symmetry_group_IT_number 12
_symmetry_cell_setting 'monoclinic'
loop_
_space_group_symop_operation_xyz
x,y,z
-x,y,-z
-x,-y,-z
x,-y,z
1/2+x,1/2+y,z
1/2-x,1/2+y,-z
1/2-x,1/2-y,-z
1/2+x,1/2-y,z
loop_
_atom_site_type_symbol
_atom_site_label
_atom_site_fract_x
_atom_site_fract_y
_atom_site_fract_z
Si Si1 0.579808 0.356822 0.187638
Si Si2 0.000000 0.000000 0.000000
Si Si3 0.800630 0.769974 0.078286
Si Si4 0.094225 0.677508 0.641496
Si Si5 0.581216 0.928409 0.754495
Si Si6 0.637737 0.403439 0.020596
Si Si7 0.822315 0.424445 0.150982
Si Si8 0.823607 0.696495 0.549934
O O1 0.705101 0.293263 0.102727
O O2 0.649730 0.383906 0.217548
O O3 0.356262 0.339354 0.316231
O O4 0.616708 0.407153 0.109884
O O5 0.011279 0.055945 0.936994
O O6 0.625766 0.797927 0.221459
O O7 0.861105 0.829193 0.999002
O O8 0.000000 0.750351 0.000000
O O9 0.139230 0.619723 0.664932
O O10 0.118555 0.664363 0.551331
O O11 0.239234 0.734249 0.579232
O O12 0.347966 0.929995 0.882786
O O13 0.631104 0.906537 0.800332
O O14 0.655982 0.000000 0.703141
O O15 0.783040 0.500000 0.172813
O O16 0.000000 0.414082 0.000000
O O17 0.000000 0.700725 0.500000
#
# Coordination Sequence:
#
# PCOD9199858 Si02
#       8
#     8   2   8   8   8   8   8   8
#     4  11  23  38  62  93 126 161 211 263 317 382
#     4  12  24  36  56  82 130 180 210 244 304 390
#     4  10  21  36  59  94 126 156 198 269 326 371
#     4   9  22  41  62  91 124 161 215 258 308 387
#     4  10  20  37  63  91 127 161 200 253 319 378
#     4  11  22  37  55  91 127 167 207 252 312 386
#     4  10  20  36  61  96 130 163 197 253 321 391
#     4  10  23  43  64  87 121 173 212 262 312 362
#
# _framework density 19.472014999999999
#
# number of rings (size 3 to 8) (size 9 to 14) (size 15 to 20)
#    0.000    1.793    2.759    0.828    2.897    3.310 
#    0.000    0.690    0.000    2.897    0.000    0.000 
#    0.000    0.000    0.000    0.000    0.000    0.000 
#
# Total GULP energy -161551.018227 kJ/mol
# GULP energy per Si atom -5570.724766 kJ/mol
# Density = 1.942770 g / cm^3
# Si number density = 19.472015 Si / 1000 Ang^3
#
#
#
# Elastic Constant Matrix: (Units=GPa)
#
#
# Indices 1 2 3 4 5 6 
#
# 1 96.2627 37.2970 55.7106 0.0150 5.6704 -0.0243
# 2 37.2970 70.1897 33.1176 0.0248 15.2261 0.0300
# 3 55.7106 33.1176 52.1278 0.0277 5.6492 0.0727
# 4 0.0150 0.0248 0.0277 12.0527 -0.0076 15.6432
# 5 5.6704 15.2261 5.6492 -0.0076 38.5574 -0.0368
# 6 -0.0243 0.0300 0.0727 15.6432 -0.0368 37.8182
#
#
#
# Elastic Compliance Matrix: (Units=1/GPa)
#
#
# Indices 1 2 3 4 5 6 
#
# 1 0.027300 -0.001207 -0.028478 -0.000133 0.000635 0.000129
# 2 -0.001207 0.021993 -0.011950 -0.000039 -0.006756 0.000014
# 3 -0.028478 -0.011950 0.057153 0.000178 0.000533 -0.000192
# 4 -0.000133 -0.000039 0.000178 0.179149 -0.000027 -0.074104
# 5 0.000635 -0.006756 0.000533 -0.000027 0.028432 0.000043
# 6 0.000129 0.000014 -0.000192 -0.074104 0.000043 0.057095
#
#
# Mechanical properties :
#
#
# Convention : Reuss Voigt Hill
#
# Bulk Modulus (GPa) = 43.14898 52.31449 47.73174
# Shear Modulus (GPa) = 10.81975 23.84930 17.33453
#
# Velocity S-wave (km/s) = 2.35979 3.50351 2.98691
# Velocity P-wave (km/s) = 5.44357 6.57958 6.03835
#
# Compressibility (1/GPa) = 0.02317552
#
# Stress axis : x y z
#
# Youngs Moduli (GPa) = 36.62997 45.47001 17.49677
#
# Poissons Ratio (x) = 0.05490 0.49828
# Poissons Ratio (y) = 0.04422 0.20908
# Poissons Ratio (z) = 1.04316 0.54335
#
# Static dielectric constant tensor:
#      x y z
#    x 1.702780 -0.000010 0.004420 
#    y -0.000010 1.693370 0.000020 
#    z 0.004420 0.000020 1.682390 
# 
# From -- ./inp_files/265227.got.cif
#   From: 2010.05.17/outbox.cif.g08.bks.cpg/sg12_133_cif.got.tgz:265227.got - 2010.06.03 13:09:07.
