data_PCOD9199846
_publ_section_title
;
Structure prediction by ZEFSAII (Michael W. Deem and Ramdas Pophale) SiO2 
 PCOD9199846
Probable space group: C 2/M
;
_chemical_formula_sum "Si O2"
_cell_formula_units_Z 40
_cell_length_a 8.830590
_cell_length_b 19.691487
_cell_length_c 14.128393
_cell_angle_alpha 90.000000
_cell_angle_beta 55.362506
_cell_angle_gamma 90.000000
_cell_volume 2021.327098
_symmetry_space_group_name_H-M "C 2/M"
_symmetry_group_IT_number 12
_symmetry_cell_setting 'monoclinic'
loop_
_space_group_symop_operation_xyz
x,y,z
-x,y,-z
-x,-y,-z
x,-y,z
1/2+x,1/2+y,z
1/2-x,1/2+y,-z
1/2-x,1/2-y,-z
1/2+x,1/2-y,z
loop_
_atom_site_type_symbol
_atom_site_label
_atom_site_fract_x
_atom_site_fract_y
_atom_site_fract_z
Si Si1 0.513285 0.308221 0.688216
Si Si2 0.043996 0.424870 0.098294
Si Si3 0.694504 0.838402 0.667019
Si Si4 0.714129 0.816752 0.956761
Si Si5 0.794399 0.579521 0.531014
O O1 0.593652 0.232271 0.673883
O O2 0.393509 0.316341 0.635557
O O3 0.363858 0.321526 0.822610
O O4 0.665725 0.367465 0.633583
O O5 0.057592 0.500000 0.133050
O O6 0.909093 0.380031 0.211862
O O7 0.226212 0.380316 0.023657
O O8 0.000000 0.432781 0.000000
O O9 0.703825 0.889161 0.575170
O O10 0.500000 0.809590 0.000000
O O11 0.750000 0.750000 0.000000
O O12 0.733189 0.500000 0.553921
O O13 0.000000 0.581577 0.500000
#
# Coordination Sequence:
#
# PCOD9199846 Si02
#       5
#     8   8   8   8   8
#     4  12  23  40  68  99 131 174 223 270 326 390
#     4  10  20  36  61  94 132 170 213 264 325 385
#     4  12  23  41  68  99 131 175 221 274 326 393
#     4  11  20  39  62  97 131 172 214 266 321 382
#     4  11  27  48  67  93 133 174 218 278 338 394
#
# _framework density 19.788978
#
# number of rings (size 3 to 8) (size 9 to 14) (size 15 to 20)
#    0.000    0.800    6.000    3.000    0.000    3.200 
#    0.000    0.000    0.000    0.600    0.000    0.000 
#    0.000    0.000    0.000    0.000    0.000    0.000 
#
# Total GULP energy -111369.661622 kJ/mol
# GULP energy per Si atom -5568.483081 kJ/mol
# Density = 1.974394 g / cm^3
# Si number density = 19.788978 Si / 1000 Ang^3
#
#
#
# Elastic Constant Matrix: (Units=GPa)
#
#
# Indices 1 2 3 4 5 6 
#
# 1 74.1595 55.8511 22.8515 0.0000 -6.8600 0.0000
# 2 55.8511 219.1585 63.9909 0.0000 -5.2789 0.0000
# 3 22.8515 63.9909 135.4693 0.0000 -2.3062 0.0000
# 4 0.0000 0.0000 0.0000 32.7743 0.0000 -0.4746
# 5 -6.8600 -5.2789 -2.3062 0.0000 19.4002 0.0000
# 6 0.0000 0.0000 0.0000 -0.4746 0.0000 28.9187
#
#
#
# Elastic Compliance Matrix: (Units=1/GPa)
#
#
# Indices 1 2 3 4 5 6 
#
# 1 0.017240 -0.004003 -0.000934 0.000000 0.004896 0.000000
# 2 -0.004003 0.006248 -0.002276 0.000000 0.000014 0.000000
# 3 -0.000934 -0.002276 0.008616 0.000000 0.000075 0.000000
# 4 0.000000 0.000000 0.000000 0.030519 0.000000 0.000501
# 5 0.004896 0.000014 0.000075 0.000000 0.053290 0.000000
# 6 0.000000 0.000000 0.000000 0.000501 0.000000 0.034588
#
#
# Mechanical properties :
#
#
# Convention : Reuss Voigt Hill
#
# Bulk Modulus (GPa) = 56.56741 79.35271 67.96006
# Shear Modulus (GPa) = 29.27099 35.29156 32.28127
#
# Velocity S-wave (km/s) = 3.85015 4.22761 4.04329
# Velocity P-wave (km/s) = 6.95789 8.00104 7.49763
#
# Compressibility (1/GPa) = 0.01767802
#
# Stress axis : x y z
#
# Youngs Moduli (GPa) = 58.00563 160.05534 116.06901
#
# Poissons Ratio (x) = 0.64067 0.10840
# Poissons Ratio (y) = 0.23219 0.26415
# Poissons Ratio (z) = 0.05417 0.36426
#
# Static dielectric constant tensor:
#      x y z
#    x 1.860180 0.000000 0.074750 
#    y 0.000000 1.866900 0.000000 
#    z 0.074750 0.000000 1.746350 
# 
# From -- ./inp_files/196769.got.cif
#   From: 2010.05.17/outbox.cif.g08.bks.cpg/sg12_99_cif.got.tgz:196769.got - 2010.06.03 13:09:07.
