data_PCOD9199665
_publ_section_title
;
Structure prediction by ZEFSAII (Michael W. Deem and Ramdas Pophale) SiO2 
 PCOD9199665
Probable space group: C 2/M
;
_chemical_formula_sum "Si O2"
_cell_formula_units_Z 50
_cell_length_a 9.332005
_cell_length_b 16.968909
_cell_length_c 29.979017
_cell_angle_alpha 90.000000
_cell_angle_beta 33.388590
_cell_angle_gamma 90.000000
_cell_volume 2612.505472
_symmetry_space_group_name_H-M "C 2/M"
_symmetry_group_IT_number 12
_symmetry_cell_setting 'monoclinic'
loop_
_space_group_symop_operation_xyz
x,y,z
-x,y,-z
-x,-y,-z
x,-y,z
1/2+x,1/2+y,z
1/2-x,1/2+y,-z
1/2-x,1/2-y,-z
1/2+x,1/2-y,z
loop_
_atom_site_type_symbol
_atom_site_label
_atom_site_fract_x
_atom_site_fract_y
_atom_site_fract_z
Si Si1 0.346275 0.869126 0.880990
Si Si2 0.535355 0.809577 0.391745
Si Si3 0.000000 0.272961 0.000000
Si Si4 0.500000 0.766639 0.500000
Si Si5 0.500000 0.500000 0.000000
Si Si6 0.251432 0.590152 0.259588
Si Si7 0.313836 0.853096 0.131787
Si Si8 0.511865 0.799024 0.246446
O O1 0.238638 0.786099 0.928415
O O2 0.534327 0.901902 0.870451
O O3 0.486734 0.851261 0.798446
O O4 0.112876 0.930244 0.937425
O O5 0.537757 0.816275 0.444702
O O6 0.648624 0.883117 0.334945
O O7 0.731450 0.737328 0.329870
O O8 0.251988 0.786562 0.446333
O O9 0.006133 0.326307 0.042321
O O10 0.186653 0.500000 0.266761
O O11 0.562147 0.603464 0.177872
O O12 0.123985 0.650601 0.257830
O O13 0.198482 0.775274 0.186448
#
# Coordination Sequence:
#
# PCOD9199665 Si02
#       8
#     8   8   4   4   2   8   8   8
#     4  10  21  35  57  79 114 156 203 251 299 350
#     4  10  20  39  65  96 120 157 200 249 287 368
#     4   9  18  35  57  84 105 146 200 260 299 354
#     4  10  20  36  70  96 118 152 210 244 294 344
#     4  10  24  36  48  82 122 152 202 250 298 350
#     4  11  24  39  57  90 127 155 190 250 305 361
#     4  10  20  36  61  84 108 154 208 252 295 354
#     4  10  20  38  62  85 117 162 202 244 295 366
#
# _framework density 19.138715999999999
#
# number of rings (size 3 to 8) (size 9 to 14) (size 15 to 20)
#    0.000    1.920    1.600    3.360    4.480    2.560 
#    0.000    1.200    0.000    0.000    0.000    0.000 
#    0.000    0.000    0.000    0.000    0.000    0.000 
#
# Total GULP energy -139233.893356 kJ/mol
# GULP energy per Si atom -5569.355734 kJ/mol
# Density = 1.909515 g / cm^3
# Si number density = 19.138716 Si / 1000 Ang^3
#
#
#
# Elastic Constant Matrix: (Units=GPa)
#
#
# Indices 1 2 3 4 5 6 
#
# 1 85.5591 3.2366 30.9372 0.0018 9.0209 0.0001
# 2 3.2366 58.1467 13.0778 0.0062 10.4691 -0.0007
# 3 30.9372 13.0778 92.1275 -0.0067 21.9491 0.0010
# 4 0.0018 0.0062 -0.0067 -7.7568 0.0025 -0.0549
# 5 9.0209 10.4691 21.9491 0.0025 34.7811 -0.0012
# 6 0.0001 -0.0007 0.0010 -0.0549 -0.0012 2.0753
#
#
#
# Elastic Compliance Matrix: (Units=1/GPa)
#
#
# Indices 1 2 3 4 5 6 
#
# 1 0.013327 0.000383 -0.004330 0.000007 -0.000840 0.000001
# 2 0.000383 0.018373 -0.001642 0.000015 -0.004593 0.000004
# 3 -0.004330 -0.001642 0.014307 -0.000017 -0.007412 -0.000012
# 4 0.000007 0.000015 -0.000017 -0.128895 0.000014 -0.003410
# 5 -0.000840 -0.004593 -0.007412 0.000014 0.035029 0.000023
# 6 0.000001 0.000004 -0.000012 -0.003410 0.000023 0.481771
#
#
# Mechanical properties :
#
#
# Convention : Reuss Voigt Hill
#
# Bulk Modulus (GPa) = 28.71126 36.70403 32.70765
# Shear Modulus (GPa) = 10.94807 18.39204 14.67006
#
# Velocity S-wave (km/s) = 2.39433 3.10334 2.77160
# Velocity P-wave (km/s) = 4.76214 5.66220 5.23156
#
# Compressibility (1/GPa) = 0.03482954
#
# Stress axis : x y z
#
# Youngs Moduli (GPa) = 75.03302 54.42791 69.89370
#
# Poissons Ratio (x) = -0.02085 0.30263
# Poissons Ratio (y) = -0.02875 0.11480
# Poissons Ratio (z) = 0.32488 0.08940
#
# Static dielectric constant tensor:
#      x y z
#    x 1.716410 0.000000 -0.004810 
#    y 0.000000 1.618870 0.000000 
#    z -0.004810 0.000000 1.687660 
# 
# From -- ./inp_files/356549.got.cif
#   From: 2010.05.17/outbox.cif.g08.bks.cpg/sg12_179_cif.got.tgz:356549.got - 2010.06.03 13:09:07.
