data_PCOD9199380
_publ_section_title
;
Structure prediction by ZEFSAII (Michael W. Deem and Ramdas Pophale) SiO2 
 PCOD9199380
Probable space group: C 2/M
;
_chemical_formula_sum "Si O2"
_cell_formula_units_Z 56
_cell_length_a 17.148247
_cell_length_b 9.014649
_cell_length_c 19.736369
_cell_angle_alpha 90.000000
_cell_angle_beta 61.088234
_cell_angle_gamma 90.000000
_cell_volume 2670.700066
_symmetry_space_group_name_H-M "C 2/M"
_symmetry_group_IT_number 12
_symmetry_cell_setting 'monoclinic'
loop_
_space_group_symop_operation_xyz
x,y,z
-x,y,-z
-x,-y,-z
x,-y,z
1/2+x,1/2+y,z
1/2-x,1/2+y,-z
1/2-x,1/2-y,-z
1/2+x,1/2-y,z
loop_
_atom_site_type_symbol
_atom_site_label
_atom_site_fract_x
_atom_site_fract_y
_atom_site_fract_z
Si Si1 0.154626 0.323787 0.310181
Si Si2 0.984748 0.176126 0.895284
Si Si3 0.683261 0.175414 0.975001
Si Si4 0.973141 0.825314 0.744814
Si Si5 0.860954 0.675069 0.384673
Si Si6 0.669641 0.176014 0.453114
Si Si7 0.321995 0.175565 0.178277
O O1 0.160822 0.500000 0.299192
O O2 0.089578 0.258516 0.281321
O O3 0.124388 0.293381 0.400103
O O4 0.251254 0.251671 0.257287
O O5 0.949822 0.199027 0.833087
O O6 0.081423 0.250005 0.858437
O O7 0.990795 0.000000 0.905298
O O8 0.913616 0.251760 0.974287
O O9 0.711659 0.195216 0.885057
O O10 0.678152 0.000000 0.990391
O O11 0.750000 0.250000 0.000000
O O12 0.072490 0.766150 0.689915
O O13 0.968157 0.000000 0.733787
O O14 0.869092 0.500000 0.367816
O O15 0.760048 0.729323 0.418125
O O16 0.882964 0.702749 0.455114
O O17 0.693110 0.000000 0.444194
O O18 0.328474 0.000000 0.189253
#
# Coordination Sequence:
#
# PCOD9199380 Si02
#       7
#     8   8   8   8   8   8   8
#     4  11  23  39  60  85 115 153 194 236 286 342
#     4  11  24  41  62  87 116 153 195 238 284 337
#     4  11  24  41  62  89 121 154 189 235 287 338
#     4  11  24  40  57  83 119 152 189 240 290 337
#     4  10  20  36  60  86 113 150 193 235 284 343
#     4   9  20  38  58  84 117 149 188 239 287 336
#     4  11  24  41  61  88 120 151 189 238 287 337
#
# _framework density 20.968285999999999
#
# number of rings (size 3 to 8) (size 9 to 14) (size 15 to 20)
#    0.000    1.429    0.000    4.714    0.000   15.429 
#    0.000    2.857    0.000    0.000    0.000    0.000 
#    0.000    0.000    0.000    0.000    0.000    0.000 
#
# Total GULP energy -156649.599331 kJ/mol
# GULP energy per Si atom -5594.628548 kJ/mol
# Density = 2.092056 g / cm^3
# Si number density = 20.968286 Si / 1000 Ang^3
#
#
#
# Elastic Constant Matrix: (Units=GPa)
#
#
# Indices 1 2 3 4 5 6 
#
# 1 53.6857 13.0936 -12.9021 0.0000 14.1631 0.0000
# 2 13.0936 69.9243 31.2989 0.0000 24.2415 0.0001
# 3 -12.9021 31.2989 64.6138 0.0000 13.0317 0.0000
# 4 0.0000 0.0000 0.0000 29.2987 0.0000 -2.6699
# 5 14.1631 24.2415 13.0317 0.0000 30.9499 0.0000
# 6 0.0000 0.0001 0.0000 -2.6699 0.0000 39.7752
#
#
#
# Elastic Compliance Matrix: (Units=1/GPa)
#
#
# Indices 1 2 3 4 5 6 
#
# 1 0.025362 -0.005100 0.009911 0.000000 -0.011785 0.000000
# 2 -0.005100 0.024060 -0.010210 0.000000 -0.012212 0.000000
# 3 0.009911 -0.010210 0.023717 0.000000 -0.006525 0.000000
# 4 0.000000 0.000000 0.000000 0.034341 0.000000 0.002305
# 5 -0.011785 -0.012212 -0.006525 0.000000 0.050016 0.000000
# 6 0.000000 0.000000 0.000000 0.002305 0.000000 0.025296
#
#
# Mechanical properties :
#
#
# Convention : Reuss Voigt Hill
#
# Bulk Modulus (GPa) = 16.04057 27.91163 21.97610
# Shear Modulus (GPa) = 23.32415 30.45366 26.88890
#
# Velocity S-wave (km/s) = 3.33881 3.81513 3.58489
# Velocity P-wave (km/s) = 4.74659 5.72252 5.25725
#
# Compressibility (1/GPa) = 0.06234191
#
# Stress axis : x y z
#
# Youngs Moduli (GPa) = 39.42952 41.56263 42.16310
#
# Poissons Ratio (x) = 0.21197 -0.41790
# Poissons Ratio (y) = 0.20109 0.43049
# Poissons Ratio (z) = -0.39080 0.42436
#
# Static dielectric constant tensor:
#      x y z
#    x 1.762240 0.000000 0.035540 
#    y 0.000000 1.691150 0.000000 
#    z 0.035540 0.000000 1.760370 
# 
# From -- ./inp_files/275299.got.cif
#   From: 2010.05.17/outbox.cif.g08.bks.cpg/sg12_138_cif.got.tgz:275299.got - 2010.06.03 13:09:07.
