data_PCOD9199395
_publ_section_title
;
Structure prediction by ZEFSAII (Michael W. Deem and Ramdas Pophale) SiO2 
 PCOD9199395
Probable space group: C 2/M
;
_chemical_formula_sum "Si O2"
_cell_formula_units_Z 48
_cell_length_a 31.791758
_cell_length_b 8.793036
_cell_length_c 9.814157
_cell_angle_alpha 90.000000
_cell_angle_beta 102.641343
_cell_angle_gamma 90.000000
_cell_volume 2677.003922
_symmetry_space_group_name_H-M "C 2/M"
_symmetry_group_IT_number 12
_symmetry_cell_setting 'monoclinic'
loop_
_space_group_symop_operation_xyz
x,y,z
-x,y,-z
-x,-y,-z
x,-y,z
1/2+x,1/2+y,z
1/2-x,1/2+y,-z
1/2-x,1/2-y,-z
1/2+x,1/2-y,z
loop_
_atom_site_type_symbol
_atom_site_label
_atom_site_fract_x
_atom_site_fract_y
_atom_site_fract_z
Si Si1 0.618541 0.182424 0.893967
Si Si2 0.686761 0.180167 0.170307
Si Si3 0.859421 0.818553 0.378540
Si Si4 0.265643 0.180745 0.367409
Si Si5 0.391886 0.181095 0.676606
Si Si6 0.050305 0.182040 0.053590
O O1 0.621572 0.256687 0.748926
O O2 0.615553 0.000000 0.882443
O O3 0.661551 0.217196 0.013390
O O4 0.578719 0.245632 0.953147
O O5 0.729135 0.275409 0.232042
O O6 0.651819 0.207121 0.265985
O O7 0.697056 0.000000 0.178361
O O8 0.811255 0.752573 0.360740
O O9 0.886023 0.757822 0.526802
O O10 0.858213 0.000000 0.378429
O O11 0.250000 0.250000 0.500000
O O12 0.270052 0.000000 0.383438
O O13 0.430246 0.250621 0.793300
O O14 0.397044 0.000000 0.667081
O O15 0.055887 0.000000 0.056807
O O16 0.000000 0.217031 0.000000
#
# Coordination Sequence:
#
# PCOD9199395 Si02
#       6
#     8   8   8   8   8   8
#     4  10  22  40  61  85 118 153 191 240 292 347
#     4   9  19  36  57  81 111 151 197 241 286 337
#     4  12  24  38  58  84 118 156 194 241 295 345
#     4  12  23  35  55  82 115 154 200 245 286 336
#     4  10  20  36  60  86 116 152 194 238 285 345
#     4  10  21  39  64  92 120 150 188 233 283 346
#
# _framework density 17.930493999999999
#
# number of rings (size 3 to 8) (size 9 to 14) (size 15 to 20)
#    0.000    1.500    1.667    5.500    0.000    5.333 
#    0.000    0.833    0.000    5.000    0.000    0.000 
#    0.000    0.000    0.000    0.000    0.000    0.000 
#
# Total GULP energy -134156.074847 kJ/mol
# GULP energy per Si atom -5589.836452 kJ/mol
# Density = 1.788968 g / cm^3
# Si number density = 17.930494 Si / 1000 Ang^3
#
#
#
# Elastic Constant Matrix: (Units=GPa)
#
#
# Indices 1 2 3 4 5 6 
#
# 1 114.8899 73.8873 75.6531 0.0000 20.9959 0.0000
# 2 73.8873 128.3051 87.9375 0.0000 14.3106 0.0000
# 3 75.6531 87.9375 170.6143 0.0000 7.7731 0.0000
# 4 0.0000 0.0000 0.0000 33.1446 0.0000 2.1193
# 5 20.9959 14.3106 7.7731 0.0000 19.6201 0.0000
# 6 0.0000 0.0000 0.0000 2.1193 0.0000 28.8807
#
#
#
# Elastic Compliance Matrix: (Units=1/GPa)
#
#
# Indices 1 2 3 4 5 6 
#
# 1 0.017556 -0.005781 -0.004218 0.000000 -0.012900 0.000000
# 2 -0.005781 0.014812 -0.004950 0.000000 -0.002656 0.000000
# 3 -0.004218 -0.004950 0.010095 0.000000 0.004124 0.000000
# 4 0.000000 0.000000 0.000000 0.030313 0.000000 -0.002224
# 5 -0.012900 -0.002656 0.004124 0.000000 0.065076 0.000000
# 6 0.000000 0.000000 0.000000 -0.002224 0.000000 0.034788
#
#
# Mechanical properties :
#
#
# Convention : Reuss Voigt Hill
#
# Bulk Modulus (GPa) = 79.57801 98.75169 89.16485
# Shear Modulus (GPa) = 24.18667 28.08452 26.13559
#
# Velocity S-wave (km/s) = 3.67674 3.96194 3.82200
# Velocity P-wave (km/s) = 7.90584 8.72488 8.32544
#
# Compressibility (1/GPa) = 0.01256629
#
# Stress axis : x y z
#
# Youngs Moduli (GPa) = 56.95954 67.51401 99.06234
#
# Poissons Ratio (x) = 0.39028 0.41780
# Poissons Ratio (y) = 0.32927 0.49035
# Poissons Ratio (z) = 0.24023 0.33419
#
# Static dielectric constant tensor:
#      x y z
#    x 1.586140 0.000000 0.011530 
#    y 0.000000 1.592770 0.000000 
#    z 0.011530 0.000000 1.609400 
# 
# From -- ./inp_files/108651.got.cif
#   From: 2010.05.17/outbox.cif.g08.bks.cpg/sg12_55_cif.got.tgz:108651.got - 2010.06.03 13:09:07.
