data_PCOD9199946
_publ_section_title
;
Structure prediction by ZEFSAII (Michael W. Deem and Ramdas Pophale) SiO2 
 PCOD9199946
Probable space group: C 2/M
;
_chemical_formula_sum "Si O2"
_cell_formula_units_Z 56
_cell_length_a 11.863118
_cell_length_b 27.058019
_cell_length_c 7.652697
_cell_angle_alpha 90.000000
_cell_angle_beta 103.737603
_cell_angle_gamma 90.000000
_cell_volume 2386.187398
_symmetry_space_group_name_H-M "C 2/M"
_symmetry_group_IT_number 12
_symmetry_cell_setting 'monoclinic'
loop_
_space_group_symop_operation_xyz
x,y,z
-x,y,-z
-x,-y,-z
x,-y,z
1/2+x,1/2+y,z
1/2-x,1/2+y,-z
1/2-x,1/2-y,-z
1/2+x,1/2-y,z
loop_
_atom_site_type_symbol
_atom_site_label
_atom_site_fract_x
_atom_site_fract_y
_atom_site_fract_z
Si Si1 0.868372 0.053733 0.272808
Si Si2 0.245549 0.555758 0.847507
Si Si3 0.556206 0.618197 0.214022
Si Si4 0.024247 0.390656 0.701673
Si Si5 0.275542 0.854372 0.732211
Si Si6 0.387417 0.196729 0.086221
Si Si7 0.917938 0.787877 0.328120
O O1 0.804847 0.099051 0.337436
O O2 0.998568 0.071233 0.288950
O O3 0.856751 0.000000 0.347269
O O4 0.807966 0.053218 0.058477
O O5 0.253810 0.500000 0.775028
O O6 0.311871 0.599572 0.766073
O O7 0.111143 0.570901 0.823426
O O8 0.501513 0.667270 0.286286
O O9 0.500000 0.621375 0.000000
O O10 0.089995 0.338414 0.740338
O O11 0.000000 0.408667 0.500000
O O12 0.900884 0.375628 0.734631
O O13 0.198878 0.809828 0.625423
O O14 0.291843 0.832212 0.935110
O O15 0.377143 0.251180 0.160223
O O16 0.500000 0.198708 0.000000
O O17 0.000000 0.761761 0.500000
#
# Coordination Sequence:
#
# PCOD9199946 Si02
#       7
#     8   8   8   8   8   8   8
#     4   9  17  34  63  94 119 155 210 262 307 358
#     4  10  20  36  62  91 124 165 209 255 307 366
#     4   9  19  36  61  93 124 161 205 257 306 364
#     4  11  24  40  59  84 127 164 206 256 309 367
#     4  10  22  41  63  90 123 166 205 261 300 367
#     4  10  21  43  64  90 121 163 208 253 306 372
#     4  11  23  39  64  95 126 158 206 256 322 371
#
# _framework density 23.468401
#
# number of rings (size 3 to 8) (size 9 to 14) (size 15 to 20)
#    0.000    2.000    1.429    1.714    2.000    2.571 
#    5.143    5.000    0.000    2.143    0.000    0.000 
#    0.000    0.000    0.000    0.000    0.000    0.000 
#
# Total GULP energy -155923.309384 kJ/mol
# GULP energy per Si atom -5568.689621 kJ/mol
# Density = 2.341499 g / cm^3
# Si number density = 23.468401 Si / 1000 Ang^3
#
#
#
# Elastic Constant Matrix: (Units=GPa)
#
#
# Indices 1 2 3 4 5 6 
#
# 1 103.6246 19.2009 2.5745 0.0000 18.7153 0.0000
# 2 19.2009 93.6825 1.7540 0.0000 4.4890 0.0000
# 3 2.5745 1.7540 54.2330 0.0000 12.1902 0.0000
# 4 0.0000 0.0000 0.0000 115.3167 0.0000 -53.7666
# 5 18.7153 4.4890 12.1902 0.0000 22.4959 0.0000
# 6 0.0000 0.0000 0.0000 -53.7666 0.0000 48.1856
#
#
#
# Elastic Compliance Matrix: (Units=1/GPa)
#
#
# Indices 1 2 3 4 5 6 
#
# 1 0.011861 -0.001964 0.001857 0.000000 -0.010482 0.000000
# 2 -0.001964 0.011104 -0.000154 0.000000 -0.000499 0.000000
# 3 0.001857 -0.000154 0.021289 0.000000 -0.013050 0.000000
# 4 0.000000 0.000000 0.000000 0.018076 0.000000 0.020169
# 5 -0.010482 -0.000499 -0.013050 0.000000 0.060344 0.000000
# 6 0.000000 0.000000 0.000000 0.020169 0.000000 0.043259
#
#
# Mechanical properties :
#
#
# Convention : Reuss Voigt Hill
#
# Bulk Modulus (GPa) = 22.86645 33.17766 28.02206
# Shear Modulus (GPa) = 27.61958 52.40036 40.00997
#
# Velocity S-wave (km/s) = 3.43430 4.73038 4.13346
# Velocity P-wave (km/s) = 5.04881 6.63349 5.89465
#
# Compressibility (1/GPa) = 0.04373219
#
# Stress axis : x y z
#
# Youngs Moduli (GPa) = 84.30976 90.06114 46.97237
#
# Poissons Ratio (x) = 0.17684 -0.08720
# Poissons Ratio (y) = 0.16554 0.00722
# Poissons Ratio (z) = -0.15652 0.01385
#
# Static dielectric constant tensor:
#      x y z
#    x 2.978290 0.000000 0.244750 
#    y 0.000000 1.874060 0.000000 
#    z 0.244750 0.000000 1.985430 
# 
# From -- ./inp_files/53286.got.cif
#   From: 2010.05.17/outbox.cif.g08.bks.cpg/sg12_27_cif.got.tgz:53286.got - 2010.06.03 13:09:07.
