data_PCOD9199237
_publ_section_title
;
Structure prediction by ZEFSAII (Michael W. Deem and Ramdas Pophale) SiO2 
 PCOD9199237
Probable space group: C 2/M
;
_chemical_formula_sum "Si O2"
_cell_formula_units_Z 64
_cell_length_a 22.656810
_cell_length_b 8.815754
_cell_length_c 20.391971
_cell_angle_alpha 90.000000
_cell_angle_beta 46.168535
_cell_angle_gamma 90.000000
_cell_volume 2938.201241
_symmetry_space_group_name_H-M "C 2/M"
_symmetry_group_IT_number 12
_symmetry_cell_setting 'monoclinic'
loop_
_space_group_symop_operation_xyz
x,y,z
-x,y,-z
-x,-y,-z
x,-y,z
1/2+x,1/2+y,z
1/2-x,1/2+y,-z
1/2-x,1/2-y,-z
1/2+x,1/2-y,z
loop_
_atom_site_type_symbol
_atom_site_label
_atom_site_fract_x
_atom_site_fract_y
_atom_site_fract_z
Si Si1 0.871884 0.181899 0.046458
Si Si2 0.810324 0.679201 0.859653
Si Si3 0.346339 0.818126 0.200482
Si Si4 0.448546 0.177734 0.641716
Si Si5 0.664949 0.318153 0.374024
Si Si6 0.120083 0.179456 0.550058
Si Si7 0.070676 0.819523 0.136266
Si Si8 0.404339 0.180488 0.298154
O O1 0.779107 0.224078 0.096838
O O2 0.889690 0.250615 0.103540
O O3 0.875295 0.000000 0.049108
O O4 0.926791 0.226991 0.942065
O O5 0.807718 0.500000 0.878775
O O6 0.876565 0.698422 0.750630
O O7 0.844659 0.774830 0.893970
O O8 0.249773 0.781173 0.272989
O O9 0.375382 0.762647 0.249343
O O10 0.354797 0.000000 0.192750
O O11 0.408971 0.232881 0.604181
O O12 0.527956 0.272302 0.600727
O O13 0.470076 0.000000 0.622917
O O14 0.651514 0.500000 0.379943
O O15 0.672034 0.279878 0.445540
O O16 0.140295 0.257255 0.603282
O O17 0.124284 0.000000 0.556067
O O18 0.998640 0.731916 0.228460
O O19 0.058303 0.000000 0.150205
O O20 0.397901 0.000000 0.303854
#
# Coordination Sequence:
#
# PCOD9199237 Si02
#       8
#     8   8   8   8   8   8   8   8
#     4  10  22  40  61  89 121 152 193 239 288 346
#     4  10  20  36  59  88 122 155 188 235 289 345
#     4  10  23  42  63  85 113 154 199 242 292 344
#     4  11  21  35  60  91 122 155 191 235 289 348
#     4  10  22  40  61  88 120 153 194 241 289 347
#     4  11  23  39  61  88 119 155 194 239 292 347
#     4  11  23  38  61  90 119 155 194 237 290 347
#     4  11  24  42  61  84 116 153 198 247 290 344
#
# _framework density 21.782035
#
# number of rings (size 3 to 8) (size 9 to 14) (size 15 to 20)
#    0.000    1.500    2.500    2.250    0.000    6.500 
#    0.000    2.500    0.000    0.000    0.000    0.000 
#    0.000    0.000    0.000    0.000    0.000    0.000 
#
# Total GULP energy -178957.351850 kJ/mol
# GULP energy per Si atom -5592.417245 kJ/mol
# Density = 2.173246 g / cm^3
# Si number density = 21.782035 Si / 1000 Ang^3
#
#
#
# Elastic Constant Matrix: (Units=GPa)
#
#
# Indices 1 2 3 4 5 6 
#
# 1 67.7914 8.1101 8.5942 0.0002 36.6143 -0.0002
# 2 8.1101 19.0119 25.0225 0.0001 20.4688 -0.0003
# 3 8.5942 25.0225 94.1025 0.0000 37.6645 -0.0001
# 4 0.0002 0.0001 0.0000 25.2962 0.0000 14.3334
# 5 36.6143 20.4688 37.6645 0.0000 43.4289 0.0000
# 6 -0.0002 -0.0003 -0.0001 14.3334 0.0000 27.6681
#
#
#
# Elastic Compliance Matrix: (Units=1/GPa)
#
#
# Indices 1 2 3 4 5 6 
#
# 1 0.042797 0.032238 0.012318 -0.000001 -0.061960 0.000001
# 2 0.032238 0.141873 -0.004636 -0.000003 -0.090026 0.000003
# 3 0.012318 -0.004636 0.021469 0.000000 -0.026820 0.000000
# 4 -0.000001 -0.000003 0.000000 0.055957 0.000003 -0.028989
# 5 -0.061960 -0.090026 -0.026820 0.000003 0.140954 -0.000003
# 6 0.000001 0.000003 0.000000 -0.028989 -0.000003 0.051160
#
#
# Mechanical properties :
#
#
# Convention : Reuss Voigt Hill
#
# Bulk Modulus (GPa) = 3.49676 29.37328 16.43502
# Shear Modulus (GPa) = 10.64516 28.55722 19.60119
#
# Velocity S-wave (km/s) = 2.21308 3.62476 3.00305
# Velocity P-wave (km/s) = 2.85292 5.57072 4.42561
#
# Compressibility (1/GPa) = 0.28597913
#
# Stress axis : x y z
#
# Youngs Moduli (GPa) = 23.36599 7.04857 46.57850
#
# Poissons Ratio (x) = -0.22723 -0.57377
# Poissons Ratio (y) = -0.75328 0.21596
# Poissons Ratio (z) = -0.28783 0.03268
#
# Static dielectric constant tensor:
#      x y z
#    x 1.811950 0.000000 0.010780 
#    y 0.000000 1.723880 0.000000 
#    z 0.010780 0.000000 1.805020 
# 
# From -- ./inp_files/324127.got.cif
#   From: 2010.05.17/outbox.cif.g08.bks.cpg/sg12_163_cif.got.tgz:324127.got - 2010.06.03 13:09:07.
