data_PCOD9199119
_publ_section_title
;
Structure prediction by ZEFSAII (Michael W. Deem and Ramdas Pophale) SiO2 
 PCOD9199119
Probable space group: C 2/M
;
_chemical_formula_sum "Si O2"
_cell_formula_units_Z 64
_cell_length_a 19.981280
_cell_length_b 7.871266
_cell_length_c 17.132623
_cell_angle_alpha 90.000000
_cell_angle_beta 88.639988
_cell_angle_gamma 90.000000
_cell_volume 2693.825095
_symmetry_space_group_name_H-M "C 2/M"
_symmetry_group_IT_number 12
_symmetry_cell_setting 'monoclinic'
loop_
_space_group_symop_operation_xyz
x,y,z
-x,y,-z
-x,-y,-z
x,-y,z
1/2+x,1/2+y,z
1/2-x,1/2+y,-z
1/2-x,1/2-y,-z
1/2+x,1/2-y,z
loop_
_atom_site_type_symbol
_atom_site_label
_atom_site_fract_x
_atom_site_fract_y
_atom_site_fract_z
Si Si1 0.541229 0.302016 0.754339
Si Si2 0.192893 0.302747 0.742770
Si Si3 0.081578 0.691985 0.333038
Si Si4 0.326854 0.704014 0.986767
Si Si5 0.572914 0.695301 0.499209
Si Si6 0.326359 0.294177 0.813957
Si Si7 0.703895 0.295776 0.573928
Si Si8 0.952606 0.792218 0.072824
O O1 0.522120 0.500000 0.750399
O O2 0.621164 0.287524 0.743467
O O3 0.495534 0.212316 0.691612
O O4 0.526284 0.234762 0.842001
O O5 0.180359 0.500000 0.760329
O O6 0.250060 0.236086 0.799303
O O7 0.223881 0.283571 0.655464
O O8 0.095936 0.500000 0.356120
O O9 0.096543 0.802258 0.408863
O O10 0.125501 0.736482 0.256442
O O11 0.331791 0.500000 0.986947
O O12 0.348257 0.761775 0.899475
O O13 0.250000 0.750000 0.000000
O O14 0.377921 0.765415 0.051492
O O15 0.500000 0.778577 0.500000
O O16 0.564248 0.500000 0.526101
O O17 0.629746 0.768394 0.552836
O O18 0.325667 0.500000 0.812746
O O19 0.703209 0.500000 0.582522
O O20 0.750000 0.250000 0.500000
O O21 0.953506 0.000000 0.076571
O O22 0.000000 0.742703 0.000000
#
# Coordination Sequence:
#
# PCOD9199119 Si02
#       8
#     8   8   8   8   8   8   8   8
#     4  11  22  38  61  86 118 158 196 239 295 354
#     4  11  23  39  60  88 121 155 196 243 290 345
#     4  12  25  39  60  89 119 152 195 246 292 343
#     4  10  20  36  59  86 116 151 193 240 289 343
#     4  10  22  41  63  85 112 150 194 237 287 348
#     4  10  22  40  61  85 119 161 197 237 293 351
#     4  11  23  39  61  88 118 154 194 238 291 347
#     4   9  18  34  58  85 111 147 196 241 281 337
#
# _framework density 23.758037999999999
#
# number of rings (size 3 to 8) (size 9 to 14) (size 15 to 20)
#    0.000    1.500    0.000    5.250    0.000    8.750 
#    0.000    0.625    0.000    2.625    0.000    0.000 
#    0.000    0.000    0.000    0.000    0.000    0.000 
#
# Total GULP energy -179066.668813 kJ/mol
# GULP energy per Si atom -5595.833400 kJ/mol
# Density = 2.370396 g / cm^3
# Si number density = 23.758038 Si / 1000 Ang^3
#
#
#
# Elastic Constant Matrix: (Units=GPa)
#
#
# Indices 1 2 3 4 5 6 
#
# 1 67.4722 -2.9606 -12.8349 0.0000 5.8605 0.0000
# 2 -2.9606 38.6213 -7.6855 0.0000 5.8770 0.0000
# 3 -12.8349 -7.6855 73.9872 0.0000 6.9434 0.0000
# 4 0.0000 0.0000 0.0000 12.3832 0.0000 -4.6366
# 5 5.8605 5.8770 6.9434 0.0000 45.2240 0.0000
# 6 0.0000 0.0000 0.0000 -4.6366 0.0000 24.9866
#
#
#
# Elastic Compliance Matrix: (Units=1/GPa)
#
#
# Indices 1 2 3 4 5 6 
#
# 1 0.015785 0.002288 0.003242 0.000000 -0.002841 0.000000
# 2 0.002288 0.027471 0.003666 0.000000 -0.004429 0.000000
# 3 0.003242 0.003666 0.014756 0.000000 -0.003162 0.000000
# 4 0.000000 0.000000 0.000000 0.086784 0.000000 0.016104
# 5 -0.002841 -0.004429 -0.003162 0.000000 0.023541 0.000000
# 6 0.000000 0.000000 0.000000 0.016104 0.000000 0.043010
#
#
# Mechanical properties :
#
#
# Convention : Reuss Voigt Hill
#
# Bulk Modulus (GPa) = 13.08826 14.79096 13.93961
# Shear Modulus (GPa) = 22.89130 30.08955 26.49042
#
# Velocity S-wave (km/s) = 3.10743 3.56265 3.34280
# Velocity P-wave (km/s) = 4.28903 4.81274 4.55841
#
# Compressibility (1/GPa) = 0.07640434
#
# Stress axis : x y z
#
# Youngs Moduli (GPa) = 63.35198 36.40151 67.76947
#
# Poissons Ratio (x) = -0.08327 -0.21974
# Poissons Ratio (y) = -0.14492 -0.24845
# Poissons Ratio (z) = -0.20542 -0.13345
#
# Static dielectric constant tensor:
#      x y z
#    x 1.927480 0.000000 -0.018290 
#    y 0.000000 1.889630 0.000000 
#    z -0.018290 0.000000 1.877290 
# 
# From -- ./inp_files/281366.got.cif
#   From: 2010.05.17/outbox.cif.g08.bks.cpg/sg12_141_cif.got.tgz:281366.got - 2010.06.03 13:09:07.
