data_PCOD9199195
_publ_section_title
;
Structure prediction by ZEFSAII (Michael W. Deem and Ramdas Pophale) SiO2 
 PCOD9199195
Probable space group: C 2/M
;
_chemical_formula_sum "Si O2"
_cell_formula_units_Z 36
_cell_length_a 8.646345
_cell_length_b 22.684092
_cell_length_c 8.563435
_cell_angle_alpha 90.000000
_cell_angle_beta 79.544287
_cell_angle_gamma 90.000000
_cell_volume 1651.696205
_symmetry_space_group_name_H-M "C 2/M"
_symmetry_group_IT_number 12
_symmetry_cell_setting 'monoclinic'
loop_
_space_group_symop_operation_xyz
x,y,z
-x,y,-z
-x,-y,-z
x,-y,z
1/2+x,1/2+y,z
1/2-x,1/2+y,-z
1/2-x,1/2-y,-z
1/2+x,1/2-y,z
loop_
_atom_site_type_symbol
_atom_site_label
_atom_site_fract_x
_atom_site_fract_y
_atom_site_fract_z
Si Si1 0.406288 0.888591 0.373431
Si Si2 0.124926 0.933927 0.596529
Si Si3 0.235690 0.830353 0.140887
Si Si4 0.706981 0.070653 0.125801
Si Si5 0.000000 0.763199 0.000000
O O1 0.500000 0.859255 0.500000
O O2 0.292639 0.935367 0.477697
O O3 0.285515 0.847344 0.304878
O O4 0.535109 0.914362 0.230173
O O5 0.168819 0.911271 0.760585
O O6 0.000000 0.905880 0.500000
O O7 0.064554 0.000000 0.636936
O O8 0.361256 0.780175 0.074567
O O9 0.262287 0.888445 0.028788
O O10 0.067748 0.803369 0.126964
O O11 0.717471 0.000000 0.095446
#
# Coordination Sequence:
#
# PCOD9199195 Si02
#       5
#     8   8   8   8   4
#     4  10  20  36  59  87 122 155 193 237 297 356
#     4   9  19  34  54  84 127 160 186 235 298 357
#     4  11  22  42  64  87 116 157 201 248 287 357
#     4  10  20  36  61  93 122 154 195 240 295 358
#     4  10  24  42  64  80 118 160 204 240 300 332
#
# _framework density 21.795774999999999
#
# number of rings (size 3 to 8) (size 9 to 14) (size 15 to 20)
#    0.000    2.000    2.222    0.667    3.111    5.333 
#    0.000    1.667    0.000    0.000    0.000    0.000 
#    0.000    0.000    0.000    0.000    0.000    0.000 
#
# Total GULP energy -100316.927265 kJ/mol
# GULP energy per Si atom -5573.162626 kJ/mol
# Density = 2.174617 g / cm^3
# Si number density = 21.795775 Si / 1000 Ang^3
#
#
#
# Elastic Constant Matrix: (Units=GPa)
#
#
# Indices 1 2 3 4 5 6 
#
# 1 84.5568 30.5445 19.3240 0.0000 43.8107 0.0000
# 2 30.5445 87.1321 29.7710 0.0000 17.2615 0.0000
# 3 19.3240 29.7710 57.8074 0.0000 46.9232 0.0000
# 4 0.0000 0.0000 0.0000 18.3162 0.0000 2.5036
# 5 43.8107 17.2615 46.9232 0.0000 52.6427 0.0000
# 6 0.0000 0.0000 0.0000 2.5036 0.0000 35.7860
#
#
#
# Elastic Compliance Matrix: (Units=1/GPa)
#
#
# Indices 1 2 3 4 5 6 
#
# 1 0.144029 -0.071325 0.241970 0.000000 -0.312158 0.000000
# 2 -0.071325 0.049914 -0.132961 0.000000 0.161507 0.000000
# 3 0.241970 -0.132961 0.480905 0.000000 -0.586432 0.000000
# 4 0.000000 0.000000 0.000000 0.055124 0.000000 -0.003856
# 5 -0.312158 0.161507 -0.586432 0.000000 0.748542 0.000000
# 6 0.000000 0.000000 0.000000 -0.003856 0.000000 0.028214
#
#
# Mechanical properties :
#
#
# Convention : Reuss Voigt Hill
#
# Bulk Modulus (GPa) = 1.33295 43.19726 22.26510
# Shear Modulus (GPa) = 2.97366 31.33944 17.15655
#
# Velocity S-wave (km/s) = 1.16931 3.79604 2.80866
# Velocity P-wave (km/s) = 1.56075 6.25102 4.55583
#
# Compressibility (1/GPa) = 0.75021602
#
# Stress axis : x y z
#
# Youngs Moduli (GPa) = 6.94307 20.03446 2.07941
#
# Poissons Ratio (x) = 1.42895 -0.50316
# Poissons Ratio (y) = 0.49521 0.27648
# Poissons Ratio (z) = -1.68001 2.66380
#
# Static dielectric constant tensor:
#      x y z
#    x 1.848480 0.000000 0.031010 
#    y 0.000000 1.787990 0.000000 
#    z 0.031010 0.000000 1.848540 
# 
# From -- ./inp_files/39848.got.cif
#   From: 2010.05.17/outbox.cif.g08.bks.cpg/sg12_20_cif.got.tgz:39848.got - 2010.06.03 13:09:07.
