data_PCOD9199707
_publ_section_title
;
Structure prediction by ZEFSAII (Michael W. Deem and Ramdas Pophale) SiO2 
 PCOD9199707
Probable space group: C 2/M
;
_chemical_formula_sum "Si O2"
_cell_formula_units_Z 40
_cell_length_a 25.413351
_cell_length_b 9.645536
_cell_length_c 10.177399
_cell_angle_alpha 90.000000
_cell_angle_beta 127.469998
_cell_angle_gamma 90.000000
_cell_volume 1980.004426
_symmetry_space_group_name_H-M "C 2/M"
_symmetry_group_IT_number 12
_symmetry_cell_setting 'monoclinic'
loop_
_space_group_symop_operation_xyz
x,y,z
-x,y,-z
-x,-y,-z
x,-y,z
1/2+x,1/2+y,z
1/2-x,1/2+y,-z
1/2-x,1/2-y,-z
1/2+x,1/2-y,z
loop_
_atom_site_type_symbol
_atom_site_label
_atom_site_fract_x
_atom_site_fract_y
_atom_site_fract_z
Si Si1 0.464336 0.834342 0.304675
Si Si2 0.960519 0.159485 0.803122
Si Si3 0.254003 0.849684 0.312558
Si Si4 0.661519 0.154422 0.295807
Si Si5 0.813935 0.661156 0.136589
O O1 0.500000 0.813733 0.500000
O O2 0.499491 0.743004 0.247149
O O3 0.386450 0.796464 0.198057
O O4 0.469058 0.000000 0.282249
O O5 0.894494 0.243654 0.737331
O O6 0.947510 0.000000 0.743238
O O7 0.000000 0.156726 0.000000
O O8 0.287704 0.857742 0.505569
O O9 0.200851 0.727171 0.236775
O O10 0.310758 0.831442 0.290648
O O11 0.221523 0.000000 0.236209
O O12 0.637297 0.000000 0.225712
O O13 0.804141 0.500000 0.084491
O O14 0.750000 0.750000 0.000000
#
# Coordination Sequence:
#
# PCOD9199707 Si02
#       5
#     8   8   8   8   8
#     4  10  22  43  68  92 121 161 211 259 306 367
#     4  11  25  41  59  87 125 163 202 253 309 362
#     4   9  19  37  59  85 119 155 191 240 299 356
#     4  10  20  36  61  88 115 152 200 247 295 356
#     4  10  22  38  59  87 121 157 195 244 300 359
#
# _framework density 20.201976999999999
#
# number of rings (size 3 to 8) (size 9 to 14) (size 15 to 20)
#    0.000    2.000    0.000    2.400    2.800    7.600 
#    0.000    2.000    0.000    0.000    0.000    0.000 
#    0.000    0.000    0.000    0.000    0.000    0.000 
#
# Total GULP energy -111611.540529 kJ/mol
# GULP energy per Si atom -5580.577026 kJ/mol
# Density = 2.015600 g / cm^3
# Si number density = 20.201977 Si / 1000 Ang^3
#
#
#
# Elastic Constant Matrix: (Units=GPa)
#
#
# Indices 1 2 3 4 5 6 
#
# 1 123.1531 78.1681 6.2118 0.0000 17.3313 0.0000
# 2 78.1681 133.6524 25.7123 0.0000 15.3258 0.0000
# 3 6.2118 25.7123 37.5532 0.0000 10.5332 0.0000
# 4 0.0000 0.0000 0.0000 32.5990 0.0000 -4.2614
# 5 17.3313 15.3258 10.5332 0.0000 31.2336 0.0000
# 6 0.0000 0.0000 0.0000 -4.2614 0.0000 43.0633
#
#
#
# Elastic Compliance Matrix: (Units=1/GPa)
#
#
# Indices 1 2 3 4 5 6 
#
# 1 0.014059 -0.008585 0.005036 0.000000 -0.005287 0.000000
# 2 -0.008585 0.014036 -0.008388 0.000000 0.000705 0.000000
# 3 0.005036 -0.008388 0.034425 0.000000 -0.010288 0.000000
# 4 0.000000 0.000000 0.000000 0.031078 0.000000 0.003075
# 5 -0.005287 0.000705 -0.010288 0.000000 0.038074 0.000000
# 6 0.000000 0.000000 0.000000 0.003075 0.000000 0.023526
#
#
# Mechanical properties :
#
#
# Convention : Reuss Voigt Hill
#
# Bulk Modulus (GPa) = 25.87688 57.17146 41.52417
# Shear Modulus (GPa) = 26.04782 33.66362 29.85572
#
# Velocity S-wave (km/s) = 3.59468 4.08653 3.84847
# Velocity P-wave (km/s) = 5.48323 7.11531 6.35191
#
# Compressibility (1/GPa) = 0.03864453
#
# Stress axis : x y z
#
# Youngs Moduli (GPa) = 71.12760 71.24494 29.04885
#
# Poissons Ratio (x) = 0.61165 -0.14628
# Poissons Ratio (y) = 0.61064 0.24367
# Poissons Ratio (z) = -0.35817 0.59761
#
# Static dielectric constant tensor:
#      x y z
#    x 1.691040 0.000000 -0.026130 
#    y 0.000000 1.743310 0.000000 
#    z -0.026130 0.000000 1.678310 
# 
# From -- ./inp_files/180300.got.cif
#   From: 2010.05.17/outbox.cif.g08.bks.cpg/sg12_91_cif.got.tgz:180300.got - 2010.06.03 13:09:07.
