data_PCOD9199513
_publ_section_title
;
Structure prediction by ZEFSAII (Michael W. Deem and Ramdas Pophale) SiO2 
 PCOD9199513
Probable space group: C 2/M
;
_chemical_formula_sum "Si O2"
_cell_formula_units_Z 48
_cell_length_a 31.028383
_cell_length_b 18.353721
_cell_length_c 8.774227
_cell_angle_alpha 90.000000
_cell_angle_beta 29.608274
_cell_angle_gamma 90.000000
_cell_volume 2468.757060
_symmetry_space_group_name_H-M "C 2/M"
_symmetry_group_IT_number 12
_symmetry_cell_setting 'monoclinic'
loop_
_space_group_symop_operation_xyz
x,y,z
-x,y,-z
-x,-y,-z
x,-y,z
1/2+x,1/2+y,z
1/2-x,1/2+y,-z
1/2-x,1/2-y,-z
1/2+x,1/2-y,z
loop_
_atom_site_type_symbol
_atom_site_label
_atom_site_fract_x
_atom_site_fract_y
_atom_site_fract_z
Si Si1 0.723126 0.581602 0.746473
Si Si2 0.272142 0.417505 0.629273
Si Si3 0.906258 0.353079 0.217169
Si Si4 0.409719 0.145694 0.846893
Si Si5 0.168158 0.220139 0.355883
Si Si6 0.091998 0.195374 0.287063
O O1 0.694973 0.500000 0.870313
O O2 0.708306 0.593892 0.610851
O O3 0.825415 0.590622 0.471890
O O4 0.667421 0.640701 0.006452
O O5 0.298202 0.500000 0.592116
O O6 0.308233 0.352498 0.622693
O O7 0.167688 0.408684 0.954244
O O8 0.867945 0.282029 0.420381
O O9 0.918909 0.341392 0.998341
O O10 0.000000 0.373583 0.000000
O O11 0.500000 0.119582 0.500000
O O12 0.389229 0.224240 0.836406
O O13 0.092950 0.201894 0.465410
O O14 0.250000 0.250000 0.000000
O O15 0.000000 0.171970 0.500000
#
# Coordination Sequence:
#
# PCOD9199513 Si02
#       6
#     8   8   8   8   8   8
#     4  10  22  41  60  86 126 169 205 250 310 366
#     4  10  22  39  60  84 119 163 203 248 312 365
#     4  11  22  37  63  92 123 160 204 260 302 362
#     4  10  20  36  60  88 121 157 206 252 305 361
#     4  12  22  39  62  92 122 157 207 253 299 359
#     4  11  22  38  62  89 121 159 208 258 299 362
#
# _framework density 19.442983000000002
#
# number of rings (size 3 to 8) (size 9 to 14) (size 15 to 20)
#    0.000    1.333    3.333    3.000    0.000    4.333 
#    0.000    0.000    0.000    2.500    0.000    0.000 
#    0.000    0.000    0.000    0.000    0.000    0.000 
#
# Total GULP energy -133989.673193 kJ/mol
# GULP energy per Si atom -5582.903050 kJ/mol
# Density = 1.939873 g / cm^3
# Si number density = 19.442983 Si / 1000 Ang^3
#
#
#
# Elastic Constant Matrix: (Units=GPa)
#
#
# Indices 1 2 3 4 5 6 
#
# 1 110.8518 23.0019 9.2994 0.0000 -13.3424 0.0000
# 2 23.0019 50.8942 -3.0923 0.0000 -0.4750 0.0000
# 3 9.2994 -3.0923 49.1672 0.0000 1.7289 0.0000
# 4 0.0000 0.0000 0.0000 9.3280 0.0000 2.2364
# 5 -13.3424 -0.4750 1.7289 0.0000 24.9398 0.0000
# 6 0.0000 0.0000 0.0000 2.2364 0.0000 24.2866
#
#
#
# Elastic Compliance Matrix: (Units=1/GPa)
#
#
# Indices 1 2 3 4 5 6 
#
# 1 0.011014 -0.005081 -0.002613 0.000000 0.005977 0.000000
# 2 -0.005081 0.022070 0.002436 0.000000 -0.002467 0.000000
# 3 -0.002613 0.002436 0.021085 0.000000 -0.002813 0.000000
# 4 0.000000 0.000000 0.000000 0.109625 0.000000 -0.010094
# 5 0.005977 -0.002467 -0.002813 0.000000 0.043442 0.000000
# 6 0.000000 0.000000 0.000000 -0.010094 0.000000 0.042104
#
#
# Mechanical properties :
#
#
# Convention : Reuss Voigt Hill
#
# Bulk Modulus (GPa) = 22.90789 29.92569 26.41679
# Shear Modulus (GPa) = 18.22113 23.82449 21.02281
#
# Velocity S-wave (km/s) = 3.06462 3.50430 3.29181
# Velocity P-wave (km/s) = 4.93257 5.63901 5.29758
#
# Compressibility (1/GPa) = 0.04365308
#
# Stress axis : x y z
#
# Youngs Moduli (GPa) = 90.79470 45.31066 47.42690
#
# Poissons Ratio (x) = 0.23021 0.12392
# Poissons Ratio (y) = 0.46130 -0.11552
# Poissons Ratio (z) = 0.23723 -0.11036
#
# Static dielectric constant tensor:
#      x y z
#    x 1.693100 0.000000 -0.019740 
#    y 0.000000 1.655100 0.000000 
#    z -0.019740 0.000000 1.690250 
# 
# From -- ./inp_files/75061.got.cif
#   From: 2010.05.17/outbox.cif.g08.bks.cpg/sg12_38_cif.got.tgz:75061.got - 2010.06.03 13:09:07.
