data_PCOD9199813
_publ_section_title
;
Structure prediction by ZEFSAII (Michael W. Deem and Ramdas Pophale) SiO2 
 PCOD9199813
Probable space group: C 2/M
;
_chemical_formula_sum "Si O2"
_cell_formula_units_Z 56
_cell_length_a 12.736294
_cell_length_b 17.090714
_cell_length_c 13.882556
_cell_angle_alpha 90.000000
_cell_angle_beta 65.411409
_cell_angle_gamma 90.000000
_cell_volume 2747.824388
_symmetry_space_group_name_H-M "C 2/M"
_symmetry_group_IT_number 12
_symmetry_cell_setting 'monoclinic'
loop_
_space_group_symop_operation_xyz
x,y,z
-x,y,-z
-x,-y,-z
x,-y,z
1/2+x,1/2+y,z
1/2-x,1/2+y,-z
1/2-x,1/2-y,-z
1/2+x,1/2-y,z
loop_
_atom_site_type_symbol
_atom_site_label
_atom_site_fract_x
_atom_site_fract_y
_atom_site_fract_z
Si Si1 0.271398 0.654672 0.704210
Si Si2 0.909404 0.095264 0.114743
Si Si3 0.540317 0.093601 0.876093
Si Si4 0.144235 0.406238 0.219201
Si Si5 0.499731 0.406114 0.709542
Si Si6 0.122879 0.308040 0.416287
Si Si7 0.224445 0.089538 0.504314
O O1 0.153330 0.642066 0.805495
O O2 0.380601 0.634545 0.728815
O O3 0.293598 0.739558 0.651145
O O4 0.270548 0.597997 0.611761
O O5 0.776748 0.118372 0.148544
O O6 0.950149 0.118102 0.205980
O O7 0.910812 0.000000 0.111785
O O8 0.000000 0.123082 0.000000
O O9 0.439787 0.111187 0.837544
O O10 0.566274 0.000000 0.859115
O O11 0.500000 0.108940 0.000000
O O12 0.143779 0.500000 0.233902
O O13 0.104264 0.364695 0.332137
O O14 0.481203 0.500000 0.718486
O O15 0.597388 0.389722 0.592506
O O16 0.184360 0.355347 0.477975
O O17 0.000000 0.277090 0.500000
O O18 0.246710 0.000000 0.525177
#
# Coordination Sequence:
#
# PCOD9199813 Si02
#       7
#     8   8   8   8   8   8   8
#     4  12  25  40  60  93 133 169 206 252 323 388
#     4   9  18  34  62  95 122 158 207 263 314 363
#     4  10  23  43  69  96 126 168 216 266 312 369
#     4  10  21  42  66  93 125 162 218 270 315 372
#     4  10  20  36  61  92 125 161 205 255 312 375
#     4  12  25  41  63  92 128 171 210 258 319 387
#     4  11  22  40  65  94 126 163 214 267 316 374
#
# _framework density 20.379760000000001
#
# number of rings (size 3 to 8) (size 9 to 14) (size 15 to 20)
#    0.000    1.429    1.429    4.286    2.000    4.571 
#    0.000    1.429    0.000    0.000    0.000    0.000 
#    0.000    0.000    0.000    0.000    0.000    0.000 
#
# Total GULP energy -156609.159421 kJ/mol
# GULP energy per Si atom -5593.184265 kJ/mol
# Density = 2.033337 g / cm^3
# Si number density = 20.379760 Si / 1000 Ang^3
#
#
#
# Elastic Constant Matrix: (Units=GPa)
#
#
# Indices 1 2 3 4 5 6 
#
# 1 122.3333 39.7355 48.1374 0.0000 -11.6674 0.0000
# 2 39.7355 39.6510 20.0924 0.0000 -13.2824 0.0000
# 3 48.1374 20.0924 121.4420 0.0000 -22.5056 0.0000
# 4 0.0000 0.0000 0.0000 -616.8539 0.0000 -851.0296
# 5 -11.6674 -13.2824 -22.5056 0.0000 27.4903 0.0000
# 6 0.0000 0.0000 0.0000 -851.0296 0.0000-1103.1546
#
#
#
# Elastic Compliance Matrix: (Units=1/GPa)
#
#
# Indices 1 2 3 4 5 6 
#
# 1 0.013522 -0.012787 -0.003921 0.000000 -0.003649 0.000000
# 2 -0.012787 0.042947 0.000946 0.000000 0.016098 0.000000
# 3 -0.003921 0.000946 0.011091 0.000000 0.007873 0.000000
# 4 0.000000 0.000000 0.000000 0.025206 0.000000 -0.019445
# 5 -0.003649 0.016098 0.007873 0.000000 0.049052 0.000000
# 6 0.000000 0.000000 0.000000 -0.019445 0.000000 0.014094
#
#
# Mechanical properties :
#
#
# Convention : Reuss Voigt Hill
#
# Bulk Modulus (GPa) = 27.74836 55.48411 41.61624
# Shear Modulus (GPa) = 25.06925 -326.80624 -150.86849
#
# Velocity S-wave (km/s) = 3.51109 -12.67700 -8.61332
# Velocity P-wave (km/s) = 5.48473 13.67446 8.85745
#
# Compressibility (1/GPa) = 0.03603816
#
# Stress axis : x y z
#
# Youngs Moduli (GPa) = 73.95086 23.28438 90.16354
#
# Poissons Ratio (x) = 0.29773 0.35350
# Poissons Ratio (y) = 0.94560 -0.08532
# Poissons Ratio (z) = 0.28994 -0.02203
#
# Static dielectric constant tensor:
#      x y z
#    x 1.694250 0.000000 -0.009550 
#    y 0.000000 1.739620 0.000000 
#    z -0.009550 0.000000 1.693970 
# 
# From -- ./inp_files/206543.got.cif
#   From: 2010.05.17/outbox.cif.g08.bks.cpg/sg12_104_cif.got.tgz:206543.got - 2010.06.03 13:09:07.
