data_PCOD9199312
_publ_section_title
;
Structure prediction by ZEFSAII (Michael W. Deem and Ramdas Pophale) SiO2 
 PCOD9199312
Probable space group: C 2/M
;
_chemical_formula_sum "Si O2"
_cell_formula_units_Z 40
_cell_length_a 9.339010
_cell_length_b 11.243678
_cell_length_c 27.062279
_cell_angle_alpha 90.000000
_cell_angle_beta 139.809404
_cell_angle_gamma 90.000000
_cell_volume 1833.821336
_symmetry_space_group_name_H-M "C 2/M"
_symmetry_group_IT_number 12
_symmetry_cell_setting 'monoclinic'
loop_
_space_group_symop_operation_xyz
x,y,z
-x,y,-z
-x,-y,-z
x,-y,z
1/2+x,1/2+y,z
1/2-x,1/2+y,-z
1/2-x,1/2-y,-z
1/2+x,1/2-y,z
loop_
_atom_site_type_symbol
_atom_site_label
_atom_site_fract_x
_atom_site_fract_y
_atom_site_fract_z
Si Si1 0.807906 0.250687 0.818364
Si Si2 0.235073 0.000000 0.430253
Si Si3 0.752235 0.500000 0.550062
Si Si4 0.341005 0.139233 0.718469
Si Si5 0.237442 0.758662 0.590146
Si Si6 0.275001 0.860071 0.915998
O O1 0.601369 0.161455 0.772927
O O2 0.794415 0.312456 0.761068
O O3 0.786814 0.335831 0.860358
O O4 0.051973 0.193314 0.880716
O O5 0.500000 0.000000 0.500000
O O6 0.208417 0.000000 0.481108
O O7 0.162087 0.873780 0.388363
O O8 0.500000 0.500000 0.500000
O O9 0.854034 0.375923 0.596620
O O10 0.215828 0.209181 0.641862
O O11 0.289829 0.000000 0.701835
O O12 0.000000 0.751853 0.500000
O O13 0.268130 0.000000 0.922888
O O14 0.500000 0.810524 0.000000
#
# Coordination Sequence:
#
# PCOD9199312 Si02
#       6
#     8   4   4   8   8   8
#     4  10  23  40  61  94 130 166 205 256 315 380
#     4  10  22  38  58  84 114 144 199 268 323 370
#     4  10  20  36  60  80 112 146 197 256 317 368
#     4  11  23  42  62  89 128 173 213 265 323 378
#     4  10  22  42  61  88 117 162 215 270 319 376
#     4  10  20  39  67  96 126 163 205 252 304 373
#
# _framework density 21.812374999999999
#
# number of rings (size 3 to 8) (size 9 to 14) (size 15 to 20)
#    0.000    1.800    1.000    2.400    0.000    6.400 
#   10.800    0.000    0.000    9.600    0.000    0.000 
#    0.000    0.000    0.000    0.000    0.000    0.000 
#
# Total GULP energy -111688.405102 kJ/mol
# GULP energy per Si atom -5584.420255 kJ/mol
# Density = 2.176273 g / cm^3
# Si number density = 21.812375 Si / 1000 Ang^3
#
#
#
# Elastic Constant Matrix: (Units=GPa)
#
#
# Indices 1 2 3 4 5 6 
#
# 1 116.3781 15.4398 10.6625 0.0000 3.6809 0.0000
# 2 15.4398 156.1906 1.4155 0.0000 -4.9370 0.0000
# 3 10.6625 1.4155 77.3170 0.0000 8.6251 0.0000
# 4 0.0000 0.0000 0.0000 31.4806 0.0000 -1.2532
# 5 3.6809 -4.9370 8.6251 0.0000 44.0561 0.0000
# 6 0.0000 0.0000 0.0000 -1.2532 0.0000 28.3893
#
#
#
# Elastic Compliance Matrix: (Units=1/GPa)
#
#
# Indices 1 2 3 4 5 6 
#
# 1 0.008833 -0.000882 -0.001133 0.000000 -0.000615 0.000000
# 2 -0.000882 0.006516 -0.000089 0.000000 0.000821 0.000000
# 3 -0.001133 -0.000089 0.013374 0.000000 -0.002534 0.000000
# 4 0.000000 0.000000 0.000000 0.031822 0.000000 0.001405
# 5 -0.000615 0.000821 -0.002534 0.000000 0.023338 0.000000
# 6 0.000000 0.000000 0.000000 0.001405 0.000000 0.035287
#
#
# Mechanical properties :
#
#
# Convention : Reuss Voigt Hill
#
# Bulk Modulus (GPa) = 40.79322 44.99125 42.89223
# Shear Modulus (GPa) = 38.00808 42.27638 40.14223
#
# Velocity S-wave (km/s) = 4.17886 4.40726 4.29457
# Velocity P-wave (km/s) = 6.48277 6.82421 6.65568
#
# Compressibility (1/GPa) = 0.02451388
#
# Stress axis : x y z
#
# Youngs Moduli (GPa) = 113.21148 153.45828 74.77004
#
# Poissons Ratio (x) = 0.13540 0.08474
# Poissons Ratio (y) = 0.09989 0.00667
# Poissons Ratio (z) = 0.12831 0.01370
#
# Static dielectric constant tensor:
#      x y z
#    x 1.802970 0.000000 0.054180 
#    y 0.000000 1.845470 0.000000 
#    z 0.054180 0.000000 1.799290 
# 
# From -- ./inp_files/355626.got.cif
#   From: 2010.05.17/outbox.cif.g08.bks.cpg/sg12_178_cif.got.tgz:355626.got - 2010.06.03 13:09:07.
