data_PCOD9199389
_publ_section_title
;
Structure prediction by ZEFSAII (Michael W. Deem and Ramdas Pophale) SiO2 
 PCOD9199389
Probable space group: C 2/M
;
_chemical_formula_sum "Si O2"
_cell_formula_units_Z 64
_cell_length_a 8.986936
_cell_length_b 25.879134
_cell_length_c 15.513160
_cell_angle_alpha 90.000000
_cell_angle_beta 90.839654
_cell_angle_gamma 90.000000
_cell_volume 3607.572133
_symmetry_space_group_name_H-M "C 2/M"
_symmetry_group_IT_number 12
_symmetry_cell_setting 'monoclinic'
loop_
_space_group_symop_operation_xyz
x,y,z
-x,y,-z
-x,-y,-z
x,-y,z
1/2+x,1/2+y,z
1/2-x,1/2+y,-z
1/2-x,1/2-y,-z
1/2+x,1/2-y,z
loop_
_atom_site_type_symbol
_atom_site_label
_atom_site_fract_x
_atom_site_fract_y
_atom_site_fract_z
Si Si1 0.321840 0.805545 0.501444
Si Si2 0.031722 0.440137 0.602404
Si Si3 0.821935 0.190736 0.177846
Si Si4 0.183503 0.193526 0.178496
Si Si5 0.180486 0.692385 0.999247
Si Si6 0.534549 0.441772 0.601857
Si Si7 0.716383 0.876483 0.337499
Si Si8 0.286047 0.624659 0.656015
O O1 0.500000 0.802636 0.500000
O O2 0.250000 0.750000 0.500000
O O3 0.272246 0.834714 0.586897
O O4 0.261523 0.836736 0.419579
O O5 0.996497 0.500000 0.616550
O O6 0.200682 0.428120 0.629571
O O7 0.000000 0.429058 0.500000
O O8 0.951248 0.397746 0.661918
O O9 0.750366 0.248258 0.193092
O O10 0.750892 0.170283 0.087459
O O11 0.772185 0.151035 0.251909
O O12 0.002139 0.196184 0.173000
O O13 0.230351 0.155121 0.255407
O O14 0.254454 0.171925 0.090264
O O15 0.250000 0.750000 0.000000
O O16 0.000000 0.692999 0.000000
O O17 0.500000 0.437939 0.500000
O O18 0.499522 0.500000 0.629102
O O19 0.702931 0.428091 0.626410
O O20 0.453818 0.394631 0.648529
#
# Coordination Sequence:
#
# PCOD9199389 Si02
#       8
#     8   8   8   8   8   8   8   8
#     4  12  26  38  53  78 118 158 195 232 281 344
#     4  11  22  40  62  83 112 153 199 252 297 333
#     4  11  23  37  58  86 121 156 191 233 282 343
#     4  11  23  37  58  86 121 156 191 233 282 343
#     4  10  20  36  60  86 115 150 191 236 281 334
#     4  11  22  38  60  85 114 151 197 248 289 335
#     4  12  22  38  57  85 116 153 192 237 289 344
#     4  12  22  38  57  85 116 153 192 237 289 344
#
# _framework density 17.740462999999998
#
# number of rings (size 3 to 8) (size 9 to 14) (size 15 to 20)
#    0.000    0.750    5.000    4.875    5.250    4.000 
#    0.000    0.000    0.000    0.000    0.000    5.250 
#    0.000    0.000    0.000    0.000    0.000    0.000 
#
# Total GULP energy -178404.466216 kJ/mol
# GULP energy per Si atom -5575.139569 kJ/mol
# Density = 1.770008 g / cm^3
# Si number density = 17.740463 Si / 1000 Ang^3
#
#
#
# Elastic Constant Matrix: (Units=GPa)
#
#
# Indices 1 2 3 4 5 6 
#
# 1 81.5460 25.4357 38.2362 0.0000 -1.1096 0.0000
# 2 25.4357 100.0923 52.4979 0.0000 -2.3263 0.0000
# 3 38.2362 52.4979 142.4012 0.0000 -2.2756 0.0000
# 4 0.0000 0.0000 0.0000 8.1920 0.0000 1.2453
# 5 -1.1096 -2.3263 -2.2756 0.0000 26.0967 0.0000
# 6 0.0000 0.0000 0.0000 1.2453 0.0000 32.3661
#
#
#
# Elastic Compliance Matrix: (Units=1/GPa)
#
#
# Indices 1 2 3 4 5 6 
#
# 1 0.014351 -0.002013 -0.003109 0.000000 0.000160 0.000000
# 2 -0.002013 0.012681 -0.004124 0.000000 0.000685 0.000000
# 3 -0.003109 -0.004124 0.009382 0.000000 0.000318 0.000000
# 4 0.000000 0.000000 0.000000 0.122788 0.000000 -0.004724
# 5 0.000160 0.000685 0.000318 0.000000 0.038415 0.000000
# 6 0.000000 0.000000 0.000000 -0.004724 0.000000 0.031078
#
#
# Mechanical properties :
#
#
# Convention : Reuss Voigt Hill
#
# Bulk Modulus (GPa) = 55.79087 61.81990 58.80539
# Shear Modulus (GPa) = 19.75039 27.18894 23.46966
#
# Velocity S-wave (km/s) = 3.34023 3.91908 3.64118
# Velocity P-wave (km/s) = 6.81123 7.44321 7.13422
#
# Compressibility (1/GPa) = 0.01792408
#
# Stress axis : x y z
#
# Youngs Moduli (GPa) = 69.68333 78.85830 106.58169
#
# Poissons Ratio (x) = 0.15871 0.33134
# Poissons Ratio (y) = 0.14024 0.43951
# Poissons Ratio (z) = 0.21663 0.32518
#
# Static dielectric constant tensor:
#      x y z
#    x 1.658000 0.000000 0.003520 
#    y 0.000000 1.544740 0.000000 
#    z 0.003520 0.000000 1.624400 
# 
# From -- ./inp_files/199793.got.cif
#   From: 2010.05.17/outbox.cif.g08.bks.cpg/sg12_100_cif.got.tgz:199793.got - 2010.06.03 13:09:07.
