data_PCOD9199469
_publ_section_title
;
Structure prediction by ZEFSAII (Michael W. Deem and Ramdas Pophale) SiO2 
 PCOD9199469
Probable space group: C 2/M
;
_chemical_formula_sum "Si O2"
_cell_formula_units_Z 48
_cell_length_a 15.371162
_cell_length_b 8.911599
_cell_length_c 27.458374
_cell_angle_alpha 90.000000
_cell_angle_beta 135.579992
_cell_angle_gamma 90.000000
_cell_volume 2632.577015
_symmetry_space_group_name_H-M "C 2/M"
_symmetry_group_IT_number 12
_symmetry_cell_setting 'monoclinic'
loop_
_space_group_symop_operation_xyz
x,y,z
-x,y,-z
-x,-y,-z
x,-y,z
1/2+x,1/2+y,z
1/2-x,1/2+y,-z
1/2-x,1/2-y,-z
1/2+x,1/2-y,z
loop_
_atom_site_type_symbol
_atom_site_label
_atom_site_fract_x
_atom_site_fract_y
_atom_site_fract_z
Si Si1 0.103324 0.820206 0.676662
Si Si2 0.817066 0.819598 0.573589
Si Si3 0.270748 0.321304 0.086618
Si Si4 0.269255 0.320291 0.827068
Si Si5 0.626338 0.180181 0.580157
Si Si6 0.559727 0.320239 0.937249
O O1 0.196163 0.748069 0.752467
O O2 0.128898 0.762215 0.632555
O O3 0.961179 0.776409 0.632447
O O4 0.112550 0.000000 0.682238
O O5 0.750000 0.750000 0.500000
O O6 0.741291 0.777423 0.591589
O O7 0.810063 0.000000 0.566444
O O8 0.265721 0.500000 0.091051
O O9 0.284685 0.242446 0.143959
O O10 0.380137 0.287026 0.091547
O O11 0.144508 0.262916 0.010711
O O12 0.260792 0.500000 0.822785
O O13 0.415528 0.279464 0.882892
O O14 0.500000 0.215301 0.500000
O O15 0.628151 0.000000 0.588783
O O16 0.571219 0.500000 0.949870
#
# Coordination Sequence:
#
# PCOD9199469 Si02
#       6
#     8   8   8   8   8   8
#     4  11  24  39  56  84 117 148 187 237 287 333
#     4  10  21  37  59  84 111 143 181 229 281 335
#     4  10  20  36  60  88 116 147 189 239 283 328
#     4  11  23  39  58  80 115 157 193 230 279 341
#     4  10  20  37  61  84 109 144 185 227 278 343
#     4   9  20  38  59  84 115 153 192 230 279 338
#
# _framework density 18.233086
#
# number of rings (size 3 to 8) (size 9 to 14) (size 15 to 20)
#    0.000    1.833    1.667    2.000    0.000    7.000 
#    0.000    6.667    0.000    0.000    0.000    0.000 
#    0.000    0.000    0.000    0.000    0.000    0.000 
#
# Total GULP energy -134094.634802 kJ/mol
# GULP energy per Si atom -5587.276450 kJ/mol
# Density = 1.819159 g / cm^3
# Si number density = 18.233086 Si / 1000 Ang^3
#
#
#
# Elastic Constant Matrix: (Units=GPa)
#
#
# Indices 1 2 3 4 5 6 
#
# 1 110.9011 33.6349 41.5301 0.0000 -18.5359 0.0000
# 2 33.6349 32.6707 31.1790 0.0000 -12.0383 0.0000
# 3 41.5301 31.1790 70.8223 0.0000 -27.6203 0.0000
# 4 0.0000 0.0000 0.0000 35.7133 0.0000 -7.4871
# 5 -18.5359 -12.0383 -27.6203 0.0000 28.9752 0.0000
# 6 0.0000 0.0000 0.0000 -7.4871 0.0000 31.8066
#
#
#
# Elastic Compliance Matrix: (Units=1/GPa)
#
#
# Indices 1 2 3 4 5 6 
#
# 1 0.013554 -0.010995 -0.002400 0.000000 0.001815 0.000000
# 2 -0.010995 0.061708 -0.021430 0.000000 -0.001824 0.000000
# 3 -0.002400 -0.021430 0.033252 0.000000 0.021259 0.000000
# 4 0.000000 0.000000 0.000000 0.029454 0.000000 0.006933
# 5 0.001815 -0.001824 0.021259 0.000000 0.055180 0.000000
# 6 0.000000 0.000000 0.000000 0.006933 0.000000 0.033072
#
#
# Mechanical properties :
#
#
# Convention : Reuss Voigt Hill
#
# Bulk Modulus (GPa) = 25.73080 47.45356 36.59218
# Shear Modulus (GPa) = 16.19044 26.50237 21.34641
#
# Velocity S-wave (km/s) = 2.98312 3.81666 3.42534
# Velocity P-wave (km/s) = 5.09981 6.74574 5.97968
#
# Compressibility (1/GPa) = 0.03886394
#
# Stress axis : x y z
#
# Youngs Moduli (GPa) = 73.78126 16.20545 30.07312
#
# Poissons Ratio (x) = 0.17818 0.07216
# Poissons Ratio (y) = 0.81121 0.64448
# Poissons Ratio (z) = 0.17704 0.34729
#
# Static dielectric constant tensor:
#      x y z
#    x 1.624800 0.000000 0.013180 
#    y 0.000000 1.609440 0.000000 
#    z 0.013180 0.000000 1.582400 
# 
# From -- ./inp_files/360315.got.cif
#   From: 2010.05.17/outbox.cif.g08.bks.cpg/sg12_181_cif.got.tgz:360315.got - 2010.06.03 13:09:07.
