data_PCOD9199449
_publ_section_title
;
Structure prediction by ZEFSAII (Michael W. Deem and Ramdas Pophale) SiO2 
 PCOD9199449
Probable space group: C 2/M
;
_chemical_formula_sum "Si O2"
_cell_formula_units_Z 56
_cell_length_a 28.255852
_cell_length_b 7.619138
_cell_length_c 22.130102
_cell_angle_alpha 90.000000
_cell_angle_beta 146.349144
_cell_angle_gamma 90.000000
_cell_volume 2640.035847
_symmetry_space_group_name_H-M "C 2/M"
_symmetry_group_IT_number 12
_symmetry_cell_setting 'monoclinic'
loop_
_space_group_symop_operation_xyz
x,y,z
-x,y,-z
-x,-y,-z
x,-y,z
1/2+x,1/2+y,z
1/2-x,1/2+y,-z
1/2-x,1/2-y,-z
1/2+x,1/2-y,z
loop_
_atom_site_type_symbol
_atom_site_label
_atom_site_fract_x
_atom_site_fract_y
_atom_site_fract_z
Si Si1 0.847265 0.702918 0.188497
Si Si2 0.227902 0.797543 0.250217
Si Si3 0.542453 0.500000 0.637882
Si Si4 0.572082 0.286228 0.843397
Si Si5 0.167701 0.787941 0.058762
Si Si6 0.383894 0.291018 0.616110
Si Si7 0.868224 0.000000 0.397085
Si Si8 0.280228 0.210667 0.626846
O O1 0.860183 0.500000 0.218435
O O2 0.854338 0.723332 0.123969
O O3 0.758453 0.760918 0.124589
O O4 0.921464 0.828808 0.291265
O O5 0.170503 0.737461 0.132131
O O6 0.309156 0.670371 0.337969
O O7 0.190032 0.783150 0.277144
O O8 0.251865 0.000000 0.264552
O O9 0.441052 0.500000 0.525008
O O10 0.584038 0.500000 0.615938
O O11 0.571808 0.500000 0.841947
O O12 0.480235 0.221989 0.722064
O O13 0.594281 0.227290 0.934969
O O14 0.163350 0.000000 0.053159
O O15 0.389774 0.500000 0.613673
O O16 0.340792 0.259302 0.635585
O O17 0.314986 0.224627 0.493793
O O18 0.277179 0.000000 0.628281
#
# Coordination Sequence:
#
# PCOD9199449 Si02
#       8
#     8   8   4   8   8   8   4   8
#     4  11  22  38  59  88 121 159 202 245 301 355
#     4  11  22  39  63  89 119 159 201 243 296 360
#     4  11  24  40  60  86 127 158 199 255 295 350
#     4  10  20  37  61  85 120 158 199 255 301 349
#     4   9  20  38  58  86 118 157 205 245 294 357
#     4   9  20  37  59  87 116 153 196 244 304 356
#     4  11  24  40  60  90 118 165 205 240 301 353
#     4  10  20  36  60  87 121 155 192 242 301 363
#
# _framework density 21.211832000000001
#
# number of rings (size 3 to 8) (size 9 to 14) (size 15 to 20)
#    0.000    1.857    2.857    0.857    2.000    1.714 
#    2.571    2.143    0.000    4.286    0.000    0.000 
#    0.000    0.000    0.000    0.000    0.000    0.000 
#
# Total GULP energy -156353.984996 kJ/mol
# GULP energy per Si atom -5584.070893 kJ/mol
# Density = 2.116355 g / cm^3
# Si number density = 21.211832 Si / 1000 Ang^3
#
#
#
# Elastic Constant Matrix: (Units=GPa)
#
#
# Indices 1 2 3 4 5 6 
#
# 1 82.6841 -9.4227 30.7614 0.0000 -28.5921 0.0000
# 2 -9.4227 70.1126 6.5879 0.0000 2.7338 0.0000
# 3 30.7614 6.5879 76.4003 0.0000 -17.9024 0.0000
# 4 0.0000 0.0000 0.0000 10.3073 0.0000 0.2123
# 5 -28.5921 2.7338 -17.9024 0.0000 35.1486 0.0000
# 6 0.0000 0.0000 0.0000 0.2123 0.0000 22.8380
#
#
#
# Elastic Compliance Matrix: (Units=1/GPa)
#
#
# Indices 1 2 3 4 5 6 
#
# 1 0.018410 0.002435 -0.004721 0.000000 0.012382 0.000000
# 2 0.002435 0.014825 -0.002345 0.000000 -0.000366 0.000000
# 3 -0.004721 -0.002345 0.016278 0.000000 0.004633 0.000000
# 4 0.000000 0.000000 0.000000 0.097037 0.000000 -0.000902
# 5 0.012382 -0.000366 0.004633 0.000000 0.040911 0.000000
# 6 0.000000 0.000000 0.000000 -0.000902 0.000000 0.043795
#
#
# Mechanical properties :
#
#
# Convention : Reuss Voigt Hill
#
# Bulk Modulus (GPa) = 24.84443 31.67223 28.25833
# Shear Modulus (GPa) = 19.69025 27.07680 23.38353
#
# Velocity S-wave (km/s) = 3.05005 3.57668 3.32381
# Velocity P-wave (km/s) = 4.91342 5.65868 5.29917
#
# Compressibility (1/GPa) = 0.04025046
#
# Stress axis : x y z
#
# Youngs Moduli (GPa) = 54.31941 67.45540 61.43445
#
# Poissons Ratio (x) = -0.16425 0.29003
# Poissons Ratio (y) = -0.13226 0.14404
# Poissons Ratio (z) = 0.25644 0.15815
#
# Static dielectric constant tensor:
#      x y z
#    x 1.784680 0.000000 -0.039190 
#    y 0.000000 1.773080 0.000000 
#    z -0.039190 0.000000 1.795320 
# 
# From -- ./inp_files/329739.got.cif
#   From: 2010.05.17/outbox.cif.g08.bks.cpg/sg12_165_cif.got.tgz:329739.got - 2010.06.03 13:09:07.
