data_PCOD9199958
_publ_section_title
;
Structure prediction by ZEFSAII (Michael W. Deem and Ramdas Pophale) SiO2 
 PCOD9199958
Probable space group: C 2/M
;
_chemical_formula_sum "Si O2"
_cell_formula_units_Z 56
_cell_length_a 26.842881
_cell_length_b 19.915962
_cell_length_c 7.919325
_cell_angle_alpha 90.000000
_cell_angle_beta 139.642647
_cell_angle_gamma 90.000000
_cell_volume 2741.535186
_symmetry_space_group_name_H-M "C 2/M"
_symmetry_group_IT_number 12
_symmetry_cell_setting 'monoclinic'
loop_
_space_group_symop_operation_xyz
x,y,z
-x,y,-z
-x,-y,-z
x,-y,z
1/2+x,1/2+y,z
1/2-x,1/2+y,-z
1/2-x,1/2-y,-z
1/2+x,1/2-y,z
loop_
_atom_site_type_symbol
_atom_site_label
_atom_site_fract_x
_atom_site_fract_y
_atom_site_fract_z
Si Si1 0.714591 0.824974 0.443671
Si Si2 0.661981 0.424897 0.336761
Si Si3 0.521496 0.346319 0.851904
Si Si4 0.550158 0.073297 0.460218
Si Si5 0.779879 0.420085 0.212439
Si Si6 0.118055 0.925675 0.614863
Si Si7 0.538288 0.802096 0.919477
O O1 0.750000 0.750000 0.500000
O O2 0.765640 0.876289 0.469283
O O3 0.715555 0.862710 0.630131
O O4 0.626358 0.823071 0.162288
O O5 0.680086 0.500000 0.326071
O O6 0.631607 0.429620 0.448300
O O7 0.598299 0.391402 0.050800
O O8 0.453282 0.375849 0.562969
O O9 0.536668 0.270826 0.830615
O O10 0.500000 0.347179 0.000000
O O11 0.500000 0.068331 0.500000
O O12 0.642583 0.084433 0.702314
O O13 0.512731 0.137857 0.280582
O O14 0.540034 0.000000 0.346593
O O15 0.779136 0.500000 0.264990
O O16 0.699433 0.407969 0.908880
O O17 0.096081 0.000000 0.619331
O O18 0.500000 0.789010 0.000000
#
# Coordination Sequence:
#
# PCOD9199958 Si02
#       7
#     8   8   8   8   8   8   8
#     4  12  24  41  61  89 126 167 209 258 309 373
#     4  10  20  36  62  92 121 159 208 259 309 370
#     4   9  18  36  61  88 122 161 204 253 306 371
#     4  10  23  42  64  90 122 161 210 265 318 376
#     4  10  22  42  64  93 131 165 206 264 323 375
#     4   9  19  37  64  93 122 158 204 259 318 375
#     4  11  22  41  63  85 124 166 211 256 311 370
#
# _framework density 20.42651
#
# number of rings (size 3 to 8) (size 9 to 14) (size 15 to 20)
#    0.000    1.857    2.857    0.857    2.000    3.143 
#    2.571    2.143    0.000    2.571    0.000    0.000 
#    0.000    0.000    0.000    0.000    0.000    0.429 
#
# Total GULP energy -155930.413686 kJ/mol
# GULP energy per Si atom -5568.943346 kJ/mol
# Density = 2.038002 g / cm^3
# Si number density = 20.426510 Si / 1000 Ang^3
#
#
#
# Elastic Constant Matrix: (Units=GPa)
#
#
# Indices 1 2 3 4 5 6 
#
# 1 51.7320 23.8939 18.1714 0.0000 13.9324 0.0000
# 2 23.8939 182.8440 98.5462 0.0000 20.0384 0.0000
# 3 18.1714 98.5462 156.7715 0.0000 34.2242 0.0000
# 4 0.0000 0.0000 0.0000 44.2398 0.0000 -1.3701
# 5 13.9324 20.0384 34.2242 0.0000 26.5932 0.0000
# 6 0.0000 0.0000 0.0000 -1.3701 0.0000 33.4847
#
#
#
# Elastic Compliance Matrix: (Units=1/GPa)
#
#
# Indices 1 2 3 4 5 6 
#
# 1 0.023266 -0.002550 0.001596 0.000000 -0.012322 0.000000
# 2 -0.002550 0.008559 -0.005519 0.000000 0.001989 0.000000
# 3 0.001596 -0.005519 0.012430 0.000000 -0.012674 0.000000
# 4 0.000000 0.000000 0.000000 0.022633 0.000000 0.000926
# 5 -0.012322 0.001989 -0.012674 0.000000 0.058871 0.000000
# 6 0.000000 0.000000 0.000000 0.000926 0.000000 0.029902
#
#
# Mechanical properties :
#
#
# Convention : Reuss Voigt Hill
#
# Bulk Modulus (GPa) = 31.93955 74.73006 53.33481
# Shear Modulus (GPa) = 27.92628 37.57926 32.75277
#
# Velocity S-wave (km/s) = 3.70152 4.29386 4.00865
# Velocity P-wave (km/s) = 5.82569 7.82606 6.89876
#
# Compressibility (1/GPa) = 0.03130915
#
# Stress axis : x y z
#
# Youngs Moduli (GPa) = 42.98077 116.83901 80.45331
#
# Poissons Ratio (x) = 0.29798 -0.12843
# Poissons Ratio (y) = 0.10962 0.44400
# Poissons Ratio (z) = -0.06861 0.64480
#
# Static dielectric constant tensor:
#      x y z
#    x 1.775700 0.000000 -0.021160 
#    y 0.000000 1.797830 0.000000 
#    z -0.021160 0.000000 1.692960 
# 
# From -- ./inp_files/113415.got.cif
#   From: 2010.05.17/outbox.cif.g08.bks.cpg/sg12_57_cif.got.tgz:113415.got - 2010.06.03 13:09:07.
