data_PCOD9199445
_publ_section_title
;
Structure prediction by ZEFSAII (Michael W. Deem and Ramdas Pophale) SiO2 
 PCOD9199445
Probable space group: C 2/M
;
_chemical_formula_sum "Si O2"
_cell_formula_units_Z 48
_cell_length_a 11.626099
_cell_length_b 16.164956
_cell_length_c 21.010207
_cell_angle_alpha 90.000000
_cell_angle_beta 138.426024
_cell_angle_gamma 90.000000
_cell_volume 2620.211878
_symmetry_space_group_name_H-M "C 2/M"
_symmetry_group_IT_number 12
_symmetry_cell_setting 'monoclinic'
loop_
_space_group_symop_operation_xyz
x,y,z
-x,y,-z
-x,-y,-z
x,-y,z
1/2+x,1/2+y,z
1/2-x,1/2+y,-z
1/2-x,1/2-y,-z
1/2+x,1/2-y,z
loop_
_atom_site_type_symbol
_atom_site_label
_atom_site_fract_x
_atom_site_fract_y
_atom_site_fract_z
Si Si1 0.695830 0.156691 0.722678
Si Si2 0.681135 0.500000 0.995538
Si Si3 0.671561 0.832759 0.997159
Si Si4 0.109907 0.594676 0.480087
Si Si5 0.718065 0.823164 0.166279
Si Si6 0.730846 0.500000 0.160399
Si Si7 0.914882 0.098247 0.692434
O O1 0.503363 0.151577 0.612803
O O2 0.735485 0.239890 0.776951
O O3 0.833627 0.141861 0.721740
O O4 0.707880 0.080892 0.776855
O O5 0.771945 0.500000 0.102467
O O6 0.727737 0.416560 0.977610
O O7 0.476584 0.500000 0.920890
O O8 0.687363 0.814030 0.078322
O O9 0.750000 0.750000 0.000000
O O10 0.474724 0.848926 0.892055
O O11 0.117840 0.500000 0.458297
O O12 0.298038 0.621595 0.582629
O O13 0.000000 0.590740 0.500000
O O14 0.885603 0.881870 0.238980
O O15 0.890588 0.000000 0.692779
#
# Coordination Sequence:
#
# PCOD9199445 Si02
#       7
#     8   4   8   8   8   4   8
#     4  11  19  35  59  87 117 148 194 246 281 338
#     4  11  24  37  60  77 113 158 191 243 294 348
#     4  11  24  42  54  82 121 151 195 247 294 347
#     4   8  15  31  55  86 117 148 183 238 289 336
#     4  11  24  34  59  83 114 154 192 238 292 339
#     4  11  20  34  59  87 101 145 204 235 284 343
#     4  10  20  36  60  87 120 152 191 237 288 348
#
# _framework density 18.319129
#
# number of rings (size 3 to 8) (size 9 to 14) (size 15 to 20)
#    0.000    1.667    1.667    5.000    2.333    4.000 
#    0.000    0.000    0.000    0.000    0.000    1.167 
#    0.000    0.000    0.000    0.000    0.000    0.000 
#
# Total GULP energy -133810.076388 kJ/mol
# GULP energy per Si atom -5575.419849 kJ/mol
# Density = 1.827743 g / cm^3
# Si number density = 18.319129 Si / 1000 Ang^3
#
#
#
# Elastic Constant Matrix: (Units=GPa)
#
#
# Indices 1 2 3 4 5 6 
#
# 1 55.8556 31.7007 31.0057 0.0000 5.7159 0.0000
# 2 31.7007 82.5367 27.8251 0.0000 -11.3768 0.0000
# 3 31.0057 27.8251 126.0981 -0.0006 10.2887 -0.0002
# 4 0.0000 0.0000 -0.0006 -670.4614 -0.0002 -260.4573
# 5 5.7159 -11.3768 10.2887 -0.0002 33.1762 -0.0001
# 6 0.0000 0.0000 -0.0002 -260.4573 -0.0001 -77.1078
#
#
#
# Elastic Compliance Matrix: (Units=1/GPa)
#
#
# Indices 1 2 3 4 5 6 
#
# 1 0.026180 -0.009712 -0.003749 0.000000 -0.006678 0.000000
# 2 -0.009712 0.017759 -0.002221 0.000000 0.008452 0.000000
# 3 -0.003749 -0.002221 0.009594 0.000000 -0.003091 0.000000
# 4 0.000000 0.000000 0.000000 0.004777 0.000000 -0.016137
# 5 -0.006678 0.008452 -0.003091 0.000000 0.035149 0.000000
# 6 0.000000 0.000000 0.000000 -0.016137 0.000000 0.041540
#
#
# Mechanical properties :
#
#
# Convention : Reuss Voigt Hill
#
# Bulk Modulus (GPa) = 45.10463 49.50593 47.30528
# Shear Modulus (GPa) = 28.77641 -131.28133 -51.25246
#
# Velocity S-wave (km/s) = 3.96768 -8.47461 -5.29512
# Velocity P-wave (km/s) = 6.75759 8.28710 3.39197
#
# Compressibility (1/GPa) = 0.02217067
#
# Stress axis : x y z
#
# Youngs Moduli (GPa) = 38.19747 56.30806 104.22714
#
# Poissons Ratio (x) = 0.54684 0.39079
# Poissons Ratio (y) = 0.37096 0.23144
# Poissons Ratio (z) = 0.14322 0.12503
#
# Static dielectric constant tensor:
#      x y z
#    x 1.649380 0.000000 0.026360 
#    y 0.000000 1.586750 0.000000 
#    z 0.026360 0.000000 1.684820 
# 
# From -- ./inp_files/204419.got.cif
#   From: 2010.05.17/outbox.cif.g08.bks.cpg/sg12_103_cif.got.tgz:204419.got - 2010.06.03 13:09:07.
