data_PCOD9199054
_publ_section_title
;
Structure prediction by ZEFSAII (Michael W. Deem and Ramdas Pophale) SiO2 
 PCOD9199054
Probable space group: C 2/M
;
_chemical_formula_sum "Si O2"
_cell_formula_units_Z 56
_cell_length_a 21.837897
_cell_length_b 11.105824
_cell_length_c 12.665444
_cell_angle_alpha 90.000000
_cell_angle_beta 71.437413
_cell_angle_gamma 90.000000
_cell_volume 2911.920958
_symmetry_space_group_name_H-M "C 2/M"
_symmetry_group_IT_number 12
_symmetry_cell_setting 'monoclinic'
loop_
_space_group_symop_operation_xyz
x,y,z
-x,y,-z
-x,-y,-z
x,-y,z
1/2+x,1/2+y,z
1/2-x,1/2+y,-z
1/2-x,1/2-y,-z
1/2+x,1/2-y,z
loop_
_atom_site_type_symbol
_atom_site_label
_atom_site_fract_x
_atom_site_fract_y
_atom_site_fract_z
Si Si1 0.925517 0.135734 0.645909
Si Si2 0.715397 0.359352 0.651621
Si Si3 0.149273 0.791775 0.110176
Si Si4 0.016690 0.636653 0.650290
Si Si5 0.268176 0.636331 0.127735
Si Si6 0.352601 0.230518 0.505232
Si Si7 0.470925 0.141132 0.905840
O O1 0.884005 0.137348 0.776394
O O2 0.880116 0.170941 0.572283
O O3 0.974782 0.249287 0.631564
O O4 0.952768 0.000000 0.619312
O O5 0.700816 0.500000 0.648976
O O6 0.701461 0.319187 0.779085
O O7 0.675291 0.289574 0.585713
O O8 0.791749 0.336850 0.590461
O O9 0.206790 0.714568 0.129761
O O10 0.094302 0.707616 0.090754
O O11 0.181777 0.861592 0.995839
O O12 0.990624 0.500000 0.643631
O O13 0.087052 0.648322 0.560784
O O14 0.016951 0.651051 0.777626
O O15 0.246273 0.500000 0.159107
O O16 0.456882 0.000000 0.928515
O O17 0.500000 0.187610 0.000000
#
# Coordination Sequence:
#
# PCOD9199054 Si02
#       7
#     8   8   8   8   8   8   8
#     4  11  23  40  61  90 124 158 197 247 299 355
#     4  10  22  38  58  84 119 158 196 243 295 349
#     4  10  20  36  60  85 116 153 195 243 295 354
#     4  10  23  40  63  91 118 156 203 247 297 356
#     4  10  20  36  59  85 113 152 199 246 292 347
#     4  11  22  38  60  86 119 159 199 242 293 355
#     4   9  19  36  58  85 117 151 192 246 299 351
#
# _framework density 19.231292
#
# number of rings (size 3 to 8) (size 9 to 14) (size 15 to 20)
#    0.000    1.857    1.429    2.143    2.000    4.000 
#    0.000    0.000    0.000    2.143    0.000    0.000 
#    0.000    0.000    0.000    0.000    0.000    0.000 
#
# Total GULP energy -156186.314429 kJ/mol
# GULP energy per Si atom -5578.082658 kJ/mol
# Density = 1.918752 g / cm^3
# Si number density = 19.231292 Si / 1000 Ang^3
#
#
#
# Elastic Constant Matrix: (Units=GPa)
#
#
# Indices 1 2 3 4 5 6 
#
# 1 60.6091 31.1291 41.1561 0.0000 4.9586 0.0000
# 2 31.1291 87.6671 35.5803 0.0000 6.5982 0.0000
# 3 41.1561 35.5803 127.7246 0.0000 16.4456 0.0000
# 4 0.0000 0.0000 0.0000 6.3300 0.0000 -1.5289
# 5 4.9586 6.5982 16.4456 0.0000 36.4289 0.0000
# 6 0.0000 0.0000 0.0000 -1.5289 0.0000 16.8306
#
#
#
# Elastic Compliance Matrix: (Units=1/GPa)
#
#
# Indices 1 2 3 4 5 6 
#
# 1 0.023611 -0.005986 -0.006016 0.000000 0.000586 0.000000
# 2 -0.005986 0.014398 -0.001965 0.000000 -0.000906 0.000000
# 3 -0.006016 -0.001965 0.010791 0.000000 -0.003697 0.000000
# 4 0.000000 0.000000 0.000000 0.161521 0.000000 0.014673
# 5 0.000586 -0.000906 -0.003697 0.000000 0.029204 0.000000
# 6 0.000000 0.000000 0.000000 0.014673 0.000000 0.060748
#
#
# Mechanical properties :
#
#
# Convention : Reuss Voigt Hill
#
# Bulk Modulus (GPa) = 47.92659 54.63689 51.28174
# Shear Modulus (GPa) = 14.91808 23.12693 19.02250
#
# Velocity S-wave (km/s) = 2.78819 3.47157 3.14848
# Velocity P-wave (km/s) = 5.94480 6.67391 6.31988
#
# Compressibility (1/GPa) = 0.02086524
#
# Stress axis : x y z
#
# Youngs Moduli (GPa) = 42.35336 69.45282 92.66714
#
# Poissons Ratio (x) = 0.41577 0.55748
# Poissons Ratio (y) = 0.25354 0.18212
# Poissons Ratio (z) = 0.25479 0.13650
#
# Static dielectric constant tensor:
#      x y z
#    x 1.640460 0.000000 -0.004890 
#    y 0.000000 1.653040 0.000000 
#    z -0.004890 0.000000 1.696120 
# 
# From -- ./inp_files/164876.got.cif
#   From: 2010.05.17/outbox.cif.g08.bks.cpg/sg12_83_cif.got.tgz:164876.got - 2010.06.03 13:09:07.
