data_PCOD9199655
_publ_section_title
;
Structure prediction by ZEFSAII (Michael W. Deem and Ramdas Pophale) SiO2 
 PCOD9199655
Probable space group: C 2/M
;
_chemical_formula_sum "Si O2"
_cell_formula_units_Z 52
_cell_length_a 19.821043
_cell_length_b 7.386894
_cell_length_c 30.312688
_cell_angle_alpha 90.000000
_cell_angle_beta 148.785042
_cell_angle_gamma 90.000000
_cell_volume 2300.129993
_symmetry_space_group_name_H-M "C 2/M"
_symmetry_group_IT_number 12
_symmetry_cell_setting 'monoclinic'
loop_
_space_group_symop_operation_xyz
x,y,z
-x,y,-z
-x,-y,-z
x,-y,z
1/2+x,1/2+y,z
1/2-x,1/2+y,-z
1/2-x,1/2-y,-z
1/2+x,1/2-y,z
loop_
_atom_site_type_symbol
_atom_site_label
_atom_site_fract_x
_atom_site_fract_y
_atom_site_fract_z
Si Si1 0.205321 0.718390 0.227531
Si Si2 0.721897 0.000000 0.087558
Si Si3 0.422037 0.219637 0.232736
Si Si4 0.534194 0.292042 0.969678
Si Si5 0.144895 0.282576 0.292997
Si Si6 0.590524 0.210785 0.511559
Si Si7 0.998902 0.294807 0.630048
O O1 0.213204 0.500000 0.230992
O O2 0.167664 0.778223 0.255840
O O3 0.347077 0.792199 0.294829
O O4 0.093971 0.778063 0.131629
O O5 0.794074 0.160367 0.157337
O O6 0.645857 0.158607 0.016483
O O7 0.507557 0.266841 0.237597
O O8 0.504216 0.276520 0.321973
O O9 0.400073 0.000000 0.222620
O O10 0.575346 0.500000 0.995826
O O11 0.500000 0.222255 0.000000
O O12 0.149968 0.500000 0.295758
O O13 0.263091 0.220117 0.389726
O O14 0.500000 0.289541 0.500000
O O15 0.568702 0.290555 0.450643
O O16 0.550101 0.000000 0.484780
O O17 0.948724 0.500000 0.605664
#
# Coordination Sequence:
#
# PCOD9199655 Si02
#       7
#     8   4   8   8   8   8   8
#     4  11  22  38  65  94 126 166 216 265 323 386
#     4  12  23  42  68  94 122 173 219 264 320 392
#     4  10  24  44  64  91 133 173 215 268 322 382
#     4  11  24  41  65  99 135 167 207 272 328 383
#     4  10  23  42  63  90 130 173 212 264 324 383
#     4  10  20  36  60  94 130 164 213 266 317 382
#     4  10  21  38  61  94 128 169 212 266 319 377
#
# _framework density 22.607420000000001
#
# number of rings (size 3 to 8) (size 9 to 14) (size 15 to 20)
#    0.000    1.538    2.308    2.077    4.308    4.615 
#    0.000    0.769    0.000    0.000    0.000    0.000 
#    0.000    0.000    0.000    0.000    0.000    0.000 
#
# Total GULP energy -144791.286004 kJ/mol
# GULP energy per Si atom -5568.895616 kJ/mol
# Density = 2.255596 g / cm^3
# Si number density = 22.607420 Si / 1000 Ang^3
#
#
#
# Elastic Constant Matrix: (Units=GPa)
#
#
# Indices 1 2 3 4 5 6 
#
# 1 63.9203 -3.3764 -1.2907 -0.0013 -11.7090 -0.0002
# 2 -3.3764 111.8173 -0.1186 -0.0058 3.9806 0.0017
# 3 -1.2907 -0.1186 113.4366 -0.0006 -24.1402 -0.0004
# 4 -0.0013 -0.0058 -0.0006 5.2950 0.0009 -13.4343
# 5 -11.7090 3.9806 -24.1402 0.0009 18.7088 0.0004
# 6 -0.0002 0.0017 -0.0004 -13.4343 0.0004 -19.4824
#
#
#
# Elastic Compliance Matrix: (Units=1/GPa)
#
#
# Indices 1 2 3 4 5 6 
#
# 1 0.018753 -0.000019 0.003738 0.000001 0.016565 -0.000001
# 2 -0.000019 0.009036 -0.000555 0.000004 -0.002651 -0.000002
# 3 0.003738 -0.000555 0.012931 -0.000001 0.019143 0.000000
# 4 0.000001 0.000004 -0.000001 0.068687 -0.000003 -0.047364
# 5 0.016565 -0.002651 0.019143 -0.000003 0.089083 0.000003
# 6 -0.000001 -0.000002 0.000000 -0.047364 0.000003 -0.018668
#
#
# Mechanical properties :
#
#
# Convention : Reuss Voigt Hill
#
# Bulk Modulus (GPa) = 21.25432 31.06697 26.16064
# Shear Modulus (GPa) = 26.43026 20.50161 23.46593
#
# Velocity S-wave (km/s) = 3.42291 3.01467 3.22526
# Velocity P-wave (km/s) = 5.00437 5.08816 5.04644
#
# Compressibility (1/GPa) = 0.04704927
#
# Stress axis : x y z
#
# Youngs Moduli (GPa) = 53.32390 110.66419 77.33181
#
# Poissons Ratio (x) = 0.00215 -0.28910
# Poissons Ratio (y) = 0.00104 0.04291
# Poissons Ratio (z) = -0.19935 0.06140
#
# Static dielectric constant tensor:
#      x y z
#    x 1.883220 0.000000 0.004310 
#    y 0.000000 1.858060 0.000000 
#    z 0.004310 0.000000 1.827230 
# 
# From -- ./inp_files/380409.got.cif
#   From: 2010.05.17/outbox.cif.g08.bks.cpg/sg12_191_cif.got.tgz:380409.got - 2010.06.03 13:09:07.
