data_PCOD9199410
_publ_section_title
;
Structure prediction by ZEFSAII (Michael W. Deem and Ramdas Pophale) SiO2 
 PCOD9199410
Probable space group: C 2/M
;
_chemical_formula_sum "Si O2"
_cell_formula_units_Z 56
_cell_length_a 29.727991
_cell_length_b 8.739705
_cell_length_c 12.144355
_cell_angle_alpha 90.000000
_cell_angle_beta 111.529615
_cell_angle_gamma 90.000000
_cell_volume 2935.122282
_symmetry_space_group_name_H-M "C 2/M"
_symmetry_group_IT_number 12
_symmetry_cell_setting 'monoclinic'
loop_
_space_group_symop_operation_xyz
x,y,z
-x,y,-z
-x,-y,-z
x,-y,z
1/2+x,1/2+y,z
1/2-x,1/2+y,-z
1/2-x,1/2-y,-z
1/2+x,1/2-y,z
loop_
_atom_site_type_symbol
_atom_site_label
_atom_site_fract_x
_atom_site_fract_y
_atom_site_fract_z
Si Si1 0.201093 0.317925 0.507986
Si Si2 0.729290 0.317704 0.758352
Si Si3 0.159857 0.316215 0.864149
Si Si4 0.841461 0.683829 0.883751
Si Si5 0.613905 0.317364 0.286739
Si Si6 0.566728 0.817709 0.632858
Si Si7 0.467345 0.682609 0.621462
O O1 0.202059 0.500000 0.501317
O O2 0.250000 0.250000 0.500000
O O3 0.201100 0.265314 0.634531
O O4 0.155787 0.254977 0.399859
O O5 0.725482 0.500000 0.741692
O O6 0.705694 0.266277 0.851519
O O7 0.785911 0.275922 0.803974
O O8 0.167692 0.500000 0.868637
O O9 0.113597 0.280239 0.746877
O O10 0.150837 0.272279 0.982415
O O11 0.845702 0.500000 0.878921
O O12 0.877090 0.759360 0.828301
O O13 0.618796 0.500000 0.294864
O O14 0.562820 0.277200 0.296860
O O15 0.518234 0.767656 0.653452
O O16 0.563924 0.732048 0.513477
O O17 0.565851 0.000000 0.612451
O O18 0.475071 0.500000 0.624565
#
# Coordination Sequence:
#
# PCOD9199410 Si02
#       7
#     8   8   8   8   8   8   8
#     4  12  23  36  56  82 115 150 185 231 280 331
#     4  11  22  36  57  85 113 151 195 234 283 336
#     4  10  22  39  58  83 113 150 194 237 282 336
#     4  10  22  39  57  79 114 155 194 235 279 333
#     4  11  23  38  58  85 115 151 192 231 283 342
#     4  10  20  36  60  87 112 142 185 232 283 339
#     4  10  21  37  59  86 115 144 180 230 286 342
#
# _framework density 19.079274000000002
#
# number of rings (size 3 to 8) (size 9 to 14) (size 15 to 20)
#    0.000    1.429    1.429    5.143    0.000    6.857 
#    0.000    0.714    0.000    4.286    0.000    0.000 
#    0.000    0.000    0.000    0.000    0.000    0.000 
#
# Total GULP energy -156548.001435 kJ/mol
# GULP energy per Si atom -5591.000051 kJ/mol
# Density = 1.903585 g / cm^3
# Si number density = 19.079274 Si / 1000 Ang^3
#
#
#
# Elastic Constant Matrix: (Units=GPa)
#
#
# Indices 1 2 3 4 5 6 
#
# 1 81.0629 20.9182 23.5086 0.0000 -33.3281 0.0000
# 2 20.9182 35.9159 13.5051 0.0000 -10.3744 0.0000
# 3 23.5086 13.5051 59.0656 0.0000 -26.2848 0.0000
# 4 0.0000 0.0000 0.0000 26.1686 0.0000 -11.4008
# 5 -33.3281 -10.3744 -26.2848 0.0000 33.7042 0.0000
# 6 0.0000 0.0000 0.0000 -11.4008 0.0000 23.7262
#
#
#
# Elastic Compliance Matrix: (Units=1/GPa)
#
#
# Indices 1 2 3 4 5 6 
#
# 1 0.022647 -0.007800 0.002553 0.000000 0.021985 0.000000
# 2 -0.007800 0.033973 -0.005272 0.000000 -0.001367 0.000000
# 3 0.002553 -0.005272 0.026833 0.000000 0.021828 0.000000
# 4 0.000000 0.000000 0.000000 0.048332 0.000000 0.023224
# 5 0.021985 -0.001367 0.021828 0.000000 0.068012 0.000000
# 6 0.000000 0.000000 0.000000 0.023224 0.000000 0.053307
#
#
# Mechanical properties :
#
#
# Convention : Reuss Voigt Hill
#
# Bulk Modulus (GPa) = 16.02133 32.43424 24.22779
# Shear Modulus (GPa) = 16.95222 24.59397 20.77310
#
# Velocity S-wave (km/s) = 2.98403 3.59422 3.30324
# Velocity P-wave (km/s) = 4.50423 5.85330 5.22251
#
# Compressibility (1/GPa) = 0.06241678
#
# Stress axis : x y z
#
# Youngs Moduli (GPa) = 44.15556 29.43504 37.26697
#
# Poissons Ratio (x) = 0.22959 -0.09514
# Poissons Ratio (y) = 0.34441 0.19646
# Poissons Ratio (z) = -0.11273 0.15517
#
# Static dielectric constant tensor:
#      x y z
#    x 1.663600 0.000000 -0.019120 
#    y 0.000000 1.636110 0.000000 
#    z -0.019120 0.000000 1.661330 
# 
# From -- ./inp_files/186824.got.cif
#   From: 2010.05.17/outbox.cif.g08.bks.cpg/sg12_94_cif.got.tgz:186824.got - 2010.06.03 13:09:07.
