data_PCOD9199174
_publ_section_title
;
Structure prediction by ZEFSAII (Michael W. Deem and Ramdas Pophale) SiO2 
 PCOD9199174
Probable space group: C 2/M
;
_chemical_formula_sum "Si O2"
_cell_formula_units_Z 64
_cell_length_a 29.798988
_cell_length_b 8.083728
_cell_length_c 20.350901
_cell_angle_alpha 90.000000
_cell_angle_beta 147.048581
_cell_angle_gamma 90.000000
_cell_volume 2666.478281
_symmetry_space_group_name_H-M "C 2/M"
_symmetry_group_IT_number 12
_symmetry_cell_setting 'monoclinic'
loop_
_space_group_symop_operation_xyz
x,y,z
-x,y,-z
-x,-y,-z
x,-y,z
1/2+x,1/2+y,z
1/2-x,1/2+y,-z
1/2-x,1/2-y,-z
1/2+x,1/2-y,z
loop_
_atom_site_type_symbol
_atom_site_label
_atom_site_fract_x
_atom_site_fract_y
_atom_site_fract_z
Si Si1 0.907234 0.702483 0.608449
Si Si2 0.380178 0.686223 0.292483
Si Si3 0.133366 0.307821 0.303197
Si Si4 0.047366 0.198588 0.956703
Si Si5 0.798805 0.189614 0.951746
Si Si6 0.327821 0.304073 0.787885
Si Si7 0.588545 0.191205 0.806211
Si Si8 0.848906 0.299850 0.393409
O O1 0.904929 0.500000 0.606538
O O2 0.857525 0.760181 0.611554
O O3 0.879561 0.755834 0.502435
O O4 0.002774 0.752268 0.731291
O O5 0.407883 0.500000 0.315876
O O6 0.281308 0.702483 0.160126
O O7 0.417533 0.794474 0.279749
O O8 0.395314 0.738434 0.386001
O O9 0.155537 0.500000 0.330191
O O10 0.178238 0.224420 0.297081
O O11 0.035928 0.287622 0.166698
O O12 0.028792 0.000000 0.936849
O O13 0.122770 0.223992 0.998507
O O14 0.088091 0.256901 0.075470
O O15 0.772743 0.000000 0.908013
O O16 0.835694 0.210095 0.069910
O O17 0.329358 0.500000 0.800743
O O18 0.246460 0.242187 0.724618
O O19 0.600457 0.000000 0.838833
O O20 0.850983 0.500000 0.394889
#
# Coordination Sequence:
#
# PCOD9199174 Si02
#       8
#     8   8   8   8   8   8   8   8
#     4   9  21  40  63  87 116 156 203 249 294 349
#     4  12  25  40  60  91 124 155 194 247 302 355
#     4  11  22  37  58  90 123 155 195 243 297 351
#     4  10  20  36  59  87 118 155 196 239 293 357
#     4  11  21  38  63  91 120 158 197 241 298 356
#     4  10  21  38  60  87 117 155 199 243 294 355
#     4  11  22  40  63  90 122 159 199 242 295 356
#     4  10  21  43  66  84 113 159 207 247 292 354
#
# _framework density 24.001695999999999
#
# number of rings (size 3 to 8) (size 9 to 14) (size 15 to 20)
#    0.000    1.500    2.500    3.000    0.000    4.000 
#    0.000    5.000    0.000    0.000    0.000    0.000 
#    0.000    0.000    0.000    0.000    0.000    0.000 
#
# Total GULP energy -178987.135132 kJ/mol
# GULP energy per Si atom -5593.347973 kJ/mol
# Density = 2.394707 g / cm^3
# Si number density = 24.001696 Si / 1000 Ang^3
#
#
#
# Elastic Constant Matrix: (Units=GPa)
#
#
# Indices 1 2 3 4 5 6 
#
# 1 93.8889 -9.8128 6.3070 0.0000 -26.9973 0.0000
# 2 -9.8128 25.6170 -5.1580 0.0000 2.6160 0.0000
# 3 6.3070 -5.1580 73.5334 0.0000 -32.0805 0.0000
# 4 0.0000 0.0000 0.0000 18.8535 0.0000 -6.5697
# 5 -26.9973 2.6160 -32.0805 0.0000 43.5373 0.0000
# 6 0.0000 0.0000 0.0000 -6.5697 0.0000 22.7333
#
#
#
# Elastic Compliance Matrix: (Units=1/GPa)
#
#
# Indices 1 2 3 4 5 6 
#
# 1 0.014247 0.005118 0.004211 0.000000 0.011630 0.000000
# 2 0.005118 0.041441 0.004077 0.000000 0.003687 0.000000
# 3 0.004211 0.004077 0.021453 0.000000 0.018173 0.000000
# 4 0.000000 0.000000 0.000000 0.058980 0.000000 0.017044
# 5 0.011630 0.003687 0.018173 0.000000 0.043350 0.000000
# 6 0.000000 0.000000 0.000000 0.017044 0.000000 0.048914
#
#
# Mechanical properties :
#
#
# Convention : Reuss Voigt Hill
#
# Bulk Modulus (GPa) = 9.61994 19.52350 14.57172
# Shear Modulus (GPa) = 21.16627 30.47169 25.81898
#
# Velocity S-wave (km/s) = 2.97284 3.56696 3.28337
# Velocity P-wave (km/s) = 3.97498 5.01160 4.52309
#
# Compressibility (1/GPa) = 0.10395072
#
# Stress axis : x y z
#
# Youngs Moduli (GPa) = 70.19049 24.13051 46.61434
#
# Poissons Ratio (x) = -0.12349 -0.19628
# Poissons Ratio (y) = -0.35921 -0.19003
# Poissons Ratio (z) = -0.29555 -0.09837
#
# Static dielectric constant tensor:
#      x y z
#    x 1.924730 0.000000 -0.028860 
#    y 0.000000 1.837540 0.000000 
#    z -0.028860 0.000000 1.966020 
# 
# From -- ./inp_files/295793.got.cif
#   From: 2010.05.17/outbox.cif.g08.bks.cpg/sg12_148_cif.got.tgz:295793.got - 2010.06.03 13:09:07.
