data_PCOD9199296
_publ_section_title
;
Structure prediction by ZEFSAII (Michael W. Deem and Ramdas Pophale) SiO2 
 PCOD9199296
Probable space group: C 2/M
;
_chemical_formula_sum "Si O2"
_cell_formula_units_Z 56
_cell_length_a 26.126871
_cell_length_b 15.191700
_cell_length_c 11.723849
_cell_angle_alpha 90.000000
_cell_angle_beta 141.712768
_cell_angle_gamma 90.000000
_cell_volume 2883.223436
_symmetry_space_group_name_H-M "C 2/M"
_symmetry_group_IT_number 12
_symmetry_cell_setting 'monoclinic'
loop_
_space_group_symop_operation_xyz
x,y,z
-x,y,-z
-x,-y,-z
x,-y,z
1/2+x,1/2+y,z
1/2-x,1/2+y,-z
1/2-x,1/2-y,-z
1/2+x,1/2-y,z
loop_
_atom_site_type_symbol
_atom_site_label
_atom_site_fract_x
_atom_site_fract_y
_atom_site_fract_z
Si Si1 0.884684 0.686353 0.068098
Si Si2 0.855851 0.098319 0.660335
Si Si3 0.914342 0.736488 0.876245
Si Si4 0.094535 0.234468 0.655972
Si Si5 0.679233 0.098415 0.424674
Si Si6 0.060084 0.398370 0.433892
Si Si7 0.208163 0.102894 0.710973
O O1 0.872712 0.743147 0.161079
O O2 0.967498 0.628224 0.232660
O O3 0.902194 0.746808 0.988740
O O4 0.803219 0.630237 0.897581
O O5 0.914954 0.175371 0.803107
O O6 0.777651 0.102876 0.609860
O O7 0.820127 0.113082 0.470639
O O8 0.891063 0.000000 0.725697
O O9 0.844251 0.674286 0.703402
O O10 0.000000 0.687808 0.000000
O O11 0.086984 0.327209 0.574934
O O12 0.151325 0.166755 0.687291
O O13 0.000000 0.200951 0.500000
O O14 0.624578 0.109499 0.441931
O O15 0.661921 0.000000 0.347740
O O16 0.061147 0.500000 0.474827
O O17 0.197492 0.000000 0.721217
#
# Coordination Sequence:
#
# PCOD9199296 Si02
#       7
#     8   8   8   8   8   8   8
#     4  11  23  38  60  92 123 155 197 243 295 360
#     4  10  23  40  61  89 119 158 203 242 291 354
#     4  12  23  37  63  89 124 159 188 243 306 349
#     4  10  24  42  61  87 121 155 206 248 292 351
#     4  10  20  36  59  92 122 152 193 240 297 360
#     4  10  21  38  63  91 125 159 190 242 300 356
#     4  11  23  41  65  86 117 160 203 249 293 345
#
# _framework density 19.422706999999999
#
# number of rings (size 3 to 8) (size 9 to 14) (size 15 to 20)
#    0.000    1.429    2.857    2.143    4.000    4.571 
#    0.000    0.714    0.000    0.000    0.000    0.000 
#    0.000    0.000    0.000    0.000    0.000    0.000 
#
# Total GULP energy -156328.283549 kJ/mol
# GULP energy per Si atom -5583.152984 kJ/mol
# Density = 1.937850 g / cm^3
# Si number density = 19.422707 Si / 1000 Ang^3
#
#
#
# Elastic Constant Matrix: (Units=GPa)
#
#
# Indices 1 2 3 4 5 6 
#
# 1 91.2993 31.4877 15.7183 0.0000 -10.3228 0.0000
# 2 31.4877 71.6746 30.4708 0.0000 -18.2515 0.0000
# 3 15.7183 30.4708 57.1986 0.0000 -19.2969 0.0000
# 4 0.0000 0.0000 0.0000 -28.5512 0.0000 24.0747
# 5 -10.3228 -18.2515 -19.2969 0.0000 26.7451 0.0000
# 6 0.0000 0.0000 0.0000 24.0747 0.0000 10.9972
#
#
#
# Elastic Compliance Matrix: (Units=1/GPa)
#
#
# Indices 1 2 3 4 5 6 
#
# 1 0.012955 -0.005235 -0.000383 0.000000 0.001151 0.000000
# 2 -0.005235 0.021236 -0.007490 0.000000 0.007067 0.000000
# 3 -0.000383 -0.007490 0.026175 0.000000 0.013627 0.000000
# 4 0.000000 0.000000 0.000000 -0.012307 0.000000 0.026942
# 5 0.001151 0.007067 0.013627 0.000000 0.052489 0.000000
# 6 0.000000 0.000000 0.000000 0.026942 0.000000 0.031952
#
#
# Mechanical properties :
#
#
# Convention : Reuss Voigt Hill
#
# Bulk Modulus (GPa) = 29.28240 41.72512 35.50376
# Shear Modulus (GPa) = 29.39484 11.33794 20.36639
#
# Velocity S-wave (km/s) = 3.89450 2.41871 3.24170
# Velocity P-wave (km/s) = 5.94407 5.41567 5.68601
#
# Compressibility (1/GPa) = 0.03415020
#
# Stress axis : x y z
#
# Youngs Moduli (GPa) = 77.19264 47.09089 38.20402
#
# Poissons Ratio (x) = 0.24654 0.01462
# Poissons Ratio (y) = 0.40413 0.28614
# Poissons Ratio (z) = 0.02953 0.35270
#
# Static dielectric constant tensor:
#      x y z
#    x 1.689730 0.000000 0.006250 
#    y 0.000000 1.675800 0.000000 
#    z 0.006250 0.000000 1.660280 
# 
# From -- ./inp_files/183561.got.cif
#   From: 2010.05.17/outbox.cif.g08.bks.cpg/sg12_92_cif.got.tgz:183561.got - 2010.06.03 13:09:07.
