data_PCOD9199558
_publ_section_title
;
Structure prediction by ZEFSAII (Michael W. Deem and Ramdas Pophale) SiO2 
 PCOD9199558
Probable space group: C 2/M
;
_chemical_formula_sum "Si O2"
_cell_formula_units_Z 64
_cell_length_a 28.826743
_cell_length_b 8.958788
_cell_length_c 24.960433
_cell_angle_alpha 90.000000
_cell_angle_beta 150.136950
_cell_angle_gamma 90.000000
_cell_volume 3209.696740
_symmetry_space_group_name_H-M "C 2/M"
_symmetry_group_IT_number 12
_symmetry_cell_setting 'monoclinic'
loop_
_space_group_symop_operation_xyz
x,y,z
-x,y,-z
-x,-y,-z
x,-y,z
1/2+x,1/2+y,z
1/2-x,1/2+y,-z
1/2-x,1/2-y,-z
1/2+x,1/2-y,z
loop_
_atom_site_type_symbol
_atom_site_label
_atom_site_fract_x
_atom_site_fract_y
_atom_site_fract_z
Si Si1 0.110976 0.331984 0.611501
Si Si2 0.768212 0.175676 0.849031
Si Si3 0.666966 0.323453 0.290286
Si Si4 0.288623 0.179943 0.092749
Si Si5 0.003315 0.323684 0.329405
Si Si6 0.109778 0.674359 0.121220
Si Si7 0.645026 0.327598 0.542112
Si Si8 0.652181 0.176775 0.383867
O O1 0.137284 0.500000 0.618119
O O2 0.162962 0.314634 0.719841
O O3 0.146956 0.207966 0.606876
O O4 0.000000 0.325405 0.500000
O O5 0.765696 0.228977 0.907712
O O6 0.833705 0.259862 0.872615
O O7 0.793435 0.000000 0.873658
O O8 0.656563 0.500000 0.281827
O O9 0.632920 0.260343 0.199329
O O10 0.775173 0.275776 0.402835
O O11 0.621467 0.247047 0.296495
O O12 0.397787 0.215887 0.209571
O O13 0.281608 0.000000 0.083096
O O14 0.250000 0.250000 0.000000
O O15 0.006155 0.500000 0.346876
O O16 0.046944 0.226385 0.420518
O O17 0.072217 0.300237 0.348050
O O18 0.133367 0.500000 0.152012
O O19 0.000000 0.687212 0.000000
O O20 0.662611 0.500000 0.548187
O O21 0.750000 0.250000 0.500000
O O22 0.666921 0.000000 0.392498
#
# Coordination Sequence:
#
# PCOD9199558 Si02
#       8
#     8   8   8   8   8   8   8   8
#     4  10  20  36  60  89 124 167 207 247 308 380
#     4  10  21  39  65  93 124 164 208 254 307 373
#     4  12  24  40  62  88 124 168 210 256 316 378
#     4  10  23  44  67  93 124 165 212 260 310 370
#     4  10  22  41  64  89 124 170 213 253 315 385
#     4  11  25  44  66  93 126 164 209 263 319 375
#     4  12  23  35  58  91 127 160 203 261 315 370
#     4  11  22  37  61  92 128 169 213 261 315 377
#
# _framework density 19.939578999999998
#
# number of rings (size 3 to 8) (size 9 to 14) (size 15 to 20)
#    0.000    1.250    2.500    3.750    0.000    5.750 
#    0.000    5.000    0.000    0.000    0.000    0.000 
#    0.000    0.000    0.000    0.000    0.000    0.000 
#
# Total GULP energy -178871.748335 kJ/mol
# GULP energy per Si atom -5589.742135 kJ/mol
# Density = 1.989420 g / cm^3
# Si number density = 19.939579 Si / 1000 Ang^3
#
#
#
# Elastic Constant Matrix: (Units=GPa)
#
#
# Indices 1 2 3 4 5 6 
#
# 1 102.5789 53.3870 40.4546 0.0000 -25.2651 0.0000
# 2 53.3870 92.6547 38.4174 0.0000 -11.3415 0.0000
# 3 40.4546 38.4174 86.5101 0.0000 -17.4472 0.0000
# 4 0.0000 0.0000 0.0000 33.5187 0.0000 -5.5360
# 5 -25.2651 -11.3415 -17.4472 0.0000 35.2177 0.0000
# 6 0.0000 0.0000 0.0000 -5.5360 0.0000 29.4226
#
#
#
# Elastic Compliance Matrix: (Units=1/GPa)
#
#
# Indices 1 2 3 4 5 6 
#
# 1 0.016801 -0.007482 -0.002877 0.000000 0.008219 0.000000
# 2 -0.007482 0.016632 -0.004321 0.000000 -0.002152 0.000000
# 3 -0.002877 -0.004321 0.015695 0.000000 0.004320 0.000000
# 4 0.000000 0.000000 0.000000 0.030791 0.000000 0.005794
# 5 0.008219 -0.002152 0.004320 0.000000 0.035738 0.000000
# 6 0.000000 0.000000 0.000000 0.005794 0.000000 0.035078
#
#
# Mechanical properties :
#
#
# Convention : Reuss Voigt Hill
#
# Bulk Modulus (GPa) = 50.58575 60.69573 55.64074
# Shear Modulus (GPa) = 26.78322 29.59743 28.19032
#
# Velocity S-wave (km/s) = 3.66897 3.85691 3.76412
# Velocity P-wave (km/s) = 6.58582 7.09509 6.84519
#
# Compressibility (1/GPa) = 0.01976841
#
# Stress axis : x y z
#
# Youngs Moduli (GPa) = 59.51914 60.12455 63.71550
#
# Poissons Ratio (x) = 0.44986 0.18329
# Poissons Ratio (y) = 0.44533 0.27533
# Poissons Ratio (z) = 0.17121 0.25981
#
# Static dielectric constant tensor:
#      x y z
#    x 1.728260 0.000000 -0.002250 
#    y 0.000000 1.675670 0.000000 
#    z -0.002250 0.000000 1.705050 
# 
# From -- ./inp_files/353537.got.cif
#   From: 2010.05.17/outbox.cif.g08.bks.cpg/sg12_177_cif.got.tgz:353537.got - 2010.06.03 13:09:07.
