data_PCOD9199460
_publ_section_title
;
Structure prediction by ZEFSAII (Michael W. Deem and Ramdas Pophale) SiO2 
 PCOD9199460
Probable space group: C 2/M
;
_chemical_formula_sum "Si O2"
_cell_formula_units_Z 24
_cell_length_a 22.953761
_cell_length_b 7.572680
_cell_length_c 9.490286
_cell_angle_alpha 90.000000
_cell_angle_beta 57.950370
_cell_angle_gamma 90.000000
_cell_volume 1398.195658
_symmetry_space_group_name_H-M "C 2/M"
_symmetry_group_IT_number 12
_symmetry_cell_setting 'monoclinic'
loop_
_space_group_symop_operation_xyz
x,y,z
-x,y,-z
-x,-y,-z
x,-y,z
1/2+x,1/2+y,z
1/2-x,1/2+y,-z
1/2-x,1/2-y,-z
1/2+x,1/2-y,z
loop_
_atom_site_type_symbol
_atom_site_label
_atom_site_fract_x
_atom_site_fract_y
_atom_site_fract_z
Si Si1 0.598314 0.500000 0.496083
Si Si2 0.330255 0.792452 0.411301
Si Si3 0.063218 0.000000 0.220675
Si Si4 0.073912 0.291864 0.977179
O O1 0.635475 0.669997 0.514801
O O2 0.598961 0.500000 0.326511
O O3 0.518805 0.500000 0.646422
O O4 0.250000 0.750000 0.500000
O O5 0.368830 0.753978 0.214318
O O6 0.340077 0.000000 0.428591
O O7 0.081267 0.169958 0.103462
O O8 0.075945 0.500000 0.009299
O O9 0.000000 0.254671 0.000000
#
# Coordination Sequence:
#
# PCOD9199460 Si02
#       4
#     4   8   4   8
#     4  11  23  38  57  94 116 154 192 235 302 339
#     4  11  22  38  63  85 114 152 201 243 283 345
#     4  11  22  37  62  85 126 150 186 244 293 352
#     4  10  20  36  60  88 111 152 202 239 283 339
#
# _framework density 17.164978999999999
#
# number of rings (size 3 to 8) (size 9 to 14) (size 15 to 20)
#    0.000    1.333    5.000    1.500    0.000    1.333 
#    0.000    5.000    0.000    0.000    0.000    0.000 
#    0.000    0.000    0.000    0.000    0.000    0.000 
#
# Total GULP energy -67041.033400 kJ/mol
# GULP energy per Si atom -5586.752783 kJ/mol
# Density = 1.712591 g / cm^3
# Si number density = 17.164979 Si / 1000 Ang^3
#
#
#
# Elastic Constant Matrix: (Units=GPa)
#
#
# Indices 1 2 3 4 5 6 
#
# 1 120.5065 76.8968 89.5315 0.0000 17.6745 0.0000
# 2 76.8968 121.3405 83.3191 0.0000 32.5216 0.0000
# 3 89.5315 83.3191 151.7666 0.0000 11.3041 0.0000
# 4 0.0000 0.0000 0.0000 21.6517 0.0000 -13.6166
# 5 17.6745 32.5216 11.3041 0.0000 41.2359 0.0000
# 6 0.0000 0.0000 0.0000 -13.6166 0.0000 0.9958
#
#
#
# Elastic Compliance Matrix: (Units=1/GPa)
#
#
# Indices 1 2 3 4 5 6 
#
# 1 0.017407 -0.006127 -0.006849 0.000000 -0.000751 0.000000
# 2 -0.006127 0.019264 -0.006151 0.000000 -0.010881 0.000000
# 3 -0.006849 -0.006151 0.013706 0.000000 0.004029 0.000000
# 4 0.000000 0.000000 0.000000 -0.006077 0.000000 -0.083103
# 5 -0.000751 -0.010881 0.004029 0.000000 0.032049 0.000000
# 6 0.000000 0.000000 0.000000 -0.083103 0.000000 -0.132142
#
#
# Mechanical properties :
#
#
# Convention : Reuss Voigt Hill
#
# Bulk Modulus (GPa) = 82.48775 99.23427 90.86101
# Shear Modulus (GPa) = -370.41775 22.36775 -174.02500
#
# Velocity S-wave (km/s) = -14.70602 3.61377 -10.07987
# Velocity P-wave (km/s) = 15.49825 8.68044 9.07871
#
# Compressibility (1/GPa) = 0.01212301
#
# Stress axis : x y z
#
# Youngs Moduli (GPa) = 57.44892 51.91116 72.95887
#
# Poissons Ratio (x) = 0.31804 0.49972
# Poissons Ratio (y) = 0.35197 0.44876
# Poissons Ratio (z) = 0.39348 0.31930
#
# Static dielectric constant tensor:
#      x y z
#    x 1.542660 0.000000 -0.014950 
#    y 0.000000 1.588250 0.000000 
#    z -0.014950 0.000000 1.566420 
# 
# From -- ./inp_files/69323.got.cif
#   From: 2010.05.17/outbox.cif.g08.bks.cpg/sg12_35_cif.got.tgz:69323.got - 2010.06.03 13:09:07.
