data_PCOD9199329
_publ_section_title
;
Structure prediction by ZEFSAII (Michael W. Deem and Ramdas Pophale) SiO2 
 PCOD9199329
Probable space group: C 2/M
;
_chemical_formula_sum "Si O2"
_cell_formula_units_Z 56
_cell_length_a 9.541394
_cell_length_b 23.291399
_cell_length_c 17.010154
_cell_angle_alpha 90.000000
_cell_angle_beta 46.838441
_cell_angle_gamma 90.000000
_cell_volume 2757.388288
_symmetry_space_group_name_H-M "C 2/M"
_symmetry_group_IT_number 12
_symmetry_cell_setting 'monoclinic'
loop_
_space_group_symop_operation_xyz
x,y,z
-x,y,-z
-x,-y,-z
x,-y,z
1/2+x,1/2+y,z
1/2-x,1/2+y,-z
1/2-x,1/2-y,-z
1/2+x,1/2-y,z
loop_
_atom_site_type_symbol
_atom_site_label
_atom_site_fract_x
_atom_site_fract_y
_atom_site_fract_z
Si Si1 0.791863 0.804306 0.540599
Si Si2 0.664860 0.931016 0.999887
Si Si3 0.226153 0.630961 0.415834
Si Si4 0.849410 0.744217 0.118268
Si Si5 0.098839 0.932722 0.786619
Si Si6 0.216182 0.875355 0.893102
Si Si7 0.563580 0.263338 0.738502
O O1 0.750000 0.750000 0.500000
O O2 0.781344 0.857461 0.485142
O O3 0.630861 0.794962 0.669235
O O4 0.000000 0.800488 0.500000
O O5 0.875826 0.915475 0.884740
O O6 0.662441 0.000000 0.014035
O O7 0.500000 0.917817 0.000000
O O8 0.648313 0.899412 0.090409
O O9 0.335660 0.581956 0.326303
O O10 0.282237 0.688454 0.344726
O O11 0.000000 0.622216 0.500000
O O12 0.790984 0.806605 0.105671
O O13 0.644265 0.714856 0.209517
O O14 0.942402 0.755260 0.166512
O O15 0.000000 0.717460 0.000000
O O16 0.232204 0.899406 0.798728
O O17 0.114027 0.000000 0.797175
O O18 0.000000 0.895233 0.000000
#
# Coordination Sequence:
#
# PCOD9199329 Si02
#       7
#     8   8   8   8   8   8   8
#     4  10  20  36  60  84 106 147 202 251 290 338
#     4   9  18  36  61  89 122 156 195 237 286 359
#     4  11  22  39  61  83 114 149 205 255 293 346
#     4  11  22  36  54  85 123 156 188 239 288 352
#     4  10  20  37  63  89 119 155 192 246 302 349
#     4   9  18  35  57  86 119 158 200 235 286 350
#     4  11  20  38  57  79 112 157 194 235 290 344
#
# _framework density 20.309073999999999
#
# number of rings (size 3 to 8) (size 9 to 14) (size 15 to 20)
#    0.000    1.857    1.429    5.143    0.000    2.000 
#    5.143    0.000    0.000    0.429    0.000    0.000 
#    0.000    0.000    0.000    0.000    0.000    0.000 
#
# Total GULP energy -156305.251765 kJ/mol
# GULP energy per Si atom -5582.330420 kJ/mol
# Density = 2.026285 g / cm^3
# Si number density = 20.309074 Si / 1000 Ang^3
#
#
#
# Elastic Constant Matrix: (Units=GPa)
#
#
# Indices 1 2 3 4 5 6 
#
# 1 126.6906 18.1365 18.1349 0.0000 2.7584 0.0000
# 2 18.1365 47.9316 8.2224 0.0000 7.2349 0.0000
# 3 18.1349 8.2224 81.8953 0.0000 -3.5830 0.0000
# 4 0.0000 0.0000 0.0000 27.6432 0.0000 8.9505
# 5 2.7584 7.2349 -3.5830 0.0000 29.2095 0.0000
# 6 0.0000 0.0000 0.0000 8.9505 0.0000 21.8384
#
#
#
# Elastic Compliance Matrix: (Units=1/GPa)
#
#
# Indices 1 2 3 4 5 6 
#
# 1 0.008548 -0.002915 -0.001612 0.000000 -0.000283 0.000000
# 2 -0.002915 0.023157 -0.001929 0.000000 -0.005697 0.000000
# 3 -0.001612 -0.001929 0.012858 0.000000 0.002207 0.000000
# 4 0.000000 0.000000 0.000000 0.041710 0.000000 -0.017095
# 5 -0.000283 -0.005697 0.002207 0.000000 0.035944 0.000000
# 6 0.000000 0.000000 0.000000 -0.017095 0.000000 0.052797
#
#
# Mechanical properties :
#
#
# Convention : Reuss Voigt Hill
#
# Bulk Modulus (GPa) = 31.59554 38.38947 34.99250
# Shear Modulus (GPa) = 25.19192 29.87314 27.53253
#
# Velocity S-wave (km/s) = 3.52579 3.83943 3.68595
# Velocity P-wave (km/s) = 5.67151 6.21277 5.94830
#
# Compressibility (1/GPa) = 0.03165004
#
# Stress axis : x y z
#
# Youngs Moduli (GPa) = 116.99320 43.18383 77.77261
#
# Poissons Ratio (x) = 0.12588 0.12541
# Poissons Ratio (y) = 0.34102 0.15000
# Poissons Ratio (z) = 0.18865 0.08329
#
# Static dielectric constant tensor:
#      x y z
#    x 1.729830 0.000000 0.008460 
#    y 0.000000 1.757890 0.000000 
#    z 0.008460 0.000000 1.779880 
# 
# From -- ./inp_files/259143.got.cif
#   From: 2010.05.17/outbox.cif.g08.bks.cpg/sg12_130_cif.got.tgz:259143.got - 2010.06.03 13:09:07.
