data_PCOD9199225
_publ_section_title
;
Structure prediction by ZEFSAII (Michael W. Deem and Ramdas Pophale) SiO2 
 PCOD9199225
Probable space group: C 2/M
;
_chemical_formula_sum "Si O2"
_cell_formula_units_Z 56
_cell_length_a 28.905185
_cell_length_b 17.498029
_cell_length_c 9.784413
_cell_angle_alpha 90.000000
_cell_angle_beta 141.256561
_cell_angle_gamma 90.000000
_cell_volume 3097.126383
_symmetry_space_group_name_H-M "C 2/M"
_symmetry_group_IT_number 12
_symmetry_cell_setting 'monoclinic'
loop_
_space_group_symop_operation_xyz
x,y,z
-x,y,-z
-x,-y,-z
x,-y,z
1/2+x,1/2+y,z
1/2-x,1/2+y,-z
1/2-x,1/2-y,-z
1/2+x,1/2-y,z
loop_
_atom_site_type_symbol
_atom_site_label
_atom_site_fract_x
_atom_site_fract_y
_atom_site_fract_z
Si Si1 0.156633 0.173387 0.129797
Si Si2 0.889476 0.806407 0.477328
Si Si3 0.323169 0.225509 0.087110
Si Si4 0.706134 0.089279 0.410916
Si Si5 0.911478 0.715635 0.799060
Si Si6 0.518716 0.587548 0.704447
Si Si7 0.745340 0.088247 0.179838
O O1 0.227381 0.131092 0.355492
O O2 0.114628 0.221304 0.150242
O O3 0.178248 0.233016 0.061649
O O4 0.101045 0.113507 0.931233
O O5 0.886984 0.758907 0.330130
O O6 0.885587 0.748065 0.593237
O O7 0.821598 0.866216 0.329252
O O8 0.963457 0.855781 0.653851
O O9 0.250000 0.250000 0.000000
O O10 0.316966 0.135524 0.045856
O O11 0.632224 0.137911 0.267751
O O12 0.726364 0.092174 0.296678
O O13 0.699835 0.000000 0.434949
O O14 0.000000 0.706879 0.000000
O O15 0.500000 0.593082 0.500000
O O16 0.506721 0.500000 0.718176
O O17 0.751467 0.000000 0.153297
#
# Coordination Sequence:
#
# PCOD9199225 Si02
#       7
#     8   8   8   8   8   8   8
#     4  12  21  41  62  91 121 159 205 247 301 365
#     4  11  21  39  57  89 122 161 198 246 301 364
#     4  10  21  36  60  86 117 158 204 249 294 361
#     4  11  23  39  62  90 122 157 202 258 302 349
#     4  12  24  40  64  90 123 163 206 246 301 369
#     4  11  23  38  58  91 129 160 194 243 309 366
#     4  10  20  36  59  88 120 156 201 251 303 353
#
# _framework density 18.081278000000001
#
# number of rings (size 3 to 8) (size 9 to 14) (size 15 to 20)
#    0.000    1.000    5.714    3.000    0.000    0.286 
#    0.000    5.000    0.000    0.000    0.000    3.000 
#    0.000    0.000    0.000    0.000    0.000    0.000 
#
# Total GULP energy -156338.928290 kJ/mol
# GULP energy per Si atom -5583.533153 kJ/mol
# Density = 1.804012 g / cm^3
# Si number density = 18.081278 Si / 1000 Ang^3
#
#
#
# Elastic Constant Matrix: (Units=GPa)
#
#
# Indices 1 2 3 4 5 6 
#
# 1 46.0407 28.5817 24.4396 0.0000 -1.8262 0.0000
# 2 28.5817 127.5406 61.3830 0.0000 2.1972 0.0000
# 3 24.4396 61.3830 84.3106 0.0000 5.0467 0.0000
# 4 0.0000 0.0000 0.0000 20.0765 0.0000 -2.2646
# 5 -1.8262 2.1972 5.0467 0.0000 30.2424 0.0000
# 6 0.0000 0.0000 0.0000 -2.2646 0.0000 26.8037
#
#
#
# Elastic Compliance Matrix: (Units=1/GPa)
#
#
# Indices 1 2 3 4 5 6 
#
# 1 0.026859 -0.003448 -0.005442 0.000000 0.002781 0.000000
# 2 -0.003448 0.012523 -0.008132 0.000000 0.000239 0.000000
# 3 -0.005442 -0.008132 0.019539 0.000000 -0.002998 0.000000
# 4 0.000000 0.000000 0.000000 0.050289 0.000000 0.004249
# 5 0.002781 0.000239 -0.002998 0.000000 0.033717 0.000000
# 6 0.000000 0.000000 0.000000 0.004249 0.000000 0.037667
#
#
# Mechanical properties :
#
#
# Convention : Reuss Voigt Hill
#
# Bulk Modulus (GPa) = 40.19848 54.07783 47.13816
# Shear Modulus (GPa) = 22.42841 24.99036 23.70939
#
# Velocity S-wave (km/s) = 3.52578 3.72171 3.62507
# Velocity P-wave (km/s) = 6.23340 6.95998 6.60668
#
# Compressibility (1/GPa) = 0.02487656
#
# Stress axis : x y z
#
# Youngs Moduli (GPa) = 37.23092 79.85178 51.18015
#
# Poissons Ratio (x) = 0.27532 0.27853
# Poissons Ratio (y) = 0.12837 0.41622
# Poissons Ratio (z) = 0.20261 0.64939
#
# Static dielectric constant tensor:
#      x y z
#    x 1.620340 0.000000 0.006180 
#    y 0.000000 1.612710 0.000000 
#    z 0.006180 0.000000 1.673460 
# 
# From -- ./inp_files/106039.got.cif
#   From: 2010.05.17/outbox.cif.g08.bks.cpg/sg12_54_cif.got.tgz:106039.got - 2010.06.03 13:09:07.
