data_PCOD9199820
_publ_section_title
;
Structure prediction by ZEFSAII (Michael W. Deem and Ramdas Pophale) SiO2 
 PCOD9199820
Probable space group: C 2/M
;
_chemical_formula_sum "Si O2"
_cell_formula_units_Z 64
_cell_length_a 8.396843
_cell_length_b 31.450253
_cell_length_c 18.396917
_cell_angle_alpha 90.000000
_cell_angle_beta 139.104278
_cell_angle_gamma 90.000000
_cell_volume 3180.659669
_symmetry_space_group_name_H-M "C 2/M"
_symmetry_group_IT_number 12
_symmetry_cell_setting 'monoclinic'
loop_
_space_group_symop_operation_xyz
x,y,z
-x,y,-z
-x,-y,-z
x,-y,z
1/2+x,1/2+y,z
1/2-x,1/2+y,-z
1/2-x,1/2-y,-z
1/2+x,1/2-y,z
loop_
_atom_site_type_symbol
_atom_site_label
_atom_site_fract_x
_atom_site_fract_y
_atom_site_fract_z
Si Si1 0.379855 0.298268 0.880284
Si Si2 0.546817 0.379699 0.596654
Si Si3 0.897493 0.950555 0.828371
Si Si4 0.403981 0.712028 0.591420
Si Si5 0.614178 0.119887 0.809924
Si Si6 0.066410 0.049793 0.725900
Si Si7 0.583379 0.085406 0.950742
Si Si8 0.413738 0.257203 0.747055
O O1 0.306241 0.346879 0.845356
O O2 0.504574 0.280831 0.850906
O O3 0.127218 0.273129 0.795231
O O4 0.500000 0.292034 0.000000
O O5 0.500000 0.396465 0.500000
O O6 0.397778 0.335646 0.557421
O O7 0.501677 0.415795 0.641855
O O8 0.834985 0.369503 0.698651
O O9 0.696705 0.924177 0.802660
O O10 0.918042 0.941231 0.749130
O O11 0.849539 0.000000 0.820663
O O12 0.167471 0.940125 0.951963
O O13 0.250000 0.750000 0.500000
O O14 0.346092 0.711615 0.657351
O O15 0.680697 0.727968 0.680009
O O16 0.633670 0.118572 0.904043
O O17 0.352634 0.057546 0.844252
O O18 0.032594 0.000000 0.694752
O O19 0.500000 0.103664 0.000000
#
# Coordination Sequence:
#
# PCOD9199820 Si02
#       8
#     8   8   8   8   8   8   8   8
#     4  11  22  40  58  89 126 167 202 241 306 384
#     4  11  24  42  63  88 120 159 204 265 318 380
#     4  10  20  36  61  92 127 168 210 256 303 358
#     4  11  22  42  67  95 118 155 208 270 326 361
#     4  11  23  38  58  90 128 158 209 261 305 367
#     4   9  20  38  61  91 129 167 209 253 305 375
#     4   9  18  35  59  92 126 171 212 252 302 354
#     4  10  23  39  63  88 122 160 199 258 307 381
#
# _framework density 20.121613
#
# number of rings (size 3 to 8) (size 9 to 14) (size 15 to 20)
#    0.000    1.750    1.250    3.000    3.500    4.750 
#    2.250    1.250    0.000    1.500    0.000    0.000 
#    0.000    0.000    0.000    0.000    0.000    0.000 
#
# Total GULP energy -178540.578254 kJ/mol
# GULP energy per Si atom -5579.393070 kJ/mol
# Density = 2.007581 g / cm^3
# Si number density = 20.121613 Si / 1000 Ang^3
#
#
#
# Elastic Constant Matrix: (Units=GPa)
#
#
# Indices 1 2 3 4 5 6 
#
# 1 52.0106 20.6937 12.7379 0.0000 -13.1562 0.0000
# 2 20.6937 64.1067 36.7311 0.0000 -8.7404 0.0000
# 3 12.7379 36.7311 77.9617 0.0000 -28.0609 0.0000
# 4 0.0000 0.0000 0.0000 16.7703 0.0000 0.0351
# 5 -13.1562 -8.7404 -28.0609 0.0000 29.1143 0.0000
# 6 0.0000 0.0000 0.0000 0.0351 0.0000 29.7657
#
#
#
# Elastic Compliance Matrix: (Units=1/GPa)
#
#
# Indices 1 2 3 4 5 6 
#
# 1 0.025025 -0.009142 0.005054 0.000000 0.013435 0.000000
# 2 -0.009142 0.025200 -0.014000 0.000000 -0.010059 0.000000
# 3 0.005054 -0.014000 0.027418 0.000000 0.024507 0.000000
# 4 0.000000 0.000000 0.000000 0.059629 0.000000 -0.000070
# 5 0.013435 -0.010059 0.024507 0.000000 0.061019 0.000000
# 6 0.000000 0.000000 0.000000 -0.000070 0.000000 0.033596
#
#
# Mechanical properties :
#
#
# Convention : Reuss Voigt Hill
#
# Bulk Modulus (GPa) = 24.11541 37.15606 30.63573
# Shear Modulus (GPa) = 17.73779 23.39113 20.56446
#
# Velocity S-wave (km/s) = 2.97228 3.41323 3.20036
# Velocity P-wave (km/s) = 4.87751 5.83432 5.37724
#
# Compressibility (1/GPa) = 0.04146726
#
# Stress axis : x y z
#
# Youngs Moduli (GPa) = 39.96012 39.68251 36.47298
#
# Poissons Ratio (x) = 0.36279 -0.18435
# Poissons Ratio (y) = 0.36533 0.51061
# Poissons Ratio (z) = -0.20197 0.55554
#
# Static dielectric constant tensor:
#      x y z
#    x 1.732330 0.000000 -0.029130 
#    y 0.000000 1.703950 0.000000 
#    z -0.029130 0.000000 1.743940 
# 
# From -- ./inp_files/260347.got.cif
#   From: 2010.05.17/outbox.cif.g08.bks.cpg/sg12_131_cif.got.tgz:260347.got - 2010.06.03 13:09:07.
