data_PCOD9199732
_publ_section_title
;
Structure prediction by ZEFSAII (Michael W. Deem and Ramdas Pophale) SiO2 
 PCOD9199732
Probable space group: C 2/M
;
_chemical_formula_sum "Si O2"
_cell_formula_units_Z 56
_cell_length_a 21.746393
_cell_length_b 13.476008
_cell_length_c 23.259233
_cell_angle_alpha 90.000000
_cell_angle_beta 20.833096
_cell_angle_gamma 90.000000
_cell_volume 2424.169024
_symmetry_space_group_name_H-M "C 2/M"
_symmetry_group_IT_number 12
_symmetry_cell_setting 'monoclinic'
loop_
_space_group_symop_operation_xyz
x,y,z
-x,y,-z
-x,-y,-z
x,-y,z
1/2+x,1/2+y,z
1/2-x,1/2+y,-z
1/2-x,1/2-y,-z
1/2+x,1/2-y,z
loop_
_atom_site_type_symbol
_atom_site_label
_atom_site_fract_x
_atom_site_fract_y
_atom_site_fract_z
Si Si1 0.418443 0.880161 0.331568
Si Si2 0.665557 0.106576 0.899075
Si Si3 0.809369 0.174216 0.140299
Si Si4 0.324693 0.206940 0.632888
Si Si5 0.184042 0.119075 0.642907
Si Si6 0.304907 0.384715 0.013819
Si Si7 0.616995 0.112020 0.769522
O O1 0.281525 0.847755 0.499738
O O2 0.615656 0.840606 0.165013
O O3 0.357659 0.865107 0.319441
O O4 0.431328 0.000000 0.327788
O O5 0.754991 0.212258 0.813380
O O6 0.757526 0.000000 0.811469
O O7 0.500000 0.103035 0.000000
O O8 0.582020 0.109494 0.035925
O O9 0.708571 0.134450 0.283709
O O10 0.815334 0.121870 0.074158
O O11 0.000000 0.179183 0.000000
O O12 0.500000 0.255661 0.500000
O O13 0.304551 0.150189 0.591009
O O14 0.196708 0.299511 0.736506
O O15 0.173553 0.000000 0.650668
O O16 0.986387 0.154774 0.828919
O O17 0.298879 0.500000 0.001500
O O18 0.683516 0.000000 0.723073
#
# Coordination Sequence:
#
# PCOD9199732 Si02
#       7
#     8   8   8   8   8   8   8
#     4   9  20  39  61  85 116 154 197 240 286 346
#     4   9  16  31  57  79 102 144 188 229 283 336
#     4  11  19  35  56  81 119 146 189 237 282 343
#     4  12  24  37  56  85 119 153 194 238 290 350
#     4  10  21  39  60  84 121 156 190 241 289 340
#     4  10  20  36  61  89 117 155 194 234 291 347
#     4  10  20  38  61  84 114 152 192 240 294 344
#
# _framework density 23.100698000000001
#
# number of rings (size 3 to 8) (size 9 to 14) (size 15 to 20)
#    0.000    1.857    4.286    0.857    0.000    2.000 
#    0.000    4.286    0.000    3.429    0.000    0.000 
#    0.000    0.000    0.000    0.000    0.000    0.000 
#
# Total GULP energy -156026.451952 kJ/mol
# GULP energy per Si atom -5572.373284 kJ/mol
# Density = 2.304812 g / cm^3
# Si number density = 23.100698 Si / 1000 Ang^3
#
#
#
# Elastic Constant Matrix: (Units=GPa)
#
#
# Indices 1 2 3 4 5 6 
#
# 1 74.3466 7.1261 68.9662 0.0148 26.8152 0.0003
# 2 7.1261 57.8064 6.0561 0.0048 5.9214 0.0066
# 3 68.9662 6.0561 98.4570 0.0231 31.9924 0.0053
# 4 0.0148 0.0048 0.0231 11.1023 -0.0313 14.8136
# 5 26.8152 5.9214 31.9924 -0.0313 31.8593 0.0033
# 6 0.0003 0.0066 0.0053 14.8136 0.0033 11.9917
#
#
#
# Elastic Compliance Matrix: (Units=1/GPa)
#
#
# Indices 1 2 3 4 5 6 
#
# 1 0.039908 -0.001459 -0.025290 0.000062 -0.007922 -0.000063
# 2 -0.001459 0.017688 0.000895 0.000005 -0.002959 -0.000016
# 3 -0.025290 0.000895 0.031103 0.000070 -0.010113 -0.000097
# 4 0.000062 0.000005 0.000070 -0.138941 -0.000277 0.171636
# 5 -0.007922 -0.002959 -0.010113 -0.000277 0.048761 0.000335
# 6 -0.000063 -0.000016 -0.000097 0.171636 0.000335 -0.128634
#
#
# Mechanical properties :
#
#
# Convention : Reuss Voigt Hill
#
# Bulk Modulus (GPa) = 27.03335 43.87853 35.45594
# Shear Modulus (GPa) = -75.66861 20.88809 -27.39026
#
# Velocity S-wave (km/s) = -5.72949 3.01029 -3.44712
# Velocity P-wave (km/s) = 5.66054 5.57836 0.67953
#
# Compressibility (1/GPa) = 0.03699134
#
# Stress axis : x y z
#
# Youngs Moduli (GPa) = 25.05785 56.53475 32.15159
#
# Poissons Ratio (x) = 0.08246 0.81312
# Poissons Ratio (y) = 0.03655 -0.02878
# Poissons Ratio (z) = 0.63372 -0.05060
#
# Static dielectric constant tensor:
#      x y z
#    x 1.854650 0.000000 0.026050 
#    y 0.000000 1.896670 0.000010 
#    z 0.026050 0.000010 2.037090 
# 
# From -- ./inp_files/349701.got.cif
#   From: 2010.05.17/outbox.cif.g08.bks.cpg/sg12_175_cif.got.tgz:349701.got - 2010.06.03 13:09:07.
