data_PCOD9199554
_publ_section_title
;
Structure prediction by ZEFSAII (Michael W. Deem and Ramdas Pophale) SiO2 
 PCOD9199554
Probable space group: C 2/M
;
_chemical_formula_sum "Si O2"
_cell_formula_units_Z 40
_cell_length_a 18.555550
_cell_length_b 12.139347
_cell_length_c 17.829184
_cell_angle_alpha 90.000000
_cell_angle_beta 28.484571
_cell_angle_gamma 90.000000
_cell_volume 1915.349630
_symmetry_space_group_name_H-M "C 2/M"
_symmetry_group_IT_number 12
_symmetry_cell_setting 'monoclinic'
loop_
_space_group_symop_operation_xyz
x,y,z
-x,y,-z
-x,-y,-z
x,-y,z
1/2+x,1/2+y,z
1/2-x,1/2+y,-z
1/2-x,1/2-y,-z
1/2+x,1/2-y,z
loop_
_atom_site_type_symbol
_atom_site_label
_atom_site_fract_x
_atom_site_fract_y
_atom_site_fract_z
Si Si1 0.895960 0.123223 0.401910
Si Si2 0.374499 0.370589 0.677436
Si Si3 0.887735 0.786717 0.042334
Si Si4 0.215242 0.376396 0.063964
Si Si5 0.579114 0.813605 0.736014
O O1 0.744016 0.134033 0.590516
O O2 0.891078 0.199771 0.334514
O O3 0.040157 0.147672 0.321491
O O4 0.904582 0.000000 0.367235
O O5 0.500000 0.346440 0.500000
O O6 0.334521 0.500000 0.708275
O O7 0.231028 0.292429 0.807345
O O8 0.790334 0.865447 0.077088
O O9 0.000000 0.839998 0.000000
O O10 0.991145 0.710700 0.892928
O O11 0.263805 0.500000 0.989822
O O12 0.035216 0.377406 0.214832
O O13 0.250000 0.250000 0.000000
#
# Coordination Sequence:
#
# PCOD9199554 Si02
#       5
#     8   8   8   8   8
#     4  10  20  36  60  89 123 162 211 266 317 377
#     4  10  21  37  59  90 127 168 212 265 326 383
#     4  11  23  39  60  91 128 171 213 266 317 385
#     4  10  22  40  64  94 127 166 212 264 319 376
#     4  10  21  38  61  92 123 168 209 266 317 384
#
# _framework density 20.883914000000001
#
# number of rings (size 3 to 8) (size 9 to 14) (size 15 to 20)
#    0.000    1.800    2.000    1.800    0.000    8.000 
#    0.000    0.000    0.000    0.600    0.000    0.000 
#    0.000    0.000    0.000    0.000    0.000    0.000 
#
# Total GULP energy -111440.140631 kJ/mol
# GULP energy per Si atom -5572.007032 kJ/mol
# Density = 2.083638 g / cm^3
# Si number density = 20.883914 Si / 1000 Ang^3
#
#
#
# Elastic Constant Matrix: (Units=GPa)
#
#
# Indices 1 2 3 4 5 6 
#
# 1 91.2343 21.6930 2.6322 0.0000 -18.9113 0.0000
# 2 21.6930 94.1544 21.6576 -0.0001 -0.2138 0.0000
# 3 2.6322 21.6576 86.8784 -0.0003 -2.7759 0.0001
# 4 0.0000 -0.0001 -0.0003 10.5138 0.0001 6.2910
# 5 -18.9113 -0.2138 -2.7759 0.0001 33.7261 0.0000
# 6 0.0000 0.0000 0.0001 6.2910 0.0000 6.2183
#
#
#
# Elastic Compliance Matrix: (Units=1/GPa)
#
#
# Indices 1 2 3 4 5 6 
#
# 1 0.013245 -0.003179 0.000630 0.000000 0.007458 0.000000
# 2 -0.003179 0.012031 -0.002965 0.000000 -0.001951 0.000000
# 3 0.000630 -0.002965 0.012273 0.000001 0.001344 -0.000001
# 4 0.000000 0.000000 0.000001 0.241006 -0.000001 -0.243823
# 5 0.007458 -0.001951 0.001344 -0.000001 0.033931 0.000001
# 6 0.000000 0.000000 -0.000001 -0.243823 0.000001 0.407489
#
#
# Mechanical properties :
#
#
# Convention : Reuss Voigt Hill
#
# Bulk Modulus (GPa) = 37.70874 40.47030 39.08952
# Shear Modulus (GPa) = 6.75817 25.17725 15.96771
#
# Velocity S-wave (km/s) = 1.80086 3.47591 2.76813
# Velocity P-wave (km/s) = 4.73494 5.96071 5.38283
#
# Compressibility (1/GPa) = 0.02651905
#
# Stress axis : x y z
#
# Youngs Moduli (GPa) = 75.50248 83.11848 81.47698
#
# Poissons Ratio (x) = 0.26427 -0.05130
# Poissons Ratio (y) = 0.24005 0.24159
# Poissons Ratio (z) = -0.04754 0.24646
#
# Static dielectric constant tensor:
#      x y z
#    x 1.780810 0.000000 -0.000290 
#    y 0.000000 1.752820 0.000000 
#    z -0.000290 0.000000 1.818420 
# 
# From -- ./inp_files/71233.got.cif
#   From: 2010.05.17/outbox.cif.g08.bks.cpg/sg12_36_cif.got.tgz:71233.got - 2010.06.03 13:09:07.
