data_PCOD9199865
_publ_section_title
;
Structure prediction by ZEFSAII (Michael W. Deem and Ramdas Pophale) SiO2 
 PCOD9199865
Probable space group: C 2/M
;
_chemical_formula_sum "Si O2"
_cell_formula_units_Z 48
_cell_length_a 18.926705
_cell_length_b 19.318705
_cell_length_c 11.454698
_cell_angle_alpha 90.000000
_cell_angle_beta 145.064437
_cell_angle_gamma 90.000000
_cell_volume 2398.444047
_symmetry_space_group_name_H-M "C 2/M"
_symmetry_group_IT_number 12
_symmetry_cell_setting 'monoclinic'
loop_
_space_group_symop_operation_xyz
x,y,z
-x,y,-z
-x,-y,-z
x,-y,z
1/2+x,1/2+y,z
1/2-x,1/2+y,-z
1/2-x,1/2-y,-z
1/2+x,1/2-y,z
loop_
_atom_site_type_symbol
_atom_site_label
_atom_site_fract_x
_atom_site_fract_y
_atom_site_fract_z
Si Si1 0.856703 0.314642 0.308756
Si Si2 0.475818 0.794728 0.101840
Si Si3 0.195304 0.162157 0.742221
Si Si4 0.943665 0.148352 0.692979
Si Si5 0.221475 0.677233 0.529191
Si Si6 0.681264 0.421448 0.942887
O O1 0.849606 0.234447 0.261501
O O2 0.797192 0.315095 0.358285
O O3 0.000000 0.334582 0.500000
O O4 0.779581 0.366914 0.126130
O O5 0.490736 0.722591 0.191935
O O6 0.587620 0.843098 0.297909
O O7 0.500000 0.777506 0.000000
O O8 0.342425 0.828501 0.930792
O O9 0.129801 0.154288 0.528724
O O10 0.163899 0.099452 0.784461
O O11 0.840463 0.134128 0.651929
O O12 0.051336 0.092993 0.829458
O O13 0.250000 0.750000 0.500000
O O14 0.721445 0.500000 0.011795
#
# Coordination Sequence:
#
# PCOD9199865 Si02
#       6
#     8   8   8   8   8   8
#     4  12  23  42  70 102 130 165 223 281 330 387
#     4  11  19  35  64 105 131 156 203 277 340 382
#     4  12  22  40  67  99 133 166 220 278 326 385
#     4  11  22  38  64  97 134 164 213 271 331 383
#     4  10  20  36  62 104 135 159 202 277 339 379
#     4  12  29  44  62  91 136 188 221 260 327 402
#
# _framework density 20.012974
#
# number of rings (size 3 to 8) (size 9 to 14) (size 15 to 20)
#    0.000    0.667    6.667    4.000    0.000    1.667 
#    0.000    1.667    0.000    1.500    0.000    0.000 
#    0.000    0.000    0.000    0.000    0.000    0.000 
#
# Total GULP energy -134140.970011 kJ/mol
# GULP energy per Si atom -5589.207084 kJ/mol
# Density = 1.996742 g / cm^3
# Si number density = 20.012974 Si / 1000 Ang^3
#
#
#
# Elastic Constant Matrix: (Units=GPa)
#
#
# Indices 1 2 3 4 5 6 
#
# 1 102.7762 7.7790 11.9028 0.0000 2.7089 0.0000
# 2 7.7790 44.5296 2.2173 0.0000 2.8437 0.0000
# 3 11.9028 2.2173 62.3582 0.0000 19.3788 0.0000
# 4 0.0000 0.0000 0.0000 -0.9407 0.0000 6.1851
# 5 2.7089 2.8437 19.3788 0.0000 41.4998 0.0000
# 6 0.0000 0.0000 0.0000 6.1851 0.0000 12.1100
#
#
#
# Elastic Compliance Matrix: (Units=1/GPa)
#
#
# Indices 1 2 3 4 5 6 
#
# 1 0.010077 -0.001686 -0.001983 0.000000 0.000384 0.000000
# 2 -0.001686 0.022845 -0.000045 0.000000 -0.001435 0.000000
# 3 -0.001983 -0.000045 0.019155 0.000000 -0.008812 0.000000
# 4 0.000000 0.000000 0.000000 -0.243921 0.000000 0.124582
# 5 0.000384 -0.001435 -0.008812 0.000000 0.028285 0.000000
# 6 0.000000 0.000000 0.000000 0.124582 0.000000 0.018947
#
#
# Mechanical properties :
#
#
# Convention : Reuss Voigt Hill
#
# Bulk Modulus (GPa) = 22.39632 28.16247 25.27939
# Shear Modulus (GPa) = -40.88247 23.05149 -8.91549
#
# Velocity S-wave (km/s) = -4.52464 3.39754 -2.11294
# Velocity P-wave (km/s) = 4.01014 5.43081 2.58964
#
# Compressibility (1/GPa) = 0.04465019
#
# Stress axis : x y z
#
# Youngs Moduli (GPa) = 99.23572 43.77256 52.20577
#
# Poissons Ratio (x) = 0.07381 0.10351
# Poissons Ratio (y) = 0.16733 0.00233
# Poissons Ratio (z) = 0.19676 0.00196
#
# Static dielectric constant tensor:
#      x y z
#    x 1.763830 0.000000 0.015000 
#    y 0.000000 1.682720 0.000000 
#    z 0.015000 0.000000 1.754290 
# 
# From -- ./inp_files/169720.got.cif
#   From: 2010.05.17/outbox.cif.g08.bks.cpg/sg12_85_cif.got.tgz:169720.got - 2010.06.03 13:09:07.
