data_PCOD9199639
_publ_section_title
;
Structure prediction by ZEFSAII (Michael W. Deem and Ramdas Pophale) SiO2 
 PCOD9199639
Probable space group: C 2/M
;
_chemical_formula_sum "Si O2"
_cell_formula_units_Z 32
_cell_length_a 11.950277
_cell_length_b 19.190803
_cell_length_c 9.997912
_cell_angle_alpha 90.000000
_cell_angle_beta 145.900793
_cell_angle_gamma 90.000000
_cell_volume 1285.449005
_symmetry_space_group_name_H-M "C 2/M"
_symmetry_group_IT_number 12
_symmetry_cell_setting 'monoclinic'
loop_
_space_group_symop_operation_xyz
x,y,z
-x,y,-z
-x,-y,-z
x,-y,z
1/2+x,1/2+y,z
1/2-x,1/2+y,-z
1/2-x,1/2-y,-z
1/2+x,1/2-y,z
loop_
_atom_site_type_symbol
_atom_site_label
_atom_site_fract_x
_atom_site_fract_y
_atom_site_fract_z
Si Si1 0.203726 0.420191 0.819213
Si Si2 0.279085 0.696879 0.338729
Si Si3 0.220481 0.650674 0.574966
Si Si4 0.809998 0.923864 0.211388
O O1 0.129911 0.500000 0.747556
O O2 0.287347 0.403097 0.755648
O O3 0.018975 0.366969 0.661859
O O4 0.346509 0.415286 0.089295
O O5 0.500000 0.711924 0.500000
O O6 0.276464 0.654363 0.475027
O O7 0.205114 0.773979 0.297720
O O8 0.193985 0.644977 0.142708
O O9 0.000000 0.926356 0.500000
O O10 0.711309 0.000000 0.128985
#
# Coordination Sequence:
#
# PCOD9199639 Si02
#       4
#     8   8   8   8
#     4  10  20  38  64  91 121 156 204 260 302 354
#     4  10  20  38  58  84 127 161 195 245 302 370
#     4  10  20  36  60  93 120 153 203 249 313 359
#     4   9  20  38  59  85 120 163 203 246 304 363
#
# _framework density 24.894027000000001
#
# number of rings (size 3 to 8) (size 9 to 14) (size 15 to 20)
#    0.000    2.250    2.500    1.500    0.000    4.000 
#    0.000    7.500    0.000   13.500    0.000    0.000 
#    0.000    0.000    0.000    0.000    0.000    0.000 
#
# Total GULP energy -89076.259335 kJ/mol
# GULP energy per Si atom -5567.266208 kJ/mol
# Density = 2.483737 g / cm^3
# Si number density = 24.894027 Si / 1000 Ang^3
#
#
#
# Elastic Constant Matrix: (Units=GPa)
#
#
# Indices 1 2 3 4 5 6 
#
# 1 114.1901 1.6339 37.8598 0.0000 -46.0243 0.0000
# 2 1.6339 144.1838 17.9118 0.0000 -30.9841 0.0000
# 3 37.8598 17.9118 141.3067 0.0000 -39.5305 0.0000
# 4 0.0000 0.0000 0.0000 428.6911 0.0000 442.0478
# 5 -46.0243 -30.9841 -39.5305 0.0000 58.4496 0.0000
# 6 0.0000 0.0000 0.0000 442.0478 0.0000 558.7418
#
#
#
# Elastic Compliance Matrix: (Units=1/GPa)
#
#
# Indices 1 2 3 4 5 6 
#
# 1 0.013595 0.002405 -0.000735 0.000000 0.011482 0.000000
# 2 0.002405 0.008258 0.000078 0.000000 0.006324 0.000000
# 3 -0.000735 0.000078 0.008773 0.000000 0.005396 0.000000
# 4 0.000000 0.000000 0.000000 0.012664 0.000000 -0.010019
# 5 0.011482 0.006324 0.005396 0.000000 0.033152 0.000000
# 6 0.000000 0.000000 0.000000 -0.010019 0.000000 0.009716
#
#
# Mechanical properties :
#
#
# Convention : Reuss Voigt Hill
#
# Bulk Modulus (GPa) = 29.30753 57.16572 43.23662
# Shear Modulus (GPa) = 53.17152 231.99485 142.58318
#
# Velocity S-wave (km/s) = 4.62661 9.66412 7.57631
# Velocity P-wave (km/s) = 6.35131 12.14663 9.69226
#
# Compressibility (1/GPa) = 0.03412093
#
# Stress axis : x y z
#
# Youngs Moduli (GPa) = 73.55915 121.10134 113.98044
#
# Poissons Ratio (x) = -0.29121 0.08378
# Poissons Ratio (y) = -0.17689 -0.00889
# Poissons Ratio (z) = 0.05407 -0.00945
#
# Static dielectric constant tensor:
#      x y z
#    x 1.990410 0.000000 0.082230 
#    y 0.000000 1.987660 0.000000 
#    z 0.082230 0.000000 2.036270 
# 
# From -- ./inp_files/48295.got.cif
#   From: 2010.05.17/outbox.cif.g08.bks.cpg/sg12_25_cif.got.tgz:48295.got - 2010.06.03 13:09:07.
