data_PCOD9199181
_publ_section_title
;
Structure prediction by ZEFSAII (Michael W. Deem and Ramdas Pophale) SiO2 
 PCOD9199181
Probable space group: C 2/M
;
_chemical_formula_sum "Si O2"
_cell_formula_units_Z 56
_cell_length_a 15.334309
_cell_length_b 8.872127
_cell_length_c 29.701458
_cell_angle_alpha 90.000000
_cell_angle_beta 131.311987
_cell_angle_gamma 90.000000
_cell_volume 3035.166676
_symmetry_space_group_name_H-M "C 2/M"
_symmetry_group_IT_number 12
_symmetry_cell_setting 'monoclinic'
loop_
_space_group_symop_operation_xyz
x,y,z
-x,y,-z
-x,-y,-z
x,-y,z
1/2+x,1/2+y,z
1/2-x,1/2+y,-z
1/2-x,1/2-y,-z
1/2+x,1/2-y,z
loop_
_atom_site_type_symbol
_atom_site_label
_atom_site_fract_x
_atom_site_fract_y
_atom_site_fract_z
Si Si1 0.141395 0.819350 0.936819
Si Si2 0.182100 0.819892 0.847151
Si Si3 0.469517 0.678929 0.348641
Si Si4 0.530623 0.824214 0.559983
Si Si5 0.249941 0.825134 0.310401
Si Si6 0.027971 0.679307 0.276891
Si Si7 0.934639 0.180763 0.930475
O O1 0.146646 0.779997 0.886283
O O2 0.022587 0.774779 0.920793
O O3 0.150270 0.000000 0.943559
O O4 0.250000 0.750000 0.000000
O O5 0.094140 0.736431 0.784245
O O6 0.313851 0.766588 0.886098
O O7 0.172143 0.000000 0.837917
O O8 0.469249 0.500000 0.344665
O O9 0.517636 0.731908 0.413823
O O10 0.336398 0.742716 0.304861
O O11 0.535798 0.753767 0.329829
O O12 0.500000 0.768210 0.500000
O O13 0.669066 0.820677 0.617039
O O14 0.494755 0.000000 0.551187
O O15 0.130081 0.745221 0.280370
O O16 0.233049 0.000000 0.292057
O O17 0.033709 0.500000 0.279987
O O18 0.914141 0.000000 0.921714
O O19 0.000000 0.212169 0.000000
#
# Coordination Sequence:
#
# PCOD9199181 Si02
#       7
#     8   8   8   8   8   8   8
#     4  10  21  37  59  84 113 146 181 228 285 341
#     4  11  24  39  57  84 114 147 190 241 291 349
#     4  10  20  36  59  87 119 155 194 240 295 345
#     4   8  16  34  60  88 120 157 195 238 290 345
#     4   9  19  37  60  86 119 156 192 240 292 343
#     4  12  24  40  60  83 115 157 203 246 292 350
#     4  10  20  37  60  84 114 149 185 229 285 350
#
# _framework density 18.450386999999999
#
# number of rings (size 3 to 8) (size 9 to 14) (size 15 to 20)
#    0.857    1.143    1.429    3.000    0.000    2.857 
#    0.000    5.000    0.000    0.000    0.000    0.000 
#    0.000    0.000    0.000    0.000    0.000    0.000 
#
# Total GULP energy -156119.981068 kJ/mol
# GULP energy per Si atom -5575.713610 kJ/mol
# Density = 1.840839 g / cm^3
# Si number density = 18.450387 Si / 1000 Ang^3
#
#
#
# Elastic Constant Matrix: (Units=GPa)
#
#
# Indices 1 2 3 4 5 6 
#
# 1 77.0701 13.7433 -8.6807 0.0000 -3.1968 0.0000
# 2 13.7433 81.4604 8.1458 0.0000 -4.5815 0.0000
# 3 -8.6807 8.1458 28.1821 0.0000 -7.4082 0.0000
# 4 0.0000 0.0000 0.0000 27.3133 0.0000 2.6504
# 5 -3.1968 -4.5815 -7.4082 0.0000 22.8063 0.0000
# 6 0.0000 0.0000 0.0000 2.6504 0.0000 28.7323
#
#
#
# Elastic Compliance Matrix: (Units=1/GPa)
#
#
# Indices 1 2 3 4 5 6 
#
# 1 0.014313 -0.002835 0.006129 0.000000 0.003428 0.000000
# 2 -0.002835 0.013249 -0.004491 0.000000 0.000805 0.000000
# 3 0.006129 -0.004491 0.042267 0.000000 0.013687 0.000000
# 4 0.000000 0.000000 0.000000 0.036943 0.000000 -0.003408
# 5 0.003428 0.000805 0.013687 0.000000 0.048936 0.000000
# 6 0.000000 0.000000 0.000000 -0.003408 0.000000 0.035118
#
#
# Mechanical properties :
#
#
# Convention : Reuss Voigt Hill
#
# Bulk Modulus (GPa) = 14.82885 23.68103 19.25494
# Shear Modulus (GPa) = 23.18057 27.33734 25.25896
#
# Velocity S-wave (km/s) = 3.54838 3.85342 3.70404
# Velocity P-wave (km/s) = 4.98424 5.71501 5.36208
#
# Compressibility (1/GPa) = 0.06743610
#
# Stress axis : x y z
#
# Youngs Moduli (GPa) = 69.86520 75.47997 23.65891
#
# Poissons Ratio (x) = 0.21398 -0.14501
# Poissons Ratio (y) = 0.19806 0.10625
# Poissons Ratio (z) = -0.42822 0.33897
#
# Static dielectric constant tensor:
#      x y z
#    x 1.631190 0.000000 -0.016210 
#    y 0.000000 1.616850 0.000000 
#    z -0.016210 0.000000 1.637590 
# 
# From -- ./inp_files/375138.got.cif
#   From: 2010.05.17/outbox.cif.g08.bks.cpg/sg12_188_cif.got.tgz:375138.got - 2010.06.03 13:09:07.
