data_PCOD9199877
_publ_section_title
;
Structure prediction by ZEFSAII (Michael W. Deem and Ramdas Pophale) SiO2 
 PCOD9199877
Probable space group: C 2/M
;
_chemical_formula_sum "Si O2"
_cell_formula_units_Z 46
_cell_length_a 12.763463
_cell_length_b 13.997462
_cell_length_c 16.384127
_cell_angle_alpha 90.000000
_cell_angle_beta 55.270684
_cell_angle_gamma 90.000000
_cell_volume 2405.664666
_symmetry_space_group_name_H-M "C 2/M"
_symmetry_group_IT_number 12
_symmetry_cell_setting 'monoclinic'
loop_
_space_group_symop_operation_xyz
x,y,z
-x,y,-z
-x,-y,-z
x,-y,z
1/2+x,1/2+y,z
1/2-x,1/2+y,-z
1/2-x,1/2-y,-z
1/2+x,1/2-y,z
loop_
_atom_site_type_symbol
_atom_site_label
_atom_site_fract_x
_atom_site_fract_y
_atom_site_fract_z
Si Si1 0.643765 0.386543 0.517782
Si Si2 0.499779 0.667512 0.864657
Si Si3 0.253854 0.613262 0.350398
Si Si4 0.000000 0.000000 0.000000
Si Si5 0.364178 0.703387 0.645739
Si Si6 0.723786 0.390049 0.151726
Si Si7 0.500000 0.171636 0.000000
O O1 0.620732 0.500000 0.519820
O O2 0.729605 0.372931 0.559649
O O3 0.693739 0.345066 0.410227
O O4 0.508443 0.334005 0.590232
O O5 0.616974 0.650737 0.750568
O O6 0.504630 0.582459 0.927177
O O7 0.369644 0.658982 0.871687
O O8 0.504280 0.762706 0.916890
O O9 0.237351 0.500000 0.341901
O O10 0.145934 0.683135 0.363018
O O11 0.291319 0.666979 0.757400
O O12 0.682204 0.500000 0.181727
O O13 0.868958 0.386199 0.057961
#
# Coordination Sequence:
#
# PCOD9199877 Si02
#       7
#     8   8   8   2   8   8   4
#     4  10  21  39  64  90 115 159 203 240 290 366
#     4  11  21  39  61  84 114 162 204 247 287 358
#     4  11  21  38  61  88 117 157 204 242 296 355
#     4  10  20  36  62  86 108 146 222 244 270 340
#     4  11  21  36  61  92 120 149 198 252 296 340
#     4  12  22  39  62  88 122 158 197 249 306 357
#     4  11  25  39  57  88 122 156 200 250 308 348
#
# _framework density 19.121532999999999
#
# number of rings (size 3 to 8) (size 9 to 14) (size 15 to 20)
#    0.000    1.043    5.217    3.391    0.000    0.000 
#    0.000    1.739    0.000    6.261    0.000    0.000 
#    0.000    0.000    0.000    0.000    0.000    0.000 
#
# Total GULP energy -128184.002137 kJ/mol
# GULP energy per Si atom -5573.217484 kJ/mol
# Density = 1.907801 g / cm^3
# Si number density = 19.121533 Si / 1000 Ang^3
#
#
#
# Elastic Constant Matrix: (Units=GPa)
#
#
# Indices 1 2 3 4 5 6 
#
# 1 -538.4261 -425.9820 -782.3733 0.0000 71.3229 0.0000
# 2 -425.9820 -266.5452 -625.7498 0.0000 60.0423 0.0000
# 3 -782.3733 -625.7498-1027.0481 0.0000 108.7469 0.0000
# 4 0.0000 0.0000 0.0000 33.2330 0.0000 19.4425
# 5 71.3229 60.0423 108.7469 0.0000 21.1588 0.0000
# 6 0.0000 0.0000 0.0000 19.4425 0.0000 38.6377
#
#
#
# Elastic Compliance Matrix: (Units=1/GPa)
#
#
# Indices 1 2 3 4 5 6 
#
# 1 0.030508 -0.013035 -0.014422 0.000000 0.008275 0.000000
# 2 -0.013035 0.014378 0.000973 0.000000 -0.001860 0.000000
# 3 -0.014422 0.000973 0.009245 0.000000 -0.001658 0.000000
# 4 0.000000 0.000000 0.000000 0.042645 0.000000 -0.021459
# 5 0.008275 -0.001860 -0.001658 0.000000 0.033169 0.000000
# 6 0.000000 0.000000 0.000000 -0.021459 0.000000 0.036679
#
#
# Mechanical properties :
#
#
# Convention : Reuss Voigt Hill
#
# Bulk Modulus (GPa) = 860.87553 -611.13663 124.86945
# Shear Modulus (GPa) = 22.72918 18.74494 20.73706
#
# Velocity S-wave (km/s) = 3.45145 3.13438 3.29673
# Velocity P-wave (km/s) = 21.61188 17.52716 8.94070
#
# Compressibility (1/GPa) = 0.00116161
#
# Stress axis : x y z
#
# Youngs Moduli (GPa) = 32.77779 69.54999 108.17046
#
# Poissons Ratio (x) = 0.90659 1.56007
# Poissons Ratio (y) = 0.42726 -0.10521
# Poissons Ratio (z) = 0.47273 -0.06764
#
# Static dielectric constant tensor:
#      x y z
#    x 1.658950 0.000000 -0.016340 
#    y 0.000000 1.655760 0.000000 
#    z -0.016340 0.000000 1.675380 
# 
# From -- ./inp_files/204893.got.cif
#   From: 2010.05.17/outbox.cif.g08.bks.cpg/sg12_103_cif.got.tgz:204893.got - 2010.06.03 13:09:07.
