data_PCOD9199319
_publ_section_title
;
Structure prediction by ZEFSAII (Michael W. Deem and Ramdas Pophale) SiO2 
 PCOD9199319
Probable space group: C 2/M
;
_chemical_formula_sum "Si O2"
_cell_formula_units_Z 48
_cell_length_a 22.232588
_cell_length_b 15.712917
_cell_length_c 20.957447
_cell_angle_alpha 90.000000
_cell_angle_beta 21.294190
_cell_angle_gamma 90.000000
_cell_volume 2658.761221
_symmetry_space_group_name_H-M "C 2/M"
_symmetry_group_IT_number 12
_symmetry_cell_setting 'monoclinic'
loop_
_space_group_symop_operation_xyz
x,y,z
-x,y,-z
-x,-y,-z
x,-y,z
1/2+x,1/2+y,z
1/2-x,1/2+y,-z
1/2-x,1/2-y,-z
1/2+x,1/2-y,z
loop_
_atom_site_type_symbol
_atom_site_label
_atom_site_fract_x
_atom_site_fract_y
_atom_site_fract_z
Si Si1 0.554985 0.500000 0.019456
Si Si2 0.266846 0.099572 0.470520
Si Si3 0.444931 0.315833 0.127754
Si Si4 0.051177 0.500000 0.375210
Si Si5 0.930901 0.692007 0.889579
Si Si6 0.109806 0.329378 0.519314
Si Si7 0.565368 0.314333 0.237473
O O1 0.752011 0.500000 0.826838
O O2 0.500000 0.500000 0.000000
O O3 0.486449 0.410911 0.113617
O O4 0.416792 0.129849 0.276718
O O5 0.294459 0.151971 0.508753
O O6 0.088778 0.122344 0.617106
O O7 0.279248 0.000000 0.471839
O O8 0.535557 0.244416 0.079461
O O9 0.248555 0.304925 0.330903
O O10 0.500000 0.313122 0.000000
O O11 0.000000 0.500000 0.500000
O O12 0.978718 0.415523 0.414600
O O13 0.929255 0.761300 0.833971
O O14 0.748849 0.650227 0.068287
O O15 0.981912 0.254648 0.661573
#
# Coordination Sequence:
#
# PCOD9199319 Si02
#       7
#     4   8   8   4   8   8   8
#     4  10  22  34  46  78 114 160 200 225 269 333
#     4  11  21  38  60  85 115 149 195 256 301 338
#     4  11  20  35  56  81 120 159 193 236 287 349
#     4  12  22  34  52  80 122 160 197 228 273 355
#     4  10  20  37  57  85 115 148 198 243 295 356
#     4  11  20  37  55  82 115 157 196 236 287 351
#     4  10  20  36  60  82 114 153 195 250 295 342
#
# _framework density 18.053521
#
# number of rings (size 3 to 8) (size 9 to 14) (size 15 to 20)
#    0.000    1.333    4.167    4.500    0.000    0.667 
#    0.000    0.000    0.000    0.500    0.000    1.167 
#    0.000    0.000    0.000    0.000    0.000    0.000 
#
# Total GULP energy -133999.438807 kJ/mol
# GULP energy per Si atom -5583.309950 kJ/mol
# Density = 1.801243 g / cm^3
# Si number density = 18.053521 Si / 1000 Ang^3
#
#
#
# Elastic Constant Matrix: (Units=GPa)
#
#
# Indices 1 2 3 4 5 6 
#
# 1 40.0720 1.7094 33.0916 0.0023 7.0958 -0.0004
# 2 1.7094 18.5424 13.9268 0.0074 3.0546 -0.0015
# 3 33.0916 13.9268 136.9872 0.0074 -9.3084 -0.0008
# 4 0.0023 0.0074 0.0074 12.5414 -0.0011 1.9628
# 5 7.0958 3.0546 -9.3084 -0.0011 33.9131 -0.0003
# 6 -0.0004 -0.0015 -0.0008 1.9628 -0.0003 23.3134
#
#
#
# Elastic Compliance Matrix: (Units=1/GPa)
#
#
# Indices 1 2 3 4 5 6 
#
# 1 0.034494 0.005757 -0.009623 -0.000005 -0.010377 0.000001
# 2 0.005757 0.061037 -0.008205 -0.000034 -0.008954 0.000006
# 3 -0.009623 -0.008205 0.010848 0.000001 0.005730 0.000000
# 4 -0.000005 -0.000034 0.000001 0.080800 0.000007 -0.006803
# 5 -0.010377 -0.008954 0.005730 0.000007 0.034038 -0.000001
# 6 0.000001 0.000006 0.000000 -0.006803 -0.000001 0.043466
#
#
# Mechanical properties :
#
#
# Convention : Reuss Voigt Hill
#
# Bulk Modulus (GPa) = 12.15980 32.56192 22.36086
# Shear Modulus (GPa) = 15.81094 23.74518 19.77806
#
# Velocity S-wave (km/s) = 2.96257 3.63059 3.31346
# Velocity P-wave (km/s) = 4.29563 5.97080 5.20110
#
# Compressibility (1/GPa) = 0.08223821
#
# Stress axis : x y z
#
# Youngs Moduli (GPa) = 28.99079 16.38346 92.18271
#
# Poissons Ratio (x) = -0.09432 0.88707
# Poissons Ratio (y) = -0.16691 0.75632
# Poissons Ratio (z) = 0.27898 0.13442
#
# Static dielectric constant tensor:
#      x y z
#    x 1.613460 0.000000 -0.009120 
#    y 0.000000 1.613220 0.000000 
#    z -0.009120 0.000000 1.653610 
# 
# From -- ./inp_files/95709.got.cif
#   From: 2010.05.17/outbox.cif.g08.bks.cpg/sg12_48_cif.got.tgz:95709.got - 2010.06.03 13:09:07.
