data_PCOD9199223
_publ_section_title
;
Structure prediction by ZEFSAII (Michael W. Deem and Ramdas Pophale) SiO2 
 PCOD9199223
Probable space group: C 2/M
;
_chemical_formula_sum "Si O2"
_cell_formula_units_Z 36
_cell_length_a 11.159035
_cell_length_b 24.408402
_cell_length_c 6.969760
_cell_angle_alpha 90.000000
_cell_angle_beta 115.916347
_cell_angle_gamma 90.000000
_cell_volume 1707.468443
_symmetry_space_group_name_H-M "C 2/M"
_symmetry_group_IT_number 12
_symmetry_cell_setting 'monoclinic'
loop_
_space_group_symop_operation_xyz
x,y,z
-x,y,-z
-x,-y,-z
x,-y,z
1/2+x,1/2+y,z
1/2-x,1/2+y,-z
1/2-x,1/2-y,-z
1/2+x,1/2-y,z
loop_
_atom_site_type_symbol
_atom_site_label
_atom_site_fract_x
_atom_site_fract_y
_atom_site_fract_z
Si Si1 0.778470 0.139937 0.076117
Si Si2 0.843757 0.064835 0.439671
Si Si3 0.854180 0.628793 0.420846
Si Si4 0.379564 0.789621 0.780554
Si Si5 0.000000 0.183385 0.000000
O O1 0.765129 0.086522 0.196545
O O2 0.749908 0.191278 0.194803
O O3 0.925064 0.146565 0.097380
O O4 0.689880 0.141878 0.824990
O O5 0.764554 0.094845 0.557910
O O6 0.000000 0.077651 0.500000
O O7 0.835461 0.000000 0.461509
O O8 0.878325 0.682025 0.573817
O O9 0.000000 0.601005 0.500000
O O10 0.500000 0.812698 0.000000
O O11 0.403832 0.725041 0.815610
#
# Coordination Sequence:
#
# PCOD9199223 Si02
#       5
#     8   8   8   8   4
#     4  11  21  38  62  89 120 157 202 244 294 354
#     4  10  24  44  63  87 120 154 195 253 307 351
#     4  11  21  38  64  89 120 161 198 244 296 354
#     4   9  20  36  54  84 125 158 188 243 289 339
#     4  10  20  36  59  88 119 166 204 234 288 358
#
# _framework density 21.083843000000002
#
# number of rings (size 3 to 8) (size 9 to 14) (size 15 to 20)
#    0.667    1.111    2.222    2.000    0.000    2.222 
#    0.000   13.889    0.000    0.000    0.000    0.000 
#    0.000    0.000    0.000    0.000    0.000    0.000 
#
# Total GULP energy -100311.322847 kJ/mol
# GULP energy per Si atom -5572.851269 kJ/mol
# Density = 2.103586 g / cm^3
# Si number density = 21.083843 Si / 1000 Ang^3
#
#
#
# Elastic Constant Matrix: (Units=GPa)
#
#
# Indices 1 2 3 4 5 6 
#
# 1 104.8245 1.9395 8.6598 0.0000 -21.2275 0.0000
# 2 1.9395 34.8715 18.1106 0.0000 -1.2745 0.0000
# 3 8.6598 18.1106 119.6967 0.0000 -9.0391 0.0000
# 4 0.0000 0.0000 0.0000 10.2062 0.0000 3.9150
# 5 -21.2275 -1.2745 -9.0391 0.0000 32.6027 0.0000
# 6 0.0000 0.0000 0.0000 3.9150 0.0000 31.0895
#
#
#
# Elastic Compliance Matrix: (Units=1/GPa)
#
#
# Indices 1 2 3 4 5 6 
#
# 1 0.010998 -0.000236 -0.000225 0.000000 0.007089 0.000000
# 2 -0.000236 0.031128 -0.004711 0.000000 -0.000243 0.000000
# 3 -0.000225 -0.004711 0.009252 0.000000 0.002235 0.000000
# 4 0.000000 0.000000 0.000000 0.102952 0.000000 -0.012965
# 5 0.007089 -0.000243 0.002235 0.000000 0.035898 0.000000
# 6 0.000000 0.000000 0.000000 -0.012965 0.000000 0.033798
#
#
# Mechanical properties :
#
#
# Convention : Reuss Voigt Hill
#
# Bulk Modulus (GPa) = 24.36940 35.20139 29.78540
# Shear Modulus (GPa) = 20.15737 30.15854 25.15795
#
# Velocity S-wave (km/s) = 3.09537 3.78618 3.45807
# Velocity P-wave (km/s) = 4.93544 5.98713 5.48654
#
# Compressibility (1/GPa) = 0.04103507
#
# Stress axis : x y z
#
# Youngs Moduli (GPa) = 90.92286 32.12580 108.08174
#
# Poissons Ratio (x) = 0.00758 0.02428
# Poissons Ratio (y) = 0.02145 0.50917
# Poissons Ratio (z) = 0.02042 0.15134
#
# Static dielectric constant tensor:
#      x y z
#    x 1.855880 0.000000 0.071270 
#    y 0.000000 1.725300 0.000000 
#    z 0.071270 0.000000 1.766350 
# 
# From -- ./inp_files/7794.got.cif
#   From: 2010.05.17/outbox.cif.g08.bks.cpg/sg12_4_cif.got.tgz:7794.got - 2010.06.03 13:09:07.
