data_PCOD9199539
_publ_section_title
;
Structure prediction by ZEFSAII (Michael W. Deem and Ramdas Pophale) SiO2 
 PCOD9199539
Probable space group: C 2/M
;
_chemical_formula_sum "Si O2"
_cell_formula_units_Z 56
_cell_length_a 29.417900
_cell_length_b 15.733031
_cell_length_c 12.042954
_cell_angle_alpha 90.000000
_cell_angle_beta 30.552023
_cell_angle_gamma 90.000000
_cell_volume 2833.314008
_symmetry_space_group_name_H-M "C 2/M"
_symmetry_group_IT_number 12
_symmetry_cell_setting 'monoclinic'
loop_
_space_group_symop_operation_xyz
x,y,z
-x,y,-z
-x,-y,-z
x,-y,z
1/2+x,1/2+y,z
1/2-x,1/2+y,-z
1/2-x,1/2-y,-z
1/2+x,1/2-y,z
loop_
_atom_site_type_symbol
_atom_site_label
_atom_site_fract_x
_atom_site_fract_y
_atom_site_fract_z
Si Si1 0.714912 0.900535 0.619557
Si Si2 0.339250 0.221848 0.064283
Si Si3 0.413700 0.595860 0.258673
Si Si4 0.464339 0.262034 0.323360
Si Si5 0.104119 0.402923 0.253847
Si Si6 0.069188 0.402904 0.751277
Si Si7 0.693581 0.210680 0.218713
O O1 0.682195 0.833558 0.781078
O O2 0.821394 0.891577 0.387052
O O3 0.663967 0.886665 0.611370
O O4 0.695289 0.000000 0.692868
O O5 0.255081 0.276616 0.197596
O O6 0.430120 0.275570 0.885911
O O7 0.363583 0.155447 0.915113
O O8 0.410558 0.500000 0.312370
O O9 0.423192 0.667001 0.330855
O O10 0.500000 0.602452 0.000000
O O11 0.453331 0.168969 0.289940
O O12 0.400382 0.259165 0.564605
O O13 0.114539 0.500000 0.199719
O O14 0.162780 0.380763 0.239263
O O15 0.000000 0.387207 0.500000
O O16 0.064703 0.500000 0.717947
O O17 0.000000 0.396668 0.000000
O O18 0.750000 0.250000 0.000000
#
# Coordination Sequence:
#
# PCOD9199539 Si02
#       7
#     8   8   8   8   8   8   8
#     4  10  20  37  59  86 118 155 197 245 296 355
#     4  11  21  36  60  88 115 157 198 241 294 364
#     4  10  23  41  59  82 116 161 212 252 285 342
#     4  12  22  37  61  89 119 163 201 248 299 357
#     4  10  20  36  60  89 120 150 186 243 308 362
#     4  10  21  34  54  91 131 156 185 241 307 370
#     4  10  23  40  56  86 120 152 197 246 296 353
#
# _framework density 19.764838999999998
#
# number of rings (size 3 to 8) (size 9 to 14) (size 15 to 20)
#    0.000    1.571    4.286    0.857    0.000    2.857 
#    0.000    0.714    0.000    0.000    0.000    4.000 
#    0.000    0.000    0.000    0.000    0.000    0.000 
#
# Total GULP energy -156293.780087 kJ/mol
# GULP energy per Si atom -5581.920717 kJ/mol
# Density = 1.971985 g / cm^3
# Si number density = 19.764839 Si / 1000 Ang^3
#
#
#
# Elastic Constant Matrix: (Units=GPa)
#
#
# Indices 1 2 3 4 5 6 
#
# 1 50.8974 16.6978 6.6944 0.0000 -24.7998 0.0000
# 2 16.6978 48.1463 10.0143 0.0000 -0.5550 0.0000
# 3 6.6944 10.0143 80.8675 0.0000 -16.4767 0.0000
# 4 0.0000 0.0000 0.0000 -86.7910 0.0000 -100.1421
# 5 -24.7998 -0.5550 -16.4767 0.0000 36.7704 0.0000
# 6 0.0000 0.0000 0.0000 -100.1421 0.0000 -61.2001
#
#
#
# Elastic Compliance Matrix: (Units=1/GPa)
#
#
# Indices 1 2 3 4 5 6 
#
# 1 0.035971 -0.012987 0.003889 0.000000 0.025807 0.000000
# 2 -0.012987 0.026038 -0.004241 0.000000 -0.010266 0.000000
# 3 0.003889 -0.004241 0.014406 0.000000 0.009014 0.000000
# 4 0.000000 0.000000 0.000000 0.012975 0.000000 -0.021231
# 5 0.025807 -0.010266 0.009014 0.000000 0.048486 0.000000
# 6 0.000000 0.000000 0.000000 -0.021231 0.000000 0.018400
#
#
# Mechanical properties :
#
#
# Convention : Reuss Voigt Hill
#
# Bulk Modulus (GPa) = 20.10601 27.41382 23.75992
# Shear Modulus (GPa) = 25.05860 -12.47717 6.29071
#
# Velocity S-wave (km/s) = 3.56453 -2.51526 1.78597
# Velocity P-wave (km/s) = 5.20921 2.33768 4.03737
#
# Compressibility (1/GPa) = 0.04973636
#
# Stress axis : x y z
#
# Youngs Moduli (GPa) = 27.80015 38.40572 69.41671
#
# Poissons Ratio (x) = 0.49876 -0.26994
# Poissons Ratio (y) = 0.36103 0.29440
# Poissons Ratio (z) = -0.10810 0.16288
#
# Static dielectric constant tensor:
#      x y z
#    x 1.754770 0.000000 -0.020700 
#    y 0.000000 1.682400 0.000000 
#    z -0.020700 0.000000 1.727540 
# 
# From -- ./inp_files/189599.got.cif
#   From: 2010.05.17/outbox.cif.g08.bks.cpg/sg12_95_cif.got.tgz:189599.got - 2010.06.03 13:09:07.
