data_PCOD9199647
_publ_section_title
;
Structure prediction by ZEFSAII (Michael W. Deem and Ramdas Pophale) SiO2 
 PCOD9199647
Probable space group: C 2/M
;
_chemical_formula_sum "Si O2"
_cell_formula_units_Z 40
_cell_length_a 7.788839
_cell_length_b 18.494241
_cell_length_c 14.920838
_cell_angle_alpha 90.000000
_cell_angle_beta 105.129710
_cell_angle_gamma 90.000000
_cell_volume 2074.825590
_symmetry_space_group_name_H-M "C 2/M"
_symmetry_group_IT_number 12
_symmetry_cell_setting 'monoclinic'
loop_
_space_group_symop_operation_xyz
x,y,z
-x,y,-z
-x,-y,-z
x,-y,z
1/2+x,1/2+y,z
1/2-x,1/2+y,-z
1/2-x,1/2-y,-z
1/2+x,1/2-y,z
loop_
_atom_site_type_symbol
_atom_site_label
_atom_site_fract_x
_atom_site_fract_y
_atom_site_fract_z
Si Si1 0.911286 0.166411 0.213860
Si Si2 0.944484 0.415747 0.888968
Si Si3 0.992052 0.415920 0.394572
Si Si4 0.302574 0.833589 0.213860
Si Si5 0.597480 0.584080 0.605428
O O1 0.744293 0.122496 0.152575
O O2 0.857277 0.250000 0.214555
O O3 0.948953 0.133901 0.317421
O O4 0.090309 0.159349 0.180618
O O5 0.930639 0.500000 0.861279
O O6 0.091718 0.377504 0.847425
O O7 0.000000 0.410765 0.000000
O O8 0.933000 0.500000 0.382171
O O9 0.868468 0.366099 0.317421
O O10 0.000000 0.395336 0.500000
O O11 0.191187 0.411964 0.382373
O O12 0.500000 0.604664 0.500000
O O13 0.550829 0.500000 0.617829
#
# Coordination Sequence:
#
# PCOD9199647 Si02
#       5
#     8   8   8   8   8
#     4  12  24  43  67  98 135 175 219 271 336 392
#     4  11  26  48  72  99 131 171 221 276 333 398
#     4  10  20  36  60  93 133 177 222 267 320 388
#     4  12  24  43  67  98 135 175 219 271 336 392
#     4  10  20  36  60  93 133 177 222 267 320 388
#
# _framework density 19.278728999999998
#
# number of rings (size 3 to 8) (size 9 to 14) (size 15 to 20)
#    0.000    1.000    4.000    2.400    0.000    7.200 
#    0.000    6.000    0.000    0.000    0.000    0.000 
#    0.000    0.000    0.000    0.000    0.000    0.000 
#
# Total GULP energy -111881.219273 kJ/mol
# GULP energy per Si atom -5594.060964 kJ/mol
# Density = 1.923485 g / cm^3
# Si number density = 19.278729 Si / 1000 Ang^3
#
#
#
# Elastic Constant Matrix: (Units=GPa)
#
#
# Indices 1 2 3 4 5 6 
#
# 1 168.4872 74.8190 51.5474 0.0000 1.4164 0.0000
# 2 74.8190 148.6418 71.9435 0.0000 0.0589 0.0000
# 3 51.5474 71.9435 85.2230 0.0000 0.2912 0.0000
# 4 0.0000 0.0000 0.0000 -64.8837 0.0000 1.9388
# 5 1.4164 0.0589 0.2912 0.0000 23.9633 0.0000
# 6 0.0000 0.0000 0.0000 1.9388 0.0000 29.6340
#
#
#
# Elastic Compliance Matrix: (Units=1/GPa)
#
#
# Indices 1 2 3 4 5 6 
#
# 1 0.007931 -0.002825 -0.002411 0.000000 -0.000433 0.000000
# 2 -0.002825 0.012382 -0.008745 0.000000 0.000243 0.000000
# 3 -0.002411 -0.008745 0.020574 0.000000 -0.000086 0.000000
# 4 0.000000 0.000000 0.000000 -0.015382 0.000000 0.001006
# 5 -0.000433 0.000243 -0.000086 0.000000 0.041756 0.000000
# 6 0.000000 0.000000 0.000000 0.001006 0.000000 0.033679
#
#
# Mechanical properties :
#
#
# Convention : Reuss Voigt Hill
#
# Bulk Modulus (GPa) = 77.36108 88.77464 83.06786
# Shear Modulus (GPa) = 37.53463 11.34553 24.44008
#
# Velocity S-wave (km/s) = 4.41721 2.42853 3.56437
# Velocity P-wave (km/s) = 8.13821 7.34926 7.75378
#
# Compressibility (1/GPa) = 0.01292640
#
# Stress axis : x y z
#
# Youngs Moduli (GPa) = 126.09017 80.76271 48.60405
#
# Poissons Ratio (x) = 0.22816 0.11717
# Poissons Ratio (y) = 0.35621 0.42503
# Poissons Ratio (z) = 0.30396 0.70624
#
# Static dielectric constant tensor:
#      x y z
#    x 1.670360 0.000000 0.000340 
#    y 0.000000 1.643520 0.000000 
#    z 0.000340 0.000000 1.653630 
# 
# From -- ./inp_files/41443.got.cif
#   From: 2010.05.17/outbox.cif.g08.bks.cpg/sg12_21_cif.got.tgz:41443.got - 2010.06.03 13:09:07.
