data_PCOD9199484
_publ_section_title
;
Structure prediction by ZEFSAII (Michael W. Deem and Ramdas Pophale) SiO2 
 PCOD9199484
Probable space group: C 2/M
;
_chemical_formula_sum "Si O2"
_cell_formula_units_Z 56
_cell_length_a 19.329504
_cell_length_b 8.653980
_cell_length_c 27.180321
_cell_angle_alpha 90.000000
_cell_angle_beta 138.086799
_cell_angle_gamma 90.000000
_cell_volume 3037.178101
_symmetry_space_group_name_H-M "C 2/M"
_symmetry_group_IT_number 12
_symmetry_cell_setting 'monoclinic'
loop_
_space_group_symop_operation_xyz
x,y,z
-x,y,-z
-x,-y,-z
x,-y,z
1/2+x,1/2+y,z
1/2-x,1/2+y,-z
1/2-x,1/2-y,-z
1/2+x,1/2-y,z
loop_
_atom_site_type_symbol
_atom_site_label
_atom_site_fract_x
_atom_site_fract_y
_atom_site_fract_z
Si Si1 0.240202 0.684665 0.742289
Si Si2 0.327704 0.316765 0.192505
Si Si3 0.032478 0.314272 0.572248
Si Si4 0.861574 0.175785 0.553814
Si Si5 0.059963 0.678962 0.202340
Si Si6 0.951358 0.326885 0.689555
Si Si7 0.828718 0.816852 0.081306
O O1 0.230709 0.500000 0.743963
O O2 0.235196 0.769385 0.792457
O O3 0.142737 0.735309 0.655397
O O4 0.350179 0.726187 0.776580
O O5 0.354196 0.500000 0.209739
O O6 0.427127 0.205865 0.247424
O O7 0.287643 0.291245 0.115606
O O8 0.037190 0.500000 0.572510
O O9 0.000000 0.259228 0.500000
O O10 0.940903 0.263472 0.560243
O O11 0.750000 0.250000 0.500000
O O12 0.905230 0.194538 0.631617
O O13 0.854604 0.000000 0.533898
O O14 0.061870 0.500000 0.187227
O O15 0.084358 0.682530 0.273448
O O16 0.943253 0.743750 0.135918
O O17 0.928690 0.500000 0.658332
O O18 0.838926 0.000000 0.080170
O O19 0.750000 0.750000 0.000000
#
# Coordination Sequence:
#
# PCOD9199484 Si02
#       7
#     8   8   8   8   8   8   8
#     4  11  22  37  60  87 121 159 199 248 298 352
#     4  10  20  36  60  88 117 154 194 235 286 347
#     4  10  23  42  60  84 118 157 200 249 305 356
#     4  12  25  39  58  82 113 150 195 248 299 354
#     4  10  22  38  60  88 121 156 197 243 290 348
#     4  10  20  37  58  83 112 148 194 242 291 345
#     4  10  21  39  64  93 124 156 194 237 291 350
#
# _framework density 18.438168000000001
#
# number of rings (size 3 to 8) (size 9 to 14) (size 15 to 20)
#    0.000    1.571    1.429    3.429    2.000    4.286 
#    0.000    0.714    0.000    4.286    0.000    0.000 
#    0.000    0.000    0.000    0.000    0.000    0.000 
#
# Total GULP energy -156155.737990 kJ/mol
# GULP energy per Si atom -5576.990642 kJ/mol
# Density = 1.839620 g / cm^3
# Si number density = 18.438168 Si / 1000 Ang^3
#
#
#
# Elastic Constant Matrix: (Units=GPa)
#
#
# Indices 1 2 3 4 5 6 
#
# 1 112.5164 24.2281 52.5625 0.0000 1.3742 0.0000
# 2 24.2281 47.4405 26.0676 0.0000 -10.5278 0.0000
# 3 52.5625 26.0676 105.9734 0.0000 -10.1568 0.0000
# 4 0.0000 0.0000 0.0000 27.4170 0.0000 1.9059
# 5 1.3742 -10.5278 -10.1568 0.0000 16.4561 0.0000
# 6 0.0000 0.0000 0.0000 1.9059 0.0000 21.0861
#
#
#
# Elastic Compliance Matrix: (Units=1/GPa)
#
#
# Indices 1 2 3 4 5 6 
#
# 1 0.012822 -0.005087 -0.005870 0.000000 -0.007948 0.000000
# 2 -0.005087 0.029144 -0.002996 0.000000 0.017221 0.000000
# 3 -0.005870 -0.002996 0.013762 0.000000 0.007068 0.000000
# 4 0.000000 0.000000 0.000000 0.036704 0.000000 -0.003318
# 5 -0.007948 0.017221 0.007068 0.000000 0.076811 0.000000
# 6 0.000000 0.000000 0.000000 -0.003318 0.000000 0.047725
#
#
# Mechanical properties :
#
#
# Convention : Reuss Voigt Hill
#
# Bulk Modulus (GPa) = 35.94029 52.40519 44.17274
# Shear Modulus (GPa) = 19.67354 23.86332 21.76843
#
# Velocity S-wave (km/s) = 3.27004 3.60145 3.43974
# Velocity P-wave (km/s) = 5.81311 6.76593 6.30753
#
# Compressibility (1/GPa) = 0.02782393
#
# Stress axis : x y z
#
# Youngs Moduli (GPa) = 77.98888 34.31192 72.66228
#
# Poissons Ratio (x) = 0.17453 0.42656
# Poissons Ratio (y) = 0.39670 0.21767
# Poissons Ratio (z) = 0.45783 0.10278
#
# Static dielectric constant tensor:
#      x y z
#    x 1.633390 0.000000 -0.060720 
#    y 0.000000 1.641700 0.000000 
#    z -0.060720 0.000000 1.514920 
# 
# From -- ./inp_files/363192.got.cif
#   From: 2010.05.17/outbox.cif.g08.bks.cpg/sg12_182_cif.got.tgz:363192.got - 2010.06.03 13:09:07.
