data_PCOD9199520
_publ_section_title
;
Structure prediction by ZEFSAII (Michael W. Deem and Ramdas Pophale) SiO2 
 PCOD9199520
Probable space group: C 2/M
;
_chemical_formula_sum "Si O2"
_cell_formula_units_Z 56
_cell_length_a 26.346976
_cell_length_b 14.441188
_cell_length_c 14.792819
_cell_angle_alpha 90.000000
_cell_angle_beta 150.777741
_cell_angle_gamma 90.000000
_cell_volume 2747.775841
_symmetry_space_group_name_H-M "C 2/M"
_symmetry_group_IT_number 12
_symmetry_cell_setting 'monoclinic'
loop_
_space_group_symop_operation_xyz
x,y,z
-x,y,-z
-x,-y,-z
x,-y,z
1/2+x,1/2+y,z
1/2-x,1/2+y,-z
1/2-x,1/2-y,-z
1/2+x,1/2-y,z
loop_
_atom_site_type_symbol
_atom_site_label
_atom_site_fract_x
_atom_site_fract_y
_atom_site_fract_z
Si Si1 0.655490 0.107730 0.448271
Si Si2 0.957501 0.220733 0.662475
Si Si3 0.297441 0.754233 0.974839
Si Si4 0.522384 0.603677 0.137848
Si Si5 0.218082 0.888257 0.711066
Si Si6 0.380184 0.888057 0.809109
Si Si7 0.285449 0.399019 0.816157
O O1 0.576194 0.173532 0.376337
O O2 0.665513 0.134795 0.359822
O O3 0.756751 0.118264 0.667083
O O4 0.623451 0.000000 0.398979
O O5 0.927411 0.172593 0.712383
O O6 0.889165 0.162997 0.483997
O O7 0.079947 0.229017 0.831873
O O8 0.250000 0.750000 0.000000
O O9 0.265696 0.851124 0.878731
O O10 0.250959 0.678403 0.832423
O O11 0.571205 0.500000 0.211495
O O12 0.500000 0.632801 0.000000
O O13 0.409027 0.595190 0.006898
O O14 0.305045 0.857015 0.772318
O O15 0.205938 0.000000 0.689660
O O16 0.383646 0.000000 0.822112
O O17 0.500000 0.855373 0.000000
O O18 0.241746 0.500000 0.772320
#
# Coordination Sequence:
#
# PCOD9199520 Si02
#       7
#     8   8   8   8   8   8   8
#     4  10  20  36  60  88 124 166 201 239 295 370
#     4  11  23  39  64  93 126 164 213 267 317 381
#     4  11  25  45  66  89 120 161 212 272 335 386
#     4   9  19  34  56  87 125 163 199 242 301 373
#     4  11  24  43  66  98 134 169 213 266 322 383
#     4   9  19  35  58  91 133 173 205 242 301 378
#     4   9  19  38  59  85 120 157 200 247 302 366
#
# _framework density 20.380119000000001
#
# number of rings (size 3 to 8) (size 9 to 14) (size 15 to 20)
#    0.000    2.000    1.429    1.286    2.000    6.857 
#    0.000    0.714    0.000    1.714    0.000    0.000 
#    0.000    0.000    0.000    0.000    0.000    0.000 
#
# Total GULP energy -156132.283659 kJ/mol
# GULP energy per Si atom -5576.152988 kJ/mol
# Density = 2.033373 g / cm^3
# Si number density = 20.380119 Si / 1000 Ang^3
#
#
#
# Elastic Constant Matrix: (Units=GPa)
#
#
# Indices 1 2 3 4 5 6 
#
# 1 88.1645 45.5886 41.1258 0.0000 -10.3139 0.0000
# 2 45.5886 76.8937 38.2351 0.0000 -5.6112 0.0000
# 3 41.1258 38.2351 96.1314 0.0000 -2.0944 0.0000
# 4 0.0000 0.0000 0.0000 26.3202 0.0000 -8.4715
# 5 -10.3139 -5.6112 -2.0944 0.0000 23.2412 0.0000
# 6 0.0000 0.0000 0.0000 -8.4715 0.0000 20.0121
#
#
#
# Elastic Compliance Matrix: (Units=1/GPa)
#
#
# Indices 1 2 3 4 5 6 
#
# 1 0.018357 -0.008253 -0.004445 0.000000 0.005753 0.000000
# 2 -0.008253 0.020184 -0.004480 0.000000 0.000807 0.000000
# 3 -0.004445 -0.004480 0.014047 0.000000 -0.001788 0.000000
# 4 0.000000 0.000000 0.000000 0.043987 0.000000 0.018620
# 5 0.005753 0.000807 -0.001788 0.000000 0.045614 0.000000
# 6 0.000000 0.000000 0.000000 0.018620 0.000000 0.057852
#
#
# Mechanical properties :
#
#
# Convention : Reuss Voigt Hill
#
# Bulk Modulus (GPa) = 54.84901 56.78761 55.81831
# Shear Modulus (GPa) = 20.79226 22.99737 21.89482
#
# Velocity S-wave (km/s) = 3.19756 3.36284 3.28124
# Velocity P-wave (km/s) = 6.37212 6.55767 6.46556
#
# Compressibility (1/GPa) = 0.01823187
#
# Stress axis : x y z
#
# Youngs Moduli (GPa) = 54.47659 49.54306 71.18987
#
# Poissons Ratio (x) = 0.40888 0.31645
# Poissons Ratio (y) = 0.44960 0.31892
# Poissons Ratio (z) = 0.24216 0.22194
#
# Static dielectric constant tensor:
#      x y z
#    x 1.673480 0.000000 0.002740 
#    y 0.000000 1.803460 0.000000 
#    z 0.002740 0.000000 1.805560 
# 
# From -- ./inp_files/246605.got.cif
#   From: 2010.05.17/outbox.cif.g08.bks.cpg/sg12_124_cif.got.tgz:246605.got - 2010.06.03 13:09:07.
