data_PCOD9199026
_publ_section_title
;
Structure prediction by ZEFSAII (Michael W. Deem and Ramdas Pophale) SiO2 
 PCOD9199026
Probable space group: C 2/M
;
_chemical_formula_sum "Si O2"
_cell_formula_units_Z 60
_cell_length_a 9.133775
_cell_length_b 29.253293
_cell_length_c 11.353351
_cell_angle_alpha 90.000000
_cell_angle_beta 118.459510
_cell_angle_gamma 90.000000
_cell_volume 2666.945479
_symmetry_space_group_name_H-M "C 2/M"
_symmetry_group_IT_number 12
_symmetry_cell_setting 'monoclinic'
loop_
_space_group_symop_operation_xyz
x,y,z
-x,y,-z
-x,-y,-z
x,-y,z
1/2+x,1/2+y,z
1/2-x,1/2+y,-z
1/2-x,1/2-y,-z
1/2+x,1/2-y,z
loop_
_atom_site_type_symbol
_atom_site_label
_atom_site_fract_x
_atom_site_fract_y
_atom_site_fract_z
Si Si1 0.753459 0.366680 0.426758
Si Si2 0.402062 0.402920 0.228179
Si Si3 0.690070 0.227649 0.857972
Si Si4 0.184878 0.170607 0.627902
Si Si5 0.569189 0.051234 0.159902
Si Si6 0.866551 0.371555 0.217640
Si Si7 0.638891 0.732766 0.301416
Si Si8 0.000000 0.895696 0.000000
O O1 0.590461 0.398980 0.349547
O O2 0.788564 0.363162 0.579356
O O3 0.872960 0.376889 0.362019
O O4 0.711032 0.313308 0.381738
O O5 0.326017 0.353756 0.247347
O O6 0.265974 0.437306 0.228357
O O7 0.425089 0.413837 0.097683
O O8 0.597475 0.178606 0.823423
O O9 0.551673 0.259182 0.742007
O O10 0.847064 0.225517 0.832826
O O11 0.750000 0.250000 0.000000
O O12 0.262160 0.220630 0.638679
O O13 0.000000 0.170432 0.500000
O O14 0.461713 0.088067 0.189601
O O15 0.543700 0.000000 0.196475
O O16 0.500000 0.053184 0.000000
O O17 0.667547 0.373189 0.113615
#
# Coordination Sequence:
#
# PCOD9199026 Si02
#       8
#     8   8   8   8   8   8   8   4
#     4   9  21  38  59  84 120 164 208 252 295 355
#     4  10  20  38  62  85 117 155 193 246 310 364
#     4  11  24  34  53  85 126 168 210 244 304 370
#     4  10  20  37  62  87 121 168 219 256 295 353
#     4  11  23  41  64  94 121 150 196 252 319 390
#     4  10  22  37  59  84 125 164 195 253 309 365
#     4  11  22  36  53  86 120 166 216 260 290 338
#     4  10  20  36  59  84 116 156 190 242 309 366
#
# _framework density 22.497647000000001
#
# number of rings (size 3 to 8) (size 9 to 14) (size 15 to 20)
#    0.000    1.733    1.333    3.200    7.467    1.067 
#    0.000    8.667    0.000    5.200    0.000    0.000 
#    0.000    0.000    0.000    0.000    0.000    0.000 
#
# Total GULP energy -167092.152202 kJ/mol
# GULP energy per Si atom -5569.738407 kJ/mol
# Density = 2.244644 g / cm^3
# Si number density = 22.497647 Si / 1000 Ang^3
#
#
#
# Elastic Constant Matrix: (Units=GPa)
#
#
# Indices 1 2 3 4 5 6 
#
# 1 121.4237 37.8382 18.7138 0.0000 -17.8217 0.0000
# 2 37.8382 101.0492 26.9460 0.0000 -0.9260 0.0000
# 3 18.7138 26.9460 83.2195 0.0000 -21.0177 0.0000
# 4 0.0000 0.0000 0.0000 18.9967 0.0000 -3.0836
# 5 -17.8217 -0.9260 -21.0177 0.0000 36.8989 0.0000
# 6 0.0000 0.0000 0.0000 -3.0836 0.0000 19.2104
#
#
#
# Elastic Compliance Matrix: (Units=1/GPa)
#
#
# Indices 1 2 3 4 5 6 
#
# 1 0.010106 -0.003790 0.000191 0.000000 0.004895 0.000000
# 2 -0.003790 0.012383 -0.004136 0.000000 -0.003876 0.000000
# 3 0.000191 -0.004136 0.015546 0.000000 0.008844 0.000000
# 4 0.000000 0.000000 0.000000 0.054049 0.000000 0.008676
# 5 0.004895 -0.003876 0.008844 0.000000 0.034405 0.000000
# 6 0.000000 0.000000 0.000000 0.008676 0.000000 0.053448
#
#
# Mechanical properties :
#
#
# Convention : Reuss Voigt Hill
#
# Bulk Modulus (GPa) = 44.31811 52.52093 48.41952
# Shear Modulus (GPa) = 24.63922 29.83416 27.23669
#
# Velocity S-wave (km/s) = 3.31296 3.64552 3.48321
# Velocity P-wave (km/s) = 5.86311 6.41214 6.14376
#
# Compressibility (1/GPa) = 0.02256414
#
# Stress axis : x y z
#
# Youngs Moduli (GPa) = 98.95426 80.75718 64.32428
#
# Poissons Ratio (x) = 0.30608 -0.01228
# Poissons Ratio (y) = 0.37505 0.26605
# Poissons Ratio (z) = -0.01889 0.33401
#
# Static dielectric constant tensor:
#      x y z
#    x 1.915950 0.000000 -0.017040 
#    y 0.000000 1.837090 0.000000 
#    z -0.017040 0.000000 1.922610 
# 
# From -- ./inp_files/125778.got.cif
#   From: 2010.05.17/outbox.cif.g08.bks.cpg/sg12_63_cif.got.tgz:125778.got - 2010.06.03 13:09:07.
