data_PCOD9199040
_publ_section_title
;
Structure prediction by ZEFSAII (Michael W. Deem and Ramdas Pophale) SiO2 
 PCOD9199040
Probable space group: C 2/M
;
_chemical_formula_sum "Si O2"
_cell_formula_units_Z 64
_cell_length_a 14.488160
_cell_length_b 8.873488
_cell_length_c 32.389027
_cell_angle_alpha 90.000000
_cell_angle_beta 48.488255
_cell_angle_gamma 90.000000
_cell_volume 3118.048487
_symmetry_space_group_name_H-M "C 2/M"
_symmetry_group_IT_number 12
_symmetry_cell_setting 'monoclinic'
loop_
_space_group_symop_operation_xyz
x,y,z
-x,y,-z
-x,-y,-z
x,-y,z
1/2+x,1/2+y,z
1/2-x,1/2+y,-z
1/2-x,1/2-y,-z
1/2+x,1/2-y,z
loop_
_atom_site_type_symbol
_atom_site_label
_atom_site_fract_x
_atom_site_fract_y
_atom_site_fract_z
Si Si1 0.627643 0.179437 0.055215
Si Si2 0.870024 0.679250 0.560526
Si Si3 0.377405 0.180468 0.846877
Si Si4 0.123048 0.821722 0.877212
Si Si5 0.389229 0.681794 0.645194
Si Si6 0.010188 0.171964 0.734315
Si Si7 0.379965 0.821163 0.375682
Si Si8 0.744672 0.172086 0.766023
O O1 0.618973 0.219754 0.106291
O O2 0.501943 0.240507 0.072599
O O3 0.633218 0.000000 0.050249
O O4 0.750000 0.250000 0.000000
O O5 0.848276 0.500000 0.567119
O O6 0.876386 0.742210 0.604948
O O7 0.755361 0.762103 0.573121
O O8 0.000000 0.708895 0.500000
O O9 0.241843 0.220186 0.869424
O O10 0.478750 0.260173 0.788194
O O11 0.391647 0.000000 0.837997
O O12 0.158878 0.772762 0.820023
O O13 0.106078 0.000000 0.884417
O O14 0.389763 0.500000 0.642175
O O15 0.516023 0.739016 0.628153
O O16 0.279622 0.723537 0.709702
O O17 0.093673 0.273097 0.679702
O O18 0.877290 0.168675 0.750112
O O19 0.055657 0.000000 0.722815
O O20 0.390169 0.000000 0.376965
O O21 0.696752 0.000000 0.779316
#
# Coordination Sequence:
#
# PCOD9199040 Si02
#       8
#     8   8   8   8   8   8   8   8
#     4  11  24  41  58  79 110 147 190 236 279 332
#     4  11  25  43  61  84 115 153 201 250 293 345
#     4   9  20  38  59  83 114 150 185 227 283 342
#     4  10  20  36  59  85 112 145 184 227 277 333
#     4  10  21  39  63  90 121 155 193 240 293 349
#     4   9  17  32  57  88 119 148 186 235 283 339
#     4  11  22  38  62  89 120 157 194 237 292 350
#     4   8  16  32  55  85 117 147 180 224 279 337
#
# _framework density 20.525658
#
# number of rings (size 3 to 8) (size 9 to 14) (size 15 to 20)
#    0.000    2.125    0.000    3.750    0.000    8.000 
#    0.000    3.750    0.000    0.000    0.000    0.000 
#    0.000    0.000    0.000    0.000    0.000    0.000 
#
# Total GULP energy -178898.325932 kJ/mol
# GULP energy per Si atom -5590.572685 kJ/mol
# Density = 2.047894 g / cm^3
# Si number density = 20.525658 Si / 1000 Ang^3
#
#
#
# Elastic Constant Matrix: (Units=GPa)
#
#
# Indices 1 2 3 4 5 6 
#
# 1 63.6907 4.1687 20.3670 0.0000 -13.1949 0.0000
# 2 4.1687 43.6742 22.2629 -0.0002 -10.5488 -0.0001
# 3 20.3670 22.2629 47.3114 0.0000 -18.4507 0.0000
# 4 0.0000 -0.0002 0.0000 36.3414 0.0000 -2.3038
# 5 -13.1949 -10.5488 -18.4507 0.0000 33.6138 0.0000
# 6 0.0000 -0.0001 0.0000 -2.3038 0.0000 25.3888
#
#
#
# Elastic Compliance Matrix: (Units=1/GPa)
#
#
# Indices 1 2 3 4 5 6 
#
# 1 0.018916 0.003310 -0.008143 0.000000 0.003994 0.000000
# 2 0.003310 0.030822 -0.014823 0.000000 0.002836 0.000000
# 3 -0.008143 -0.014823 0.036334 0.000000 0.012096 0.000000
# 4 0.000000 0.000000 0.000000 0.027676 0.000000 0.002511
# 5 0.003994 0.002836 0.012096 0.000000 0.038847 0.000000
# 6 0.000000 0.000000 0.000000 0.002511 0.000000 0.039615
#
#
# Mechanical properties :
#
#
# Convention : Reuss Voigt Hill
#
# Bulk Modulus (GPa) = 21.38544 27.58595 24.48570
# Shear Modulus (GPa) = 20.23415 26.26067 23.24741
#
# Velocity S-wave (km/s) = 3.14315 3.58076 3.36907
# Velocity P-wave (km/s) = 4.85942 5.52854 5.20474
#
# Compressibility (1/GPa) = 0.04676078
#
# Stress axis : x y z
#
# Youngs Moduli (GPa) = 52.86628 32.44483 27.52236
#
# Poissons Ratio (x) = -0.10740 0.22411
# Poissons Ratio (y) = -0.17499 0.40795
# Poissons Ratio (z) = 0.43048 0.48091
#
# Static dielectric constant tensor:
#      x y z
#    x 1.784900 0.000000 -0.002800 
#    y 0.000000 1.685350 0.000000 
#    z -0.002800 0.000000 1.709270 
# 
# From -- ./inp_files/375444.got.cif
#   From: 2010.05.17/outbox.cif.g08.bks.cpg/sg12_188_cif.got.tgz:375444.got - 2010.06.03 13:09:07.
