data_PCOD9199999
_publ_section_title
;
Structure prediction by ZEFSAII (Michael W. Deem and Ramdas Pophale) SiO2 
 PCOD9199999
Probable space group: C 2/M
;
_chemical_formula_sum "Si O2"
_cell_formula_units_Z 40
_cell_length_a 16.624258
_cell_length_b 12.437953
_cell_length_c 7.346167
_cell_angle_alpha 90.000000
_cell_angle_beta 92.935960
_cell_angle_gamma 90.000000
_cell_volume 1516.985929
_symmetry_space_group_name_H-M "C 2/M"
_symmetry_group_IT_number 12
_symmetry_cell_setting 'monoclinic'
loop_
_space_group_symop_operation_xyz
x,y,z
-x,y,-z
-x,-y,-z
x,-y,z
1/2+x,1/2+y,z
1/2-x,1/2+y,-z
1/2-x,1/2-y,-z
1/2+x,1/2-y,z
loop_
_atom_site_type_symbol
_atom_site_label
_atom_site_fract_x
_atom_site_fract_y
_atom_site_fract_z
Si Si1 0.369294 0.651969 0.489721
Si Si2 0.957476 0.612906 0.190747
Si Si3 0.496467 0.651834 0.217563
Si Si4 0.316706 0.115449 0.568082
Si Si5 0.786831 0.374641 0.990587
O O1 0.506139 0.777844 0.734437
O O2 0.414604 0.615800 0.310075
O O3 0.424950 0.615177 0.663975
O O4 0.359040 0.780818 0.493228
O O5 0.976343 0.500000 0.283493
O O6 0.862863 0.624545 0.134023
O O7 0.000000 0.607090 0.000000
O O8 0.500000 0.634370 0.000000
O O9 0.222382 0.116118 0.504181
O O10 0.349719 0.000000 0.520000
O O11 0.316893 0.124275 0.786439
O O12 0.749415 0.500000 0.010254
O O13 0.750000 0.250000 0.000000
#
# Coordination Sequence:
#
# PCOD9199999 Si02
#       5
#     8   8   8   8   8
#     4  10  22  38  61  91 120 163 215 261 328 405
#     4   9  17  30  53  85 117 153 201 257 316 376
#     4  10  20  37  61  87 122 163 209 274 334 388
#     4  10  21  39  61  88 129 173 214 270 333 395
#     4  10  20  36  62  95 131 172 217 269 330 395
#
# _framework density 26.368075999999999
#
# number of rings (size 3 to 8) (size 9 to 14) (size 15 to 20)
#    0.000    2.200    0.000    3.600    0.000    3.200 
#    0.000   13.000    0.000    6.600    0.000    5.600 
#    0.000    0.000    0.000    0.000    0.000    0.000 
#
# Total GULP energy -111652.813404 kJ/mol
# GULP energy per Si atom -5582.640670 kJ/mol
# Density = 2.630806 g / cm^3
# Si number density = 26.368076 Si / 1000 Ang^3
#
#
#
# Elastic Constant Matrix: (Units=GPa)
#
#
# Indices 1 2 3 4 5 6 
#
# 1 138.6135 40.9557 64.6068 0.0000 7.8126 0.0000
# 2 40.9557 277.4269 32.3973 0.0000 -1.9191 0.0000
# 3 64.6068 32.3973 159.8109 0.0000 -12.0532 0.0000
# 4 0.0000 0.0000 0.0000 -79.9159 0.0000 -6.3360
# 5 7.8126 -1.9191 -12.0532 0.0000 44.6529 0.0000
# 6 0.0000 0.0000 0.0000 -6.3360 0.0000 1.9535
#
#
#
# Elastic Compliance Matrix: (Units=1/GPa)
#
#
# Indices 1 2 3 4 5 6 
#
# 1 0.009436 -0.000965 -0.003824 0.000000 -0.002725 0.000000
# 2 -0.000965 0.003791 -0.000361 0.000000 0.000234 0.000000
# 3 -0.003824 -0.000361 0.008091 0.000000 0.002838 0.000000
# 4 0.000000 0.000000 0.000000 -0.009954 0.000000 -0.032284
# 5 -0.002725 0.000234 0.002838 0.000000 0.023648 0.000000
# 6 0.000000 0.000000 0.000000 -0.032284 0.000000 0.407196
#
#
# Mechanical properties :
#
#
# Convention : Reuss Voigt Hill
#
# Bulk Modulus (GPa) = 90.77179 94.64121 92.70650
# Shear Modulus (GPa) = 10.96059 22.53084 16.74571
#
# Velocity S-wave (km/s) = 2.04103 2.92631 2.52280
# Velocity P-wave (km/s) = 6.32882 6.88389 6.61219
#
# Compressibility (1/GPa) = 0.01101664
#
# Stress axis : x y z
#
# Youngs Moduli (GPa) = 105.98205 263.79839 123.60055
#
# Poissons Ratio (x) = 0.25462 0.47269
# Poissons Ratio (y) = 0.10229 0.04457
# Poissons Ratio (z) = 0.40531 0.09512
#
# Static dielectric constant tensor:
#      x y z
#    x 2.041870 0.000000 -0.028270 
#    y 0.000000 2.170900 0.000000 
#    z -0.028270 0.000000 1.998650 
# 
# From -- ./inp_files/83564.got.cif
#   From: 2010.05.17/outbox.cif.g08.bks.cpg/sg12_42_cif.got.tgz:83564.got - 2010.06.03 13:09:07.
