data_PCOD9199236
_publ_section_title
;
Structure prediction by ZEFSAII (Michael W. Deem and Ramdas Pophale) SiO2 
 PCOD9199236
Probable space group: C 2/M
;
_chemical_formula_sum "Si O2"
_cell_formula_units_Z 32
_cell_length_a 12.617971
_cell_length_b 23.257367
_cell_length_c 8.102540
_cell_angle_alpha 90.000000
_cell_angle_beta 42.286383
_cell_angle_gamma 90.000000
_cell_volume 1599.856150
_symmetry_space_group_name_H-M "C 2/M"
_symmetry_group_IT_number 12
_symmetry_cell_setting 'monoclinic'
loop_
_space_group_symop_operation_xyz
x,y,z
-x,y,-z
-x,-y,-z
x,-y,z
1/2+x,1/2+y,z
1/2-x,1/2+y,-z
1/2-x,1/2-y,-z
1/2+x,1/2-y,z
loop_
_atom_site_type_symbol
_atom_site_label
_atom_site_fract_x
_atom_site_fract_y
_atom_site_fract_z
Si Si1 0.814305 0.280912 0.194603
Si Si2 0.884633 0.141463 0.790118
Si Si3 0.181891 0.160950 0.657726
Si Si4 0.813145 0.431908 0.741659
O O1 0.724321 0.305350 0.140367
O O2 0.763020 0.216408 0.300397
O O3 0.767891 0.327261 0.386905
O O4 0.000000 0.278819 0.000000
O O5 0.000000 0.126354 0.500000
O O6 0.000340 0.159484 0.807065
O O7 0.766668 0.093456 0.999314
O O8 0.228616 0.102548 0.691865
O O9 0.787696 0.500000 0.763579
O O10 0.000000 0.420923 0.500000
#
# Coordination Sequence:
#
# PCOD9199236 Si02
#       4
#     8   8   8   8
#     4  10  20  36  59  88 122 154 188 237 293 347
#     4  10  22  39  60  89 119 152 194 237 290 347
#     4  10  22  37  59  89 118 154 195 237 289 346
#     4  11  24  41  61  85 115 154 198 242 289 343
#
# _framework density 20.001798000000001
#
# number of rings (size 3 to 8) (size 9 to 14) (size 15 to 20)
#    0.000    1.750    0.000    3.750    0.000   11.500 
#    0.000    3.750    0.000   13.500    0.000    0.000 
#    0.000    0.000    0.000    0.000    0.000    0.000 
#
# Total GULP energy -89185.206958 kJ/mol
# GULP energy per Si atom -5574.075435 kJ/mol
# Density = 1.995627 g / cm^3
# Si number density = 20.001798 Si / 1000 Ang^3
#
#
#
# Elastic Constant Matrix: (Units=GPa)
#
#
# Indices 1 2 3 4 5 6 
#
# 1 140.5638 80.1264 26.1418 0.0000 -10.6544 0.0000
# 2 80.1264 107.8447 44.7722 0.0000 4.6971 0.0000
# 3 26.1418 44.7722 88.3828 0.0000 5.5735 0.0000
# 4 0.0000 0.0000 0.0000 27.2712 0.0000 0.8537
# 5 -10.6544 4.6971 5.5735 0.0000 27.5968 0.0000
# 6 0.0000 0.0000 0.0000 0.8537 0.0000 27.2903
#
#
#
# Elastic Compliance Matrix: (Units=1/GPa)
#
#
# Indices 1 2 3 4 5 6 
#
# 1 0.013637 -0.010862 0.001033 0.000000 0.006905 0.000000
# 2 -0.010862 0.020411 -0.006729 0.000000 -0.006308 0.000000
# 3 0.001033 -0.006729 0.014505 0.000000 -0.001385 0.000000
# 4 0.000000 0.000000 0.000000 0.036705 0.000000 -0.001148
# 5 0.006905 -0.006308 -0.001385 0.000000 0.040255 0.000000
# 6 0.000000 0.000000 0.000000 -0.001148 0.000000 0.036679
#
#
# Mechanical properties :
#
#
# Convention : Reuss Voigt Hill
#
# Bulk Modulus (GPa) = 64.77625 70.98579 67.88102
# Shear Modulus (GPa) = 24.94350 28.81505 26.87928
#
# Velocity S-wave (km/s) = 3.53521 3.79967 3.66982
# Velocity P-wave (km/s) = 7.00850 7.40383 7.20888
#
# Compressibility (1/GPa) = 0.01543776
#
# Stress axis : x y z
#
# Youngs Moduli (GPa) = 73.33004 48.99319 68.94198
#
# Poissons Ratio (x) = 0.53215 -0.07123
# Poissons Ratio (y) = 0.79649 0.46392
# Poissons Ratio (z) = -0.07577 0.32968
#
# Static dielectric constant tensor:
#      x y z
#    x 1.739490 0.000000 0.002940 
#    y 0.000000 1.665920 0.000000 
#    z 0.002940 0.000000 1.831620 
# 
# From -- ./inp_files/49044.got.cif
#   From: 2010.05.17/outbox.cif.g08.bks.cpg/sg12_25_cif.got.tgz:49044.got - 2010.06.03 13:09:07.
