data_PCOD9199384
_publ_section_title
;
Structure prediction by ZEFSAII (Michael W. Deem and Ramdas Pophale) SiO2 
 PCOD9199384
Probable space group: C 2/M
;
_chemical_formula_sum "Si O2"
_cell_formula_units_Z 32
_cell_length_a 12.376595
_cell_length_b 14.619153
_cell_length_c 7.031003
_cell_angle_alpha 90.000000
_cell_angle_beta 121.947995
_cell_angle_gamma 90.000000
_cell_volume 1079.461673
_symmetry_space_group_name_H-M "C 2/M"
_symmetry_group_IT_number 12
_symmetry_cell_setting 'monoclinic'
loop_
_space_group_symop_operation_xyz
x,y,z
-x,y,-z
-x,-y,-z
x,-y,z
1/2+x,1/2+y,z
1/2-x,1/2+y,-z
1/2-x,1/2-y,-z
1/2+x,1/2-y,z
loop_
_atom_site_type_symbol
_atom_site_label
_atom_site_fract_x
_atom_site_fract_y
_atom_site_fract_z
Si Si1 0.060223 0.189229 0.804209
Si Si2 0.502310 0.894186 0.233634
Si Si3 0.322263 0.603017 0.421892
Si Si4 0.744502 0.396428 0.246095
O O1 0.957710 0.111440 0.654671
O O2 0.863472 0.169657 0.934364
O O3 0.986464 0.283395 0.722625
O O4 0.166877 0.174138 0.738033
O O5 0.366087 0.895669 0.224556
O O6 0.545100 0.000000 0.323799
O O7 0.500000 0.897538 0.000000
O O8 0.301073 0.500000 0.330544
O O9 0.223639 0.623120 0.500982
O O10 0.693741 0.500000 0.195786
#
# Coordination Sequence:
#
# PCOD9199384 Si02
#       4
#     8   8   8   8
#     4  11  20  35  60  85 115 150 181 225 286 338
#     4  10  22  39  57  80 112 152 198 236 267 320
#     4  10  21  36  58  91 119 139 178 232 285 345
#     4  10  20  36  60  86 114 148 183 228 284 334
#
# _framework density 29.644406
#
# number of rings (size 3 to 8) (size 9 to 14) (size 15 to 20)
#    0.000    1.750    0.000    6.000    0.000    3.000 
#    0.000    5.000    0.000   13.500    0.000    0.000 
#    0.000    0.000    0.000    0.000    0.000    0.000 
#
# Total GULP energy -89491.945902 kJ/mol
# GULP energy per Si atom -5593.246619 kJ/mol
# Density = 2.957693 g / cm^3
# Si number density = 29.644406 Si / 1000 Ang^3
#
#
#
# Elastic Constant Matrix: (Units=GPa)
#
#
# Indices 1 2 3 4 5 6 
#
# 1 -55.4573 137.7399 -35.1825 0.0000 -71.2495 0.0000
# 2 137.7399 226.1590 69.8743 0.0000 18.2580 0.0000
# 3 -35.1825 69.8743 147.6019 0.0000 -56.6606 0.0000
# 4 0.0000 0.0000 0.0000 208.0920 0.0000 -220.4376
# 5 -71.2495 18.2580 -56.6606 0.0000 47.3359 0.0000
# 6 0.0000 0.0000 0.0000 -220.4376 0.0000 369.8650
#
#
#
# Elastic Compliance Matrix: (Units=1/GPa)
#
#
# Indices 1 2 3 4 5 6 
#
# 1 -0.000865 0.002311 -0.003963 0.000000 -0.006937 0.000000
# 2 0.002311 0.002622 0.000475 0.000000 0.003036 0.000000
# 3 -0.003963 0.000475 0.006004 0.000000 0.001038 0.000000
# 4 0.000000 0.000000 0.000000 0.013036 0.000000 0.007769
# 5 -0.006937 0.003036 0.001038 0.000000 0.010756 0.000000
# 6 0.000000 0.000000 0.000000 0.007769 0.000000 0.007334
#
#
# Mechanical properties :
#
#
# Convention : Reuss Voigt Hill
#
# Bulk Modulus (GPa) = 184.93491 73.68521 129.31006
# Shear Modulus (GPa) = 116.16129 134.78337 125.47233
#
# Velocity S-wave (km/s) = 6.26657 6.75022 6.51289
# Velocity P-wave (km/s) = 10.71820 9.25550 10.01359
#
# Compressibility (1/GPa) = 0.00540731
#
# Stress axis : x y z
#
# Youngs Moduli (GPa) = -1156.34825 381.35445 166.55550
#
# Poissons Ratio (x) = -0.88139 0.66009
# Poissons Ratio (y) = 2.67255 -0.07910
# Poissons Ratio (z) = -4.58284 -0.18112
#
# Static dielectric constant tensor:
#      x y z
#    x -0.300960 0.000000 -0.385290 
#    y 0.000000 2.129570 0.000000 
#    z -0.385290 0.000000 2.352970 
# 
# From -- ./inp_files/139469.got.cif
#   From: 2010.05.17/outbox.cif.g08.bks.cpg/sg12_70_cif.got.tgz:139469.got - 2010.06.03 13:09:07.
