data_PCOD9199758
_publ_section_title
;
Structure prediction by ZEFSAII (Michael W. Deem and Ramdas Pophale) SiO2 
 PCOD9199758
Probable space group: C 2/M
;
_chemical_formula_sum "Si O2"
_cell_formula_units_Z 44
_cell_length_a 19.116622
_cell_length_b 14.718200
_cell_length_c 13.690574
_cell_angle_alpha 90.000000
_cell_angle_beta 29.264708
_cell_angle_gamma 90.000000
_cell_volume 1883.037041
_symmetry_space_group_name_H-M "C 2/M"
_symmetry_group_IT_number 12
_symmetry_cell_setting 'monoclinic'
loop_
_space_group_symop_operation_xyz
x,y,z
-x,y,-z
-x,-y,-z
x,-y,z
1/2+x,1/2+y,z
1/2-x,1/2+y,-z
1/2-x,1/2-y,-z
1/2+x,1/2-y,z
loop_
_atom_site_type_symbol
_atom_site_label
_atom_site_fract_x
_atom_site_fract_y
_atom_site_fract_z
Si Si1 0.765383 0.000000 0.901060
Si Si2 0.327679 0.703034 0.811214
Si Si3 0.947525 0.000000 0.319346
Si Si4 0.413563 0.308222 0.372084
Si Si5 0.032399 0.500000 0.621498
Si Si6 0.420444 0.196623 0.189112
Si Si7 0.636519 0.000000 0.706382
Si Si8 0.000000 0.346009 0.500000
O O1 0.770780 0.102868 0.847508
O O2 0.905550 0.000000 0.800383
O O3 0.623232 0.000000 0.138906
O O4 0.488494 0.682251 0.653849
O O5 0.361886 0.783395 0.693542
O O6 0.250000 0.750000 0.000000
O O7 0.931395 0.097812 0.289611
O O8 0.794620 0.000000 0.562475
O O9 0.474009 0.232810 0.226988
O O10 0.250623 0.288726 0.599068
O O11 0.038590 0.411593 0.544253
O O12 0.140527 0.500000 0.582285
O O13 0.441541 0.089692 0.167045
O O14 0.500000 0.237009 0.000000
#
# Coordination Sequence:
#
# PCOD9199758 Si02
#       8
#     4   8   4   8   4   8   4   4
#     4  10  21  41  67  90 124 169 214 258 323 378
#     4  11  22  40  63  90 127 171 211 265 323 368
#     4   8  18  39  64  81 116 167 196 244 316 364
#     4   9  20  38  58  86 124 158 202 256 308 369
#     4  11  22  41  65  99 126 168 219 266 312 380
#     4  10  20  36  61  90 120 160 205 251 309 376
#     4  10  20  38  65  88 124 161 201 260 318 367
#     4  11  24  39  64  96 128 171 216 261 316 390
#
# _framework density 23.366509000000001
#
# number of rings (size 3 to 8) (size 9 to 14) (size 15 to 20)
#    0.000    2.000    1.818    1.364    0.000    1.818 
#    0.000    0.455    0.000    0.000    0.000    0.000 
#    0.000    0.000    0.000    0.000    0.000    0.000 
#
# Total GULP energy -122627.484658 kJ/mol
# GULP energy per Si atom -5573.976575 kJ/mol
# Density = 2.331333 g / cm^3
# Si number density = 23.366509 Si / 1000 Ang^3
#
#
#
# Elastic Constant Matrix: (Units=GPa)
#
#
# Indices 1 2 3 4 5 6 
#
# 1 55.7540 -7.8308 36.5609 0.0000 -12.0364 0.0000
# 2 -7.8308 133.9866 50.3155 0.0000 18.2254 0.0000
# 3 36.5609 50.3155 93.4835 0.0000 7.2240 0.0000
# 4 0.0000 0.0000 0.0000 14.8935 0.0000 -2.4295
# 5 -12.0364 18.2254 7.2240 0.0000 39.9415 0.0000
# 6 0.0000 0.0000 0.0000 -2.4295 0.0000 11.6548
#
#
#
# Elastic Compliance Matrix: (Units=1/GPa)
#
#
# Indices 1 2 3 4 5 6 
#
# 1 0.032212 0.007000 -0.017108 0.000000 0.009607 0.000000
# 2 0.007000 0.011356 -0.008734 0.000000 -0.001492 0.000000
# 3 -0.017108 -0.008734 0.022494 0.000000 -0.005238 0.000000
# 4 0.000000 0.000000 0.000000 0.069507 0.000000 0.014489
# 5 0.009607 -0.001492 -0.005238 0.000000 0.029560 0.000000
# 6 0.000000 0.000000 0.000000 0.014489 0.000000 0.088822
#
#
# Mechanical properties :
#
#
# Convention : Reuss Voigt Hill
#
# Bulk Modulus (GPa) = 35.23970 49.03504 42.13737
# Shear Modulus (GPa) = 16.60617 26.90986 21.75802
#
# Velocity S-wave (km/s) = 2.66876 3.39727 3.05481
# Velocity P-wave (km/s) = 4.96088 6.03484 5.52402
#
# Compressibility (1/GPa) = 0.02837709
#
# Stress axis : x y z
#
# Youngs Moduli (GPa) = 31.04444 88.06279 44.45662
#
# Poissons Ratio (x) = -0.61647 0.76057
# Poissons Ratio (y) = -0.21732 0.38830
# Poissons Ratio (z) = 0.53111 0.76917
#
# Static dielectric constant tensor:
#      x y z
#    x 1.919100 0.000000 -0.036360 
#    y 0.000000 2.015200 0.000000 
#    z -0.036360 0.000000 1.846220 
# 
# From -- ./inp_files/233638.got.cif
#   From: 2010.05.17/outbox.cif.g08.bks.cpg/sg12_117_cif.got.tgz:233638.got - 2010.06.03 13:09:07.
