data_PCOD9199422
_publ_section_title
;
Structure prediction by ZEFSAII (Michael W. Deem and Ramdas Pophale) SiO2 
 PCOD9199422
Probable space group: C 2/M
;
_chemical_formula_sum "Si O2"
_cell_formula_units_Z 56
_cell_length_a 19.421841
_cell_length_b 7.493616
_cell_length_c 29.775110
_cell_angle_alpha 90.000000
_cell_angle_beta 149.048536
_cell_angle_gamma 90.000000
_cell_volume 2228.751605
_symmetry_space_group_name_H-M "C 2/M"
_symmetry_group_IT_number 12
_symmetry_cell_setting 'monoclinic'
loop_
_space_group_symop_operation_xyz
x,y,z
-x,y,-z
-x,-y,-z
x,-y,z
1/2+x,1/2+y,z
1/2-x,1/2+y,-z
1/2-x,1/2-y,-z
1/2+x,1/2-y,z
loop_
_atom_site_type_symbol
_atom_site_label
_atom_site_fract_x
_atom_site_fract_y
_atom_site_fract_z
Si Si1 0.472959 0.793744 0.270754
Si Si2 0.495843 0.701467 0.047197
Si Si3 0.033608 0.216164 0.635326
Si Si4 0.536376 0.717068 0.165589
Si Si5 0.294084 0.703078 0.088488
Si Si6 0.276958 0.281818 0.443461
Si Si7 0.190904 0.792524 0.637097
O O1 0.414539 0.782218 0.288078
O O2 0.384551 0.701571 0.183934
O O3 0.623973 0.720600 0.359895
O O4 0.481581 0.000000 0.261844
O O5 0.550247 0.500000 0.072214
O O6 0.340793 0.694600 0.975460
O O7 0.500000 0.786548 0.000000
O O8 0.562942 0.780907 0.129531
O O9 0.116628 0.282740 0.638914
O O10 0.880350 0.273618 0.539667
O O11 0.038559 0.000000 0.639366
O O12 0.536025 0.500000 0.165029
O O13 0.392615 0.773422 0.104840
O O14 0.652055 0.778572 0.263724
O O15 0.256437 0.500000 0.056887
O O16 0.274826 0.500000 0.442642
O O17 0.332876 0.222314 0.426085
O O18 0.151484 0.000000 0.613124
#
# Coordination Sequence:
#
# PCOD9199422 Si02
#       7
#     8   8   8   8   8   8   8
#     4  11  22  37  59  85 117 158 199 242 294 355
#     4  10  23  42  64  91 121 154 188 232 292 353
#     4  10  21  36  57  86 120 155 197 250 297 342
#     4  10  22  40  61  87 120 156 194 239 289 341
#     4  11  23  40  62  88 118 154 197 245 288 338
#     4   9  18  36  59  84 114 155 203 244 290 347
#     4  10  20  36  60  87 116 156 200 242 289 345
#
# _framework density 25.126172
#
# number of rings (size 3 to 8) (size 9 to 14) (size 15 to 20)
#    0.000    1.857    1.429    2.143    2.000    3.714 
#    0.000    1.429    0.000    1.714    0.000    0.000 
#    0.000    0.000    0.000    0.000    0.000    0.000 
#
# Total GULP energy -156647.566804 kJ/mol
# GULP energy per Si atom -5594.555957 kJ/mol
# Density = 2.506898 g / cm^3
# Si number density = 25.126172 Si / 1000 Ang^3
#
#
#
# Elastic Constant Matrix: (Units=GPa)
#
#
# Indices 1 2 3 4 5 6 
#
# 1 104.1158 -5.0893 11.8369 -0.0001 -31.0742 -0.0001
# 2 -5.0893 84.5867 0.6746 -0.0003 -2.8810 0.0003
# 3 11.8369 0.6746 71.7900 0.0000 -26.0634 0.0000
# 4 -0.0001 -0.0003 0.0000 10.0363 0.0000 -0.1149
# 5 -31.0742 -2.8810 -26.0634 0.0000 55.9196 -0.0001
# 6 -0.0001 0.0003 0.0000 -0.1149 -0.0001 8.2990
#
#
#
# Elastic Compliance Matrix: (Units=1/GPa)
#
#
# Indices 1 2 3 4 5 6 
#
# 1 0.011601 0.000923 0.000525 0.000000 0.006739 0.000000
# 2 0.000923 0.011918 0.000174 0.000000 0.001208 0.000000
# 3 0.000525 0.000174 0.016792 0.000000 0.008127 0.000000
# 4 0.000000 0.000000 0.000000 0.099654 0.000000 0.001379
# 5 0.006739 0.001208 0.008127 0.000000 0.025478 0.000000
# 6 0.000000 0.000000 0.000000 0.001379 0.000000 0.120516
#
#
# Mechanical properties :
#
#
# Convention : Reuss Voigt Hill
#
# Bulk Modulus (GPa) = 22.95847 30.59297 26.77572
# Shear Modulus (GPa) = 16.82187 31.72233 24.27210
#
# Velocity S-wave (km/s) = 2.59027 3.55705 3.11144
# Velocity P-wave (km/s) = 4.25477 5.39188 4.85672
#
# Compressibility (1/GPa) = 0.04355691
#
# Stress axis : x y z
#
# Youngs Moduli (GPa) = 86.19582 83.91007 59.55247
#
# Poissons Ratio (x) = -0.07748 -0.03127
# Poissons Ratio (y) = -0.07959 -0.01039
# Poissons Ratio (z) = -0.04526 -0.01464
#
# Static dielectric constant tensor:
#      x y z
#    x 2.007420 0.000000 0.018060 
#    y 0.000000 1.962560 0.000000 
#    z 0.018060 0.000000 1.952090 
# 
# From -- ./inp_files/275701.got.cif
#   From: 2010.05.17/outbox.cif.g08.bks.cpg/sg12_138_cif.got.tgz:275701.got - 2010.06.03 13:09:07.
