data_PCOD9199408
_publ_section_title
;
Structure prediction by ZEFSAII (Michael W. Deem and Ramdas Pophale) SiO2 
 PCOD9199408
Probable space group: C 2/M
;
_chemical_formula_sum "Si O2"
_cell_formula_units_Z 56
_cell_length_a 14.833715
_cell_length_b 7.884051
_cell_length_c 22.324280
_cell_angle_alpha 90.000000
_cell_angle_beta 88.790278
_cell_angle_gamma 90.000000
_cell_volume 2610.237402
_symmetry_space_group_name_H-M "C 2/M"
_symmetry_group_IT_number 12
_symmetry_cell_setting 'monoclinic'
loop_
_space_group_symop_operation_xyz
x,y,z
-x,y,-z
-x,-y,-z
x,-y,z
1/2+x,1/2+y,z
1/2-x,1/2+y,-z
1/2-x,1/2-y,-z
1/2+x,1/2-y,z
loop_
_atom_site_type_symbol
_atom_site_label
_atom_site_fract_x
_atom_site_fract_y
_atom_site_fract_z
Si Si1 0.128578 0.200847 0.557515
Si Si2 0.521627 0.701043 0.350471
Si Si3 0.329780 0.198924 0.570406
Si Si4 0.463444 0.794534 0.218616
Si Si5 0.897955 0.701939 0.883626
Si Si6 0.807507 0.294379 0.139805
Si Si7 0.354354 0.203950 0.011377
O O1 0.228374 0.270478 0.570946
O O2 0.116344 0.224241 0.486713
O O3 0.051890 0.272713 0.601487
O O4 0.130845 0.000000 0.569531
O O5 0.528736 0.500000 0.358463
O O6 0.617681 0.773706 0.368981
O O7 0.490653 0.736675 0.283869
O O8 0.323862 0.000000 0.558080
O O9 0.535094 0.731744 0.167940
O O10 0.364301 0.742260 0.196993
O O11 0.465411 0.000000 0.218546
O O12 0.914277 0.500000 0.887162
O O13 0.794149 0.728773 0.864968
O O14 0.906886 0.769145 0.951962
O O15 0.802144 0.500000 0.138625
O O16 0.864974 0.240415 0.079861
O O17 0.365194 0.000000 0.011372
O O18 0.250000 0.250000 0.000000
#
# Coordination Sequence:
#
# PCOD9199408 Si02
#       7
#     8   8   8   8   8   8   8
#     4   9  20  38  58  82 111 140 171 209 257 309
#     4  11  23  38  55  76 107 145 179 213 255 305
#     4  10  20  36  60  87 111 136 170 213 258 304
#     4  10  22  37  51  73 104 139 179 217 256 307
#     4   9  18  33  53  75 102 135 170 213 265 317
#     4   9  18  33  53  76 103 133 170 218 264 310
#     4   8  14  27  49  75  99 127 165 210 263 315
#
# _framework density 21.453987000000001
#
# number of rings (size 3 to 8) (size 9 to 14) (size 15 to 20)
#    0.000    2.571    0.000    1.286    0.000    6.286 
#    0.000    7.143    0.000    0.000    0.000   11.000 
#    0.000    0.000    0.000    0.000    0.000    0.000 
#
# Total GULP energy -156220.009153 kJ/mol
# GULP energy per Si atom -5579.286041 kJ/mol
# Density = 2.140516 g / cm^3
# Si number density = 21.453987 Si / 1000 Ang^3
#
#
#
# Elastic Constant Matrix: (Units=GPa)
#
#
# Indices 1 2 3 4 5 6 
#
# 1 48.6038 -0.2396 22.7945 0.0000 8.7084 0.0000
# 2 -0.2396 19.1613 -10.2754 0.0000 -6.4597 0.0000
# 3 22.7945 -10.2754 73.7422 0.0000 22.5316 0.0000
# 4 0.0000 0.0000 0.0000 22.2687 0.0000 2.0304
# 5 8.7084 -6.4597 22.5316 0.0000 32.5067 0.0000
# 6 0.0000 0.0000 0.0000 2.0304 0.0000 13.2097
#
#
#
# Elastic Compliance Matrix: (Units=1/GPa)
#
#
# Indices 1 2 3 4 5 6 
#
# 1 0.024473 -0.004474 -0.007502 0.000000 -0.002245 0.000000
# 2 -0.004474 0.058624 0.007138 0.000000 0.007901 0.000000
# 3 -0.007502 0.007138 0.020079 0.000000 -0.010490 0.000000
# 4 0.000000 0.000000 0.000000 0.045544 0.000000 -0.007000
# 5 -0.002245 0.007901 -0.010490 0.000000 0.040205 0.000000
# 6 0.000000 0.000000 0.000000 -0.007000 0.000000 0.076778
#
#
# Mechanical properties :
#
#
# Convention : Reuss Voigt Hill
#
# Bulk Modulus (GPa) = 10.69531 18.45180 14.57356
# Shear Modulus (GPa) = 16.31067 22.21220 19.26144
#
# Velocity S-wave (km/s) = 2.76028 3.22116 2.99959
# Velocity P-wave (km/s) = 3.89293 4.73855 4.33640
#
# Compressibility (1/GPa) = 0.09349889
#
# Stress axis : x y z
#
# Youngs Moduli (GPa) = 40.86098 17.05793 49.80224
#
# Poissons Ratio (x) = 0.07632 0.37363
# Poissons Ratio (y) = 0.18281 -0.35547
# Poissons Ratio (z) = 0.30655 -0.12175
#
# Static dielectric constant tensor:
#      x y z
#    x 1.802050 0.000000 -0.011310 
#    y 0.000000 1.781890 0.000000 
#    z -0.011310 0.000000 1.769500 
# 
# From -- ./inp_files/309067.got.cif
#   From: 2010.05.17/outbox.cif.g08.bks.cpg/sg12_155_cif.got.tgz:309067.got - 2010.06.03 13:09:07.
