data_PCOD9199857
_publ_section_title
;
Structure prediction by ZEFSAII (Michael W. Deem and Ramdas Pophale) SiO2 
 PCOD9199857
Probable space group: C 2/M
;
_chemical_formula_sum "Si O2"
_cell_formula_units_Z 52
_cell_length_a 17.448338
_cell_length_b 29.484793
_cell_length_c 5.410208
_cell_angle_alpha 90.000000
_cell_angle_beta 121.412081
_cell_angle_gamma 90.000000
_cell_volume 2375.415434
_symmetry_space_group_name_H-M "C 2/M"
_symmetry_group_IT_number 12
_symmetry_cell_setting 'monoclinic'
loop_
_space_group_symop_operation_xyz
x,y,z
-x,y,-z
-x,-y,-z
x,-y,z
1/2+x,1/2+y,z
1/2-x,1/2+y,-z
1/2-x,1/2-y,-z
1/2+x,1/2-y,z
loop_
_atom_site_type_symbol
_atom_site_label
_atom_site_fract_x
_atom_site_fract_y
_atom_site_fract_z
Si Si1 0.500000 0.307993 0.000000
Si Si2 0.440557 0.550981 0.150191
Si Si3 0.641347 0.356744 0.926241
Si Si4 0.390340 0.052434 0.296127
Si Si5 0.666128 0.721025 0.575613
Si Si6 0.309503 0.814093 0.479378
Si Si7 0.105688 0.402125 0.197878
O O1 0.547216 0.340036 0.881621
O O2 0.417800 0.279265 0.754598
O O3 0.500000 0.551462 0.500000
O O4 0.403793 0.500000 0.057809
O O5 0.367162 0.589428 0.082412
O O6 0.500000 0.559935 0.000000
O O7 0.649735 0.324265 0.704924
O O8 0.726217 0.342125 0.231368
O O9 0.500000 0.055619 0.500000
O O10 0.357598 0.068427 0.510649
O O11 0.368556 0.000000 0.209505
O O12 0.358344 0.083738 0.012610
O O13 0.664583 0.773294 0.664297
O O14 0.765130 0.711855 0.635438
O O15 0.380148 0.850205 0.695650
O O16 0.000000 0.411273 0.000000
#
# Coordination Sequence:
#
# PCOD9199857 Si02
#       7
#     4   8   8   8   8   8   8
#     4  10  20  36  61  96 110 160 217 256 310 388
#     4  10  21  38  65  98 130 165 213 269 323 385
#     4  11  21  39  64  89 126 169 216 262 327 391
#     4   9  18  36  62  90 120 159 213 265 316 378
#     4  10  22  40  61  87 123 169 212 265 323 384
#     4  10  24  39  58  88 127 166 212 269 325 384
#     4  10  21  38  62  93 121 168 212 266 323 377
#
# _framework density 21.890906000000001
#
# number of rings (size 3 to 8) (size 9 to 14) (size 15 to 20)
#    0.000    2.000    0.769    2.308    5.385    1.846 
#    0.000    3.077    0.000    0.000    0.000    0.000 
#    0.000    0.000    0.000    0.000    0.000    0.000 
#
# Total GULP energy -144815.140280 kJ/mol
# GULP energy per Si atom -5569.813088 kJ/mol
# Density = 2.184108 g / cm^3
# Si number density = 21.890906 Si / 1000 Ang^3
#
#
#
# Elastic Constant Matrix: (Units=GPa)
#
#
# Indices 1 2 3 4 5 6 
#
# 1 33.3470 8.1933 16.3759 0.0000 -12.2892 0.0000
# 2 8.1933 165.3417 35.8762 0.0000 -13.1742 0.0000
# 3 16.3759 35.8762 82.3383 0.0000 -21.7137 0.0000
# 4 0.0000 0.0000 0.0000 -58.0920 0.0000 28.6512
# 5 -12.2892 -13.1742 -21.7137 0.0000 24.0988 0.0000
# 6 0.0000 0.0000 0.0000 28.6512 0.0000 16.5950
#
#
#
# Elastic Compliance Matrix: (Units=1/GPa)
#
#
# Indices 1 2 3 4 5 6 
#
# 1 0.037552 0.000139 -0.003226 0.000000 0.016319 0.000000
# 2 0.000139 0.006714 -0.002579 0.000000 0.001417 0.000000
# 3 -0.003226 -0.002579 0.017189 0.000000 0.012433 0.000000
# 4 0.000000 0.000000 0.000000 -0.009297 0.000000 0.016052
# 5 0.016319 0.001417 0.012433 0.000000 0.061795 0.000000
# 6 0.000000 0.000000 0.000000 0.016052 0.000000 0.032546
#
#
# Mechanical properties :
#
#
# Convention : Reuss Voigt Hill
#
# Bulk Modulus (GPa) = 19.95070 44.65753 32.30411
# Shear Modulus (GPa) = 28.64725 11.22580 19.93652
#
# Velocity S-wave (km/s) = 3.62143 2.26698 3.02109
# Velocity P-wave (km/s) = 5.15944 5.22461 5.19213
#
# Compressibility (1/GPa) = 0.05012356
#
# Stress axis : x y z
#
# Youngs Moduli (GPa) = 26.63009 148.94796 58.17636
#
# Poissons Ratio (x) = -0.02076 0.18765
# Poissons Ratio (y) = -0.00371 0.15005
# Poissons Ratio (z) = 0.08590 0.38417
#
# Static dielectric constant tensor:
#      x y z
#    x 1.848610 0.000000 -0.064230 
#    y 0.000000 1.894810 0.000000 
#    z -0.064230 0.000000 1.847610 
# 
# From -- ./inp_files/22499.got.cif
#   From: 2010.05.17/outbox.cif.g08.bks.cpg/sg12_12_cif.got.tgz:22499.got - 2010.06.03 13:09:07.
