data_PCOD9199299
_publ_section_title
;
Structure prediction by ZEFSAII (Michael W. Deem and Ramdas Pophale) SiO2 
 PCOD9199299
Probable space group: C 2/M
;
_chemical_formula_sum "Si O2"
_cell_formula_units_Z 28
_cell_length_a 10.285221
_cell_length_b 19.341047
_cell_length_c 5.199151
_cell_angle_alpha 90.000000
_cell_angle_beta 104.446165
_cell_angle_gamma 90.000000
_cell_volume 1001.550744
_symmetry_space_group_name_H-M "C 2/M"
_symmetry_group_IT_number 12
_symmetry_cell_setting 'monoclinic'
loop_
_space_group_symop_operation_xyz
x,y,z
-x,y,-z
-x,-y,-z
x,-y,z
1/2+x,1/2+y,z
1/2-x,1/2+y,-z
1/2-x,1/2-y,-z
1/2+x,1/2-y,z
loop_
_atom_site_type_symbol
_atom_site_label
_atom_site_fract_x
_atom_site_fract_y
_atom_site_fract_z
Si Si1 0.852975 0.919432 0.797119
Si Si2 0.413177 0.276884 0.695353
Si Si3 0.660059 0.140075 0.142093
Si Si4 0.592896 0.000000 0.302510
O O1 0.876229 0.856106 0.610858
O O2 0.816536 0.000000 0.727091
O O3 0.747170 0.884009 0.942338
O O4 0.000000 0.926941 0.000000
O O5 0.500000 0.248264 0.500000
O O6 0.309959 0.216678 0.734166
O O7 0.500000 0.285297 0.000000
O O8 0.667304 0.073240 0.329120
O O9 0.500000 0.144646 0.000000
O O10 0.500000 0.000000 0.500000
O O11 0.500000 0.000000 0.000000
#
# Coordination Sequence:
#
# PCOD9199299 Si02
#       4
#     8   8   8   4
#     4  10  21  40  65  93 133 173 216 263 326 392
#     4  10  22  42  67  95 131 171 219 270 325 387
#     4  10  20  39  66  96 127 166 218 271 325 379
#     4  10  20  36  59  92 127 158 203 262 321 372
#
# _framework density 27.956648000000001
#
# number of rings (size 3 to 8) (size 9 to 14) (size 15 to 20)
#    0.000    2.000    1.429    1.714    0.000    0.571 
#    0.000   34.286    0.000    0.000    0.000    0.000 
#    0.000    0.000    0.000    0.000    0.000    0.000 
#
# Total GULP energy -78324.942229 kJ/mol
# GULP energy per Si atom -5594.638731 kJ/mol
# Density = 2.789302 g / cm^3
# Si number density = 27.956648 Si / 1000 Ang^3
#
#
#
# Elastic Constant Matrix: (Units=GPa)
#
#
# Indices 1 2 3 4 5 6 
#
# 1 116.1703 54.0537 19.5613 0.0000 -18.3260 0.0000
# 2 54.0537 316.2146 42.2122 0.0000 14.3776 0.0000
# 3 19.5613 42.2122 121.7283 0.0000 -32.0460 0.0000
# 4 0.0000 0.0000 0.0000 116.9787 0.0000 -0.2805
# 5 -18.3260 14.3776 -32.0460 0.0000 53.5831 0.0000
# 6 0.0000 0.0000 0.0000 -0.2805 0.0000 60.1910
#
#
#
# Elastic Compliance Matrix: (Units=1/GPa)
#
#
# Indices 1 2 3 4 5 6 
#
# 1 0.010126 -0.001929 0.000106 0.000000 0.004044 0.000000
# 2 -0.001929 0.003850 -0.001745 0.000000 -0.002736 0.000000
# 3 0.000106 -0.001745 0.010606 0.000000 0.006848 0.000000
# 4 0.000000 0.000000 0.000000 0.008549 0.000000 0.000040
# 5 0.004044 -0.002736 0.006848 0.000000 0.024875 0.000000
# 6 0.000000 0.000000 0.000000 0.000040 0.000000 0.016614
#
#
# Mechanical properties :
#
#
# Convention : Reuss Voigt Hill
#
# Bulk Modulus (GPa) = 57.32178 87.30750 72.31464
# Shear Modulus (GPa) = 57.09719 75.36962 66.23341
#
# Velocity S-wave (km/s) = 4.52414 5.19788 4.87267
# Velocity P-wave (km/s) = 6.91656 8.20496 7.58815
#
# Compressibility (1/GPa) = 0.01744538
#
# Stress axis : x y z
#
# Youngs Moduli (GPa) = 98.75881 259.76976 94.28755
#
# Poissons Ratio (x) = 0.50109 -0.01004
# Poissons Ratio (y) = 0.19050 0.16456
# Poissons Ratio (z) = -0.01052 0.45339
#
# Static dielectric constant tensor:
#      x y z
#    x 2.361880 0.000000 0.029190 
#    y 0.000000 2.453010 0.000000 
#    z 0.029190 0.000000 1.919140 
# 
# From -- ./inp_files/5637.got.cif
#   From: 2010.05.17/outbox.cif.g08.bks.cpg/sg12_3_cif.got.tgz:5637.got - 2010.06.03 13:09:07.
