data_PCOD9199284
_publ_section_title
;
Structure prediction by ZEFSAII (Michael W. Deem and Ramdas Pophale) SiO2 
 PCOD9199284
Probable space group: C 2/M
;
_chemical_formula_sum "Si O2"
_cell_formula_units_Z 50
_cell_length_a 12.986321
_cell_length_b 13.238434
_cell_length_c 21.559550
_cell_angle_alpha 90.000000
_cell_angle_beta 137.492287
_cell_angle_gamma 90.000000
_cell_volume 2504.433932
_symmetry_space_group_name_H-M "C 2/M"
_symmetry_group_IT_number 12
_symmetry_cell_setting 'monoclinic'
loop_
_space_group_symop_operation_xyz
x,y,z
-x,y,-z
-x,-y,-z
x,-y,z
1/2+x,1/2+y,z
1/2-x,1/2+y,-z
1/2-x,1/2-y,-z
1/2+x,1/2-y,z
loop_
_atom_site_type_symbol
_atom_site_label
_atom_site_fract_x
_atom_site_fract_y
_atom_site_fract_z
Si Si1 0.916945 0.620992 0.525522
Si Si2 0.500000 0.500000 0.000000
Si Si3 0.917193 0.116091 0.648854
Si Si4 0.775159 0.383679 0.968731
Si Si5 0.257713 0.171910 0.096254
Si Si6 0.628102 0.792421 0.724495
Si Si7 0.912371 0.113507 0.795567
O O1 0.907935 0.500000 0.515381
O O2 0.741977 0.656065 0.449288
O O3 0.000000 0.659853 0.500000
O O4 0.018850 0.646476 0.629830
O O5 0.368874 0.588661 0.946773
O O6 0.900255 0.120277 0.716062
O O7 0.061948 0.180329 0.693646
O O8 0.937272 0.000000 0.640304
O O9 0.813915 0.500000 0.967814
O O10 0.808238 0.286841 0.940223
O O11 0.589549 0.380229 0.891270
O O12 0.831431 0.357430 0.062798
O O13 0.373727 0.173104 0.205016
O O14 0.800398 0.808258 0.777923
O O15 0.862262 0.000000 0.792940
#
# Coordination Sequence:
#
# PCOD9199284 Si02
#       7
#     8   2   8   8   8   8   8
#     4  10  20  36  59  91 122 155 204 256 306 365
#     4  12  24  44  58  96 130 162 210 262 310 376
#     4  10  21  40  59  87 124 163 203 254 312 365
#     4  10  21  42  62  88 128 165 205 254 316 378
#     4  11  24  36  62  95 125 163 204 260 316 364
#     4  12  22  34  63  95 121 158 211 255 307 369
#     4  10  20  36  63  89 117 155 201 254 303 359
#
# _framework density 19.964590999999999
#
# number of rings (size 3 to 8) (size 9 to 14) (size 15 to 20)
#    0.000    1.440    4.000    1.920    4.480    0.000 
#    0.000    0.400    1.760    4.320    0.000    0.000 
#    0.000    0.000    0.000    0.000    0.000    0.000 
#
# Total GULP energy -139287.260075 kJ/mol
# GULP energy per Si atom -5571.490403 kJ/mol
# Density = 1.991915 g / cm^3
# Si number density = 19.964591 Si / 1000 Ang^3
#
#
#
# Elastic Constant Matrix: (Units=GPa)
#
#
# Indices 1 2 3 4 5 6 
#
# 1 40.6440 46.9554 23.5084 0.0000 6.4924 0.0000
# 2 46.9554 141.8336 25.1017 0.0000 12.6536 0.0000
# 3 23.5084 25.1017 105.1208 0.0000 -20.2290 0.0000
# 4 0.0000 0.0000 0.0000 24.8233 0.0000 5.2914
# 5 6.4924 12.6536 -20.2290 0.0000 24.5326 0.0000
# 6 0.0000 0.0000 0.0000 5.2914 0.0000 26.3406
#
#
#
# Elastic Compliance Matrix: (Units=1/GPa)
#
#
# Indices 1 2 3 4 5 6 
#
# 1 0.047526 -0.012570 -0.010459 0.000000 -0.014719 0.000000
# 2 -0.012570 0.011587 -0.000554 0.000000 -0.003106 0.000000
# 3 -0.010459 -0.000554 0.014943 0.000000 0.015375 0.000000
# 4 0.000000 0.000000 0.000000 0.042087 0.000000 -0.008455
# 5 -0.014719 -0.003106 0.015375 0.000000 0.058937 0.000000
# 6 0.000000 0.000000 0.000000 -0.008455 0.000000 0.039663
#
#
# Mechanical properties :
#
#
# Convention : Reuss Voigt Hill
#
# Bulk Modulus (GPa) = 37.18758 53.19215 45.18987
# Shear Modulus (GPa) = 18.45887 27.94148 23.20017
#
# Velocity S-wave (km/s) = 3.04399 3.74512 3.41261
# Velocity P-wave (km/s) = 5.56971 6.73812 6.18159
#
# Compressibility (1/GPa) = 0.02689070
#
# Stress axis : x y z
#
# Youngs Moduli (GPa) = 21.04089 86.30352 66.92187
#
# Poissons Ratio (x) = 1.08483 0.69996
# Poissons Ratio (y) = 0.26448 0.03705
# Poissons Ratio (z) = 0.22007 0.04778
#
# Static dielectric constant tensor:
#      x y z
#    x 1.720520 0.000000 -0.037560 
#    y 0.000000 1.724120 0.000000 
#    z -0.037560 0.000000 1.745130 
# 
# From -- ./inp_files/339637.got.cif
#   From: 2010.05.17/outbox.cif.g08.bks.cpg/sg12_170_cif.got.tgz:339637.got - 2010.06.03 13:09:07.
