data_PCOD9199689
_publ_section_title
;
Structure prediction by ZEFSAII (Michael W. Deem and Ramdas Pophale) SiO2 
 PCOD9199689
Probable space group: C 2/M
;
_chemical_formula_sum "Si O2"
_cell_formula_units_Z 56
_cell_length_a 9.587495
_cell_length_b 17.646712
_cell_length_c 27.530843
_cell_angle_alpha 90.000000
_cell_angle_beta 39.036735
_cell_angle_gamma 90.000000
_cell_volume 2933.620214
_symmetry_space_group_name_H-M "C 2/M"
_symmetry_group_IT_number 12
_symmetry_cell_setting 'monoclinic'
loop_
_space_group_symop_operation_xyz
x,y,z
-x,y,-z
-x,-y,-z
x,-y,z
1/2+x,1/2+y,z
1/2-x,1/2+y,-z
1/2-x,1/2-y,-z
1/2+x,1/2-y,z
loop_
_atom_site_type_symbol
_atom_site_label
_atom_site_fract_x
_atom_site_fract_y
_atom_site_fract_z
Si Si1 0.161608 0.587032 0.791552
Si Si2 0.012163 0.087498 0.211312
Si Si3 0.147228 0.826740 0.507094
Si Si4 0.555581 0.159708 0.339521
Si Si5 0.241798 0.682492 0.675600
Si Si6 0.268859 0.640973 0.040256
Si Si7 0.740390 0.681277 0.065705
O O1 0.182060 0.500000 0.770474
O O2 0.372019 0.606675 0.768625
O O3 0.150846 0.639952 0.747388
O O4 0.943770 0.595533 0.884142
O O5 0.111671 0.143393 0.144266
O O6 0.749944 0.099424 0.281682
O O7 0.069834 0.000000 0.185170
O O8 0.250000 0.750000 0.500000
O O9 0.360764 0.869507 0.428149
O O10 0.000000 0.807248 0.500000
O O11 0.968567 0.857145 0.593962
O O12 0.676787 0.233901 0.329815
O O13 0.435410 0.181301 0.320833
O O14 0.214171 0.728036 0.070561
O O15 0.500000 0.615123 0.000000
O O16 0.317515 0.645125 0.970080
O O17 0.000000 0.667188 0.000000
#
# Coordination Sequence:
#
# PCOD9199689 Si02
#       7
#     8   8   8   8   8   8   8
#     4  11  24  40  55  80 120 157 191 234 284 334
#     4  11  24  39  57  81 115 157 197 234 278 336
#     4   8  16  32  55  86 114 142 182 231 285 334
#     4  10  20  36  61  88 115 147 189 236 282 340
#     4  10  20  36  61  87 116 149 186 235 286 338
#     4  10  22  37  60  87 111 142 185 240 289 339
#     4  10  20  39  61  82 110 145 187 234 288 338
#
# _framework density 19.089041000000002
#
# number of rings (size 3 to 8) (size 9 to 14) (size 15 to 20)
#    0.000    2.000    1.429    1.714    2.000    2.857 
#    0.000    0.714    0.000    4.286    0.000    0.000 
#    0.000    0.000    0.000    0.000    0.000    0.000 
#
# Total GULP energy -156098.087621 kJ/mol
# GULP energy per Si atom -5574.931701 kJ/mol
# Density = 1.904559 g / cm^3
# Si number density = 19.089041 Si / 1000 Ang^3
#
#
#
# Elastic Constant Matrix: (Units=GPa)
#
#
# Indices 1 2 3 4 5 6 
#
# 1 77.9346 5.6707 6.9469 0.0008 -13.3616 0.0005
# 2 5.6707 19.4166 7.2318 -0.0034 -0.2462 0.0003
# 3 6.9469 7.2318 69.0235 0.0000 -14.4599 0.0041
# 4 0.0008 -0.0034 0.0000 2.4834 0.0053 -11.7450
# 5 -13.3616 -0.2462 -14.4599 0.0053 40.3892 0.0015
# 6 0.0005 0.0003 0.0041 -11.7450 0.0015 13.4148
#
#
#
# Elastic Compliance Matrix: (Units=1/GPa)
#
#
# Indices 1 2 3 4 5 6 
#
# 1 0.013907 -0.003995 -0.000024 0.000008 0.004568 0.000006
# 2 -0.003995 0.054865 -0.006003 -0.000028 -0.003136 -0.000023
# 3 -0.000024 -0.006003 0.016335 0.000015 0.005804 0.000008
# 4 0.000008 -0.000028 0.000015 -0.128210 0.000029 -0.112252
# 5 0.004568 -0.003136 0.005804 0.000029 0.028329 0.000020
# 6 0.000006 -0.000023 0.000008 -0.112252 0.000020 -0.023735
#
#
# Mechanical properties :
#
#
# Convention : Reuss Voigt Hill
#
# Bulk Modulus (GPa) = 15.36978 22.89705 19.13342
# Shear Modulus (GPa) = 1551.08102 21.02583 786.05342
#
# Velocity S-wave (km/s) = 28.53620 3.32243 20.31444
# Velocity P-wave (km/s) = 33.07298 5.17097 23.67024
#
# Compressibility (1/GPa) = 0.06506273
#
# Stress axis : x y z
#
# Youngs Moduli (GPa) = 71.90510 18.22651 61.21802
#
# Poissons Ratio (x) = 0.07281 0.00148
# Poissons Ratio (y) = 0.28724 0.36752
# Poissons Ratio (z) = 0.00174 0.10942
#
# Static dielectric constant tensor:
#      x y z
#    x 1.624920 0.000000 -0.025470 
#    y 0.000000 1.657900 0.000000 
#    z -0.025470 0.000000 1.675610 
# 
# From -- ./inp_files/356644.got.cif
#   From: 2010.05.17/outbox.cif.g08.bks.cpg/sg12_179_cif.got.tgz:356644.got - 2010.06.03 13:09:07.
