data_PCOD9199642
_publ_section_title
;
Structure prediction by ZEFSAII (Michael W. Deem and Ramdas Pophale) SiO2 
 PCOD9199642
Probable space group: C 2/M
;
_chemical_formula_sum "Si O2"
_cell_formula_units_Z 48
_cell_length_a 27.299184
_cell_length_b 13.065024
_cell_length_c 10.922789
_cell_angle_alpha 90.000000
_cell_angle_beta 152.045613
_cell_angle_gamma 90.000000
_cell_volume 1826.214743
_symmetry_space_group_name_H-M "C 2/M"
_symmetry_group_IT_number 12
_symmetry_cell_setting 'monoclinic'
loop_
_space_group_symop_operation_xyz
x,y,z
-x,y,-z
-x,-y,-z
x,-y,z
1/2+x,1/2+y,z
1/2-x,1/2+y,-z
1/2-x,1/2-y,-z
1/2+x,1/2-y,z
loop_
_atom_site_type_symbol
_atom_site_label
_atom_site_fract_x
_atom_site_fract_y
_atom_site_fract_z
Si Si1 0.850120 0.617231 0.946408
Si Si2 0.757686 0.318523 0.243044
Si Si3 0.888514 0.685046 0.779591
Si Si4 0.586040 0.608469 0.583290
Si Si5 0.432115 0.611245 0.026585
Si Si6 0.067254 0.660248 0.533407
O O1 0.840850 0.500000 0.964919
O O2 0.781121 0.700922 0.865547
O O3 0.826494 0.627557 0.750015
O O4 0.971384 0.654811 0.225309
O O5 0.827213 0.310398 0.518754
O O6 0.654749 0.377162 0.058413
O O7 0.827739 0.378391 0.298962
O O8 0.911969 0.797181 0.888653
O O9 0.000000 0.634276 0.000000
O O10 0.500000 0.596890 0.500000
O O11 0.646769 0.500000 0.721450
O O12 0.611161 0.726911 0.663065
O O13 0.538225 0.615119 0.339855
O O14 0.422541 0.500000 0.946987
O O15 0.000000 0.619511 0.500000
#
# Coordination Sequence:
#
# PCOD9199642 Si02
#       6
#     8   8   8   8   8   8
#     4  11  24  43  65  97 132 169 214 260 317 384
#     4  11  23  41  64  92 129 167 214 264 316 377
#     4  11  21  40  64  93 129 165 209 261 316 383
#     4   9  17  34  60  88 119 156 204 257 309 369
#     4  10  20  36  60  93 126 162 207 256 319 382
#     4  11  23  43  68  89 128 170 213 267 323 375
#
# _framework density 26.283874999999998
#
# number of rings (size 3 to 8) (size 9 to 14) (size 15 to 20)
#    0.000    1.500    5.000    2.000    0.000    5.667 
#    0.000    0.000    0.000    0.000    0.000    0.000 
#    0.000    0.000    0.000    0.000    0.000    0.000 
#
# Total GULP energy -133933.509034 kJ/mol
# GULP energy per Si atom -5580.562876 kJ/mol
# Density = 2.622405 g / cm^3
# Si number density = 26.283875 Si / 1000 Ang^3
#
#
#
# Elastic Constant Matrix: (Units=GPa)
#
#
# Indices 1 2 3 4 5 6 
#
# 1 127.4940 30.6512 20.1893 0.0000 27.4803 0.0000
# 2 30.6512 139.8753 26.0635 0.0000 -15.6478 0.0000
# 3 20.1893 26.0635 84.1755 0.0000 -2.7209 0.0000
# 4 0.0000 0.0000 0.0000 6.1681 0.0000 6.2839
# 5 27.4803 -15.6478 -2.7209 0.0000 47.5847 0.0000
# 6 0.0000 0.0000 0.0000 6.2839 0.0000 -34.8522
#
#
#
# Elastic Compliance Matrix: (Units=1/GPa)
#
#
# Indices 1 2 3 4 5 6 
#
# 1 0.010273 -0.002679 -0.001858 0.000000 -0.006920 0.000000
# 2 -0.002679 0.008561 -0.001871 0.000000 0.004255 0.000000
# 3 -0.001858 -0.001871 0.012944 0.000000 0.001198 0.000000
# 4 0.000000 0.000000 0.000000 0.136966 0.000000 0.024695
# 5 -0.006920 0.004255 0.001198 0.000000 0.026479 0.000000
# 6 0.000000 0.000000 0.000000 0.024695 0.000000 -0.024240
#
#
# Mechanical properties :
#
#
# Convention : Reuss Voigt Hill
#
# Bulk Modulus (GPa) = 52.73699 56.15030 54.44365
# Shear Modulus (GPa) = 26.29925 22.08952 24.19439
#
# Velocity S-wave (km/s) = 3.16663 2.90215 3.03727
# Velocity P-wave (km/s) = 5.78602 5.71309 5.74967
#
# Compressibility (1/GPa) = 0.01896202
#
# Stress axis : x y z
#
# Youngs Moduli (GPa) = 97.33812 116.80976 77.25854
#
# Poissons Ratio (x) = 0.31295 0.14356
# Poissons Ratio (y) = 0.26079 0.14452
# Poissons Ratio (z) = 0.18087 0.21850
#
# Static dielectric constant tensor:
#      x y z
#    x 2.105860 0.000000 -0.043590 
#    y 0.000000 2.097200 0.000000 
#    z -0.043590 0.000000 2.136530 
# 
# From -- ./inp_files/189525.got.cif
#   From: 2010.05.17/outbox.cif.g08.bks.cpg/sg12_95_cif.got.tgz:189525.got - 2010.06.03 13:09:07.
