data_PCOD9199036
_publ_section_title
;
Structure prediction by ZEFSAII (Michael W. Deem and Ramdas Pophale) SiO2 
 PCOD9199036
Probable space group: C 2/M
;
_chemical_formula_sum "Si O2"
_cell_formula_units_Z 48
_cell_length_a 14.565337
_cell_length_b 12.391333
_cell_length_c 28.895716
_cell_angle_alpha 90.000000
_cell_angle_beta 30.335042
_cell_angle_gamma 90.000000
_cell_volume 2633.972280
_symmetry_space_group_name_H-M "C 2/M"
_symmetry_group_IT_number 12
_symmetry_cell_setting 'monoclinic'
loop_
_space_group_symop_operation_xyz
x,y,z
-x,y,-z
-x,-y,-z
x,-y,z
1/2+x,1/2+y,z
1/2-x,1/2+y,-z
1/2-x,1/2-y,-z
1/2+x,1/2-y,z
loop_
_atom_site_type_symbol
_atom_site_label
_atom_site_fract_x
_atom_site_fract_y
_atom_site_fract_z
Si Si1 0.573867 0.881904 0.092121
Si Si2 0.277141 0.690775 0.700356
Si Si3 0.946787 0.188198 0.969783
Si Si4 0.799953 0.622246 0.762210
Si Si5 0.678221 0.626228 0.516530
Si Si6 0.668337 0.874583 0.651254
O O1 0.394052 0.865711 0.200828
O O2 0.572119 0.798648 0.050715
O O3 0.578430 0.000000 0.069899
O O4 0.751523 0.866543 0.046844
O O5 0.293869 0.803550 0.719885
O O6 0.467861 0.629979 0.622234
O O7 0.236106 0.697219 0.663866
O O8 0.111439 0.128494 0.871891
O O9 0.000000 0.199913 0.000000
O O10 0.839821 0.500000 0.731554
O O11 0.966207 0.657540 0.722731
O O12 0.744716 0.500000 0.500745
O O13 0.750000 0.750000 0.500000
O O14 0.708489 0.629228 0.448082
O O15 0.664297 0.000000 0.669018
#
# Coordination Sequence:
#
# PCOD9199036 Si02
#       6
#     8   8   8   8   8   8
#     4  10  21  36  55  82 112 145 185 231 281 334
#     4  11  21  36  60  84 114 147 193 240 283 338
#     4  10  21  36  56  82 113 147 187 231 279 338
#     4  10  21  37  58  83 116 152 188 236 289 337
#     4  11  22  38  60  87 117 153 193 241 292 345
#     4  10  20  36  59  85 111 149 194 233 278 338
#
# _framework density 18.223427999999998
#
# number of rings (size 3 to 8) (size 9 to 14) (size 15 to 20)
#    0.000    1.667    1.667    3.500    0.000    4.333 
#    0.000    0.833    0.000    6.000    0.000    0.000 
#    0.000    0.000    0.000    0.000    0.000    0.000 
#
# Total GULP energy -133668.849908 kJ/mol
# GULP energy per Si atom -5569.535413 kJ/mol
# Density = 1.818195 g / cm^3
# Si number density = 18.223428 Si / 1000 Ang^3
#
#
#
# Elastic Constant Matrix: (Units=GPa)
#
#
# Indices 1 2 3 4 5 6 
#
# 1 89.3856 50.2213 26.4533 0.0000 9.0229 0.0000
# 2 50.2213 95.7550 30.8501 0.0001 5.6481 0.0000
# 3 26.4533 30.8501 89.5250 0.0005 -21.3997 0.0000
# 4 0.0000 0.0001 0.0005 2.8592 -0.0001 -10.6322
# 5 9.0229 5.6481 -21.3997 -0.0001 29.3590 0.0000
# 6 0.0000 0.0000 0.0000 -10.6322 0.0000 11.5611
#
#
#
# Elastic Compliance Matrix: (Units=1/GPa)
#
#
# Indices 1 2 3 4 5 6 
#
# 1 0.017232 -0.007248 -0.004271 0.000000 -0.007014 0.000000
# 2 -0.007248 0.015848 -0.004258 0.000000 -0.003925 0.000000
# 3 -0.004271 -0.004258 0.017449 0.000001 0.014850 0.000001
# 4 0.000000 0.000000 0.000001 -0.144535 0.000000 -0.132922
# 5 -0.007014 -0.003925 0.014850 0.000000 0.047796 0.000000
# 6 0.000000 0.000000 0.000001 -0.132922 0.000000 -0.035745
#
#
# Mechanical properties :
#
#
# Convention : Reuss Voigt Hill
#
# Bulk Modulus (GPa) = 52.69875 54.41277 53.55576
# Shear Modulus (GPa) = -113.43588 19.89861 -46.76864
#
# Velocity S-wave (km/s) = -7.89825 3.30801 -5.07146
# Velocity P-wave (km/s) = 7.36177 6.67189 2.20017
#
# Compressibility (1/GPa) = 0.01897578
#
# Stress axis : x y z
#
# Youngs Moduli (GPa) = 58.03254 63.09983 57.31033
#
# Poissons Ratio (x) = 0.45734 0.24476
# Poissons Ratio (y) = 0.42062 0.24401
# Poissons Ratio (z) = 0.24784 0.26866
#
# Static dielectric constant tensor:
#      x y z
#    x 1.607470 0.000000 -0.038480 
#    y 0.000000 1.670030 0.000000 
#    z -0.038480 0.000000 1.640050 
# 
# From -- ./inp_files/212501.got.cif
#   From: 2010.05.17/outbox.cif.g08.bks.cpg/sg12_107_cif.got.tgz:212501.got - 2010.06.03 13:09:07.
