data_PCOD9199821
_publ_section_title
;
Structure prediction by ZEFSAII (Michael W. Deem and Ramdas Pophale) SiO2 
 PCOD9199821
Probable space group: C 2/M
;
_chemical_formula_sum "Si O2"
_cell_formula_units_Z 60
_cell_length_a 8.821667
_cell_length_b 31.033240
_cell_length_c 11.337120
_cell_angle_alpha 90.000000
_cell_angle_beta 71.480919
_cell_angle_gamma 90.000000
_cell_volume 2942.989331
_symmetry_space_group_name_H-M "C 2/M"
_symmetry_group_IT_number 12
_symmetry_cell_setting 'monoclinic'
loop_
_space_group_symop_operation_xyz
x,y,z
-x,y,-z
-x,-y,-z
x,-y,z
1/2+x,1/2+y,z
1/2-x,1/2+y,-z
1/2-x,1/2-y,-z
1/2+x,1/2-y,z
loop_
_atom_site_type_symbol
_atom_site_label
_atom_site_fract_x
_atom_site_fract_y
_atom_site_fract_z
Si Si1 0.541478 0.449343 0.752704
Si Si2 0.141913 0.122709 0.878385
Si Si3 0.500000 0.675535 0.500000
Si Si4 0.171864 0.550575 0.507799
Si Si5 0.524456 0.158881 0.129566
Si Si6 0.278580 0.608939 0.695643
Si Si7 0.413831 0.301006 0.277617
Si Si8 0.314236 0.755536 0.850277
O O1 0.504680 0.500000 0.773536
O O2 0.611948 0.426496 0.851004
O O3 0.681694 0.444881 0.620038
O O4 0.389302 0.420517 0.752449
O O5 0.313933 0.131350 0.891542
O O6 0.128555 0.151981 0.763507
O O7 0.000000 0.137709 0.000000
O O8 0.385733 0.644532 0.603543
O O9 0.597817 0.701057 0.577578
O O10 0.158501 0.500000 0.539480
O O11 0.212862 0.577305 0.612104
O O12 0.000000 0.564745 0.500000
O O13 0.370702 0.132892 0.209365
O O14 0.563042 0.204148 0.182536
O O15 0.500000 0.169557 0.000000
O O16 0.595724 0.288021 0.204378
O O17 0.311705 0.269229 0.218780
O O18 0.250000 0.750000 0.000000
#
# Coordination Sequence:
#
# PCOD9199821 Si02
#       8
#     8   8   4   8   8   8   8   8
#     4  11  22  39  64  94 128 177 235 284 342 404
#     4  11  22  42  67  94 130 171 223 282 348 405
#     4  12  26  40  67  92 138 184 214 276 339 406
#     4  10  20  36  61  92 127 173 229 285 337 403
#     4  11  25  41  67 102 128 174 224 280 342 407
#     4  12  22  41  64  91 137 175 230 273 343 409
#     4  11  24  42  65  96 130 175 218 270 339 400
#     4  11  24  44  71  99 131 169 229 282 327 398
#
# _framework density 20.387433000000001
#
# number of rings (size 3 to 8) (size 9 to 14) (size 15 to 20)
#    0.000    0.933    2.667    4.800    3.733    2.933 
#    0.000    0.667    0.000    2.800    0.000    0.000 
#    0.000    0.000    0.000    0.000    0.000    0.000 
#
# Total GULP energy -167611.827096 kJ/mol
# GULP energy per Si atom -5587.060903 kJ/mol
# Density = 2.034103 g / cm^3
# Si number density = 20.387433 Si / 1000 Ang^3
#
#
#
# Elastic Constant Matrix: (Units=GPa)
#
#
# Indices 1 2 3 4 5 6 
#
# 1 128.0703 49.9199 26.7725 0.0000 4.9883 0.0000
# 2 49.9199 65.2605 10.7114 0.0000 -0.1235 0.0000
# 3 26.7725 10.7114 46.1453 0.0000 9.2880 0.0000
# 4 0.0000 0.0000 0.0000 31.1924 0.0000 2.1128
# 5 4.9883 -0.1235 9.2880 0.0000 42.8136 0.0000
# 6 0.0000 0.0000 0.0000 2.1128 0.0000 45.9677
#
#
#
# Elastic Compliance Matrix: (Units=1/GPa)
#
#
# Indices 1 2 3 4 5 6 
#
# 1 0.012184 -0.008496 -0.005026 0.000000 -0.000354 0.000000
# 2 -0.008496 0.021886 -0.000380 0.000000 0.001135 0.000000
# 3 -0.005026 -0.000380 0.025678 0.000000 -0.004986 0.000000
# 4 0.000000 0.000000 0.000000 0.032159 0.000000 -0.001478
# 5 -0.000354 0.001135 -0.004986 0.000000 0.024483 0.000000
# 6 0.000000 0.000000 0.000000 -0.001478 0.000000 0.021822
#
#
# Mechanical properties :
#
#
# Convention : Reuss Voigt Hill
#
# Bulk Modulus (GPa) = 31.30260 46.03152 38.66706
# Shear Modulus (GPa) = 28.30216 34.13289 31.21752
#
# Velocity S-wave (km/s) = 3.72992 4.09615 3.91732
# Velocity P-wave (km/s) = 5.82554 6.70811 6.28234
#
# Compressibility (1/GPa) = 0.03194623
#
# Stress axis : x y z
#
# Youngs Moduli (GPa) = 82.07400 45.69044 38.94344
#
# Poissons Ratio (x) = 0.38818 0.19572
# Poissons Ratio (y) = 0.69729 0.01479
# Poissons Ratio (z) = 0.41248 0.01735
#
# Static dielectric constant tensor:
#      x y z
#    x 1.815150 0.000000 0.002600 
#    y 0.000000 1.722750 0.000000 
#    z 0.002600 0.000000 1.733880 
# 
# From -- ./inp_files/125713.got.cif
#   From: 2010.05.17/outbox.cif.g08.bks.cpg/sg12_63_cif.got.tgz:125713.got - 2010.06.03 13:09:07.
