data_PCOD9199934
_publ_section_title
;
Structure prediction by ZEFSAII (Michael W. Deem and Ramdas Pophale) SiO2 
 PCOD9199934
Probable space group: C 2/M
;
_chemical_formula_sum "Si O2"
_cell_formula_units_Z 56
_cell_length_a 15.081094
_cell_length_b 13.397884
_cell_length_c 22.850913
_cell_angle_alpha 90.000000
_cell_angle_beta 42.293143
_cell_angle_gamma 90.000000
_cell_volume 3106.981229
_symmetry_space_group_name_H-M "C 2/M"
_symmetry_group_IT_number 12
_symmetry_cell_setting 'monoclinic'
loop_
_space_group_symop_operation_xyz
x,y,z
-x,y,-z
-x,-y,-z
x,-y,z
1/2+x,1/2+y,z
1/2-x,1/2+y,-z
1/2-x,1/2-y,-z
1/2+x,1/2-y,z
loop_
_atom_site_type_symbol
_atom_site_label
_atom_site_fract_x
_atom_site_fract_y
_atom_site_fract_z
Si Si1 0.107371 0.119972 0.130884
Si Si2 0.017059 0.618060 0.660508
Si Si3 0.503321 0.615527 0.063690
Si Si4 0.761575 0.219713 0.227559
Si Si5 0.126944 0.382686 0.476944
Si Si6 0.849298 0.384966 0.093206
Si Si7 0.136312 0.764089 0.693987
O O1 0.096698 0.157445 0.069025
O O2 0.250082 0.136209 0.088350
O O3 0.995453 0.174323 0.223995
O O4 0.081546 0.000000 0.143771
O O5 0.990902 0.500000 0.682538
O O6 0.095489 0.627485 0.560964
O O7 0.092475 0.667709 0.678353
O O8 0.883470 0.680632 0.715187
O O9 0.539865 0.500000 0.038973
O O10 0.360061 0.629578 0.162113
O O11 0.500000 0.658860 0.000000
O O12 0.808090 0.310344 0.164297
O O13 0.788588 0.250839 0.281048
O O14 0.144321 0.500000 0.454843
O O15 0.259764 0.326255 0.395058
O O16 0.000000 0.349193 0.500000
O O17 0.827424 0.500000 0.122098
O O18 0.000000 0.376535 0.000000
#
# Coordination Sequence:
#
# PCOD9199934 Si02
#       7
#     8   8   8   8   8   8   8
#     4   9  18  34  58  85 109 145 197 241 287 346
#     4  11  23  39  59  89 125 157 196 245 298 353
#     4   9  18  33  53  80 111 142 184 239 291 342
#     4  11  21  37  58  84 115 154 194 239 298 353
#     4  10  20  36  62  91 119 155 199 245 293 347
#     4  10  21  39  59  81 114 153 197 243 290 352
#     4  11  21  37  61  88 118 155 194 245 295 354
#
# _framework density 18.023925999999999
#
# number of rings (size 3 to 8) (size 9 to 14) (size 15 to 20)
#    0.000    1.857    2.857    1.714    0.000    1.714 
#    2.571    2.143    0.000    0.429    0.000    0.000 
#    0.000    0.000    0.000    0.000    0.000    0.000 
#
# Total GULP energy -156115.709354 kJ/mol
# GULP energy per Si atom -5575.561048 kJ/mol
# Density = 1.798290 g / cm^3
# Si number density = 18.023926 Si / 1000 Ang^3
#
#
#
# Elastic Constant Matrix: (Units=GPa)
#
#
# Indices 1 2 3 4 5 6 
#
# 1 110.9133 51.2883 59.9510 0.0000 -0.3353 0.0000
# 2 51.2883 79.9961 45.1207 0.0000 3.7371 0.0000
# 3 59.9510 45.1207 87.9021 0.0000 1.5344 0.0000
# 4 0.0000 0.0000 0.0000 23.6414 0.0000 -0.0566
# 5 -0.3353 3.7371 1.5344 0.0000 30.8838 0.0000
# 6 0.0000 0.0000 0.0000 -0.0566 0.0000 17.9189
#
#
#
# Elastic Compliance Matrix: (Units=1/GPa)
#
#
# Indices 1 2 3 4 5 6 
#
# 1 0.016019 -0.005848 -0.007946 0.000000 0.001276 0.000000
# 2 -0.005848 0.019818 -0.006146 0.000000 -0.002156 0.000000
# 3 -0.007946 -0.006146 0.019956 0.000000 -0.000334 0.000000
# 4 0.000000 0.000000 0.000000 0.042299 0.000000 0.000134
# 5 0.001276 -0.002156 -0.000334 0.000000 0.032671 0.000000
# 6 0.000000 0.000000 0.000000 0.000134 0.000000 0.055807
#
#
# Mechanical properties :
#
#
# Convention : Reuss Voigt Hill
#
# Bulk Modulus (GPa) = 62.84388 65.72571 64.28480
# Shear Modulus (GPa) = 21.57460 22.65228 22.11344
#
# Velocity S-wave (km/s) = 3.46352 3.54897 3.50650
# Velocity P-wave (km/s) = 7.13703 7.30332 7.22066
#
# Compressibility (1/GPa) = 0.01591245
#
# Stress axis : x y z
#
# Youngs Moduli (GPa) = 62.42559 50.46019 50.11029
#
# Poissons Ratio (x) = 0.29511 0.39815
# Poissons Ratio (y) = 0.36509 0.30798
# Poissons Ratio (z) = 0.49601 0.31013
#
# Static dielectric constant tensor:
#      x y z
#    x 1.641300 0.000000 0.011910 
#    y 0.000000 1.608080 0.000000 
#    z 0.011910 0.000000 1.597410 
# 
# From -- ./inp_files/310770.got.cif
#   From: 2010.05.17/outbox.cif.g08.bks.cpg/sg12_156_cif.got.tgz:310770.got - 2010.06.03 13:09:07.
