data_PCOD9199249
_publ_section_title
;
Structure prediction by ZEFSAII (Michael W. Deem and Ramdas Pophale) SiO2 
 PCOD9199249
Probable space group: C 2/M
;
_chemical_formula_sum "Si O2"
_cell_formula_units_Z 64
_cell_length_a 29.267196
_cell_length_b 13.651401
_cell_length_c 10.077122
_cell_angle_alpha 90.000000
_cell_angle_beta 64.253224
_cell_angle_gamma 90.000000
_cell_volume 3626.485594
_symmetry_space_group_name_H-M "C 2/M"
_symmetry_group_IT_number 12
_symmetry_cell_setting 'monoclinic'
loop_
_space_group_symop_operation_xyz
x,y,z
-x,y,-z
-x,-y,-z
x,-y,z
1/2+x,1/2+y,z
1/2-x,1/2+y,-z
1/2-x,1/2-y,-z
1/2+x,1/2-y,z
loop_
_atom_site_type_symbol
_atom_site_label
_atom_site_fract_x
_atom_site_fract_y
_atom_site_fract_z
Si Si1 0.125900 0.887345 0.748005
Si Si2 0.321348 0.117380 0.671225
Si Si3 0.595570 0.196382 0.641986
Si Si4 0.511269 0.246390 0.338114
Si Si5 0.273885 0.720370 0.329125
Si Si6 0.040318 0.884009 0.061625
Si Si7 0.354670 0.115069 0.162241
Si Si8 0.392619 0.115083 0.819314
O O1 0.107437 0.810303 0.660888
O O2 0.184364 0.863873 0.700232
O O3 0.116667 0.000000 0.723042
O O4 0.094450 0.867324 0.922981
O O5 0.364071 0.152278 0.512191
O O6 0.270668 0.178401 0.705857
O O7 0.344796 0.138116 0.786037
O O8 0.313080 0.000000 0.667347
O O9 0.538889 0.193649 0.657180
O O10 0.606909 0.141840 0.766682
O O11 0.500000 0.284944 0.500000
O O12 0.528780 0.327354 0.210137
O O13 0.558153 0.172626 0.288965
O O14 0.250000 0.750000 0.500000
O O15 0.306058 0.814094 0.238798
O O16 0.034271 0.000000 0.090269
O O17 0.000000 0.852750 0.000000
O O18 0.341287 0.000000 0.187027
O O19 0.380247 0.134485 0.988259
O O20 0.402302 0.000000 0.791945
#
# Coordination Sequence:
#
# PCOD9199249 Si02
#       8
#     8   8   8   8   8   8   8   8
#     4  10  20  36  59  89 118 148 199 246 284 344
#     4  11  22  40  59  83 121 156 192 241 297 348
#     4  11  21  36  58  90 114 154 195 238 296 345
#     4  12  23  37  60  88 121 155 198 243 289 348
#     4  11  21  35  61  91 113 149 202 237 290 344
#     4  10  21  38  61  85 115 157 196 238 292 345
#     4  10  22  40  60  87 120 150 191 244 292 347
#     4  10  24  41  59  86 121 158 193 238 295 350
#
# _framework density 17.647939000000001
#
# number of rings (size 3 to 8) (size 9 to 14) (size 15 to 20)
#    0.000    1.375    5.000    2.250    0.000    2.500 
#    0.000    1.250    0.000    0.750    0.000    0.000 
#    0.000    0.000    0.000    0.000    0.000    0.000 
#
# Total GULP energy -178604.422041 kJ/mol
# GULP energy per Si atom -5581.388189 kJ/mol
# Density = 1.760777 g / cm^3
# Si number density = 17.647939 Si / 1000 Ang^3
#
#
#
# Elastic Constant Matrix: (Units=GPa)
#
#
# Indices 1 2 3 4 5 6 
#
# 1 106.0124 25.8588 26.6146 0.0000 1.6690 0.0000
# 2 25.8588 70.8978 20.2150 0.0000 3.5317 0.0000
# 3 26.6146 20.2150 91.4327 0.0000 11.1151 0.0000
# 4 0.0000 0.0000 0.0000 22.2147 0.0000 -1.2945
# 5 1.6690 3.5317 11.1151 0.0000 29.7394 0.0000
# 6 0.0000 0.0000 0.0000 -1.2945 0.0000 22.6685
#
#
#
# Elastic Compliance Matrix: (Units=1/GPa)
#
#
# Indices 1 2 3 4 5 6 
#
# 1 0.010854 -0.003275 -0.002523 0.000000 0.000723 0.000000
# 2 -0.003275 0.016051 -0.002500 0.000000 -0.000788 0.000000
# 3 -0.002523 -0.002500 0.012750 0.000000 -0.004327 0.000000
# 4 0.000000 0.000000 0.000000 0.045165 0.000000 0.002579
# 5 0.000723 -0.000788 -0.004327 0.000000 0.035296 0.000000
# 6 0.000000 0.000000 0.000000 0.002579 0.000000 0.044261
#
#
# Mechanical properties :
#
#
# Convention : Reuss Voigt Hill
#
# Bulk Modulus (GPa) = 43.36665 45.96886 44.66776
# Shear Modulus (GPa) = 26.50265 27.96816 27.23540
#
# Velocity S-wave (km/s) = 3.87944 3.98525 3.93270
# Velocity P-wave (km/s) = 6.68530 6.87609 6.78137
#
# Compressibility (1/GPa) = 0.02305919
#
# Stress axis : x y z
#
# Youngs Moduli (GPa) = 92.13324 62.29979 78.43078
#
# Poissons Ratio (x) = 0.20405 0.19789
# Poissons Ratio (y) = 0.30177 0.19605
# Poissons Ratio (z) = 0.23246 0.15573
#
# Static dielectric constant tensor:
#      x y z
#    x 1.607880 0.000000 -0.001010 
#    y 0.000000 1.603160 0.000000 
#    z -0.001010 0.000000 1.591540 
# 
# From -- ./inp_files/104487.got.cif
#   From: 2010.05.17/outbox.cif.g08.bks.cpg/sg12_53_cif.got.tgz:104487.got - 2010.06.03 13:09:07.
