data_PCOD9199744
_publ_section_title
;
Structure prediction by ZEFSAII (Michael W. Deem and Ramdas Pophale) SiO2 
 PCOD9199744
Probable space group: C 2/M
;
_chemical_formula_sum "Si O2"
_cell_formula_units_Z 64
_cell_length_a 17.523856
_cell_length_b 16.735404
_cell_length_c 15.403728
_cell_angle_alpha 90.000000
_cell_angle_beta 135.497827
_cell_angle_gamma 90.000000
_cell_volume 3166.432822
_symmetry_space_group_name_H-M "C 2/M"
_symmetry_group_IT_number 12
_symmetry_cell_setting 'monoclinic'
loop_
_space_group_symop_operation_xyz
x,y,z
-x,y,-z
-x,-y,-z
x,-y,z
1/2+x,1/2+y,z
1/2-x,1/2+y,-z
1/2-x,1/2-y,-z
1/2+x,1/2-y,z
loop_
_atom_site_type_symbol
_atom_site_label
_atom_site_fract_x
_atom_site_fract_y
_atom_site_fract_z
Si Si1 0.385904 0.406602 0.168147
Si Si2 0.070776 0.408343 0.189218
Si Si3 0.156855 0.363576 0.071128
Si Si4 0.378944 0.906419 0.487584
Si Si5 0.375456 0.097269 0.288198
Si Si6 0.297895 0.698747 0.958816
Si Si7 0.945868 0.096572 0.546854
Si Si8 0.229294 0.336345 0.444398
O O1 0.400166 0.500000 0.162138
O O2 0.270148 0.394618 0.123679
O O3 0.477477 0.379965 0.310457
O O4 0.384045 0.357776 0.077165
O O5 0.913341 0.500000 0.768036
O O6 0.131224 0.396460 0.145941
O O7 0.122738 0.347808 0.299365
O O8 0.943796 0.392420 0.069628
O O9 0.159232 0.266897 0.071286
O O10 0.497472 0.877758 0.617143
O O11 0.349969 0.878289 0.367458
O O12 0.288725 0.890643 0.485624
O O13 0.395778 0.000000 0.489791
O O14 0.294911 0.144127 0.159595
O O15 0.365368 0.000000 0.268574
O O16 0.250000 0.750000 0.000000
O O17 0.829167 0.134780 0.467297
O O18 0.000000 0.121013 0.500000
O O19 0.936333 0.000000 0.538222
O O20 0.250000 0.250000 0.500000
#
# Coordination Sequence:
#
# PCOD9199744 Si02
#       8
#     8   8   8   8   8   8   8   8
#     4  10  20  36  61  89 122 165 213 255 310 390
#     4  11  23  42  66  91 122 162 211 261 318 382
#     4  10  22  38  63  91 125 160 208 268 319 372
#     4   9  20  40  66  93 125 166 219 269 314 381
#     4   9  19  39  66  94 127 172 218 263 326 394
#     4  10  22  34  56  87 129 162 205 261 325 371
#     4  10  22  43  67  90 126 174 221 264 312 387
#     4  12  27  39  63  98 133 167 208 264 331 380
#
# _framework density 20.212019000000002
#
# number of rings (size 3 to 8) (size 9 to 14) (size 15 to 20)
#    0.000    1.875    0.000    4.500    7.000    2.000 
#    2.250    0.000    0.000    0.000    0.000    7.000 
#    0.000    0.000    0.000    0.000    0.000    0.000 
#
# Total GULP energy -178695.345031 kJ/mol
# GULP energy per Si atom -5584.229532 kJ/mol
# Density = 2.016602 g / cm^3
# Si number density = 20.212019 Si / 1000 Ang^3
#
#
#
# Elastic Constant Matrix: (Units=GPa)
#
#
# Indices 1 2 3 4 5 6 
#
# 1 57.0472 -7.0063 -4.6928 0.0000 -3.8851 0.0000
# 2 -7.0063 58.4739 35.7093 0.0000 -9.9445 0.0000
# 3 -4.6928 35.7093 103.7981 0.0000 -15.1198 0.0000
# 4 0.0000 0.0000 0.0000 22.9847 0.0000 -10.4402
# 5 -3.8851 -9.9445 -15.1198 0.0000 16.6688 0.0000
# 6 0.0000 0.0000 0.0000 -10.4402 0.0000 10.8532
#
#
#
# Elastic Compliance Matrix: (Units=1/GPa)
#
#
# Indices 1 2 3 4 5 6 
#
# 1 0.018406 0.002841 0.000837 0.000000 0.006745 0.000000
# 2 0.002841 0.022843 -0.006509 0.000000 0.008387 0.000000
# 3 0.000837 -0.006509 0.013105 0.000000 0.008200 0.000000
# 4 0.000000 0.000000 0.000000 0.077270 0.000000 0.074330
# 5 0.006745 0.008387 0.008200 0.000000 0.074005 0.000000
# 6 0.000000 0.000000 0.000000 0.074330 0.000000 0.163640
#
#
# Mechanical properties :
#
#
# Convention : Reuss Voigt Hill
#
# Bulk Modulus (GPa) = 20.53609 29.70439 25.12024
# Shear Modulus (GPa) = 12.78243 23.12194 17.95218
#
# Velocity S-wave (km/s) = 2.51752 3.38593 2.98349
# Velocity P-wave (km/s) = 4.31659 5.47853 4.93190
#
# Compressibility (1/GPa) = 0.04869476
#
# Stress axis : x y z
#
# Youngs Moduli (GPa) = 54.32868 43.77692 76.30400
#
# Poissons Ratio (x) = -0.12438 -0.06388
# Poissons Ratio (y) = -0.15436 0.49663
# Poissons Ratio (z) = -0.04548 0.28492
#
# Static dielectric constant tensor:
#      x y z
#    x 1.677220 0.000000 -0.013830 
#    y 0.000000 1.759470 0.000000 
#    z -0.013830 0.000000 1.719170 
# 
# From -- ./inp_files/226892.got.cif
#   From: 2010.05.17/outbox.cif.g08.bks.cpg/sg12_114_cif.got.tgz:226892.got - 2010.06.03 13:09:07.
