data_PCOD9199117
_publ_section_title
;
Structure prediction by ZEFSAII (Michael W. Deem and Ramdas Pophale) SiO2 
 PCOD9199117
Probable space group: C 2/M
;
_chemical_formula_sum "Si O2"
_cell_formula_units_Z 64
_cell_length_a 17.123889
_cell_length_b 14.737904
_cell_length_c 15.613285
_cell_angle_alpha 90.000000
_cell_angle_beta 51.272530
_cell_angle_gamma 90.000000
_cell_volume 3073.970532
_symmetry_space_group_name_H-M "C 2/M"
_symmetry_group_IT_number 12
_symmetry_cell_setting 'monoclinic'
loop_
_space_group_symop_operation_xyz
x,y,z
-x,y,-z
-x,-y,-z
x,-y,z
1/2+x,1/2+y,z
1/2-x,1/2+y,-z
1/2-x,1/2-y,-z
1/2+x,1/2-y,z
loop_
_atom_site_type_symbol
_atom_site_label
_atom_site_fract_x
_atom_site_fract_y
_atom_site_fract_z
Si Si1 0.918893 0.107026 0.323058
Si Si2 0.812354 0.832389 0.998499
Si Si3 0.015080 0.747851 0.857856
Si Si4 0.193107 0.396381 0.245027
Si Si5 0.503947 0.893689 0.716809
Si Si6 0.267521 0.108036 0.431279
Si Si7 0.638168 0.601639 0.219886
Si Si8 0.772735 0.282985 0.252412
O O1 0.934460 0.171864 0.232250
O O2 0.819064 0.130957 0.442625
O O3 0.019833 0.121204 0.310171
O O4 0.916675 0.000000 0.302242
O O5 0.840413 0.892118 0.896474
O O6 0.915926 0.791816 0.964397
O O7 0.750000 0.750000 0.000000
O O8 0.751779 0.882048 0.114505
O O9 0.981690 0.670905 0.812699
O O10 0.108168 0.709263 0.846847
O O11 0.204875 0.500000 0.266198
O O12 0.236558 0.320896 0.277846
O O13 0.077134 0.378050 0.301364
O O14 0.619358 0.876306 0.613138
O O15 0.495090 0.000000 0.747182
O O16 0.255291 0.165142 0.353189
O O17 0.258847 0.000000 0.418590
O O18 0.658561 0.500000 0.236540
O O19 0.707695 0.670491 0.222836
#
# Coordination Sequence:
#
# PCOD9199117 Si02
#       8
#     8   8   8   8   8   8   8   8
#     4   9  19  37  61  85 110 148 195 236 277 332
#     4  11  19  38  61  80 107 146 197 231 273 332
#     4  10  21  36  59  85 113 146 187 237 285 330
#     4  11  22  38  58  82 114 154 191 230 281 336
#     4   9  18  34  56  79 106 146 192 229 266 328
#     4   9  19  37  61  86 112 145 187 238 290 332
#     4  10  20  36  59  86 116 147 188 238 282 333
#     4  11  22  35  53  84 122 149 177 231 283 343
#
# _framework density 20.819977000000002
#
# number of rings (size 3 to 8) (size 9 to 14) (size 15 to 20)
#    0.000    2.000    2.500    1.500    0.000    4.500 
#    0.000    3.750    0.000    1.500    0.000    6.125 
#    0.000    0.000    0.000    0.000    0.000    0.000 
#
# Total GULP energy -178742.078811 kJ/mol
# GULP energy per Si atom -5585.689963 kJ/mol
# Density = 2.077259 g / cm^3
# Si number density = 20.819977 Si / 1000 Ang^3
#
#
#
# Elastic Constant Matrix: (Units=GPa)
#
#
# Indices 1 2 3 4 5 6 
#
# 1 65.3799 30.6544 28.9011 0.0000 -24.0462 0.0000
# 2 30.6544 63.9170 10.6952 0.0000 -12.6240 0.0000
# 3 28.9011 10.6952 75.1907 0.0000 -15.1693 0.0000
# 4 0.0000 0.0000 0.0000 15.7582 0.0000 -10.4500
# 5 -24.0462 -12.6240 -15.1693 0.0000 22.4892 0.0000
# 6 0.0000 0.0000 0.0000 -10.4500 0.0000 24.2970
#
#
#
# Elastic Compliance Matrix: (Units=1/GPa)
#
#
# Indices 1 2 3 4 5 6 
#
# 1 0.030997 -0.009137 -0.005745 0.000000 0.024139 0.000000
# 2 -0.009137 0.020312 0.001102 0.000000 0.002376 0.000000
# 3 -0.005745 0.001102 0.016479 0.000000 0.005591 0.000000
# 4 0.000000 0.000000 0.000000 0.088781 0.000000 0.038184
# 5 0.024139 0.002376 0.005591 0.000000 0.075381 0.000000
# 6 0.000000 0.000000 0.000000 0.038184 0.000000 0.057580
#
#
# Mechanical properties :
#
#
# Convention : Reuss Voigt Hill
#
# Bulk Modulus (GPa) = 24.85796 38.33209 31.59503
# Shear Modulus (GPa) = 15.12862 21.45799 18.29331
#
# Velocity S-wave (km/s) = 2.69855 3.21385 2.96741
# Velocity P-wave (km/s) = 4.65564 5.67652 5.19124
#
# Compressibility (1/GPa) = 0.04022856
#
# Stress axis : x y z
#
# Youngs Moduli (GPa) = 32.26127 49.23141 60.68366
#
# Poissons Ratio (x) = 0.44983 0.34861
# Poissons Ratio (y) = 0.29478 -0.06688
# Poissons Ratio (z) = 0.18533 -0.05426
#
# Static dielectric constant tensor:
#      x y z
#    x 1.752770 0.000000 -0.023660 
#    y 0.000000 1.758850 0.000000 
#    z -0.023660 0.000000 1.733810 
# 
# From -- ./inp_files/270629.got.cif
#   From: 2010.05.17/outbox.cif.g08.bks.cpg/sg12_136_cif.got.tgz:270629.got - 2010.06.03 13:09:07.
