data_PCOD9199847
_publ_section_title
;
Structure prediction by ZEFSAII (Michael W. Deem and Ramdas Pophale) SiO2 
 PCOD9199847
Probable space group: C 2/M
;
_chemical_formula_sum "Si O2"
_cell_formula_units_Z 64
_cell_length_a 18.477707
_cell_length_b 13.607622
_cell_length_c 15.567728
_cell_angle_alpha 90.000000
_cell_angle_beta 48.791740
_cell_angle_gamma 90.000000
_cell_volume 2944.815712
_symmetry_space_group_name_H-M "C 2/M"
_symmetry_group_IT_number 12
_symmetry_cell_setting 'monoclinic'
loop_
_space_group_symop_operation_xyz
x,y,z
-x,y,-z
-x,-y,-z
x,-y,z
1/2+x,1/2+y,z
1/2-x,1/2+y,-z
1/2-x,1/2-y,-z
1/2+x,1/2-y,z
loop_
_atom_site_type_symbol
_atom_site_label
_atom_site_fract_x
_atom_site_fract_y
_atom_site_fract_z
Si Si1 0.480648 0.884591 0.419808
Si Si2 0.198110 0.616967 0.545478
Si Si3 0.745045 0.388891 0.190252
Si Si4 0.112609 0.888152 0.888146
Si Si5 0.392562 0.381424 0.311297
Si Si6 0.080957 0.223857 0.234810
Si Si7 0.880004 0.718375 0.981004
Si Si8 0.412729 0.117841 0.197288
O O1 0.500000 0.848835 0.500000
O O2 0.368820 0.872103 0.485118
O O3 0.542109 0.824669 0.303969
O O4 0.503234 0.000000 0.396390
O O5 0.210067 0.500000 0.553109
O O6 0.303326 0.654649 0.439511
O O7 0.132678 0.650135 0.676394
O O8 0.713098 0.500000 0.225925
O O9 0.651237 0.323762 0.249720
O O10 0.823624 0.368181 0.202422
O O11 0.810045 0.371659 0.055411
O O12 0.120403 0.859383 0.780917
O O13 0.153243 0.000000 0.866807
O O14 0.145518 0.804616 0.930071
O O15 0.000000 0.895523 0.000000
O O16 0.394523 0.500000 0.312243
O O17 0.490292 0.342200 0.276838
O O18 0.133241 0.243037 0.104160
O O19 0.990476 0.677816 0.901430
O O20 0.435621 0.000000 0.180589
#
# Coordination Sequence:
#
# PCOD9199847 Si02
#       8
#     8   8   8   8   8   8   8   8
#     4  10  23  44  66  94 135 175 218 279 341 396
#     4   9  19  40  68  98 126 164 223 276 328 395
#     4  11  26  43  63  96 137 177 221 277 344 408
#     4  10  20  36  61  94 132 173 220 273 329 391
#     4  10  22  40  66  98 135 179 223 277 339 397
#     4  12  25  41  64  96 133 178 222 273 336 411
#     4  12  23  41  67  97 127 176 230 283 333 397
#     4  10  21  41  71  98 127 167 221 286 338 394
#
# _framework density 21.73311
#
# number of rings (size 3 to 8) (size 9 to 14) (size 15 to 20)
#    0.000    1.500    2.500    2.250    0.000    4.500 
#    0.000    1.875    0.000    4.500    0.000    0.000 
#    0.000    0.000    0.000    0.000    0.000    0.000 
#
# Total GULP energy -178734.291378 kJ/mol
# GULP energy per Si atom -5585.446606 kJ/mol
# Density = 2.168364 g / cm^3
# Si number density = 21.733110 Si / 1000 Ang^3
#
#
#
# Elastic Constant Matrix: (Units=GPa)
#
#
# Indices 1 2 3 4 5 6 
#
# 1 63.9860 25.1681 31.9796 0.0000 3.0461 0.0000
# 2 25.1681 73.9159 15.8493 0.0000 6.5505 0.0000
# 3 31.9796 15.8493 89.6632 0.0000 -1.8705 0.0000
# 4 0.0000 0.0000 0.0000 36.2949 0.0000 3.3957
# 5 3.0461 6.5505 -1.8705 0.0000 26.5732 0.0000
# 6 0.0000 0.0000 0.0000 3.3957 0.0000 20.9005
#
#
#
# Elastic Compliance Matrix: (Units=1/GPa)
#
#
# Indices 1 2 3 4 5 6 
#
# 1 0.021233 -0.005682 -0.006600 0.000000 -0.001498 0.000000
# 2 -0.005682 0.015944 -0.000862 0.000000 -0.003340 0.000000
# 3 -0.006600 -0.000862 0.013699 0.000000 0.001933 0.000000
# 4 0.000000 0.000000 0.000000 0.027977 0.000000 -0.004546
# 5 -0.001498 -0.003340 0.001933 0.000000 0.038763 0.000000
# 6 0.000000 0.000000 0.000000 -0.004546 0.000000 0.048584
#
#
# Mechanical properties :
#
#
# Convention : Reuss Voigt Hill
#
# Bulk Modulus (GPa) = 40.66682 41.50657 41.08670
# Shear Modulus (GPa) = 24.91464 27.05825 25.98645
#
# Velocity S-wave (km/s) = 3.38951 3.53232 3.46165
# Velocity P-wave (km/s) = 5.83703 5.98132 5.90961
#
# Compressibility (1/GPa) = 0.02459007
#
# Stress axis : x y z
#
# Youngs Moduli (GPa) = 47.09586 62.71852 72.99556
#
# Poissons Ratio (x) = 0.35636 0.48177
# Poissons Ratio (y) = 0.26759 0.06289
# Poissons Ratio (z) = 0.31083 0.05403
#
# Static dielectric constant tensor:
#      x y z
#    x 1.806010 0.000000 0.009740 
#    y 0.000000 1.856380 0.000000 
#    z 0.009740 0.000000 1.797760 
# 
# From -- ./inp_files/225698.got.cif
#   From: 2010.05.17/outbox.cif.g08.bks.cpg/sg12_113_cif.got.tgz:225698.got - 2010.06.03 13:09:07.
