data_PCOD9199617
_publ_section_title
;
Structure prediction by ZEFSAII (Michael W. Deem and Ramdas Pophale) SiO2 
 PCOD9199617
Probable space group: C 2/M
;
_chemical_formula_sum "Si O2"
_cell_formula_units_Z 56
_cell_length_a 10.002269
_cell_length_b 27.876449
_cell_length_c 18.846822
_cell_angle_alpha 90.000000
_cell_angle_beta 34.897124
_cell_angle_gamma 90.000000
_cell_volume 3006.419843
_symmetry_space_group_name_H-M "C 2/M"
_symmetry_group_IT_number 12
_symmetry_cell_setting 'monoclinic'
loop_
_space_group_symop_operation_xyz
x,y,z
-x,y,-z
-x,-y,-z
x,-y,z
1/2+x,1/2+y,z
1/2-x,1/2+y,-z
1/2-x,1/2-y,-z
1/2+x,1/2-y,z
loop_
_atom_site_type_symbol
_atom_site_label
_atom_site_fract_x
_atom_site_fract_y
_atom_site_fract_z
Si Si1 0.988431 0.500000 0.589263
Si Si2 0.302963 0.096202 0.261621
Si Si3 0.233944 0.748009 0.591244
Si Si4 0.556149 0.853222 0.656442
Si Si5 0.613555 0.646867 0.627113
Si Si6 0.315669 0.407234 0.260413
Si Si7 0.983043 0.000000 0.591304
Si Si8 0.164755 0.442881 0.997718
O O1 0.849683 0.453380 0.675190
O O2 0.000000 0.500000 0.500000
O O3 0.253810 0.500000 0.497376
O O4 0.352471 0.112674 0.320405
O O5 0.538540 0.084326 0.116978
O O6 0.143949 0.135113 0.289917
O O7 0.152538 0.047360 0.325315
O O8 0.500000 0.741650 0.500000
O O9 0.250000 0.750000 0.500000
O O10 0.083581 0.701016 0.673549
O O11 0.136775 0.800406 0.652077
O O12 0.718810 0.857154 0.514951
O O13 0.300229 0.867713 0.740553
O O14 0.687347 0.610412 0.656726
O O15 0.579701 0.421724 0.127782
O O16 0.000000 0.000000 0.500000
O O17 0.182002 0.500000 0.004569
O O18 0.000000 0.437274 0.000000
#
# Coordination Sequence:
#
# PCOD9199617 Si02
#       8
#     4   8   8   8   8   8   4   8
#     4  12  24  33  55  91 121 148 189 249 315 351
#     4  12  23  40  62  88 122 168 205 252 297 368
#     4  10  20  36  60  91 128 165 195 242 306 381
#     4  11  23  38  61  95 129 155 199 252 319 365
#     4  11  21  38  64  94 126 158 203 247 311 371
#     4  12  23  40  61  89 122 162 205 258 293 363
#     4  12  24  37  55  89 129 158 185 239 319 375
#     4  11  24  45  65  83 117 170 227 249 294 361
#
# _framework density 18.626805999999998
#
# number of rings (size 3 to 8) (size 9 to 14) (size 15 to 20)
#    0.000    0.714    2.857    8.571    0.000    0.571 
#    0.000    0.714    0.000    5.143    0.000    0.000 
#    0.000    0.000    0.000    0.000    0.000    0.000 
#
# Total GULP energy -156497.177114 kJ/mol
# GULP energy per Si atom -5589.184897 kJ/mol
# Density = 1.858441 g / cm^3
# Si number density = 18.626806 Si / 1000 Ang^3
#
#
#
# Elastic Constant Matrix: (Units=GPa)
#
#
# Indices 1 2 3 4 5 6 
#
# 1 132.8524 40.1791 34.0024 0.0000 -16.9938 0.0000
# 2 40.1791 106.2945 52.8849 0.0000 -10.2715 0.0000
# 3 34.0024 52.8849 95.9171 0.0000 -16.8098 0.0000
# 4 0.0000 0.0000 0.0000 7.0075 0.0000 -8.6371
# 5 -16.9938 -10.2715 -16.8098 0.0000 23.3237 0.0000
# 6 0.0000 0.0000 0.0000 -8.6371 0.0000 31.7107
#
#
#
# Elastic Compliance Matrix: (Units=1/GPa)
#
#
# Indices 1 2 3 4 5 6 
#
# 1 0.009161 -0.002482 -0.001031 0.000000 0.004838 0.000000
# 2 -0.002482 0.013645 -0.006761 0.000000 -0.000672 0.000000
# 3 -0.001031 -0.006761 0.015870 0.000000 0.007709 0.000000
# 4 0.000000 0.000000 0.000000 0.214823 0.000000 0.058512
# 5 0.004838 -0.000672 0.007709 0.000000 0.051660 0.000000
# 6 0.000000 0.000000 0.000000 0.058512 0.000000 0.047472
#
#
# Mechanical properties :
#
#
# Convention : Reuss Voigt Hill
#
# Bulk Modulus (GPa) = 55.16631 65.46633 60.31632
# Shear Modulus (GPa) = 13.18491 26.27488 19.72989
#
# Velocity S-wave (km/s) = 2.66342 3.75986 3.25810
# Velocity P-wave (km/s) = 6.25614 7.35332 6.82681
#
# Compressibility (1/GPa) = 0.01812701
#
# Stress axis : x y z
#
# Youngs Moduli (GPa) = 109.16308 73.28651 63.01186
#
# Poissons Ratio (x) = 0.18192 0.06496
# Poissons Ratio (y) = 0.27097 0.42604
# Poissons Ratio (z) = 0.11253 0.49551
#
# Static dielectric constant tensor:
#      x y z
#    x 1.627140 0.000000 0.001370 
#    y 0.000000 1.727810 0.000000 
#    z 0.001370 0.000000 1.615540 
# 
# From -- ./inp_files/259833.got.cif
#   From: 2010.05.17/outbox.cif.g08.bks.cpg/sg12_130_cif.got.tgz:259833.got - 2010.06.03 13:09:07.
