data_PCOD9199483
_publ_section_title
;
Structure prediction by ZEFSAII (Michael W. Deem and Ramdas Pophale) SiO2 
 PCOD9199483
Probable space group: C 2/M
;
_chemical_formula_sum "Si O2"
_cell_formula_units_Z 56
_cell_length_a 20.414652
_cell_length_b 9.151115
_cell_length_c 17.794439
_cell_angle_alpha 90.000000
_cell_angle_beta 63.215829
_cell_angle_gamma 90.000000
_cell_volume 2967.637591
_symmetry_space_group_name_H-M "C 2/M"
_symmetry_group_IT_number 12
_symmetry_cell_setting 'monoclinic'
loop_
_space_group_symop_operation_xyz
x,y,z
-x,y,-z
-x,-y,-z
x,-y,z
1/2+x,1/2+y,z
1/2-x,1/2+y,-z
1/2-x,1/2-y,-z
1/2+x,1/2-y,z
loop_
_atom_site_type_symbol
_atom_site_label
_atom_site_fract_x
_atom_site_fract_y
_atom_site_fract_z
Si Si1 0.916314 0.174205 0.521767
Si Si2 0.673722 0.826618 0.558570
Si Si3 0.826514 0.174978 0.162169
Si Si4 0.824224 0.825099 0.989503
Si Si5 0.911706 0.326537 0.247581
Si Si6 0.063241 0.174388 0.199807
Si Si7 0.173466 0.173837 0.280320
O O1 0.887398 0.262203 0.465583
O O2 0.863681 0.203652 0.620153
O O3 0.000000 0.209486 0.500000
O O4 0.913107 0.000000 0.507617
O O5 0.750000 0.750000 0.500000
O O6 0.649113 0.799055 0.656710
O O7 0.680367 0.000000 0.544770
O O8 0.838958 0.213693 0.068353
O O9 0.886472 0.246664 0.185166
O O10 0.747053 0.236506 0.227386
O O11 0.828028 0.000000 0.168652
O O12 0.814104 0.000000 0.990817
O O13 0.750000 0.750000 0.000000
O O14 0.889646 0.788300 0.898694
O O15 0.916965 0.500000 0.233461
O O16 0.988205 0.262584 0.237475
O O17 0.114078 0.204745 0.245792
O O18 0.047996 0.000000 0.207488
O O19 0.190587 0.000000 0.268037
#
# Coordination Sequence:
#
# PCOD9199483 Si02
#       7
#     8   8   8   8   8   8   8
#     4  10  21  37  59  87 117 152 195 241 292 351
#     4  11  24  41  61  85 116 156 200 245 295 351
#     4  11  23  38  60  89 119 153 195 241 290 347
#     4  10  21  38  62  91 120 154 195 239 288 347
#     4  11  25  42  59  85 120 157 198 244 296 351
#     4  10  21  39  63  88 119 158 196 240 292 347
#     4  10  20  36  60  88 117 153 196 240 290 349
#
# _framework density 18.870228999999998
#
# number of rings (size 3 to 8) (size 9 to 14) (size 15 to 20)
#    0.000    1.571    1.429    3.000    0.000   10.000 
#    0.000    2.857    0.000    0.000    0.000    0.000 
#    0.000    0.000    0.000    0.000    0.000    0.000 
#
# Total GULP energy -156551.620314 kJ/mol
# GULP energy per Si atom -5591.129297 kJ/mol
# Density = 1.882728 g / cm^3
# Si number density = 18.870229 Si / 1000 Ang^3
#
#
#
# Elastic Constant Matrix: (Units=GPa)
#
#
# Indices 1 2 3 4 5 6 
#
# 1 49.7784 19.8984 -1.5745 0.0000 8.5687 0.0000
# 2 19.8984 31.0249 28.2435 0.0000 6.0934 0.0000
# 3 -1.5745 28.2435 59.4647 0.0000 13.3291 0.0000
# 4 0.0000 0.0000 0.0000 25.5900 0.0000 -1.5258
# 5 8.5687 6.0934 13.3291 0.0000 34.2959 0.0000
# 6 0.0000 0.0000 0.0000 -1.5258 0.0000 38.4410
#
#
#
# Elastic Compliance Matrix: (Units=1/GPa)
#
#
# Indices 1 2 3 4 5 6 
#
# 1 0.043807 -0.051532 0.028521 0.000000 -0.012874 0.000000
# 2 -0.051532 0.117411 -0.060621 0.000000 0.015575 0.000000
# 3 0.028521 -0.060621 0.049894 0.000000 -0.015747 0.000000
# 4 0.000000 0.000000 0.000000 0.039170 0.000000 0.001555
# 5 -0.012874 0.015575 -0.015747 0.000000 0.035727 0.000000
# 6 0.000000 0.000000 0.000000 0.001555 0.000000 0.026076
#
#
# Mechanical properties :
#
#
# Convention : Reuss Voigt Hill
#
# Bulk Modulus (GPa) = 22.80619 25.93363 24.36991
# Shear Modulus (GPa) = 10.12218 25.91210 18.01714
#
# Velocity S-wave (km/s) = 2.31857 3.70966 3.09332
# Velocity P-wave (km/s) = 4.39087 5.66760 5.06959
#
# Compressibility (1/GPa) = 0.04384775
#
# Stress axis : x y z
#
# Youngs Moduli (GPa) = 22.82762 8.51710 20.04238
#
# Poissons Ratio (x) = 0.43890 -0.57164
# Poissons Ratio (y) = 1.17635 1.21499
# Poissons Ratio (z) = -0.65108 0.51632
#
# Static dielectric constant tensor:
#      x y z
#    x 1.630870 0.000000 0.002160 
#    y 0.000000 1.624810 0.000000 
#    z 0.002160 0.000000 1.648010 
# 
# From -- ./inp_files/275037.got.cif
#   From: 2010.05.17/outbox.cif.g08.bks.cpg/sg12_138_cif.got.tgz:275037.got - 2010.06.03 13:09:07.
