data_PCOD9199046
_publ_section_title
;
Structure prediction by ZEFSAII (Michael W. Deem and Ramdas Pophale) SiO2 
 PCOD9199046
Probable space group: C 2/M
;
_chemical_formula_sum "Si O2"
_cell_formula_units_Z 64
_cell_length_a 26.941557
_cell_length_b 7.775885
_cell_length_c 14.432776
_cell_angle_alpha 90.000000
_cell_angle_beta 94.232827
_cell_angle_gamma 90.000000
_cell_volume 3015.339177
_symmetry_space_group_name_H-M "C 2/M"
_symmetry_group_IT_number 12
_symmetry_cell_setting 'monoclinic'
loop_
_space_group_symop_operation_xyz
x,y,z
-x,y,-z
-x,-y,-z
x,-y,z
1/2+x,1/2+y,z
1/2-x,1/2+y,-z
1/2-x,1/2-y,-z
1/2+x,1/2-y,z
loop_
_atom_site_type_symbol
_atom_site_label
_atom_site_fract_x
_atom_site_fract_y
_atom_site_fract_z
Si Si1 0.227993 0.794871 0.897284
Si Si2 0.451267 0.706011 0.726435
Si Si3 0.242613 0.203321 0.296227
Si Si4 0.617724 0.704583 0.911303
Si Si5 0.146343 0.208176 0.392775
Si Si6 0.049752 0.210671 0.061946
Si Si7 0.938094 0.294720 0.279231
Si Si8 0.153047 0.293510 0.609243
O O1 0.258485 0.725268 0.814313
O O2 0.171213 0.725406 0.887674
O O3 0.227141 0.000000 0.886973
O O4 0.250000 0.750000 0.000000
O O5 0.446377 0.500000 0.731134
O O6 0.405009 0.771467 0.660048
O O7 0.449591 0.771197 0.832290
O O8 0.505553 0.742426 0.692500
O O9 0.194352 0.272995 0.342354
O O10 0.295316 0.275146 0.340411
O O11 0.243446 0.000000 0.316183
O O12 0.623947 0.500000 0.922540
O O13 0.577657 0.734416 0.825363
O O14 0.596246 0.769110 0.005779
O O15 0.150491 0.255531 0.500532
O O16 0.145991 0.000000 0.387072
O O17 0.049910 0.000000 0.063403
O O18 0.000000 0.262092 0.000000
O O19 0.936342 0.500000 0.279545
O O20 0.895682 0.227541 0.343294
O O21 0.153267 0.500000 0.621364
#
# Coordination Sequence:
#
# PCOD9199046 Si02
#       8
#     8   8   8   8   8   8   8   8
#     4  11  24  38  59  90 124 162 197 239 294 350
#     4  10  21  38  58  85 118 153 197 245 290 347
#     4  10  21  41  64  88 120 156 197 248 299 354
#     4  10  20  36  59  85 112 154 201 241 283 343
#     4  10  23  39  62  89 115 153 200 252 300 349
#     4   9  16  30  56  82 107 144 189 232 277 333
#     4  11  22  37  59  87 119 156 192 240 301 354
#     4  10  22  40  62  85 116 154 193 247 309 362
#
# _framework density 21.224810000000002
#
# number of rings (size 3 to 8) (size 9 to 14) (size 15 to 20)
#    0.000    1.875    2.500    1.125    1.750    3.500 
#    0.000    3.750    0.000    0.000    0.000    0.000 
#    0.000    0.000    0.000    0.000    0.000    0.000 
#
# Total GULP energy -178782.721730 kJ/mol
# GULP energy per Si atom -5586.960054 kJ/mol
# Density = 2.117650 g / cm^3
# Si number density = 21.224810 Si / 1000 Ang^3
#
#
#
# Elastic Constant Matrix: (Units=GPa)
#
#
# Indices 1 2 3 4 5 6 
#
# 1 151.8492 1.6847 78.6941 0.0000 -14.2163 0.0000
# 2 1.6847 25.6558 -9.1834 0.0000 -0.9966 0.0000
# 3 78.6941 -9.1834 148.9934 0.0000 -0.4404 0.0000
# 4 0.0000 0.0000 0.0000 24.8269 0.0000 0.4182
# 5 -14.2163 -0.9966 -0.4404 0.0000 35.3038 0.0000
# 6 0.0000 0.0000 0.0000 0.4182 0.0000 16.2891
#
#
#
# Elastic Compliance Matrix: (Units=1/GPa)
#
#
# Indices 1 2 3 4 5 6 
#
# 1 0.009686 -0.002369 -0.005250 0.000000 0.003768 0.000000
# 2 -0.002369 0.040484 0.003747 0.000000 0.000236 0.000000
# 3 -0.005250 0.003747 0.009710 0.000000 -0.001887 0.000000
# 4 0.000000 0.000000 0.000000 0.040296 0.000000 -0.001035
# 5 0.003768 0.000236 -0.001887 0.000000 0.029826 0.000000
# 6 0.000000 0.000000 0.000000 -0.001035 0.000000 0.061417
#
#
# Mechanical properties :
#
#
# Convention : Reuss Voigt Hill
#
# Bulk Modulus (GPa) = 19.18105 52.09877 35.63991
# Shear Modulus (GPa) = 23.09022 32.30416 27.69719
#
# Velocity S-wave (km/s) = 3.30189 3.90551 3.61632
# Velocity P-wave (km/s) = 4.85730 6.70349 5.85364
#
# Compressibility (1/GPa) = 0.05213479
#
# Stress axis : x y z
#
# Youngs Moduli (GPa) = 103.24693 24.70134 102.98388
#
# Poissons Ratio (x) = 0.05852 0.54072
# Poissons Ratio (y) = 0.24459 -0.38590
# Poissons Ratio (z) = 0.54210 -0.09256
#
# Static dielectric constant tensor:
#      x y z
#    x 1.780390 0.000000 -0.010000 
#    y 0.000000 1.790000 0.000000 
#    z -0.010000 0.000000 1.722120 
# 
# From -- ./inp_files/238708.got.cif
#   From: 2010.05.17/outbox.cif.g08.bks.cpg/sg12_120_cif.got.tgz:238708.got - 2010.06.03 13:09:07.
