data_PCOD9199355
_publ_section_title
;
Structure prediction by ZEFSAII (Michael W. Deem and Ramdas Pophale) SiO2 
 PCOD9199355
Probable space group: C 2/M
;
_chemical_formula_sum "Si O2"
_cell_formula_units_Z 64
_cell_length_a 17.424044
_cell_length_b 14.018707
_cell_length_c 15.448288
_cell_angle_alpha 90.000000
_cell_angle_beta 66.126909
_cell_angle_gamma 90.000000
_cell_volume 3450.598676
_symmetry_space_group_name_H-M "C 2/M"
_symmetry_group_IT_number 12
_symmetry_cell_setting 'monoclinic'
loop_
_space_group_symop_operation_xyz
x,y,z
-x,y,-z
-x,-y,-z
x,-y,z
1/2+x,1/2+y,z
1/2-x,1/2+y,-z
1/2-x,1/2-y,-z
1/2+x,1/2-y,z
loop_
_atom_site_type_symbol
_atom_site_label
_atom_site_fract_x
_atom_site_fract_y
_atom_site_fract_z
Si Si1 0.459955 0.739124 0.613025
Si Si2 0.635792 0.248137 0.592467
Si Si3 0.772839 0.610771 0.568689
Si Si4 0.522572 0.888440 0.089594
Si Si5 0.825260 0.731630 0.899356
Si Si6 0.341209 0.110293 0.260763
Si Si7 0.670870 0.388238 0.238408
Si Si8 0.669603 0.889595 0.269900
O O1 0.500000 0.734017 0.500000
O O2 0.538506 0.728294 0.641320
O O3 0.389466 0.659670 0.662521
O O4 0.415359 0.838131 0.659059
O O5 0.689786 0.344141 0.565136
O O6 0.655076 0.180051 0.501530
O O7 0.667447 0.184979 0.658138
O O8 0.786671 0.500000 0.541040
O O9 0.770469 0.618522 0.673853
O O10 0.595235 0.819744 0.092218
O O11 0.434663 0.878997 0.180355
O O12 0.549834 0.000000 0.084183
O O13 0.500000 0.869567 0.000000
O O14 0.846282 0.830898 0.841877
O O15 0.800023 0.664065 0.829600
O O16 0.750000 0.750000 0.000000
O O17 0.267489 0.125776 0.224448
O O18 0.332219 0.000000 0.294828
O O19 0.655559 0.500000 0.237324
O O20 0.654834 0.000000 0.258181
#
# Coordination Sequence:
#
# PCOD9199355 Si02
#       8
#     8   8   8   8   8   8   8   8
#     4  11  22  37  56  84 118 158 200 244 299 353
#     4  11  21  35  56  79 114 151 194 245 283 348
#     4  10  22  37  55  80 111 152 194 239 292 347
#     4  10  21  38  61  92 121 149 192 248 306 357
#     4  11  22  37  62  91 121 155 193 238 301 364
#     4  10  20  36  60  85 113 153 199 247 297 345
#     4  10  23  40  58  84 121 160 202 248 293 354
#     4  10  21  39  60  87 121 152 193 246 304 358
#
# _framework density 18.547505999999998
#
# number of rings (size 3 to 8) (size 9 to 14) (size 15 to 20)
#    0.000    1.625    1.250    4.500    1.750    5.000 
#    0.000    0.000    0.000    0.375    0.000    0.000 
#    0.000    0.000    0.000    0.000    0.000    0.000 
#
# Total GULP energy -178587.665090 kJ/mol
# GULP energy per Si atom -5580.864534 kJ/mol
# Density = 1.850529 g / cm^3
# Si number density = 18.547506 Si / 1000 Ang^3
#
#
#
# Elastic Constant Matrix: (Units=GPa)
#
#
# Indices 1 2 3 4 5 6 
#
# 1 95.7474 53.8325 22.1089 0.0000 -8.3272 0.0000
# 2 53.8325 117.6120 49.1330 0.0000 -2.4566 0.0000
# 3 22.1089 49.1330 111.3465 0.0000 -0.8180 0.0000
# 4 0.0000 0.0000 0.0000 17.0319 0.0000 5.9382
# 5 -8.3272 -2.4566 -0.8180 0.0000 27.0133 0.0000
# 6 0.0000 0.0000 0.0000 5.9382 0.0000 27.7101
#
#
#
# Elastic Compliance Matrix: (Units=1/GPa)
#
#
# Indices 1 2 3 4 5 6 
#
# 1 0.014455 -0.006557 0.000052 0.000000 0.003861 0.000000
# 2 -0.006557 0.013416 -0.004625 0.000000 -0.000941 0.000000
# 3 0.000052 -0.004625 0.011011 0.000000 -0.000071 0.000000
# 4 0.000000 0.000000 0.000000 0.063454 0.000000 -0.013598
# 5 0.003861 -0.000941 -0.000071 0.000000 0.038121 0.000000
# 6 0.000000 0.000000 0.000000 -0.013598 0.000000 0.039002
#
#
# Mechanical properties :
#
#
# Convention : Reuss Voigt Hill
#
# Bulk Modulus (GPa) = 60.16456 63.87273 62.01864
# Shear Modulus (GPa) = 24.12421 27.65983 25.89202
#
# Velocity S-wave (km/s) = 3.61039 3.86592 3.74034
# Velocity P-wave (km/s) = 7.06317 7.37830 7.22245
#
# Compressibility (1/GPa) = 0.01662108
#
# Stress axis : x y z
#
# Youngs Moduli (GPa) = 69.18227 74.53673 90.81787
#
# Poissons Ratio (x) = 0.48873 -0.00469
# Poissons Ratio (y) = 0.45362 0.42004
# Poissons Ratio (z) = -0.00357 0.34473
#
# Static dielectric constant tensor:
#      x y z
#    x 1.659410 0.000000 0.020390 
#    y 0.000000 1.629170 0.000000 
#    z 0.020390 0.000000 1.664120 
# 
# From -- ./inp_files/225245.got.cif
#   From: 2010.05.17/outbox.cif.g08.bks.cpg/sg12_113_cif.got.tgz:225245.got - 2010.06.03 13:09:07.
