data_PCOD9199898
_publ_section_title
;
Structure prediction by ZEFSAII (Michael W. Deem and Ramdas Pophale) SiO2 
 PCOD9199898
Probable space group: C 2/M
;
_chemical_formula_sum "Si O2"
_cell_formula_units_Z 48
_cell_length_a 26.720338
_cell_length_b 15.568450
_cell_length_c 10.072677
_cell_angle_alpha 90.000000
_cell_angle_beta 141.248849
_cell_angle_gamma 90.000000
_cell_volume 2622.794954
_symmetry_space_group_name_H-M "C 2/M"
_symmetry_group_IT_number 12
_symmetry_cell_setting 'monoclinic'
loop_
_space_group_symop_operation_xyz
x,y,z
-x,y,-z
-x,-y,-z
x,-y,z
1/2+x,1/2+y,z
1/2-x,1/2+y,-z
1/2-x,1/2-y,-z
1/2+x,1/2-y,z
loop_
_atom_site_type_symbol
_atom_site_label
_atom_site_fract_x
_atom_site_fract_y
_atom_site_fract_z
Si Si1 0.080685 0.409274 0.253679
Si Si2 0.898153 0.898107 0.554972
Si Si3 0.067578 0.806109 0.870769
Si Si4 0.662385 0.709733 0.804545
Si Si5 0.964389 0.350533 0.560166
Si Si6 0.842671 0.770423 0.670956
O O1 0.123288 0.500000 0.309983
O O2 0.063201 0.407116 0.374539
O O3 0.122372 0.320262 0.306009
O O4 0.000000 0.408910 0.000000
O O5 0.847480 0.865760 0.323233
O O6 0.863674 0.842982 0.606301
O O7 0.990811 0.868805 0.723472
O O8 0.893541 0.000000 0.564854
O O9 0.125996 0.823911 0.868087
O O10 0.030527 0.712927 0.760191
O O11 0.115275 0.799245 0.105871
O O12 0.605724 0.786503 0.633085
O O13 0.750000 0.750000 0.000000
O O14 0.000000 0.391663 0.500000
O O15 0.750000 0.750000 0.500000
#
# Coordination Sequence:
#
# PCOD9199898 Si02
#       6
#     8   8   8   8   8   8
#     4  11  21  38  62  87 117 156 204 252 301 364
#     4  11  23  41  65  91 123 164 210 253 303 370
#     4  10  20  36  62  89 119 159 208 244 299 367
#     4  10  20  37  62  90 120 162 200 248 309 360
#     4   9  18  35  59  85 114 151 202 246 294 363
#     4  12  23  39  62  89 126 163 199 258 314 363
#
# _framework density 18.301088
#
# number of rings (size 3 to 8) (size 9 to 14) (size 15 to 20)
#    0.000    1.500    5.000    3.000    0.000    3.667 
#    0.000    0.833    0.000    0.000    0.000    0.000 
#    0.000    0.000    0.000    0.000    0.000    0.000 
#
# Total GULP energy -133847.146018 kJ/mol
# GULP energy per Si atom -5576.964417 kJ/mol
# Density = 1.825943 g / cm^3
# Si number density = 18.301088 Si / 1000 Ang^3
#
#
#
# Elastic Constant Matrix: (Units=GPa)
#
#
# Indices 1 2 3 4 5 6 
#
# 1 131.7215 67.5042 78.1331 0.0000 -15.8158 0.0000
# 2 67.5042 150.1774 52.0981 0.0000 -10.6078 0.0000
# 3 78.1331 52.0981 106.9465 0.0000 -15.4108 0.0000
# 4 0.0000 0.0000 0.0000 19.7223 0.0000 -4.8666
# 5 -15.8158 -10.6078 -15.4108 0.0000 37.3581 0.0000
# 6 0.0000 0.0000 0.0000 -4.8666 0.0000 1.6514
#
#
#
# Elastic Compliance Matrix: (Units=1/GPa)
#
#
# Indices 1 2 3 4 5 6 
#
# 1 0.014864 -0.003466 -0.008937 0.000000 0.001622 0.000000
# 2 -0.003466 0.008839 -0.001726 0.000000 0.000330 0.000000
# 3 -0.008937 -0.001726 0.017122 0.000000 0.002790 0.000000
# 4 0.000000 0.000000 0.000000 0.185854 0.000000 0.547703
# 5 0.001622 0.000330 0.002790 0.000000 0.028699 0.000000
# 6 0.000000 0.000000 0.000000 0.547703 0.000000 2.219601
#
#
# Mechanical properties :
#
#
# Convention : Reuss Voigt Hill
#
# Bulk Modulus (GPa) = 79.57354 87.14626 83.35990
# Shear Modulus (GPa) = 1.99408 24.48703 13.24055
#
# Velocity S-wave (km/s) = 1.04497 3.66185 2.69268
# Velocity P-wave (km/s) = 6.71048 8.09940 7.43743
#
# Compressibility (1/GPa) = 0.01256699
#
# Stress axis : x y z
#
# Youngs Moduli (GPa) = 67.27549 113.13556 58.40296
#
# Poissons Ratio (x) = 0.39218 0.52196
# Poissons Ratio (y) = 0.23321 0.10078
# Poissons Ratio (z) = 0.60125 0.19524
#
# Static dielectric constant tensor:
#      x y z
#    x 1.685620 0.000000 -0.014980 
#    y 0.000000 1.632080 0.000000 
#    z -0.014980 0.000000 1.613330 
# 
# From -- ./inp_files/104945.got.cif
#   From: 2010.05.17/outbox.cif.g08.bks.cpg/sg12_53_cif.got.tgz:104945.got - 2010.06.03 13:09:07.
