data_PCOD9199058
_publ_section_title
;
Structure prediction by ZEFSAII (Michael W. Deem and Ramdas Pophale) SiO2 
 PCOD9199058
Probable space group: C 2/M
;
_chemical_formula_sum "Si O2"
_cell_formula_units_Z 56
_cell_length_a 16.143768
_cell_length_b 8.919503
_cell_length_c 26.315294
_cell_angle_alpha 90.000000
_cell_angle_beta 141.684392
_cell_angle_gamma 90.000000
_cell_volume 2349.310553
_symmetry_space_group_name_H-M "C 2/M"
_symmetry_group_IT_number 12
_symmetry_cell_setting 'monoclinic'
loop_
_space_group_symop_operation_xyz
x,y,z
-x,y,-z
-x,-y,-z
x,-y,z
1/2+x,1/2+y,z
1/2-x,1/2+y,-z
1/2-x,1/2-y,-z
1/2+x,1/2-y,z
loop_
_atom_site_type_symbol
_atom_site_label
_atom_site_fract_x
_atom_site_fract_y
_atom_site_fract_z
Si Si1 0.468305 0.175563 0.767571
Si Si2 0.203806 0.325888 0.628317
Si Si3 0.152678 0.669537 0.052238
Si Si4 0.762709 0.829116 0.809230
Si Si5 0.435356 0.673329 0.088650
Si Si6 0.908002 0.326914 0.534025
Si Si7 0.502652 0.325687 0.675114
O O1 0.314152 0.218326 0.704501
O O2 0.558407 0.263663 0.851525
O O3 0.483846 0.233421 0.717706
O O4 0.492097 0.000000 0.783354
O O5 0.248779 0.500000 0.654903
O O6 0.058868 0.317428 0.584039
O O7 0.183118 0.291531 0.558497
O O8 0.206617 0.500000 0.082257
O O9 0.222276 0.784126 0.124359
O O10 0.000000 0.663589 0.000000
O O11 0.143495 0.727139 0.990271
O O12 0.909921 0.820483 0.856286
O O13 0.655281 0.716405 0.734213
O O14 0.714682 0.000000 0.779903
O O15 0.393555 0.500000 0.066330
O O16 0.884469 0.500000 0.537076
O O17 0.907806 0.224651 0.583432
O O18 0.487318 0.500000 0.677884
#
# Coordination Sequence:
#
# PCOD9199058 Si02
#       7
#     8   8   8   8   8   8   8
#     4  12  25  39  56  80 113 151 190 232 279 331
#     4   9  19  38  63  88 114 145 182 226 277 332
#     4   9  17  31  54  85 116 145 184 231 275 323
#     4  10  20  36  59  85 114 148 186 229 279 333
#     4  10  20  36  59  85 114 148 186 229 279 333
#     4   9  19  38  63  88 114 145 182 226 277 332
#     4  12  25  39  56  80 113 151 190 232 279 331
#
# _framework density 23.836780000000001
#
# number of rings (size 3 to 8) (size 9 to 14) (size 15 to 20)
#    0.000    1.857    0.000    5.571    0.000    8.571 
#    0.000    2.143    0.000    0.000    0.000    0.000 
#    0.000    0.000    0.000    0.000    0.000    0.000 
#
# Total GULP energy -156841.846152 kJ/mol
# GULP energy per Si atom -5601.494505 kJ/mol
# Density = 2.378253 g / cm^3
# Si number density = 23.836780 Si / 1000 Ang^3
#
#
#
# Elastic Constant Matrix: (Units=GPa)
#
#
# Indices 1 2 3 4 5 6 
#
# 1 83.4496 13.4674 7.8932 0.0000 -17.4943 0.0000
# 2 13.4674 100.3458 32.0217 0.0000 -16.3052 0.0000
# 3 7.8932 32.0217 92.2664 0.0000 -18.9043 0.0000
# 4 0.0000 0.0000 0.0000 39.4268 0.0000 -3.4176
# 5 -17.4943 -16.3052 -18.9043 0.0000 49.1649 0.0000
# 6 0.0000 0.0000 0.0000 -3.4176 0.0000 27.6500
#
#
#
# Elastic Compliance Matrix: (Units=1/GPa)
#
#
# Indices 1 2 3 4 5 6 
#
# 1 0.013056 -0.001096 0.000153 0.000000 0.004341 0.000000
# 2 -0.001096 0.011568 -0.003490 0.000000 0.002105 0.000000
# 3 0.000153 -0.003490 0.012820 0.000000 0.003826 0.000000
# 4 0.000000 0.000000 0.000000 0.025638 0.000000 0.003169
# 5 0.004341 0.002105 0.003826 0.000000 0.024054 0.000000
# 6 0.000000 0.000000 0.000000 0.003169 0.000000 0.036558
#
#
# Mechanical properties :
#
#
# Convention : Reuss Voigt Hill
#
# Bulk Modulus (GPa) = 34.99091 42.53627 38.76359
# Shear Modulus (GPa) = 35.19000 38.09363 36.64181
#
# Velocity S-wave (km/s) = 3.84642 4.00196 3.92496
# Velocity P-wave (km/s) = 5.86838 6.26401 6.06942
#
# Compressibility (1/GPa) = 0.02857885
#
# Stress axis : x y z
#
# Youngs Moduli (GPa) = 76.59501 86.44349 78.00129
#
# Poissons Ratio (x) = 0.09471 -0.01192
# Poissons Ratio (y) = 0.08392 0.27221
# Poissons Ratio (z) = -0.01170 0.30168
#
# Static dielectric constant tensor:
#      x y z
#    x 2.027330 0.000000 0.061790 
#    y 0.000000 1.795120 0.000000 
#    z 0.061790 0.000000 1.905350 
# 
# From -- ./inp_files/333371.got.cif
#   From: 2010.05.17/outbox.cif.g08.bks.cpg/sg12_167_cif.got.tgz:333371.got - 2010.06.03 13:09:07.
