data_PCOD9199212
_publ_section_title
;
Structure prediction by ZEFSAII (Michael W. Deem and Ramdas Pophale) SiO2 
 PCOD9199212
Probable space group: C 2/M
;
_chemical_formula_sum "Si O2"
_cell_formula_units_Z 48
_cell_length_a 10.555426
_cell_length_b 27.011657
_cell_length_c 19.063607
_cell_angle_alpha 90.000000
_cell_angle_beta 156.601071
_cell_angle_gamma 90.000000
_cell_volume 2158.567173
_symmetry_space_group_name_H-M "C 2/M"
_symmetry_group_IT_number 12
_symmetry_cell_setting 'monoclinic'
loop_
_space_group_symop_operation_xyz
x,y,z
-x,y,-z
-x,-y,-z
x,-y,z
1/2+x,1/2+y,z
1/2-x,1/2+y,-z
1/2-x,1/2-y,-z
1/2+x,1/2-y,z
loop_
_atom_site_type_symbol
_atom_site_label
_atom_site_fract_x
_atom_site_fract_y
_atom_site_fract_z
Si Si1 0.187909 0.052979 0.021584
Si Si2 0.133118 0.834883 0.796388
Si Si3 0.145225 0.658245 0.854165
Si Si4 0.765188 0.749458 0.693173
Si Si5 0.258986 0.415827 0.681031
Si Si6 0.882918 0.670218 0.573706
O O1 0.933420 0.054327 0.829743
O O2 0.365786 0.000000 0.108840
O O3 0.359094 0.106442 0.106456
O O4 0.000000 0.054072 0.000000
O O5 0.957225 0.793258 0.752654
O O6 0.021721 0.888554 0.767022
O O7 0.973689 0.828034 0.638467
O O8 0.500000 0.829174 0.000000
O O9 0.018797 0.705422 0.832968
O O10 0.919055 0.654314 0.671631
O O11 0.500000 0.665857 0.000000
O O12 0.500000 0.734614 0.500000
O O13 0.574395 0.778302 0.657746
O O14 0.000000 0.441550 0.500000
O O15 0.065442 0.371217 0.620684
#
# Coordination Sequence:
#
# PCOD9199212 Si02
#       6
#     8   8   8   8   8   8
#     4  10  20  36  59  88 115 145 193 245 292 336
#     4   9  18  34  56  84 113 154 188 235 284 337
#     4  11  20  35  56  83 113 157 185 235 286 338
#     4   9  20  35  51  83 115 155 190 233 278 340
#     4   9  17  35  59  83 117 148 186 240 289 338
#     4   9  18  36  54  79 122 147 191 235 275 343
#
# _framework density 22.236972000000002
#
# number of rings (size 3 to 8) (size 9 to 14) (size 15 to 20)
#    0.000    2.500    3.333    2.500    0.000    3.667 
#    6.000    0.000    0.000    1.000    0.000    0.000 
#    0.000    0.000    0.000    0.000    0.000    0.000 
#
# Total GULP energy -134005.268616 kJ/mol
# GULP energy per Si atom -5583.552859 kJ/mol
# Density = 2.218636 g / cm^3
# Si number density = 22.236972 Si / 1000 Ang^3
#
#
#
# Elastic Constant Matrix: (Units=GPa)
#
#
# Indices 1 2 3 4 5 6 
#
# 1 34.6917 11.2600 40.9212 0.0074 -18.1918 -0.0052
# 2 11.2600 136.6860 44.5139 -0.0123 -7.7837 -0.0067
# 3 40.9212 44.5139 147.8652 -0.1451 -15.3353 -0.1147
# 4 0.0074 -0.0123 -0.1451 29.0230 0.0196 -27.3109
# 5 -18.1918 -7.7837 -15.3353 0.0196 46.4092 -0.0240
# 6 -0.0052 -0.0067 -0.1147 -27.3109 -0.0240 45.3116
#
#
#
# Elastic Compliance Matrix: (Units=1/GPa)
#
#
# Indices 1 2 3 4 5 6 
#
# 1 0.052654 0.000875 -0.013130 -0.000248 0.016448 -0.000168
# 2 0.000875 0.008141 -0.002605 -0.000034 0.000848 -0.000026
# 3 -0.013130 -0.002605 0.010978 0.000189 -0.001956 0.000139
# 4 -0.000248 -0.000034 0.000189 0.079610 -0.000049 0.047984
# 5 0.016448 0.000848 -0.001956 -0.000049 0.027491 -0.000018
# 6 -0.000168 -0.000026 0.000139 0.047984 -0.000018 0.050992
#
#
# Mechanical properties :
#
#
# Convention : Reuss Voigt Hill
#
# Bulk Modulus (GPa) = 23.77955 56.95924 40.36940
# Shear Modulus (GPa) = 18.27473 38.98528 28.63001
#
# Velocity S-wave (km/s) = 2.86985 4.19163 3.59206
# Velocity P-wave (km/s) = 4.65814 7.00690 5.94958
#
# Compressibility (1/GPa) = 0.04205294
#
# Stress axis : x y z
#
# Youngs Moduli (GPa) = 18.99206 122.84161 91.09000
#
# Poissons Ratio (x) = -0.10748 1.19598
# Poissons Ratio (y) = -0.01662 0.23729
# Poissons Ratio (z) = 0.24936 0.32000
#
# Static dielectric constant tensor:
#      x y z
#    x 1.860670 0.000000 -0.001530 
#    y 0.000000 1.835690 -0.000050 
#    z -0.001530 -0.000050 1.847330 
# 
# From -- ./inp_files/307629.got.cif
#   From: 2010.05.17/outbox.cif.g08.bks.cpg/sg12_154_cif.got.tgz:307629.got - 2010.06.03 13:09:07.
