data_PCOD9199361
_publ_section_title
;
Structure prediction by ZEFSAII (Michael W. Deem and Ramdas Pophale) SiO2 
 PCOD9199361
Probable space group: C 2/M
;
_chemical_formula_sum "Si O2"
_cell_formula_units_Z 44
_cell_length_a 15.129608
_cell_length_b 17.740778
_cell_length_c 13.592406
_cell_angle_alpha 90.000000
_cell_angle_beta 38.003872
_cell_angle_gamma 90.000000
_cell_volume 2246.343757
_symmetry_space_group_name_H-M "C 2/M"
_symmetry_group_IT_number 12
_symmetry_cell_setting 'monoclinic'
loop_
_space_group_symop_operation_xyz
x,y,z
-x,y,-z
-x,-y,-z
x,-y,z
1/2+x,1/2+y,z
1/2-x,1/2+y,-z
1/2-x,1/2-y,-z
1/2+x,1/2-y,z
loop_
_atom_site_type_symbol
_atom_site_label
_atom_site_fract_x
_atom_site_fract_y
_atom_site_fract_z
Si Si1 0.933259 0.500000 0.214800
Si Si2 0.126012 0.914087 0.690378
Si Si3 0.785565 0.685167 0.839760
Si Si4 0.500000 0.369306 0.000000
Si Si5 0.443296 0.085406 0.399638
Si Si6 0.641857 0.647838 0.174929
Si Si7 0.731831 0.000000 0.835406
O O1 0.935418 0.570808 0.288004
O O2 0.805339 0.500000 0.247974
O O3 0.080153 0.500000 0.025602
O O4 0.286768 0.884007 0.564063
O O5 0.022884 0.865501 0.712047
O O6 0.139570 0.000000 0.640484
O O7 0.044832 0.916090 0.865548
O O8 0.641148 0.677634 0.903523
O O9 0.835330 0.771331 0.796382
O O10 0.919662 0.633597 0.691653
O O11 0.736789 0.655475 0.991294
O O12 0.457755 0.000000 0.426726
O O13 0.689196 0.575777 0.197188
#
# Coordination Sequence:
#
# PCOD9199361 Si02
#       7
#     4   8   8   4   8   8   4
#     4   9  20  33  59  92 110 150 190 248 277 347
#     4  10  20  37  61  85 116 152 193 232 292 343
#     4  10  21  38  57  84 120 153 192 236 294 336
#     4  10  23  36  58  89 112 146 200 248 269 352
#     4   9  19  38  59  83 119 154 184 234 294 351
#     4  10  20  36  60  85 115 155 188 242 286 349
#     4  11  18  35  63  88 109 148 202 240 284 335
#
# _framework density 19.587385000000001
#
# number of rings (size 3 to 8) (size 9 to 14) (size 15 to 20)
#    0.545    1.636    2.727    0.273    0.000    4.364 
#    3.273    3.636    4.000    0.000    0.000    0.000 
#    0.000    0.000    0.000    0.000    0.000    0.000 
#
# Total GULP energy -122612.659797 kJ/mol
# GULP energy per Si atom -5573.302718 kJ/mol
# Density = 1.954280 g / cm^3
# Si number density = 19.587385 Si / 1000 Ang^3
#
#
#
# Elastic Constant Matrix: (Units=GPa)
#
#
# Indices 1 2 3 4 5 6 
#
# 1 102.2477 52.5161 35.0410 -0.0001 -31.7584 0.0000
# 2 52.5161 109.1831 52.1903 -0.0002 -44.5048 -0.0002
# 3 35.0410 52.1903 125.3817 -0.0007 -44.4896 -0.0002
# 4 -0.0001 -0.0002 -0.0007 20.0909 0.0001 -1.9357
# 5 -31.7584 -44.5048 -44.4896 0.0001 40.5406 0.0000
# 6 0.0000 -0.0002 -0.0002 -1.9357 0.0000 -5.8105
#
#
#
# Elastic Compliance Matrix: (Units=1/GPa)
#
#
# Indices 1 2 3 4 5 6 
#
# 1 0.013851 -0.004061 0.000144 0.000000 0.006550 0.000000
# 2 -0.004061 0.017808 -0.000769 0.000000 0.015523 -0.000001
# 3 0.000144 -0.000769 0.013095 0.000000 0.013639 -0.000001
# 4 0.000000 0.000000 0.000000 0.048226 0.000000 -0.016066
# 5 0.006550 0.015523 0.013639 0.000000 0.061806 -0.000001
# 6 0.000000 -0.000001 -0.000001 -0.016066 -0.000001 -0.166749
#
#
# Mechanical properties :
#
#
# Convention : Reuss Voigt Hill
#
# Bulk Modulus (GPa) = 28.26415 68.47858 48.37137
# Shear Modulus (GPa) = 543.24185 24.10188 283.67186
#
# Velocity S-wave (km/s) = 16.67168 3.51162 12.04733
# Velocity P-wave (km/s) = 19.62280 7.17485 14.77384
#
# Compressibility (1/GPa) = 0.03538051
#
# Stress axis : x y z
#
# Youngs Moduli (GPa) = 72.19560 56.15607 76.36361
#
# Poissons Ratio (x) = 0.22805 -0.01096
# Poissons Ratio (y) = 0.29319 0.05874
# Poissons Ratio (z) = -0.01036 0.04320
#
# Static dielectric constant tensor:
#      x y z
#    x 1.721000 0.000000 0.016730 
#    y 0.000000 1.648850 0.000000 
#    z 0.016730 0.000000 1.684550 
# 
# From -- ./inp_files/271341.got.cif
#   From: 2010.05.17/outbox.cif.g08.bks.cpg/sg12_136_cif.got.tgz:271341.got - 2010.06.03 13:09:07.
