data_PCOD9199983
_publ_section_title
;
Structure prediction by ZEFSAII (Michael W. Deem and Ramdas Pophale) SiO2 
 PCOD9199983
Probable space group: C 2/M
;
_chemical_formula_sum "Si O2"
_cell_formula_units_Z 64
_cell_length_a 14.316453
_cell_length_b 8.600735
_cell_length_c 24.301520
_cell_angle_alpha 90.000000
_cell_angle_beta 111.467164
_cell_angle_gamma 90.000000
_cell_volume 2784.712076
_symmetry_space_group_name_H-M "C 2/M"
_symmetry_group_IT_number 12
_symmetry_cell_setting 'monoclinic'
loop_
_space_group_symop_operation_xyz
x,y,z
-x,y,-z
-x,-y,-z
x,-y,z
1/2+x,1/2+y,z
1/2-x,1/2+y,-z
1/2-x,1/2-y,-z
1/2+x,1/2-y,z
loop_
_atom_site_type_symbol
_atom_site_label
_atom_site_fract_x
_atom_site_fract_y
_atom_site_fract_z
Si Si1 0.205634 0.680672 0.046353
Si Si2 0.045899 0.815908 0.622557
Si Si3 0.280225 0.679336 0.774907
Si Si4 0.946425 0.178792 0.906270
Si Si5 0.159031 0.681023 0.445313
Si Si6 0.236185 0.181271 0.352348
Si Si7 0.929915 0.821504 0.247431
Si Si8 0.393872 0.176875 0.131130
O O1 0.183522 0.500000 0.036040
O O2 0.111040 0.769724 0.051373
O O3 0.298718 0.709939 0.107722
O O4 0.250000 0.750000 0.000000
O O5 0.947060 0.766213 0.568539
O O6 0.145625 0.721322 0.628452
O O7 0.024481 0.786328 0.683031
O O8 0.065529 0.000000 0.621106
O O9 0.241186 0.500000 0.768889
O O10 0.365771 0.690302 0.838985
O O11 0.311837 0.703643 0.718495
O O12 0.188881 0.794623 0.767128
O O13 0.036439 0.287616 0.906003
O O14 0.980287 0.000000 0.917207
O O15 0.147175 0.500000 0.454367
O O16 0.250000 0.750000 0.500000
O O17 0.190815 0.710988 0.389166
O O18 0.222876 0.000000 0.365020
O O19 0.952194 0.714145 0.199986
O O20 0.952413 0.000000 0.237837
O O21 0.358036 0.000000 0.122802
#
# Coordination Sequence:
#
# PCOD9199983 Si02
#       8
#     8   8   8   8   8   8   8   8
#     4  12  26  47  71  96 128 171 217 267 321 380
#     4  10  22  41  64  94 129 167 211 263 318 379
#     4   9  19  36  62  92 130 168 207 257 319 381
#     4  11  23  41  65  98 132 170 214 264 321 378
#     4  12  26  44  65  92 125 168 217 266 318 381
#     4  10  21  40  64  95 129 167 210 262 319 378
#     4  10  20  36  62  93 130 169 211 260 318 379
#     4  12  25  41  63  96 133 172 216 264 316 378
#
# _framework density 22.982627000000001
#
# number of rings (size 3 to 8) (size 9 to 14) (size 15 to 20)
#    0.000    1.250    1.250    4.875    1.750    3.500 
#    0.000    5.000    0.000    0.000    0.000    0.000 
#    0.000    0.000    0.000    0.000    0.000    0.000 
#
# Total GULP energy -179154.367585 kJ/mol
# GULP energy per Si atom -5598.573987 kJ/mol
# Density = 2.293032 g / cm^3
# Si number density = 22.982627 Si / 1000 Ang^3
#
#
#
# Elastic Constant Matrix: (Units=GPa)
#
#
# Indices 1 2 3 4 5 6 
#
# 1 48.5960 -4.2000 -2.0746 0.0000 -1.1356 0.0000
# 2 -4.2000 67.0258 14.0483 0.0000 0.4257 0.0000
# 3 -2.0746 14.0483 40.0477 0.0000 16.0424 0.0000
# 4 0.0000 0.0000 0.0000 28.3417 0.0000 -4.3767
# 5 -1.1356 0.4257 16.0424 0.0000 34.0559 0.0000
# 6 0.0000 0.0000 0.0000 -4.3767 0.0000 32.8543
#
#
#
# Elastic Compliance Matrix: (Units=1/GPa)
#
#
# Indices 1 2 3 4 5 6 
#
# 1 0.020712 0.001196 0.000472 0.000000 0.000454 0.000000
# 2 0.001196 0.016431 -0.006946 0.000000 0.003107 0.000000
# 3 0.000472 -0.006946 0.033761 0.000000 -0.015801 0.000000
# 4 0.000000 0.000000 0.000000 0.036025 0.000000 0.004799
# 5 0.000454 0.003107 -0.015801 0.000000 0.036783 0.000000
# 6 0.000000 0.000000 0.000000 0.004799 0.000000 0.031077
#
#
# Mechanical properties :
#
#
# Convention : Reuss Voigt Hill
#
# Bulk Modulus (GPa) = 16.57092 19.02412 17.79752
# Shear Modulus (GPa) = 24.33561 28.91011 26.62286
#
# Velocity S-wave (km/s) = 3.25756 3.55055 3.40721
# Velocity P-wave (km/s) = 4.62328 5.01040 4.82073
#
# Compressibility (1/GPa) = 0.06034666
#
# Stress axis : x y z
#
# Youngs Moduli (GPa) = 48.28136 60.86157 29.62017
#
# Poissons Ratio (x) = -0.07280 -0.01397
# Poissons Ratio (y) = -0.05775 0.20575
# Poissons Ratio (z) = -0.02277 0.42276
#
# Static dielectric constant tensor:
#      x y z
#    x 1.861370 0.000000 0.007920 
#    y 0.000000 1.766010 0.000000 
#    z 0.007920 0.000000 1.924590 
# 
# From -- ./inp_files/360003.got.cif
#   From: 2010.05.17/outbox.cif.g08.bks.cpg/sg12_181_cif.got.tgz:360003.got - 2010.06.03 13:09:07.
