data_PCOD9199580
_publ_section_title
;
Structure prediction by ZEFSAII (Michael W. Deem and Ramdas Pophale) SiO2 
 PCOD9199580
Probable space group: C 2/M
;
_chemical_formula_sum "Si O2"
_cell_formula_units_Z 40
_cell_length_a 24.065100
_cell_length_b 8.290754
_cell_length_c 9.883621
_cell_angle_alpha 90.000000
_cell_angle_beta 75.580893
_cell_angle_gamma 90.000000
_cell_volume 1909.842205
_symmetry_space_group_name_H-M "C 2/M"
_symmetry_group_IT_number 12
_symmetry_cell_setting 'monoclinic'
loop_
_space_group_symop_operation_xyz
x,y,z
-x,y,-z
-x,-y,-z
x,-y,z
1/2+x,1/2+y,z
1/2-x,1/2+y,-z
1/2-x,1/2-y,-z
1/2+x,1/2-y,z
loop_
_atom_site_type_symbol
_atom_site_label
_atom_site_fract_x
_atom_site_fract_y
_atom_site_fract_z
Si Si1 0.486295 0.804897 0.659685
Si Si2 0.734864 0.807739 0.359270
Si Si3 0.674660 0.308377 0.915073
Si Si4 0.357885 0.692793 0.775145
Si Si5 0.555206 0.806694 0.872732
O O1 0.500000 0.750893 0.500000
O O2 0.424132 0.742895 0.741478
O O3 0.535568 0.756143 0.735009
O O4 0.483950 0.000000 0.663738
O O5 0.750000 0.750000 0.500000
O O6 0.779501 0.740996 0.219514
O O7 0.672776 0.759007 0.340019
O O8 0.738802 0.000000 0.358325
O O9 0.684646 0.500000 0.918794
O O10 0.611587 0.278436 0.892880
O O11 0.673650 0.243474 0.069390
O O12 0.354325 0.500000 0.776096
O O13 0.565438 0.000000 0.868906
O O14 0.500000 0.774983 0.000000
#
# Coordination Sequence:
#
# PCOD9199580 Si02
#       5
#     8   8   8   8   8
#     4  10  22  39  59  88 125 163 202 246 299 357
#     4  11  25  44  64  90 122 158 201 252 306 361
#     4  10  23  41  63  90 122 159 201 250 302 357
#     4  11  23  41  64  91 121 160 205 249 302 359
#     4  10  20  36  60  90 121 157 201 244 294 357
#
# _framework density 20.944137999999999
#
# number of rings (size 3 to 8) (size 9 to 14) (size 15 to 20)
#    0.000    1.600    2.000    1.800    2.800    4.000 
#    0.000    0.000    0.000    0.000    0.000    0.000 
#    0.000    0.000    0.000    0.000    0.000    0.000 
#
# Total GULP energy -111788.750372 kJ/mol
# GULP energy per Si atom -5589.437519 kJ/mol
# Density = 2.089647 g / cm^3
# Si number density = 20.944138 Si / 1000 Ang^3
#
#
#
# Elastic Constant Matrix: (Units=GPa)
#
#
# Indices 1 2 3 4 5 6 
#
# 1 59.0135 -4.5952 14.7330 0.0000 20.4881 0.0000
# 2 -4.5952 13.0351 12.5348 0.0000 2.3579 0.0000
# 3 14.7330 12.5348 121.5290 0.0000 25.5462 0.0000
# 4 0.0000 0.0000 0.0000 21.7155 0.0000 1.2103
# 5 20.4881 2.3579 25.5462 0.0000 42.3329 0.0000
# 6 0.0000 0.0000 0.0000 1.2103 0.0000 27.9423
#
#
#
# Elastic Compliance Matrix: (Units=1/GPa)
#
#
# Indices 1 2 3 4 5 6 
#
# 1 0.021742 0.011083 -0.001646 0.000000 -0.010146 0.000000
# 2 0.011083 0.090827 -0.009759 0.000000 -0.004534 0.000000
# 3 -0.001646 -0.009759 0.010483 0.000000 -0.004986 0.000000
# 4 0.000000 0.000000 0.000000 0.046161 0.000000 -0.001999
# 5 -0.010146 -0.004534 -0.004986 0.000000 0.031794 0.000000
# 6 0.000000 0.000000 0.000000 -0.001999 0.000000 0.035875
#
#
# Mechanical properties :
#
#
# Convention : Reuss Voigt Hill
#
# Bulk Modulus (GPa) = 8.16944 26.54698 17.35821
# Shear Modulus (GPa) = 17.96444 29.79183 23.87814
#
# Velocity S-wave (km/s) = 2.93188 3.77562 3.38018
# Velocity P-wave (km/s) = 3.92050 5.63114 4.85180
#
# Compressibility (1/GPa) = 0.12240745
#
# Stress axis : x y z
#
# Youngs Moduli (GPa) = 45.99433 11.00996 95.39643
#
# Poissons Ratio (x) = -0.12202 0.15702
# Poissons Ratio (y) = -0.50974 0.93094
# Poissons Ratio (z) = 0.07571 0.10744
#
# Static dielectric constant tensor:
#      x y z
#    x 1.716850 0.000000 -0.006920 
#    y 0.000000 1.729620 0.000000 
#    z -0.006920 0.000000 1.787720 
# 
# From -- ./inp_files/92780.got.cif
#   From: 2010.05.17/outbox.cif.g08.bks.cpg/sg12_47_cif.got.tgz:92780.got - 2010.06.03 13:09:07.
