data_PCOD9199764
_publ_section_title
;
Structure prediction by ZEFSAII (Michael W. Deem and Ramdas Pophale) SiO2 
 PCOD9199764
Probable space group: C 2/M
;
_chemical_formula_sum "Si O2"
_cell_formula_units_Z 48
_cell_length_a 9.930780
_cell_length_b 13.377914
_cell_length_c 29.206955
_cell_angle_alpha 90.000000
_cell_angle_beta 37.283855
_cell_angle_gamma 90.000000
_cell_volume 2350.507621
_symmetry_space_group_name_H-M "C 2/M"
_symmetry_group_IT_number 12
_symmetry_cell_setting 'monoclinic'
loop_
_space_group_symop_operation_xyz
x,y,z
-x,y,-z
-x,-y,-z
x,-y,z
1/2+x,1/2+y,z
1/2-x,1/2+y,-z
1/2-x,1/2-y,-z
1/2+x,1/2-y,z
loop_
_atom_site_type_symbol
_atom_site_label
_atom_site_fract_x
_atom_site_fract_y
_atom_site_fract_z
Si Si1 0.255411 0.378993 0.936514
Si Si2 0.102847 0.757040 0.342386
Si Si3 0.802782 0.879782 0.590391
Si Si4 0.275300 0.615361 0.033169
Si Si5 0.979528 0.888701 0.222600
Si Si6 0.653334 0.886872 0.800363
O O1 0.248752 0.500000 0.934695
O O2 0.432865 0.351762 0.849920
O O3 0.319898 0.347885 0.970023
O O4 0.000000 0.344050 0.000000
O O5 0.101513 0.825775 0.388935
O O6 0.295702 0.675803 0.297235
O O7 0.206977 0.825940 0.274330
O O8 0.892418 0.692406 0.379066
O O9 0.000000 0.881016 0.500000
O O10 0.740661 0.000000 0.614836
O O11 0.203570 0.500000 0.045112
O O12 0.080463 0.654899 0.118149
O O13 0.500000 0.616784 0.000000
O O14 0.196389 0.891766 0.195188
O O15 0.888872 0.000000 0.241070
O O16 0.617728 0.000000 0.791996
#
# Coordination Sequence:
#
# PCOD9199764 Si02
#       6
#     8   8   8   8   8   8
#     4   9  15  28  52  76 109 162 213 261 317 374
#     4  12  23  44  69 100 136 175 217 273 339 407
#     4  11  26  48  74 106 141 176 218 270 332 411
#     4   9  17  30  51  82 120 165 218 276 333 382
#     4  10  20  36  61  90 122 168 223 272 326 392
#     4  10  20  37  61  89 127 171 218 276 336 393
#
# _framework density 20.421119999999998
#
# number of rings (size 3 to 8) (size 9 to 14) (size 15 to 20)
#    0.000    1.833    3.333    1.500    0.000    1.333 
#    0.000    5.000    0.000    4.000    0.000    0.000 
#    0.000    0.000    0.000    0.000    0.000    0.000 
#
# Total GULP energy -133702.285166 kJ/mol
# GULP energy per Si atom -5570.928549 kJ/mol
# Density = 2.037464 g / cm^3
# Si number density = 20.421120 Si / 1000 Ang^3
#
#
#
# Elastic Constant Matrix: (Units=GPa)
#
#
# Indices 1 2 3 4 5 6 
#
# 1 94.2085 14.8416 40.8580 -0.0016 15.2627 0.0011
# 2 14.8416 115.9904 40.0889 -0.0023 23.8657 0.0020
# 3 40.8580 40.0889 117.0054 -0.0026 17.9591 0.0021
# 4 -0.0016 -0.0023 -0.0026 52.0801 0.0024 -2.2434
# 5 15.2627 23.8657 17.9591 0.0024 34.7671 -0.0019
# 6 0.0011 0.0020 0.0021 -2.2434 -0.0019 17.9968
#
#
#
# Elastic Compliance Matrix: (Units=1/GPa)
#
#
# Indices 1 2 3 4 5 6 
#
# 1 0.012948 0.000579 -0.004112 0.000000 -0.003957 -0.000001
# 2 0.000579 0.010842 -0.002971 0.000001 -0.006162 -0.000001
# 3 -0.004112 -0.002971 0.011307 0.000000 -0.001996 -0.000001
# 4 0.000000 0.000001 0.000000 0.019305 -0.000002 0.002407
# 5 -0.003957 -0.006162 -0.001996 -0.000002 0.035761 0.000005
# 6 -0.000001 -0.000001 -0.000001 0.002407 0.000005 0.055865
#
#
# Mechanical properties :
#
#
# Convention : Reuss Voigt Hill
#
# Bulk Modulus (GPa) = 45.27383 57.64236 51.45810
# Shear Modulus (GPa) = 30.04803 36.39652 33.22227
#
# Velocity S-wave (km/s) = 3.84007 4.22631 4.03781
# Velocity P-wave (km/s) = 6.47146 7.21829 6.85505
#
# Compressibility (1/GPa) = 0.02208781
#
# Stress axis : x y z
#
# Youngs Moduli (GPa) = 77.23068 92.23353 88.44106
#
# Poissons Ratio (x) = -0.05338 0.36370
# Poissons Ratio (y) = -0.04470 0.26277
# Poissons Ratio (z) = 0.31760 0.27403
#
# Static dielectric constant tensor:
#      x y z
#    x 1.711480 0.000000 0.002550 
#    y 0.000000 1.876800 0.000000 
#    z 0.002550 0.000000 1.679250 
# 
# From -- ./inp_files/356293.got.cif
#   From: 2010.05.17/outbox.cif.g08.bks.cpg/sg12_179_cif.got.tgz:356293.got - 2010.06.03 13:09:07.
