data_PCOD9199910
_publ_section_title
;
Structure prediction by ZEFSAII (Michael W. Deem and Ramdas Pophale) SiO2 
 PCOD9199910
Probable space group: C 2/M
;
_chemical_formula_sum "Si O2"
_cell_formula_units_Z 48
_cell_length_a 11.746198
_cell_length_b 23.705627
_cell_length_c 9.190372
_cell_angle_alpha 90.000000
_cell_angle_beta 71.447596
_cell_angle_gamma 90.000000
_cell_volume 2426.081187
_symmetry_space_group_name_H-M "C 2/M"
_symmetry_group_IT_number 12
_symmetry_cell_setting 'monoclinic'
loop_
_space_group_symop_operation_xyz
x,y,z
-x,y,-z
-x,-y,-z
x,-y,z
1/2+x,1/2+y,z
1/2-x,1/2+y,-z
1/2-x,1/2-y,-z
1/2+x,1/2-y,z
loop_
_atom_site_type_symbol
_atom_site_label
_atom_site_fract_x
_atom_site_fract_y
_atom_site_fract_z
Si Si1 0.555728 0.934701 0.313279
Si Si2 0.999456 0.147921 0.827009
Si Si3 0.399754 0.566533 0.659434
Si Si4 0.775845 0.660029 0.652645
Si Si5 0.286280 0.271870 0.827133
Si Si6 0.159912 0.636163 0.699236
O O1 0.500000 0.937000 0.500000
O O2 0.670993 0.894441 0.284614
O O3 0.461050 0.901014 0.250363
O O4 0.576838 0.000000 0.260746
O O5 0.947952 0.088227 0.794203
O O6 0.907418 0.192337 0.794770
O O7 0.132566 0.156062 0.712809
O O8 0.000000 0.153852 0.000000
O O9 0.500000 0.584095 0.500000
O O10 0.387718 0.500000 0.658646
O O11 0.272890 0.594718 0.675749
O O12 0.808645 0.717863 0.718280
O O13 0.827750 0.659944 0.469203
O O14 0.183258 0.312539 0.801074
O O15 0.250000 0.250000 0.000000
#
# Coordination Sequence:
#
# PCOD9199910 Si02
#       6
#     8   8   8   8   8   8
#     4   9  20  38  63  93 123 158 201 253 308 361
#     4  11  23  40  60  87 123 158 202 248 305 370
#     4  10  20  36  62  90 117 155 197 247 303 357
#     4  11  22  39  62  93 119 159 204 251 304 360
#     4  11  24  39  61  86 122 165 199 249 309 367
#     4  10  21  40  63  91 123 156 205 253 298 367
#
# _framework density 19.784994000000001
#
# number of rings (size 3 to 8) (size 9 to 14) (size 15 to 20)
#    0.000    1.667    3.333    1.000    2.333    1.667 
#    3.000    0.000    0.000    1.000    0.000    0.000 
#    0.000    0.000    0.000    0.000    0.000    0.000 
#
# Total GULP energy -134039.515467 kJ/mol
# GULP energy per Si atom -5584.979811 kJ/mol
# Density = 1.973996 g / cm^3
# Si number density = 19.784994 Si / 1000 Ang^3
#
#
#
# Elastic Constant Matrix: (Units=GPa)
#
#
# Indices 1 2 3 4 5 6 
#
# 1 103.6122 54.1818 22.8409 0.0000 13.6356 0.0000
# 2 54.1818 129.2259 38.4741 0.0000 18.4471 0.0000
# 3 22.8409 38.4741 31.4616 0.0000 21.1333 0.0000
# 4 0.0000 0.0000 0.0000 15.2750 0.0000 5.7629
# 5 13.6356 18.4471 21.1333 0.0000 29.4424 0.0000
# 6 0.0000 0.0000 0.0000 5.7629 0.0000 23.5572
#
#
#
# Elastic Compliance Matrix: (Units=1/GPa)
#
#
# Indices 1 2 3 4 5 6 
#
# 1 0.012720 -0.004115 -0.003819 0.000000 -0.000572 0.000000
# 2 -0.004115 0.014056 -0.018472 0.000000 0.006358 0.000000
# 3 -0.003819 -0.018472 0.093046 0.000000 -0.053445 0.000000
# 4 0.000000 0.000000 0.000000 0.072123 0.000000 -0.017644
# 5 -0.000572 0.006358 -0.053445 0.000000 0.068608 0.000000
# 6 0.000000 0.000000 0.000000 -0.017644 0.000000 0.046766
#
#
# Mechanical properties :
#
#
# Convention : Reuss Voigt Hill
#
# Bulk Modulus (GPa) = 14.92290 55.03259 34.97774
# Shear Modulus (GPa) = 13.07304 23.57513 18.32409
#
# Velocity S-wave (km/s) = 2.57331 3.45565 3.04659
# Velocity P-wave (km/s) = 4.04822 6.61799 5.48570
#
# Compressibility (1/GPa) = 0.06701109
#
# Stress axis : x y z
#
# Youngs Moduli (GPa) = 78.61531 71.14583 10.74736
#
# Poissons Ratio (x) = 0.29275 0.04104
# Poissons Ratio (y) = 0.32348 0.19853
# Poissons Ratio (z) = 0.30020 1.31421
#
# Static dielectric constant tensor:
#      x y z
#    x 1.701500 0.000000 0.005040 
#    y 0.000000 1.694020 0.000000 
#    z 0.005040 0.000000 1.690210 
# 
# From -- ./inp_files/51299.got.cif
#   From: 2010.05.17/outbox.cif.g08.bks.cpg/sg12_26_cif.got.tgz:51299.got - 2010.06.03 13:09:07.
