data_PCOD9199286
_publ_section_title
;
Structure prediction by ZEFSAII (Michael W. Deem and Ramdas Pophale) SiO2 
 PCOD9199286
Probable space group: C 2/M
;
_chemical_formula_sum "Si O2"
_cell_formula_units_Z 56
_cell_length_a 14.327283
_cell_length_b 20.584166
_cell_length_c 13.583559
_cell_angle_alpha 90.000000
_cell_angle_beta 42.893528
_cell_angle_gamma 90.000000
_cell_volume 2726.634691
_symmetry_space_group_name_H-M "C 2/M"
_symmetry_group_IT_number 12
_symmetry_cell_setting 'monoclinic'
loop_
_space_group_symop_operation_xyz
x,y,z
-x,y,-z
-x,-y,-z
x,-y,z
1/2+x,1/2+y,z
1/2-x,1/2+y,-z
1/2-x,1/2-y,-z
1/2+x,1/2-y,z
loop_
_atom_site_type_symbol
_atom_site_label
_atom_site_fract_x
_atom_site_fract_y
_atom_site_fract_z
Si Si1 0.652336 0.425474 0.412332
Si Si2 0.602084 0.428044 0.680709
Si Si3 0.902377 0.428314 0.479950
Si Si4 0.615919 0.314146 0.157718
Si Si5 0.145692 0.804579 0.908258
Si Si6 0.549092 0.805325 0.350561
Si Si7 0.845823 0.658854 0.133063
O O1 0.500000 0.402604 0.500000
O O2 0.666711 0.500000 0.364934
O O3 0.654797 0.426237 0.527468
O O4 0.765348 0.379994 0.277978
O O5 0.542735 0.500000 0.744970
O O6 0.743049 0.421009 0.631156
O O7 0.493932 0.371192 0.773101
O O8 0.916278 0.500000 0.421075
O O9 0.000000 0.429284 0.500000
O O10 0.952391 0.363380 0.386438
O O11 0.555701 0.257454 0.274749
O O12 0.748203 0.343100 0.112158
O O13 0.648892 0.290312 0.022560
O O14 0.294592 0.832111 0.768221
O O15 0.141598 0.735811 0.853674
O O16 0.000000 0.838882 0.000000
O O17 0.500000 0.788214 0.500000
O O18 0.000000 0.634295 0.000000
#
# Coordination Sequence:
#
# PCOD9199286 Si02
#       7
#     8   8   8   8   8   8   8
#     4  10  20  36  59  91 124 159 205 258 306 375
#     4  10  22  38  63  95 126 164 210 259 319 379
#     4   9  20  39  60  87 124 157 201 268 318 357
#     4  11  23  39  64  89 130 171 206 264 316 378
#     4  10  24  41  59  85 133 165 204 261 323 368
#     4  10  22  38  64  96 122 159 218 260 309 383
#     4  10  21  37  59  85 125 167 200 247 317 377
#
# _framework density 20.538138
#
# number of rings (size 3 to 8) (size 9 to 14) (size 15 to 20)
#    0.000    2.000    1.429    1.714    8.000    4.286 
#    0.000    0.714    0.000    3.429    0.000    0.000 
#    0.000    0.000    0.000    0.000    0.000    0.000 
#
# Total GULP energy -156150.619554 kJ/mol
# GULP energy per Si atom -5576.807841 kJ/mol
# Density = 2.049139 g / cm^3
# Si number density = 20.538138 Si / 1000 Ang^3
#
#
#
# Elastic Constant Matrix: (Units=GPa)
#
#
# Indices 1 2 3 4 5 6 
#
# 1 77.4643 21.7705 18.3299 -0.0002 -12.3905 0.0002
# 2 21.7705 113.9790 58.0995 0.0005 -11.4941 -0.0003
# 3 18.3299 58.0995 102.8937 0.0002 -8.6746 0.0000
# 4 -0.0002 0.0005 0.0002 15.4710 0.0000 -7.9208
# 5 -12.3905 -11.4941 -8.6746 0.0000 43.9317 -0.0001
# 6 0.0002 -0.0003 0.0000 -7.9208 -0.0001 24.2731
#
#
#
# Elastic Compliance Matrix: (Units=1/GPa)
#
#
# Indices 1 2 3 4 5 6 
#
# 1 0.014227 -0.001733 -0.001277 0.000000 0.003307 0.000000
# 2 -0.001733 0.012685 -0.006727 0.000000 0.001502 0.000000
# 3 -0.001277 -0.006727 0.013796 0.000000 0.000604 0.000000
# 4 0.000000 0.000000 0.000000 0.077602 0.000000 0.025323
# 5 0.003307 0.001502 0.000604 0.000000 0.024207 0.000000
# 6 0.000000 0.000000 0.000000 0.025323 0.000000 0.049461
#
#
# Mechanical properties :
#
#
# Convention : Reuss Voigt Hill
#
# Bulk Modulus (GPa) = 47.09586 54.52631 50.81108
# Shear Modulus (GPa) = 22.87993 29.81095 26.34544
#
# Velocity S-wave (km/s) = 3.34132 3.81398 3.58545
# Velocity P-wave (km/s) = 6.15358 6.78245 6.47566
#
# Compressibility (1/GPa) = 0.02123329
#
# Stress axis : x y z
#
# Youngs Moduli (GPa) = 70.28695 78.83168 72.48528
#
# Poissons Ratio (x) = 0.13661 0.09258
# Poissons Ratio (y) = 0.12181 0.48764
# Poissons Ratio (z) = 0.08977 0.53034
#
# Static dielectric constant tensor:
#      x y z
#    x 1.808890 0.000000 -0.026170 
#    y 0.000000 1.780390 0.000000 
#    z -0.026170 0.000000 1.729060 
# 
# From -- ./inp_files/217651.got.cif
#   From: 2010.05.17/outbox.cif.g08.bks.cpg/sg12_109_cif.got.tgz:217651.got - 2010.06.03 13:09:07.
