data_PCOD9199913
_publ_section_title
;
Structure prediction by ZEFSAII (Michael W. Deem and Ramdas Pophale) SiO2 
 PCOD9199913
Probable space group: C 2/M
;
_chemical_formula_sum "Si O2"
_cell_formula_units_Z 52
_cell_length_a 13.367358
_cell_length_b 18.863354
_cell_length_c 12.218814
_cell_angle_alpha 90.000000
_cell_angle_beta 127.421175
_cell_angle_gamma 90.000000
_cell_volume 2446.910109
_symmetry_space_group_name_H-M "C 2/M"
_symmetry_group_IT_number 12
_symmetry_cell_setting 'monoclinic'
loop_
_space_group_symop_operation_xyz
x,y,z
-x,y,-z
-x,-y,-z
x,-y,z
1/2+x,1/2+y,z
1/2-x,1/2+y,-z
1/2-x,1/2-y,-z
1/2+x,1/2-y,z
loop_
_atom_site_type_symbol
_atom_site_label
_atom_site_fract_x
_atom_site_fract_y
_atom_site_fract_z
Si Si1 0.513337 0.922516 0.250103
Si Si2 0.500000 0.130311 0.000000
Si Si3 0.218311 0.173711 0.787595
Si Si4 0.814332 0.080411 0.437387
Si Si5 0.687165 0.160465 0.763941
Si Si6 0.152167 0.916806 0.293312
Si Si7 0.367585 0.584815 0.059450
O O1 0.478397 0.912041 0.098720
O O2 0.663465 0.919640 0.355371
O O3 0.447109 0.867481 0.285141
O O4 0.469251 0.000000 0.255692
O O5 0.371319 0.171944 0.891149
O O6 0.164309 0.137344 0.642366
O O7 0.184323 0.255492 0.773335
O O8 0.172691 0.124635 0.856535
O O9 0.871610 0.095498 0.593726
O O10 0.848781 0.000000 0.425316
O O11 0.739130 0.133101 0.682282
O O12 0.785842 0.122655 0.912159
O O13 0.017724 0.905908 0.145786
O O14 0.187728 0.000000 0.304264
O O15 0.343477 0.500000 0.047867
#
# Coordination Sequence:
#
# PCOD9199913 Si02
#       7
#     8   4   8   8   8   8   8
#     4  10  20  36  62  90 119 154 201 252 300 356
#     4  10  21  36  60  84 119 154 198 250 301 354
#     4  11  24  38  62  91 123 159 198 256 309 363
#     4   9  21  43  65  89 118 161 212 254 297 353
#     4  12  24  37  61  92 129 160 196 250 314 367
#     4  10  23  42  64  87 122 167 209 248 295 362
#     4  11  23  40  63  90 121 160 207 253 300 359
#
# _framework density 21.251293
#
# number of rings (size 3 to 8) (size 9 to 14) (size 15 to 20)
#    0.000    1.538    1.538    3.000    2.154    5.538 
#    0.000    6.154    0.000    0.000    0.000    0.000 
#    0.000    0.000    0.000    0.000    0.000    0.000 
#
# Total GULP energy -145316.791084 kJ/mol
# GULP energy per Si atom -5589.107349 kJ/mol
# Density = 2.120292 g / cm^3
# Si number density = 21.251293 Si / 1000 Ang^3
#
#
#
# Elastic Constant Matrix: (Units=GPa)
#
#
# Indices 1 2 3 4 5 6 
#
# 1 72.1379 45.0283 -0.2693 0.0000 -8.2855 0.0000
# 2 45.0283 151.5703 23.7056 0.0000 -20.2099 0.0000
# 3 -0.2693 23.7056 48.3689 0.0000 -1.3961 0.0000
# 4 0.0000 0.0000 0.0000 61.1660 0.0000 -43.6513
# 5 -8.2855 -20.2099 -1.3961 0.0000 23.4798 0.0000
# 6 0.0000 0.0000 0.0000 -43.6513 0.0000 63.9922
#
#
#
# Elastic Compliance Matrix: (Units=1/GPa)
#
#
# Indices 1 2 3 4 5 6 
#
# 1 0.017430 -0.005390 0.002787 0.000000 0.001677 0.000000
# 2 -0.005390 0.009752 -0.004630 0.000000 0.006216 0.000000
# 3 0.002787 -0.004630 0.022912 0.000000 -0.001639 0.000000
# 4 0.000000 0.000000 0.000000 0.031857 0.000000 0.021731
# 5 0.001677 0.006216 -0.001639 0.000000 0.048435 0.000000
# 6 0.000000 0.000000 0.000000 0.021731 0.000000 0.030450
#
#
# Mechanical properties :
#
#
# Convention : Reuss Voigt Hill
#
# Bulk Modulus (GPa) = 28.06822 45.44514 36.75668
# Shear Modulus (GPa) = 26.71247 43.30178 35.00712
#
# Velocity S-wave (km/s) = 3.54924 4.51888 4.06309
# Velocity P-wave (km/s) = 5.48020 6.97554 6.27259
#
# Compressibility (1/GPa) = 0.03562748
#
# Stress axis : x y z
#
# Youngs Moduli (GPa) = 57.37217 102.54287 43.64553
#
# Poissons Ratio (x) = 0.55276 -0.12165
# Poissons Ratio (y) = 0.30926 0.20208
# Poissons Ratio (z) = -0.15991 0.47478
#
# Static dielectric constant tensor:
#      x y z
#    x 1.792350 0.000000 -0.007180 
#    y 0.000000 1.719910 0.000000 
#    z -0.007180 0.000000 1.794640 
# 
# From -- ./inp_files/145731.got.cif
#   From: 2010.05.17/outbox.cif.g08.bks.cpg/sg12_73_cif.got.tgz:145731.got - 2010.06.03 13:09:07.
