data_PCOD9199942
_publ_section_title
;
Structure prediction by ZEFSAII (Michael W. Deem and Ramdas Pophale) SiO2 
 PCOD9199942
Probable space group: C 2/M
;
_chemical_formula_sum "Si O2"
_cell_formula_units_Z 40
_cell_length_a 9.153006
_cell_length_b 15.068203
_cell_length_c 12.543716
_cell_angle_alpha 90.000000
_cell_angle_beta 83.529049
_cell_angle_gamma 90.000000
_cell_volume 1718.999434
_symmetry_space_group_name_H-M "C 2/M"
_symmetry_group_IT_number 12
_symmetry_cell_setting 'monoclinic'
loop_
_space_group_symop_operation_xyz
x,y,z
-x,y,-z
-x,-y,-z
x,-y,z
1/2+x,1/2+y,z
1/2-x,1/2+y,-z
1/2-x,1/2-y,-z
1/2+x,1/2-y,z
loop_
_atom_site_type_symbol
_atom_site_label
_atom_site_fract_x
_atom_site_fract_y
_atom_site_fract_z
Si Si1 0.170502 0.162176 0.964453
Si Si2 0.631729 0.392131 0.731485
Si Si3 0.701733 0.608898 0.299066
Si Si4 0.169812 0.608407 0.484615
Si Si5 0.886818 0.597224 0.094239
O O1 0.191625 0.142945 0.838754
O O2 0.250000 0.250000 0.000000
O O3 0.240751 0.089806 0.035965
O O4 0.000000 0.164892 0.000000
O O5 0.631000 0.500000 0.736041
O O6 0.462437 0.363995 0.722362
O O7 0.738577 0.364232 0.626671
O O8 0.704518 0.500000 0.293163
O O9 0.744405 0.634665 0.415069
O O10 0.830011 0.640843 0.207437
O O11 0.167257 0.500000 0.484094
O O12 0.000000 0.638182 0.500000
O O13 0.949168 0.500000 0.116807
O O14 0.000000 0.637830 0.000000
#
# Coordination Sequence:
#
# PCOD9199942 Si02
#       5
#     8   8   8   8   8
#     4  12  25  42  60  85 118 164 206 253 310 370
#     4  10  20  36  62  91 121 158 202 249 299 361
#     4   9  17  32  55  86 122 156 190 237 296 355
#     4   9  18  31  53  91 129 156 189 243 303 356
#     4  10  21  36  60  92 122 154 198 253 305 363
#
# _framework density 23.269351
#
# number of rings (size 3 to 8) (size 9 to 14) (size 15 to 20)
#    0.000    2.000    2.000    1.800    2.800    3.200 
#    0.000    0.000    0.000    1.200    0.000    0.000 
#    0.000    0.000    0.000    0.000    0.000    0.000 
#
# Total GULP energy -111719.244599 kJ/mol
# GULP energy per Si atom -5585.962230 kJ/mol
# Density = 2.321639 g / cm^3
# Si number density = 23.269351 Si / 1000 Ang^3
#
#
#
# Elastic Constant Matrix: (Units=GPa)
#
#
# Indices 1 2 3 4 5 6 
#
# 1 84.9774 -2.1795 43.4608 0.0000 -18.6104 0.0000
# 2 -2.1795 45.4972 -2.1288 0.0000 -1.5589 0.0000
# 3 43.4608 -2.1288 231.4199 0.0000 -15.5725 0.0000
# 4 0.0000 0.0000 0.0000 10.7981 0.0000 39.3534
# 5 -18.6104 -1.5589 -15.5725 0.0000 50.1512 0.0000
# 6 0.0000 0.0000 0.0000 39.3534 0.0000 76.9221
#
#
#
# Elastic Compliance Matrix: (Units=1/GPa)
#
#
# Indices 1 2 3 4 5 6 
#
# 1 0.013950 0.000714 -0.002312 0.000000 0.004481 0.000000
# 2 0.000714 0.022054 0.000136 0.000000 0.000992 0.000000
# 3 -0.002312 0.000136 0.004799 0.000000 0.000637 0.000000
# 4 0.000000 0.000000 0.000000 -0.107122 0.000000 0.054804
# 5 0.004481 0.000992 0.000637 0.000000 0.021831 0.000000
# 6 0.000000 0.000000 0.000000 0.054804 0.000000 -0.015037
#
#
# Mechanical properties :
#
#
# Convention : Reuss Voigt Hill
#
# Bulk Modulus (GPa) = 26.40041 48.91107 37.65574
# Shear Modulus (GPa) = -113.70166 49.09039 -32.30563
#
# Velocity S-wave (km/s) = -6.99781 4.59809 -3.73008
# Velocity P-wave (km/s) = 7.34318 7.01819 1.52762
#
# Compressibility (1/GPa) = 0.03787819
#
# Stress axis : x y z
#
# Youngs Moduli (GPa) = 71.68579 45.34341 208.36055
#
# Poissons Ratio (x) = -0.03236 0.48166
# Poissons Ratio (y) = -0.05116 -0.02826
# Poissons Ratio (z) = 0.16571 -0.00615
#
# Static dielectric constant tensor:
#      x y z
#    x 1.774490 0.000000 -0.021860 
#    y 0.000000 2.003520 0.000000 
#    z -0.021860 0.000000 1.845440 
# 
# From -- ./inp_files/118937.got.cif
#   From: 2010.05.17/outbox.cif.g08.bks.cpg/sg12_60_cif.got.tgz:118937.got - 2010.06.03 13:09:07.
