data_PCOD9199901
_publ_section_title
;
Structure prediction by ZEFSAII (Michael W. Deem and Ramdas Pophale) SiO2 
 PCOD9199901
Probable space group: C 2/M
;
_chemical_formula_sum "Si O2"
_cell_formula_units_Z 58
_cell_length_a 19.703326
_cell_length_b 9.480890
_cell_length_c 16.978410
_cell_angle_alpha 90.000000
_cell_angle_beta 123.218549
_cell_angle_gamma 90.000000
_cell_volume 2653.363678
_symmetry_space_group_name_H-M "C 2/M"
_symmetry_group_IT_number 12
_symmetry_cell_setting 'monoclinic'
loop_
_space_group_symop_operation_xyz
x,y,z
-x,y,-z
-x,-y,-z
x,-y,z
1/2+x,1/2+y,z
1/2-x,1/2+y,-z
1/2-x,1/2-y,-z
1/2+x,1/2-y,z
loop_
_atom_site_type_symbol
_atom_site_label
_atom_site_fract_x
_atom_site_fract_y
_atom_site_fract_z
Si Si1 0.121654 0.330629 0.700935
Si Si2 0.624529 0.150057 0.143867
Si Si3 0.828786 0.834114 0.688402
Si Si4 0.000000 0.000000 0.000000
Si Si5 0.945001 0.726003 0.059451
Si Si6 0.962215 0.164278 0.645189
Si Si7 0.173157 0.166680 0.576373
Si Si8 0.314065 0.832049 0.093753
O O1 0.118865 0.500000 0.687292
O O2 0.145328 0.248559 0.637079
O O3 0.184207 0.300776 0.812233
O O4 0.035056 0.269838 0.673877
O O5 0.661156 0.278916 0.215954
O O6 0.617960 0.168379 0.046288
O O7 0.663587 0.000000 0.188643
O O8 0.530204 0.146672 0.110032
O O9 0.912491 0.812719 0.694370
O O10 0.757357 0.740978 0.606070
O O11 0.809615 0.000000 0.674059
O O12 0.031965 0.121644 0.958898
O O13 0.803600 0.500000 0.078127
O O14 0.901203 0.712608 0.114032
O O15 0.895140 0.180519 0.533836
O O16 0.990505 0.000000 0.662226
O O17 0.183771 0.000000 0.596914
O O18 0.250000 0.750000 0.000000
#
# Coordination Sequence:
#
# PCOD9199901 Si02
#       8
#     8   8   8   2   8   8   8   8
#     4  11  25  45  67  98 130 169 220 272 324 388
#     4  10  20  36  62  89 120 165 210 265 320 377
#     4  11  24  39  63  97 134 167 210 267 325 386
#     4   8  20  36  62  96 116 160 200 272 320 364
#     4  10  21  39  62  88 126 162 219 264 319 377
#     4  10  23  44  69  98 129 170 217 267 323 392
#     4  11  24  44  68  95 133 172 216 266 327 391
#     4  11  26  44  64  92 130 175 219 266 317 382
#
# _framework density 21.859045999999999
#
# number of rings (size 3 to 8) (size 9 to 14) (size 15 to 20)
#    0.000    1.655    0.000    4.552    6.759    6.069 
#    0.000    0.000    0.000    0.000    0.000    0.000 
#    0.000    0.000    0.000    0.000    0.000    0.000 
#
# Total GULP energy -161864.416225 kJ/mol
# GULP energy per Si atom -5581.531594 kJ/mol
# Density = 2.180929 g / cm^3
# Si number density = 21.859046 Si / 1000 Ang^3
#
#
#
# Elastic Constant Matrix: (Units=GPa)
#
#
# Indices 1 2 3 4 5 6 
#
# 1 62.2051 19.1497 5.4326 0.0000 -7.1356 0.0000
# 2 19.1497 142.4591 31.3769 0.0000 0.7044 0.0000
# 3 5.4326 31.3769 81.7496 0.0000 -4.9016 0.0000
# 4 0.0000 0.0000 0.0000 35.9720 0.0000 23.3206
# 5 -7.1356 0.7044 -4.9016 0.0000 38.4798 0.0000
# 6 0.0000 0.0000 0.0000 23.3206 0.0000 26.5367
#
#
#
# Elastic Compliance Matrix: (Units=1/GPa)
#
#
# Indices 1 2 3 4 5 6 
#
# 1 0.017161 -0.002309 -0.000061 0.000000 0.003217 0.000000
# 2 -0.002309 0.007989 -0.002970 0.000000 -0.000953 0.000000
# 3 -0.000061 -0.002970 0.013482 0.000000 0.001760 0.000000
# 4 0.000000 0.000000 0.000000 0.064609 0.000000 -0.056779
# 5 0.003217 -0.000953 0.001760 0.000000 0.026826 0.000000
# 6 0.000000 0.000000 0.000000 -0.056779 0.000000 0.087582
#
#
# Mechanical properties :
#
#
# Convention : Reuss Voigt Hill
#
# Bulk Modulus (GPa) = 35.77671 44.25914 40.01792
# Shear Modulus (GPa) = 21.03966 35.56133 28.30050
#
# Velocity S-wave (km/s) = 3.10581 4.03780 3.60207
# Velocity P-wave (km/s) = 5.40961 6.48304 5.97050
#
# Compressibility (1/GPa) = 0.02795114
#
# Stress axis : x y z
#
# Youngs Moduli (GPa) = 58.27129 125.17490 74.17299
#
# Poissons Ratio (x) = 0.28906 0.00454
# Poissons Ratio (y) = 0.13456 0.22029
# Poissons Ratio (z) = 0.00357 0.37176
#
# Static dielectric constant tensor:
#      x y z
#    x 1.795510 0.000000 0.023280 
#    y 0.000000 1.754560 0.000000 
#    z 0.023280 0.000000 1.818320 
# 
# From -- ./inp_files/282255.got.cif
#   From: 2010.05.17/outbox.cif.g08.bks.cpg/sg12_142_cif.got.tgz:282255.got - 2010.06.03 13:09:07.
