data_PCOD9199121
_publ_section_title
;
Structure prediction by ZEFSAII (Michael W. Deem and Ramdas Pophale) SiO2 
 PCOD9199121
Probable space group: C 2/M
;
_chemical_formula_sum "Si O2"
_cell_formula_units_Z 32
_cell_length_a 10.176873
_cell_length_b 9.948470
_cell_length_c 16.656892
_cell_angle_alpha 90.000000
_cell_angle_beta 63.148131
_cell_angle_gamma 90.000000
_cell_volume 1504.581712
_symmetry_space_group_name_H-M "C 2/M"
_symmetry_group_IT_number 12
_symmetry_cell_setting 'monoclinic'
loop_
_space_group_symop_operation_xyz
x,y,z
-x,y,-z
-x,-y,-z
x,-y,z
1/2+x,1/2+y,z
1/2-x,1/2+y,-z
1/2-x,1/2-y,-z
1/2+x,1/2-y,z
loop_
_atom_site_type_symbol
_atom_site_label
_atom_site_fract_x
_atom_site_fract_y
_atom_site_fract_z
Si Si1 0.693402 0.161152 0.590340
Si Si2 0.416193 0.349072 0.678196
Si Si3 0.701173 0.225944 0.875999
Si Si4 0.588562 0.858241 0.077995
O O1 0.750000 0.250000 0.500000
O O2 0.539298 0.234195 0.654746
O O3 0.814930 0.173337 0.627428
O O4 0.675531 0.000000 0.579441
O O5 0.482146 0.500000 0.653801
O O6 0.304305 0.344609 0.783677
O O7 0.539917 0.252129 0.884163
O O8 0.795058 0.348544 0.883891
O O9 0.667539 0.151473 0.970033
O O10 0.507677 0.000000 0.106149
#
# Coordination Sequence:
#
# PCOD9199121 Si02
#       4
#     8   8   8   8
#     4  11  25  44  66  92 121 155 196 246 305 366
#     4  11  23  40  63  91 123 158 201 249 298 358
#     4  10  20  36  59  86 116 159 203 242 294 347
#     4  10  20  37  57  81 121 161 199 247 292 340
#
# _framework density 21.268370000000001
#
# number of rings (size 3 to 8) (size 9 to 14) (size 15 to 20)
#    0.000    1.500    0.000    6.000    0.000    8.000 
#    0.000   15.000    0.000    0.000    0.000    0.000 
#    0.000    0.000    0.000    0.000    0.000    0.000 
#
# Total GULP energy -89184.027182 kJ/mol
# GULP energy per Si atom -5574.001699 kJ/mol
# Density = 2.121996 g / cm^3
# Si number density = 21.268370 Si / 1000 Ang^3
#
#
#
# Elastic Constant Matrix: (Units=GPa)
#
#
# Indices 1 2 3 4 5 6 
#
# 1 68.9169 39.2883 -1.9258 0.0000 -8.1169 0.0000
# 2 39.2883 105.4276 13.4468 0.0000 -7.8882 0.0000
# 3 -1.9258 13.4468 77.0382 0.0000 -13.5334 0.0000
# 4 0.0000 0.0000 0.0000 13.4944 0.0000 -8.3821
# 5 -8.1169 -7.8882 -13.5334 0.0000 30.4143 0.0000
# 6 0.0000 0.0000 0.0000 -8.3821 0.0000 29.1959
#
#
#
# Elastic Compliance Matrix: (Units=1/GPa)
#
#
# Indices 1 2 3 4 5 6 
#
# 1 0.019160 -0.007131 0.002492 0.000000 0.004373 0.000000
# 2 -0.007131 0.012459 -0.002299 0.000000 0.000305 0.000000
# 3 0.002492 -0.002299 0.014597 0.000000 0.006564 0.000000
# 4 0.000000 0.000000 0.000000 0.090189 0.000000 0.025893
# 5 0.004373 0.000305 0.006564 0.000000 0.037046 0.000000
# 6 0.000000 0.000000 0.000000 0.025893 0.000000 0.041685
#
#
# Mechanical properties :
#
#
# Convention : Reuss Voigt Hill
#
# Bulk Modulus (GPa) = 30.92202 39.22237 35.07220
# Shear Modulus (GPa) = 20.85138 27.99248 24.42193
#
# Velocity S-wave (km/s) = 3.13452 3.63182 3.39230
# Velocity P-wave (km/s) = 5.26031 6.00571 5.64532
#
# Compressibility (1/GPa) = 0.03233941
#
# Stress axis : x y z
#
# Youngs Moduli (GPa) = 52.19209 80.26582 68.50583
#
# Poissons Ratio (x) = 0.57236 -0.17070
# Poissons Ratio (y) = 0.37217 0.15751
# Poissons Ratio (z) = -0.13005 0.18455
#
# Static dielectric constant tensor:
#      x y z
#    x 1.779880 0.000000 -0.008370 
#    y 0.000000 1.771530 0.000000 
#    z -0.008370 0.000000 1.774590 
# 
# From -- ./inp_files/303769.got.cif
#   From: 2010.05.17/outbox.cif.g08.bks.cpg/sg12_152_cif.got.tgz:303769.got - 2010.06.03 13:09:07.
