data_PCOD9199957
_publ_section_title
;
Structure prediction by ZEFSAII (Michael W. Deem and Ramdas Pophale) SiO2 
 PCOD9199957
Probable space group: C 2/M
;
_chemical_formula_sum "Si O2"
_cell_formula_units_Z 48
_cell_length_a 29.685389
_cell_length_b 8.923906
_cell_length_c 14.709560
_cell_angle_alpha 90.000000
_cell_angle_beta 142.198311
_cell_angle_gamma 90.000000
_cell_volume 2388.408110
_symmetry_space_group_name_H-M "C 2/M"
_symmetry_group_IT_number 12
_symmetry_cell_setting 'monoclinic'
loop_
_space_group_symop_operation_xyz
x,y,z
-x,y,-z
-x,-y,-z
x,-y,z
1/2+x,1/2+y,z
1/2-x,1/2+y,-z
1/2-x,1/2-y,-z
1/2+x,1/2-y,z
loop_
_atom_site_type_symbol
_atom_site_label
_atom_site_fract_x
_atom_site_fract_y
_atom_site_fract_z
Si Si1 0.054423 0.827046 0.811605
Si Si2 0.707515 0.176854 0.703531
Si Si3 0.700207 0.823133 0.998916
Si Si4 0.471033 0.681092 0.853828
Si Si5 0.684231 0.180208 0.453904
Si Si6 0.062574 0.172919 0.527780
O O1 0.032670 0.776945 0.877696
O O2 0.979094 0.823688 0.634747
O O3 0.080078 0.000000 0.854371
O O4 0.116301 0.730897 0.861282
O O5 0.770190 0.266009 0.856475
O O6 0.697584 0.217123 0.581780
O O7 0.632161 0.221056 0.634240
O O8 0.721433 0.000000 0.732371
O O9 0.705842 0.000000 0.000611
O O10 0.750000 0.750000 0.000000
O O11 0.462087 0.500000 0.834399
O O12 0.393735 0.755923 0.704714
O O13 0.500000 0.719575 0.000000
O O14 0.750000 0.250000 0.500000
O O15 0.684257 0.000000 0.446028
O O16 0.000000 0.213794 0.500000
O O17 0.085486 0.000000 0.583613
#
# Coordination Sequence:
#
# PCOD9199957 Si02
#       6
#     8   8   8   8   8   8
#     4  10  21  39  62  91 130 166 205 257 314 377
#     4  11  24  42  64  92 127 165 209 262 317 375
#     4  12  26  43  65  93 129 170 215 262 313 374
#     4  10  22  41  66  95 127 166 208 256 317 381
#     4  11  25  43  66  95 128 166 213 266 318 378
#     4  10  20  36  62  92 121 159 203 250 308 375
#
# _framework density 20.097068
#
# number of rings (size 3 to 8) (size 9 to 14) (size 15 to 20)
#    0.000    1.333    1.667    3.500    2.333    5.333 
#    0.000    0.000    0.000    0.000    0.000    0.000 
#    0.000    0.000    0.000    0.000    0.000    0.000 
#
# Total GULP energy -134202.129659 kJ/mol
# GULP energy per Si atom -5591.755402 kJ/mol
# Density = 2.005133 g / cm^3
# Si number density = 20.097068 Si / 1000 Ang^3
#
#
#
# Elastic Constant Matrix: (Units=GPa)
#
#
# Indices 1 2 3 4 5 6 
#
# 1 90.9031 31.1555 9.6342 0.0000 -2.3291 0.0000
# 2 31.1555 73.4784 30.8919 0.0000 8.8503 0.0000
# 3 9.6342 30.8919 66.5968 0.0000 1.1376 0.0000
# 4 0.0000 0.0000 0.0000 34.7813 0.0000 5.2154
# 5 -2.3291 8.8503 1.1376 0.0000 32.7270 0.0000
# 6 0.0000 0.0000 0.0000 5.2154 0.0000 26.9875
#
#
#
# Elastic Compliance Matrix: (Units=1/GPa)
#
#
# Indices 1 2 3 4 5 6 
#
# 1 0.013118 -0.006284 0.000973 0.000000 0.002599 0.000000
# 2 -0.006284 0.020545 -0.008523 0.000000 -0.005707 0.000000
# 3 0.000973 -0.008523 0.018799 0.000000 0.001721 0.000000
# 4 0.000000 0.000000 0.000000 0.029609 0.000000 -0.005722
# 5 0.002599 -0.005707 0.001721 0.000000 0.032224 0.000000
# 6 0.000000 0.000000 0.000000 -0.005722 0.000000 0.038160
#
#
# Mechanical properties :
#
#
# Convention : Reuss Voigt Hill
#
# Bulk Modulus (GPa) = 40.33452 41.59350 40.96401
# Shear Modulus (GPa) = 26.54080 29.51894 28.02987
#
# Velocity S-wave (km/s) = 3.63799 3.83667 3.73865
# Velocity P-wave (km/s) = 6.14492 6.35358 6.25012
#
# Compressibility (1/GPa) = 0.02479266
#
# Stress axis : x y z
#
# Youngs Moduli (GPa) = 76.23095 48.67406 53.19344
#
# Poissons Ratio (x) = 0.30588 -0.05175
# Poissons Ratio (y) = 0.47906 0.45339
# Poissons Ratio (z) = -0.07417 0.41487
#
# Static dielectric constant tensor:
#      x y z
#    x 1.708560 0.000000 -0.030670 
#    y 0.000000 1.684190 0.000000 
#    z -0.030670 0.000000 1.718940 
# 
# From -- ./inp_files/244900.got.cif
#   From: 2010.05.17/outbox.cif.g08.bks.cpg/sg12_123_cif.got.tgz:244900.got - 2010.06.03 13:09:07.
