data_PCOD9199193
_publ_section_title
;
Structure prediction by ZEFSAII (Michael W. Deem and Ramdas Pophale) SiO2 
 PCOD9199193
Probable space group: C 2/M
;
_chemical_formula_sum "Si O2"
_cell_formula_units_Z 64
_cell_length_a 14.931497
_cell_length_b 7.768701
_cell_length_c 28.049753
_cell_angle_alpha 90.000000
_cell_angle_beta 50.773745
_cell_angle_gamma 90.000000
_cell_volume 2520.513392
_symmetry_space_group_name_H-M "C 2/M"
_symmetry_group_IT_number 12
_symmetry_cell_setting 'monoclinic'
loop_
_space_group_symop_operation_xyz
x,y,z
-x,y,-z
-x,-y,-z
x,-y,z
1/2+x,1/2+y,z
1/2-x,1/2+y,-z
1/2-x,1/2-y,-z
1/2+x,1/2-y,z
loop_
_atom_site_type_symbol
_atom_site_label
_atom_site_fract_x
_atom_site_fract_y
_atom_site_fract_z
Si Si1 0.319725 0.292603 0.044648
Si Si2 0.374194 0.802717 0.220885
Si Si3 0.160077 0.696084 0.405777
Si Si4 0.111868 0.710604 0.171237
Si Si5 0.135153 0.299683 0.268181
Si Si6 0.522143 0.707624 0.914918
Si Si7 0.879019 0.798449 0.374780
Si Si8 0.913956 0.799289 0.465648
O O1 0.313084 0.500000 0.041326
O O2 0.193074 0.225965 0.101099
O O3 0.395908 0.262962 0.066788
O O4 0.395377 0.229069 0.974751
O O5 0.480561 0.724088 0.214538
O O6 0.246731 0.725135 0.263339
O O7 0.426605 0.790421 0.149588
O O8 0.360018 0.000000 0.239137
O O9 0.159443 0.500000 0.388322
O O10 0.289634 0.772432 0.365561
O O11 0.124225 0.702129 0.474035
O O12 0.054236 0.789807 0.415959
O O13 0.107847 0.500000 0.169073
O O14 0.167581 0.752572 0.203288
O O15 0.107008 0.500000 0.277062
O O16 0.014324 0.211899 0.319534
O O17 0.520582 0.500000 0.907931
O O18 0.864508 0.725671 0.433060
O O19 0.849397 0.000000 0.387229
O O20 0.884187 0.000000 0.481344
#
# Coordination Sequence:
#
# PCOD9199193 Si02
#       8
#     8   8   8   8   8   8   8   8
#     4   8  14  29  55  80 105 140 181 222 265 329
#     4  11  22  36  56  81 112 143 175 230 288 331
#     4  10  20  36  59  88 122 154 187 233 277 319
#     4   9  19  36  57  79 105 143 185 222 275 338
#     4  11  23  41  62  79 103 145 196 235 267 330
#     4   9  16  30  56  82 105 141 183 221 266 331
#     4  10  23  40  58  83 117 151 185 232 286 329
#     4  10  20  36  59  87 121 157 189 225 273 335
#
# _framework density 25.391652000000001
#
# number of rings (size 3 to 8) (size 9 to 14) (size 15 to 20)
#    0.000    2.250    1.250    3.375    0.000    3.500 
#    0.000    7.500    0.000    0.000    0.000    0.000 
#    0.000    0.000    0.000    0.000    0.000    0.000 
#
# Total GULP energy -178886.850561 kJ/mol
# GULP energy per Si atom -5590.214080 kJ/mol
# Density = 2.533386 g / cm^3
# Si number density = 25.391652 Si / 1000 Ang^3
#
#
#
# Elastic Constant Matrix: (Units=GPa)
#
#
# Indices 1 2 3 4 5 6 
#
# 1 122.5188 11.7483 21.5089 0.0004 -23.4914 0.0012
# 2 11.7483 57.5543 5.8540 0.0016 -3.6363 0.0025
# 3 21.5089 5.8540 86.2723 0.0000 -26.8296 0.0002
# 4 0.0004 0.0016 0.0000 22.3709 0.0001 -3.1106
# 5 -23.4914 -3.6363 -26.8296 0.0001 49.5489 0.0003
# 6 0.0012 0.0025 0.0002 -3.1106 0.0003 15.5377
#
#
#
# Elastic Compliance Matrix: (Units=1/GPa)
#
#
# Indices 1 2 3 4 5 6 
#
# 1 0.009199 -0.001539 -0.001044 0.000000 0.003683 -0.000001
# 2 -0.001539 0.017778 -0.000774 -0.000002 0.000156 -0.000003
# 3 -0.001044 -0.000774 0.014108 0.000000 0.007088 0.000000
# 4 0.000000 -0.000002 0.000000 0.045981 0.000000 0.009205
# 5 0.003683 0.000156 0.007088 0.000000 0.025778 -0.000001
# 6 -0.000001 -0.000003 0.000000 0.009205 -0.000001 0.066203
#
#
# Mechanical properties :
#
#
# Convention : Reuss Voigt Hill
#
# Bulk Modulus (GPa) = 29.09387 38.28530 33.68958
# Shear Modulus (GPa) = 25.35289 32.64044 28.99666
#
# Velocity S-wave (km/s) = 3.16329 3.58925 3.38298
# Velocity P-wave (km/s) = 4.98245 5.68222 5.34380
#
# Compressibility (1/GPa) = 0.03437150
#
# Stress axis : x y z
#
# Youngs Moduli (GPa) = 108.70746 56.25048 70.88138
#
# Poissons Ratio (x) = 0.08656 0.07397
# Poissons Ratio (y) = 0.16729 0.05487
# Poissons Ratio (z) = 0.11344 0.04355
#
# Static dielectric constant tensor:
#      x y z
#    x 2.053030 0.000000 -0.035730 
#    y 0.000000 1.903610 0.000000 
#    z -0.035730 0.000000 2.061570 
# 
# From -- ./inp_files/375384.got.cif
#   From: 2010.05.17/outbox.cif.g08.bks.cpg/sg12_188_cif.got.tgz:375384.got - 2010.06.03 13:09:07.
