data_PCOD9199317
_publ_section_title
;
Structure prediction by ZEFSAII (Michael W. Deem and Ramdas Pophale) SiO2 
 PCOD9199317
Probable space group: C 2/M
;
_chemical_formula_sum "Si O2"
_cell_formula_units_Z 52
_cell_length_a 22.265089
_cell_length_b 9.509836
_cell_length_c 18.581384
_cell_angle_alpha 90.000000
_cell_angle_beta 135.190897
_cell_angle_gamma 90.000000
_cell_volume 2772.737255
_symmetry_space_group_name_H-M "C 2/M"
_symmetry_group_IT_number 12
_symmetry_cell_setting 'monoclinic'
loop_
_space_group_symop_operation_xyz
x,y,z
-x,y,-z
-x,-y,-z
x,-y,z
1/2+x,1/2+y,z
1/2-x,1/2+y,-z
1/2-x,1/2-y,-z
1/2+x,1/2-y,z
loop_
_atom_site_type_symbol
_atom_site_label
_atom_site_fract_x
_atom_site_fract_y
_atom_site_fract_z
Si Si1 0.439006 0.837087 0.790097
Si Si2 0.000000 0.253660 0.000000
Si Si3 0.468813 0.669230 0.256908
Si Si4 0.202462 0.660577 0.899877
Si Si5 0.813360 0.150826 0.852617
Si Si6 0.252760 0.831752 0.675723
Si Si7 0.438924 0.670115 0.513904
O O1 0.474102 0.829579 0.902611
O O2 0.488376 0.734299 0.778236
O O3 0.338803 0.793961 0.705324
O O4 0.446458 0.000000 0.773192
O O5 0.914351 0.169402 0.945327
O O6 0.457847 0.500000 0.241093
O O7 0.380629 0.751656 0.191563
O O8 0.523100 0.699279 0.375159
O O9 0.181145 0.500000 0.904331
O O10 0.267416 0.651321 0.889265
O O11 0.250000 0.750000 0.000000
O O12 0.773448 0.274253 0.772080
O O13 0.796608 0.000000 0.801921
O O14 0.159116 0.779556 0.574050
O O15 0.250503 0.000000 0.673905
O O16 0.500000 0.720408 0.500000
O O17 0.436452 0.500000 0.504967
#
# Coordination Sequence:
#
# PCOD9199317 Si02
#       7
#     8   4   8   8   8   8   8
#     4  10  21  37  57  83 115 149 190 238 287 339
#     4  10  20  36  60  82 110 152 192 226 274 344
#     4  11  23  38  59  86 114 149 193 237 285 338
#     4  11  23  38  56  81 115 151 187 229 281 337
#     4  10  21  35  54  82 112 142 181 232 284 333
#     4   9  19  36  58  82 109 147 191 232 278 337
#     4   9  18  35  59  84 111 147 192 237 280 335
#
# _framework density 18.754031999999999
#
# number of rings (size 3 to 8) (size 9 to 14) (size 15 to 20)
#    0.000    2.000    0.000    3.231    0.000    8.000 
#    0.000    1.538    0.000    4.154    0.000    0.000 
#    0.000    0.000    0.000    0.000    0.000    0.000 
#
# Total GULP energy -144900.558445 kJ/mol
# GULP energy per Si atom -5573.098402 kJ/mol
# Density = 1.871135 g / cm^3
# Si number density = 18.754032 Si / 1000 Ang^3
#
#
#
# Elastic Constant Matrix: (Units=GPa)
#
#
# Indices 1 2 3 4 5 6 
#
# 1 120.3876 49.0478 58.3684 0.0000 12.7558 0.0000
# 2 49.0478 65.0514 31.0990 0.0000 3.4828 0.0000
# 3 58.3684 31.0990 115.9772 0.0000 23.6720 0.0000
# 4 0.0000 0.0000 0.0000 16.3659 0.0000 5.6325
# 5 12.7558 3.4828 23.6720 0.0000 31.5000 0.0000
# 6 0.0000 0.0000 0.0000 5.6325 0.0000 17.9661
#
#
#
# Elastic Compliance Matrix: (Units=1/GPa)
#
#
# Indices 1 2 3 4 5 6 
#
# 1 0.014064 -0.008350 -0.004565 0.000000 -0.001341 0.000000
# 2 -0.008350 0.022686 -0.002432 0.000000 0.002701 0.000000
# 3 -0.004565 -0.002432 0.013158 0.000000 -0.007771 0.000000
# 4 0.000000 0.000000 0.000000 0.068493 0.000000 -0.021473
# 5 -0.001341 0.002701 -0.007771 0.000000 0.037830 0.000000
# 6 0.000000 0.000000 0.000000 -0.021473 0.000000 0.062392
#
#
# Mechanical properties :
#
#
# Convention : Reuss Voigt Hill
#
# Bulk Modulus (GPa) = 52.04599 64.27185 58.15892
# Shear Modulus (GPa) = 19.55246 24.02646 21.78946
#
# Velocity S-wave (km/s) = 3.23239 3.58318 3.41230
# Velocity P-wave (km/s) = 6.46091 7.17386 6.82670
#
# Compressibility (1/GPa) = 0.01921377
#
# Stress axis : x y z
#
# Youngs Moduli (GPa) = 71.10466 44.07978 75.99776
#
# Poissons Ratio (x) = 0.36805 0.34695
# Poissons Ratio (y) = 0.59369 0.18485
# Poissons Ratio (z) = 0.32461 0.10722
#
# Static dielectric constant tensor:
#      x y z
#    x 1.669960 0.000000 0.027840 
#    y 0.000000 1.665150 0.000000 
#    z 0.027840 0.000000 1.657600 
# 
# From -- ./inp_files/282266.got.cif
#   From: 2010.05.17/outbox.cif.g08.bks.cpg/sg12_142_cif.got.tgz:282266.got - 2010.06.03 13:09:07.
