data_PCOD9199723
_publ_section_title
;
Structure prediction by ZEFSAII (Michael W. Deem and Ramdas Pophale) SiO2 
 PCOD9199723
Probable space group: C 2/M
;
_chemical_formula_sum "Si O2"
_cell_formula_units_Z 56
_cell_length_a 31.622338
_cell_length_b 8.914999
_cell_length_c 23.899634
_cell_angle_alpha 90.000000
_cell_angle_beta 26.924972
_cell_angle_gamma 90.000000
_cell_volume 3050.951749
_symmetry_space_group_name_H-M "C 2/M"
_symmetry_group_IT_number 12
_symmetry_cell_setting 'monoclinic'
loop_
_space_group_symop_operation_xyz
x,y,z
-x,y,-z
-x,-y,-z
x,-y,z
1/2+x,1/2+y,z
1/2-x,1/2+y,-z
1/2-x,1/2-y,-z
1/2+x,1/2-y,z
loop_
_atom_site_type_symbol
_atom_site_label
_atom_site_fract_x
_atom_site_fract_y
_atom_site_fract_z
Si Si1 0.562206 0.320333 0.832601
Si Si2 0.766714 0.180333 0.287625
Si Si3 0.364553 0.820871 0.069735
Si Si4 0.608586 0.322216 0.198617
Si Si5 0.312428 0.179362 0.005007
Si Si6 0.147540 0.819824 0.612478
Si Si7 0.082967 0.679672 0.572325
O O1 0.550101 0.500000 0.851286
O O2 0.650725 0.278260 0.766304
O O3 0.587112 0.283579 0.738928
O O4 0.467150 0.241494 0.962622
O O5 0.791144 0.254762 0.200124
O O6 0.667435 0.222574 0.431368
O O7 0.768547 0.000000 0.279727
O O8 0.364326 0.000000 0.073134
O O9 0.340596 0.776729 0.034248
O O10 0.592325 0.500000 0.217204
O O11 0.630043 0.264905 0.110512
O O12 0.517623 0.238007 0.328088
O O13 0.703045 0.291444 0.121898
O O14 0.327656 0.000000 0.980286
O O15 0.250000 0.750000 0.500000
O O16 0.104037 0.752351 0.607755
O O17 0.154472 0.000000 0.600407
O O18 0.083018 0.500000 0.577862
#
# Coordination Sequence:
#
# PCOD9199723 Si02
#       7
#     8   8   8   8   8   8   8
#     4  10  21  38  56  78 110 150 187 224 276 331
#     4  10  22  40  56  74 109 154 190 226 274 332
#     4  11  23  37  56  83 109 142 187 235 280 324
#     4  10  20  36  61  89 112 143 183 226 281 340
#     4   9  20  39  59  83 117 146 177 228 285 337
#     4  11  21  35  56  83 114 148 185 227 275 329
#     4  11  22  38  57  82 115 151 187 229 281 332
#
# _framework density 18.354928999999998
#
# number of rings (size 3 to 8) (size 9 to 14) (size 15 to 20)
#    0.000    1.714    1.429    3.000    0.000    8.571 
#    0.000    0.714    0.000    4.286    0.000    0.000 
#    0.000    0.000    0.000    0.000    0.000    0.000 
#
# Total GULP energy -156482.064302 kJ/mol
# GULP energy per Si atom -5588.645154 kJ/mol
# Density = 1.831315 g / cm^3
# Si number density = 18.354929 Si / 1000 Ang^3
#
#
#
# Elastic Constant Matrix: (Units=GPa)
#
#
# Indices 1 2 3 4 5 6 
#
# 1 51.4074 21.8550 47.5919 0.0012 -2.4014 -0.0006
# 2 21.8550 34.4568 43.3539 -0.0032 -2.7662 0.0015
# 3 47.5919 43.3539 118.8144 0.0020 -7.5600 0.0009
# 4 0.0012 -0.0032 0.0020 34.7775 0.0006 -1.3398
# 5 -2.4014 -2.7662 -7.5600 0.0006 24.1085 -0.0007
# 6 -0.0006 0.0015 0.0009 -1.3398 -0.0007 27.9031
#
#
#
# Elastic Compliance Matrix: (Units=1/GPa)
#
#
# Indices 1 2 3 4 5 6 
#
# 1 0.032004 -0.007709 -0.010061 -0.000001 -0.000851 0.000001
# 2 -0.007709 0.055513 -0.017154 0.000006 0.000223 -0.000002
# 3 -0.010061 -0.017154 0.018893 -0.000002 0.002954 0.000000
# 4 -0.000001 0.000006 -0.000002 0.028807 -0.000001 0.001383
# 5 -0.000851 0.000223 0.002954 -0.000001 0.042346 0.000001
# 6 0.000001 -0.000002 0.000000 0.001383 0.000001 0.035905
#
#
# Mechanical properties :
#
#
# Convention : Reuss Voigt Hill
#
# Bulk Modulus (GPa) = 27.35014 47.80891 37.57952
# Shear Modulus (GPa) = 16.92028 23.48301 20.20164
#
# Velocity S-wave (km/s) = 3.03947 3.58073 3.32115
# Velocity P-wave (km/s) = 5.22024 6.57259 5.93506
#
# Compressibility (1/GPa) = 0.03656289
#
# Stress axis : x y z
#
# Youngs Moduli (GPa) = 31.24604 18.01392 52.92837
#
# Poissons Ratio (x) = 0.13888 0.53249
# Poissons Ratio (y) = 0.24089 0.90792
# Poissons Ratio (z) = 0.31435 0.30901
#
# Static dielectric constant tensor:
#      x y z
#    x 1.624490 0.000000 -0.010050 
#    y 0.000000 1.610780 0.000000 
#    z -0.010050 0.000000 1.617710 
# 
# From -- ./inp_files/237336.got.cif
#   From: 2010.05.17/outbox.cif.g08.bks.cpg/sg12_119_cif.got.tgz:237336.got - 2010.06.03 13:09:07.
