data_PCOD9199844
_publ_section_title
;
Structure prediction by ZEFSAII (Michael W. Deem and Ramdas Pophale) SiO2 
 PCOD9199844
Probable space group: C 2/M
;
_chemical_formula_sum "Si O2"
_cell_formula_units_Z 64
_cell_length_a 17.835520
_cell_length_b 14.744822
_cell_length_c 14.398499
_cell_angle_alpha 90.000000
_cell_angle_beta 130.511543
_cell_angle_gamma 90.000000
_cell_volume 2878.811993
_symmetry_space_group_name_H-M "C 2/M"
_symmetry_group_IT_number 12
_symmetry_cell_setting 'monoclinic'
loop_
_space_group_symop_operation_xyz
x,y,z
-x,y,-z
-x,-y,-z
x,-y,z
1/2+x,1/2+y,z
1/2-x,1/2+y,-z
1/2-x,1/2-y,-z
1/2+x,1/2-y,z
loop_
_atom_site_type_symbol
_atom_site_label
_atom_site_fract_x
_atom_site_fract_y
_atom_site_fract_z
Si Si1 0.367193 0.099231 0.031960
Si Si2 0.653201 0.394886 0.330278
Si Si3 0.315086 0.606851 0.986414
Si Si4 0.780446 0.401642 0.763639
Si Si5 0.959927 0.272009 0.373771
Si Si6 0.026373 0.759055 0.819175
Si Si7 0.266424 0.704697 0.760634
Si Si8 0.402030 0.401217 0.512155
O O1 0.293955 0.098617 0.885091
O O2 0.414513 0.000000 0.074434
O O3 0.295916 0.112035 0.063001
O O4 0.444126 0.180438 0.085590
O O5 0.631309 0.500000 0.291954
O O6 0.563039 0.327439 0.235208
O O7 0.739508 0.358872 0.334432
O O8 0.666234 0.387497 0.451471
O O9 0.343291 0.500000 0.009335
O O10 0.318995 0.650339 0.886453
O O11 0.381469 0.670808 0.105164
O O12 0.823798 0.500000 0.767180
O O13 0.815867 0.300001 0.769244
O O14 0.670666 0.402089 0.633206
O O15 0.016519 0.175377 0.422046
O O16 0.000000 0.320424 0.500000
O O17 0.984963 0.295505 0.287323
O O18 0.842698 0.272396 0.290533
O O19 0.449468 0.500000 0.560214
#
# Coordination Sequence:
#
# PCOD9199844 Si02
#       8
#     8   8   8   8   8   8   8   8
#     4  10  20  36  63  97 129 165 209 265 321 378
#     4  10  24  43  64  92 127 171 215 263 319 376
#     4  11  22  36  62  94 128 166 211 268 318 372
#     4  10  20  36  61  94 126 162 209 260 319 376
#     4  11  22  36  61  96 126 165 209 258 320 376
#     4  11  21  41  64  90 130 168 213 263 316 377
#     4  12  22  39  63  90 133 169 209 261 314 382
#     4   9  20  39  62  94 130 162 212 268 315 375
#
# _framework density 22.231394000000002
#
# number of rings (size 3 to 8) (size 9 to 14) (size 15 to 20)
#    0.000    1.500    3.750    1.875    0.000    2.250 
#    0.000    1.875    0.000    4.875    0.000    0.000 
#    0.000    0.000    0.000    0.000    0.000    0.000 
#
# Total GULP energy -178268.479631 kJ/mol
# GULP energy per Si atom -5570.889988 kJ/mol
# Density = 2.218079 g / cm^3
# Si number density = 22.231394 Si / 1000 Ang^3
#
#
#
# Elastic Constant Matrix: (Units=GPa)
#
#
# Indices 1 2 3 4 5 6 
#
# 1 54.5303 23.7075 10.2480 0.0000 -10.7578 0.0000
# 2 23.7075 130.3117 35.9145 0.0000 -0.2605 0.0000
# 3 10.2480 35.9145 79.7521 0.0000 -10.4978 0.0000
# 4 0.0000 0.0000 0.0000 19.9166 0.0000 -8.2457
# 5 -10.7578 -0.2605 -10.4978 0.0000 18.7866 0.0000
# 6 0.0000 0.0000 0.0000 -8.2457 0.0000 21.1557
#
#
#
# Elastic Compliance Matrix: (Units=1/GPa)
#
#
# Indices 1 2 3 4 5 6 
#
# 1 0.022710 -0.004323 0.000790 0.000000 0.013386 0.000000
# 2 -0.004323 0.009673 -0.004435 0.000000 -0.004819 0.000000
# 3 0.000790 -0.004435 0.015636 0.000000 0.009128 0.000000
# 4 0.000000 0.000000 0.000000 0.059870 0.000000 0.023335
# 5 0.013386 -0.004819 0.009128 0.000000 0.065929 0.000000
# 6 0.000000 0.000000 0.000000 0.023335 0.000000 0.056364
#
#
# Mechanical properties :
#
#
# Convention : Reuss Voigt Hill
#
# Bulk Modulus (GPa) = 31.16743 44.92601 38.04672
# Shear Modulus (GPa) = 19.46953 24.95338 22.21145
#
# Velocity S-wave (km/s) = 2.96255 3.35392 3.16429
# Velocity P-wave (km/s) = 5.07467 5.93722 5.52281
#
# Compressibility (1/GPa) = 0.03208478
#
# Stress axis : x y z
#
# Youngs Moduli (GPa) = 44.03334 103.38069 63.95483
#
# Poissons Ratio (x) = 0.44689 -0.05056
# Poissons Ratio (y) = 0.19034 0.28364
# Poissons Ratio (z) = -0.03481 0.45849
#
# Static dielectric constant tensor:
#      x y z
#    x 1.844350 0.000000 -0.047630 
#    y 0.000000 1.851010 0.000000 
#    z -0.047630 0.000000 1.841370 
# 
# From -- ./inp_files/225772.got.cif
#   From: 2010.05.17/outbox.cif.g08.bks.cpg/sg12_113_cif.got.tgz:225772.got - 2010.06.03 13:09:07.
