data_PCOD9199802
_publ_section_title
;
Structure prediction by ZEFSAII (Michael W. Deem and Ramdas Pophale) SiO2 
 PCOD9199802
Probable space group: C 2/M
;
_chemical_formula_sum "Si O2"
_cell_formula_units_Z 48
_cell_length_a 17.245819
_cell_length_b 21.114259
_cell_length_c 8.047092
_cell_angle_alpha 90.000000
_cell_angle_beta 49.616840
_cell_angle_gamma 90.000000
_cell_volume 2232.024675
_symmetry_space_group_name_H-M "C 2/M"
_symmetry_group_IT_number 12
_symmetry_cell_setting 'monoclinic'
loop_
_space_group_symop_operation_xyz
x,y,z
-x,y,-z
-x,-y,-z
x,-y,z
1/2+x,1/2+y,z
1/2-x,1/2+y,-z
1/2-x,1/2-y,-z
1/2+x,1/2-y,z
loop_
_atom_site_type_symbol
_atom_site_label
_atom_site_fract_x
_atom_site_fract_y
_atom_site_fract_z
Si Si1 0.113457 0.171702 0.261335
Si Si2 0.494868 0.751541 0.824026
Si Si3 0.692450 0.927962 0.514671
Si Si4 0.729628 0.074622 0.067346
Si Si5 0.303670 0.309053 0.511731
Si Si6 0.013875 0.385389 0.292844
O O1 0.102523 0.217531 0.118211
O O2 0.184378 0.199399 0.307951
O O3 0.000000 0.165459 0.500000
O O4 0.166173 0.107131 0.133303
O O5 0.580548 0.697299 0.712228
O O6 0.515482 0.811240 0.676712
O O7 0.500000 0.780124 0.000000
O O8 0.715711 0.915673 0.285861
O O9 0.750071 0.874264 0.538241
O O10 0.570279 0.920149 0.700458
O O11 0.722257 0.000000 0.513524
O O12 0.633694 0.104652 0.100496
O O13 0.728600 0.000000 0.038429
O O14 0.250000 0.250000 0.500000
O O15 0.000000 0.409735 0.500000
#
# Coordination Sequence:
#
# PCOD9199802 Si02
#       6
#     8   8   8   8   8   8
#     4  10  24  42  62  88 121 163 208 264 316 359
#     4  11  23  39  61  92 124 160 209 259 315 364
#     4  10  21  39  63  93 129 168 205 252 311 376
#     4  10  22  39  62  92 126 168 211 252 310 377
#     4  11  22  39  63  90 125 164 208 257 305 367
#     4  10  20  36  61  91 129 166 201 251 309 376
#
# _framework density 21.505137999999999
#
# number of rings (size 3 to 8) (size 9 to 14) (size 15 to 20)
#    0.000    1.667    1.667    3.000    4.667    3.667 
#    0.000    2.500    0.000   12.000    0.000    0.000 
#    0.000    0.000    0.000    0.000    0.000    0.000 
#
# Total GULP energy -133920.602080 kJ/mol
# GULP energy per Si atom -5580.025087 kJ/mol
# Density = 2.145619 g / cm^3
# Si number density = 21.505138 Si / 1000 Ang^3
#
#
#
# Elastic Constant Matrix: (Units=GPa)
#
#
# Indices 1 2 3 4 5 6 
#
# 1 146.1693 73.1876 24.9417 0.0000 8.2762 0.0000
# 2 73.1876 109.8168 13.1900 0.0000 -8.5710 0.0000
# 3 24.9417 13.1900 43.6766 0.0000 -4.4436 0.0000
# 4 0.0000 0.0000 0.0000 27.6735 0.0000 -3.3567
# 5 8.2762 -8.5710 -4.4436 0.0000 24.4339 0.0000
# 6 0.0000 0.0000 0.0000 -3.3567 0.0000 29.7139
#
#
#
# Elastic Compliance Matrix: (Units=1/GPa)
#
#
# Indices 1 2 3 4 5 6 
#
# 1 0.012310 -0.008185 -0.005374 0.000000 -0.008018 0.000000
# 2 -0.008185 0.015089 0.000955 0.000000 0.008239 0.000000
# 3 -0.005374 0.000955 0.026383 0.000000 0.006954 0.000000
# 4 0.000000 0.000000 0.000000 0.036638 0.000000 0.004139
# 5 -0.008018 0.008239 0.006954 0.000000 0.047797 0.000000
# 6 0.000000 0.000000 0.000000 0.004139 0.000000 0.034122
#
#
# Mechanical properties :
#
#
# Convention : Reuss Voigt Hill
#
# Bulk Modulus (GPa) = 34.99413 58.03348 46.51380
# Shear Modulus (GPa) = 24.14621 28.92048 26.53334
#
# Velocity S-wave (km/s) = 3.35447 3.67115 3.51638
# Velocity P-wave (km/s) = 5.59563 6.70927 6.17760
#
# Compressibility (1/GPa) = 0.02857622
#
# Stress axis : x y z
#
# Youngs Moduli (GPa) = 81.23167 66.27321 37.90270
#
# Poissons Ratio (x) = 0.54242 0.20369
# Poissons Ratio (y) = 0.66485 -0.03621
# Poissons Ratio (z) = 0.43654 -0.06331
#
# Static dielectric constant tensor:
#      x y z
#    x 1.831570 0.000000 -0.006230 
#    y 0.000000 1.728790 0.000000 
#    z -0.006230 0.000000 1.878390 
# 
# From -- ./inp_files/77286.got.cif
#   From: 2010.05.17/outbox.cif.g08.bks.cpg/sg12_39_cif.got.tgz:77286.got - 2010.06.03 13:09:07.
