data_PCOD9199678
_publ_section_title
;
Structure prediction by ZEFSAII (Michael W. Deem and Ramdas Pophale) SiO2 
 PCOD9199678
Probable space group: C 2/M
;
_chemical_formula_sum "Si O2"
_cell_formula_units_Z 40
_cell_length_a 24.125204
_cell_length_b 12.062544
_cell_length_c 11.473914
_cell_angle_alpha 90.000000
_cell_angle_beta 147.793609
_cell_angle_gamma 90.000000
_cell_volume 1779.609836
_symmetry_space_group_name_H-M "C 2/M"
_symmetry_group_IT_number 12
_symmetry_cell_setting 'monoclinic'
loop_
_space_group_symop_operation_xyz
x,y,z
-x,y,-z
-x,-y,-z
x,-y,z
1/2+x,1/2+y,z
1/2-x,1/2+y,-z
1/2-x,1/2-y,-z
1/2+x,1/2-y,z
loop_
_atom_site_type_symbol
_atom_site_label
_atom_site_fract_x
_atom_site_fract_y
_atom_site_fract_z
Si Si1 0.213070 0.809691 0.171752
Si Si2 0.339411 0.500000 0.757296
Si Si3 0.445759 0.500000 0.712969
Si Si4 0.937059 0.374116 0.544437
Si Si5 0.941008 0.626633 0.006187
Si Si6 0.467154 0.340717 0.315167
O O1 0.330556 0.807420 0.337407
O O2 0.215212 0.892921 0.285743
O O3 0.152827 0.701231 0.111194
O O4 0.144205 0.860955 0.943336
O O5 0.354654 0.500000 0.645925
O O6 0.451338 0.500000 0.022516
O O7 0.456131 0.394243 0.645903
O O8 0.930502 0.500000 0.488408
O O9 0.969558 0.380725 0.737333
O O10 0.026913 0.292111 0.662066
O O11 0.907350 0.500000 0.919734
O O12 0.000000 0.677682 0.000000
O O13 0.500000 0.383680 0.500000
#
# Coordination Sequence:
#
# PCOD9199678 Si02
#       6
#     8   4   4   8   8   8
#     4  10  20  36  61  86 118 153 197 237 285 356
#     4   9  18  32  60  88 113 151 187 233 289 354
#     4   9  19  36  56  86 118 147 189 237 297 347
#     4  10  21  39  59  87 115 154 201 235 289 352
#     4   9  20  37  55  82 122 157 186 236 294 345
#     4  10  22  39  61  84 117 156 198 248 290 331
#
# _framework density 22.476835999999999
#
# number of rings (size 3 to 8) (size 9 to 14) (size 15 to 20)
#    0.000    2.400    1.000    0.300    8.400    2.000 
#    1.800    0.000    0.000    0.000    0.000    0.000 
#    0.000    0.000    0.000    0.000    0.000    0.000 
#
# Total GULP energy -111404.513541 kJ/mol
# GULP energy per Si atom -5570.225677 kJ/mol
# Density = 2.242568 g / cm^3
# Si number density = 22.476836 Si / 1000 Ang^3
#
#
#
# Elastic Constant Matrix: (Units=GPa)
#
#
# Indices 1 2 3 4 5 6 
#
# 1 62.5648 -0.8565 29.5196 0.0000 -22.7516 0.0000
# 2 -0.8565 105.3922 22.0427 0.0000 9.3541 0.0000
# 3 29.5196 22.0427 53.8533 0.0000 1.9283 0.0000
# 4 0.0000 0.0000 0.0000 -2.9304 0.0000 -13.7860
# 5 -22.7516 9.3541 1.9283 0.0000 40.6681 0.0000
# 6 0.0000 0.0000 0.0000 -13.7860 0.0000 -11.6883
#
#
#
# Elastic Compliance Matrix: (Units=1/GPa)
#
#
# Indices 1 2 3 4 5 6 
#
# 1 0.031487 0.002636 -0.018980 0.000000 0.017909 0.000000
# 2 0.002636 0.010796 -0.005838 0.000000 -0.000732 0.000000
# 3 -0.018980 -0.005838 0.031748 0.000000 -0.010781 0.000000
# 4 0.000000 0.000000 0.000000 0.075021 0.000000 -0.088484
# 5 0.017909 -0.000732 -0.010781 0.000000 0.035288 0.000000
# 6 0.000000 0.000000 0.000000 -0.088484 0.000000 0.018809
#
#
# Mechanical properties :
#
#
# Convention : Reuss Voigt Hill
#
# Bulk Modulus (GPa) = 33.70605 35.91356 34.80980
# Shear Modulus (GPa) = 19.42494 16.61684 18.02089
#
# Velocity S-wave (km/s) = 2.94295 2.72193 2.83460
# Velocity P-wave (km/s) = 5.15523 5.08835 5.12190
#
# Compressibility (1/GPa) = 0.02966826
#
# Stress axis : x y z
#
# Youngs Moduli (GPa) = 31.75885 92.63007 31.49785
#
# Poissons Ratio (x) = -0.24417 0.59783
# Poissons Ratio (y) = -0.08372 0.18387
# Poissons Ratio (z) = 0.60278 0.54073
#
# Static dielectric constant tensor:
#      x y z
#    x 1.891330 0.000000 -0.014640 
#    y 0.000000 1.890640 0.000000 
#    z -0.014640 0.000000 1.809790 
# 
# From -- ./inp_files/174940.got.cif
#   From: 2010.05.17/outbox.cif.g08.bks.cpg/sg12_88_cif.got.tgz:174940.got - 2010.06.03 13:09:07.
