data_PCOD9199404
_publ_section_title
;
Structure prediction by ZEFSAII (Michael W. Deem and Ramdas Pophale) SiO2 
 PCOD9199404
Probable space group: C 2/M
;
_chemical_formula_sum "Si O2"
_cell_formula_units_Z 64
_cell_length_a 27.496764
_cell_length_b 18.139259
_cell_length_c 11.909211
_cell_angle_alpha 90.000000
_cell_angle_beta 29.362683
_cell_angle_gamma 90.000000
_cell_volume 2912.581565
_symmetry_space_group_name_H-M "C 2/M"
_symmetry_group_IT_number 12
_symmetry_cell_setting 'monoclinic'
loop_
_space_group_symop_operation_xyz
x,y,z
-x,y,-z
-x,-y,-z
x,-y,z
1/2+x,1/2+y,z
1/2-x,1/2+y,-z
1/2-x,1/2-y,-z
1/2+x,1/2-y,z
loop_
_atom_site_type_symbol
_atom_site_label
_atom_site_fract_x
_atom_site_fract_y
_atom_site_fract_z
Si Si1 0.000995 0.332416 0.243000
Si Si2 0.781111 0.165427 0.925328
Si Si3 0.964191 0.808913 0.427191
Si Si4 0.417366 0.583556 0.962603
Si Si5 0.696633 0.708004 0.449290
Si Si6 0.700464 0.084559 0.307651
Si Si7 0.109639 0.774333 0.868039
Si Si8 0.802305 0.585698 0.128462
O O1 0.015054 0.271537 0.315368
O O2 0.891994 0.367810 0.461538
O O3 0.035091 0.288008 0.062839
O O4 0.081750 0.396310 0.095408
O O5 0.741280 0.121582 0.111968
O O6 0.750000 0.250000 0.000000
O O7 0.899493 0.169993 0.665188
O O8 0.735524 0.125332 0.908447
O O9 0.880240 0.792327 0.498219
O O10 0.029788 0.876235 0.249372
O O11 0.453510 0.500000 0.906072
O O12 0.298672 0.580632 0.186387
O O13 0.434866 0.645105 0.021403
O O14 0.793455 0.760434 0.247014
O O15 0.646948 0.728115 0.666598
O O16 0.745183 0.626610 0.345247
O O17 0.668125 0.000000 0.352488
O O18 0.781128 0.500000 0.168070
#
# Coordination Sequence:
#
# PCOD9199404 Si02
#       8
#     8   8   8   8   8   8   8   8
#     4  10  20  36  60  86 122 159 197 258 304 365
#     4  11  23  39  63  88 118 159 208 251 304 370
#     4  10  21  38  60  86 118 153 206 251 303 359
#     4  10  23  38  56  82 120 161 202 251 301 359
#     4   9  19  37  64  91 117 158 197 256 304 370
#     4  11  23  40  59  84 122 166 206 253 310 360
#     4   9  19  37  63  91 119 151 208 248 307 369
#     4  10  22  39  60  93 129 157 199 256 318 372
#
# _framework density 21.973635000000002
#
# number of rings (size 3 to 8) (size 9 to 14) (size 15 to 20)
#    0.000    2.000    1.250    1.500    5.250    6.000 
#    0.000    4.375    0.000    0.000    0.000    9.625 
#    0.000    0.000    0.000    0.000    0.000    0.000 
#
# Total GULP energy -178644.995644 kJ/mol
# GULP energy per Si atom -5582.656114 kJ/mol
# Density = 2.192362 g / cm^3
# Si number density = 21.973635 Si / 1000 Ang^3
#
#
#
# Elastic Constant Matrix: (Units=GPa)
#
#
# Indices 1 2 3 4 5 6 
#
# 1 43.5591 14.3963 14.1821 0.0000 -1.6902 0.0000
# 2 14.3963 188.3567 51.7470 0.0000 -0.7051 0.0000
# 3 14.1821 51.7470 145.3926 0.0000 3.2868 0.0000
# 4 0.0000 0.0000 0.0000 31.0414 0.0000 -6.5748
# 5 -1.6902 -0.7051 3.2868 0.0000 28.9562 0.0000
# 6 0.0000 0.0000 0.0000 -6.5748 0.0000 17.2940
#
#
#
# Elastic Compliance Matrix: (Units=1/GPa)
#
#
# Indices 1 2 3 4 5 6 
#
# 1 0.024076 -0.001307 -0.001919 0.000000 0.001591 0.000000
# 2 -0.001307 0.005960 -0.002000 0.000000 0.000296 0.000000
# 3 -0.001919 -0.002000 0.007801 0.000000 -0.001046 0.000000
# 4 0.000000 0.000000 0.000000 0.035036 0.000000 0.013320
# 5 0.001591 0.000296 -0.001046 0.000000 0.034754 0.000000
# 6 0.000000 0.000000 0.000000 0.013320 0.000000 0.062888
#
#
# Mechanical properties :
#
#
# Convention : Reuss Voigt Hill
#
# Bulk Modulus (GPa) = 36.51868 59.77325 48.14597
# Shear Modulus (GPa) = 26.30265 35.25716 30.77991
#
# Velocity S-wave (km/s) = 3.46354 4.00999 3.74674
# Velocity P-wave (km/s) = 5.71403 6.97864 6.37776
#
# Compressibility (1/GPa) = 0.02738325
#
# Stress axis : x y z
#
# Youngs Moduli (GPa) = 41.53531 167.79609 128.19314
#
# Poissons Ratio (x) = 0.21929 0.24604
# Poissons Ratio (y) = 0.05428 0.25643
# Poissons Ratio (z) = 0.07972 0.33564
#
# Static dielectric constant tensor:
#      x y z
#    x 1.922430 0.000000 -0.045040 
#    y 0.000000 1.797390 0.000000 
#    z -0.045040 0.000000 1.845410 
# 
# From -- ./inp_files/190017.got.cif
#   From: 2010.05.17/outbox.cif.g08.bks.cpg/sg12_96_cif.got.tgz:190017.got - 2010.06.03 13:09:07.
