data_PCOD9199978
_publ_section_title
;
Structure prediction by ZEFSAII (Michael W. Deem and Ramdas Pophale) SiO2 
 PCOD9199978
Probable space group: C 2/M
;
_chemical_formula_sum "Si O2"
_cell_formula_units_Z 56
_cell_length_a 26.501724
_cell_length_b 13.472137
_cell_length_c 9.090955
_cell_angle_alpha 90.000000
_cell_angle_beta 118.565907
_cell_angle_gamma 90.000000
_cell_volume 2850.670463
_symmetry_space_group_name_H-M "C 2/M"
_symmetry_group_IT_number 12
_symmetry_cell_setting 'monoclinic'
loop_
_space_group_symop_operation_xyz
x,y,z
-x,y,-z
-x,-y,-z
x,-y,z
1/2+x,1/2+y,z
1/2-x,1/2+y,-z
1/2-x,1/2-y,-z
1/2+x,1/2-y,z
loop_
_atom_site_type_symbol
_atom_site_label
_atom_site_fract_x
_atom_site_fract_y
_atom_site_fract_z
Si Si1 0.554163 0.113871 0.969768
Si Si2 0.610951 0.383194 0.431162
Si Si3 0.293147 0.259538 0.927663
Si Si4 0.384338 0.387977 0.215658
Si Si5 0.494450 0.273224 0.323638
Si Si6 0.776064 0.880367 0.608174
Si Si7 0.825906 0.383125 0.747690
O O1 0.608292 0.151073 0.142914
O O2 0.535821 0.189151 0.816349
O O3 0.566674 0.000000 0.935277
O O4 0.500000 0.108216 0.000000
O O5 0.596050 0.500000 0.384496
O O6 0.628151 0.375936 0.627842
O O7 0.554841 0.312814 0.342341
O O8 0.665241 0.358980 0.402381
O O9 0.349790 0.308208 0.074314
O O10 0.250000 0.250000 0.000000
O O11 0.300527 0.151537 0.867409
O O12 0.369015 0.500000 0.151365
O O13 0.451256 0.366407 0.280172
O O14 0.500000 0.236103 0.500000
O O15 0.776254 0.828469 0.766367
O O16 0.718785 0.848978 0.438757
O O17 0.774564 0.000000 0.622269
O O18 0.827991 0.500000 0.733746
#
# Coordination Sequence:
#
# PCOD9199978 Si02
#       7
#     8   8   8   8   8   8   8
#     4  10  22  41  62  86 117 160 208 254 303 351
#     4   9  19  36  62  93 127 163 196 237 301 372
#     4  12  24  38  59  90 124 157 198 250 306 362
#     4  10  20  37  59  89 128 164 197 243 303 366
#     4  10  20  36  62  93 126 159 202 248 303 361
#     4  10  22  41  64  93 122 155 201 250 304 368
#     4  10  22  42  63  84 118 162 204 249 302 357
#
# _framework density 19.644501000000002
#
# number of rings (size 3 to 8) (size 9 to 14) (size 15 to 20)
#    0.000    1.857    1.429    2.143    2.000    4.286 
#    2.571    0.000    0.000    3.429    0.000    0.000 
#    0.000    0.000    0.000    0.000    0.000    0.000 
#
# Total GULP energy -156147.592994 kJ/mol
# GULP energy per Si atom -5576.699750 kJ/mol
# Density = 1.959979 g / cm^3
# Si number density = 19.644501 Si / 1000 Ang^3
#
#
#
# Elastic Constant Matrix: (Units=GPa)
#
#
# Indices 1 2 3 4 5 6 
#
# 1 123.0219 29.2625 78.6840 0.0000 5.1447 0.0000
# 2 29.2625 56.5352 42.6139 0.0000 4.7779 0.0000
# 3 78.6840 42.6139 109.0607 0.0000 14.1079 0.0000
# 4 0.0000 0.0000 0.0000 31.7995 0.0000 0.0717
# 5 5.1447 4.7779 14.1079 0.0000 30.9570 0.0000
# 6 0.0000 0.0000 0.0000 0.0717 0.0000 24.8943
#
#
#
# Elastic Compliance Matrix: (Units=1/GPa)
#
#
# Indices 1 2 3 4 5 6 
#
# 1 0.015309 0.000618 -0.011631 0.000000 0.002661 0.000000
# 2 0.000618 0.025109 -0.010353 0.000000 0.000740 0.000000
# 3 -0.011631 -0.010353 0.022474 0.000000 -0.006711 0.000000
# 4 0.000000 0.000000 0.000000 0.031447 0.000000 -0.000091
# 5 0.002661 0.000740 -0.006711 0.000000 0.034805 0.000000
# 6 0.000000 0.000000 0.000000 -0.000091 0.000000 0.040170
#
#
# Mechanical properties :
#
#
# Convention : Reuss Voigt Hill
#
# Bulk Modulus (GPa) = 49.60024 65.52652 57.56338
# Shear Modulus (GPa) = 22.85547 26.73399 24.79473
#
# Velocity S-wave (km/s) = 3.41464 3.69303 3.55656
# Velocity P-wave (km/s) = 6.39141 7.18423 6.79939
#
# Compressibility (1/GPa) = 0.02016119
#
# Stress axis : x y z
#
# Youngs Moduli (GPa) = 65.31915 39.82633 44.49624
#
# Poissons Ratio (x) = -0.02461 0.51753
# Poissons Ratio (y) = -0.04036 0.46065
# Poissons Ratio (z) = 0.75972 0.41230
#
# Static dielectric constant tensor:
#      x y z
#    x 1.698270 0.000000 0.029910 
#    y 0.000000 1.719280 0.000000 
#    z 0.029910 0.000000 1.675820 
# 
# From -- ./inp_files/103249.got.cif
#   From: 2010.05.17/outbox.cif.g08.bks.cpg/sg12_52_cif.got.tgz:103249.got - 2010.06.03 13:09:07.
