data_PCOD9199936
_publ_section_title
;
Structure prediction by ZEFSAII (Michael W. Deem and Ramdas Pophale) SiO2 
 PCOD9199936
Probable space group: C 2/M
;
_chemical_formula_sum "Si O2"
_cell_formula_units_Z 44
_cell_length_a 25.005203
_cell_length_b 12.241730
_cell_length_c 8.631709
_cell_angle_alpha 90.000000
_cell_angle_beta 131.381445
_cell_angle_gamma 90.000000
_cell_volume 1982.528780
_symmetry_space_group_name_H-M "C 2/M"
_symmetry_group_IT_number 12
_symmetry_cell_setting 'monoclinic'
loop_
_space_group_symop_operation_xyz
x,y,z
-x,y,-z
-x,-y,-z
x,-y,z
1/2+x,1/2+y,z
1/2-x,1/2+y,-z
1/2-x,1/2-y,-z
1/2+x,1/2-y,z
loop_
_atom_site_type_symbol
_atom_site_label
_atom_site_fract_x
_atom_site_fract_y
_atom_site_fract_z
Si Si1 0.760544 0.876324 0.162229
Si Si2 0.645061 0.178419 0.706404
Si Si3 0.171907 0.615599 0.426613
Si Si4 0.521652 0.627224 0.862029
Si Si5 0.000000 0.253048 0.500000
Si Si6 0.676215 0.701371 0.210499
O O1 0.831041 0.805532 0.267372
O O2 0.712999 0.796715 0.178525
O O3 0.772500 0.000000 0.239718
O O4 0.712722 0.877275 0.916771
O O5 0.636899 0.122429 0.526580
O O6 0.571615 0.176526 0.655957
O O7 0.155051 0.500000 0.316778
O O8 0.257640 0.626297 0.613317
O O9 0.149232 0.726205 0.301117
O O10 0.501644 0.500000 0.811932
O O11 0.492880 0.688085 0.651251
O O12 0.500000 0.660430 0.000000
O O13 0.607863 0.641003 0.014060
#
# Coordination Sequence:
#
# PCOD9199936 Si02
#       6
#     8   8   8   8   4   8
#     4  10  20  38  61  87 119 161 210 256 314 375
#     4  10  22  38  60  90 123 162 205 269 310 375
#     4  10  20  36  62  91 120 162 214 265 323 379
#     4  11  24  41  64  93 129 170 212 263 326 386
#     4  12  23  44  65  94 136 168 215 262 325 386
#     4  10  20  38  60  89 124 162 207 268 318 375
#
# _framework density 22.193877000000001
#
# number of rings (size 3 to 8) (size 9 to 14) (size 15 to 20)
#    0.000    1.636    1.818    3.000    0.000    1.455 
#    0.000    6.364    0.000    2.182    0.000    0.000 
#    0.000    0.000    0.000    0.000    0.000    0.000 
#
# Total GULP energy -122652.981873 kJ/mol
# GULP energy per Si atom -5575.135540 kJ/mol
# Density = 2.214336 g / cm^3
# Si number density = 22.193877 Si / 1000 Ang^3
#
#
#
# Elastic Constant Matrix: (Units=GPa)
#
#
# Indices 1 2 3 4 5 6 
#
# 1 75.6445 15.4949 7.8343 0.0000 3.9243 0.0000
# 2 15.4949 95.2824 -2.0287 0.0000 0.9258 0.0000
# 3 7.8343 -2.0287 48.5907 0.0000 -0.4679 0.0000
# 4 0.0000 0.0000 0.0000 -7.0993 0.0000 6.6825
# 5 3.9243 0.9258 -0.4679 0.0000 46.4515 0.0000
# 6 0.0000 0.0000 0.0000 6.6825 0.0000 2.8466
#
#
#
# Elastic Compliance Matrix: (Units=1/GPa)
#
#
# Indices 1 2 3 4 5 6 
#
# 1 0.013999 -0.002316 -0.002365 0.000000 -0.001160 0.000000
# 2 -0.002316 0.010889 0.000828 0.000000 -0.000013 0.000000
# 3 -0.002365 0.000828 0.021000 0.000000 0.000395 0.000000
# 4 0.000000 0.000000 0.000000 -0.043885 0.000000 0.103023
# 5 -0.001160 -0.000013 0.000395 0.000000 0.021630 0.000000
# 6 0.000000 0.000000 0.000000 0.103023 0.000000 0.109448
#
#
# Mechanical properties :
#
#
# Convention : Reuss Voigt Hill
#
# Bulk Modulus (GPa) = 26.18972 29.12429 27.65700
# Shear Modulus (GPa) = 32.57006 21.65423 27.11214
#
# Velocity S-wave (km/s) = 3.83498 3.12698 3.49894
# Velocity P-wave (km/s) = 5.60674 5.11747 5.36768
#
# Compressibility (1/GPa) = 0.03818292
#
# Stress axis : x y z
#
# Youngs Moduli (GPa) = 71.43270 91.83207 47.61968
#
# Poissons Ratio (x) = 0.21265 0.11262
# Poissons Ratio (y) = 0.16541 -0.03942
# Poissons Ratio (z) = 0.16893 -0.07602
#
# Static dielectric constant tensor:
#      x y z
#    x 1.884030 0.000000 -0.107210 
#    y 0.000000 1.517610 0.000000 
#    z -0.107210 0.000000 1.916380 
# 
# From -- ./inp_files/103376.got.cif
#   From: 2010.05.17/outbox.cif.g08.bks.cpg/sg12_52_cif.got.tgz:103376.got - 2010.06.03 13:09:07.
