data_PCOD9199386
_publ_section_title
;
Structure prediction by ZEFSAII (Michael W. Deem and Ramdas Pophale) SiO2 
 PCOD9199386
Probable space group: C 2/M
;
_chemical_formula_sum "Si O2"
_cell_formula_units_Z 56
_cell_length_a 28.769003
_cell_length_b 7.698243
_cell_length_c 20.767665
_cell_angle_alpha 90.000000
_cell_angle_beta 145.720370
_cell_angle_gamma 90.000000
_cell_volume 2590.548108
_symmetry_space_group_name_H-M "C 2/M"
_symmetry_group_IT_number 12
_symmetry_cell_setting 'monoclinic'
loop_
_space_group_symop_operation_xyz
x,y,z
-x,y,-z
-x,-y,-z
x,-y,z
1/2+x,1/2+y,z
1/2-x,1/2+y,-z
1/2-x,1/2-y,-z
1/2+x,1/2-y,z
loop_
_atom_site_type_symbol
_atom_site_label
_atom_site_fract_x
_atom_site_fract_y
_atom_site_fract_z
Si Si1 0.560395 0.205065 0.512776
Si Si2 0.889227 0.711126 0.931979
Si Si3 0.831627 0.790705 0.134398
Si Si4 0.511435 0.701618 0.314656
Si Si5 0.788848 0.210496 0.228814
Si Si6 0.070388 0.710785 0.167512
Si Si7 0.155603 0.195272 0.393592
O O1 0.500000 0.271708 0.500000
O O2 0.540330 0.291208 0.421914
O O3 0.651658 0.232722 0.645284
O O4 0.545370 0.000000 0.487270
O O5 0.888815 0.500000 0.932887
O O6 0.804594 0.771371 0.866461
O O7 0.897242 0.759888 0.866165
O O8 0.974552 0.764661 0.062869
O O9 0.821332 0.728666 0.196431
O O10 0.918510 0.723139 0.205259
O O11 0.837881 0.000000 0.144680
O O12 0.750000 0.750000 0.000000
O O13 0.502598 0.500000 0.284202
O O14 0.584682 0.784446 0.356048
O O15 0.788833 0.000000 0.228252
O O16 0.074670 0.500000 0.176956
O O17 0.122657 0.791893 0.283707
O O18 0.250000 0.250000 0.500000
O O19 0.159203 0.000000 0.422748
#
# Coordination Sequence:
#
# PCOD9199386 Si02
#       7
#     8   8   8   8   8   8   8
#     4  11  23  38  58  87 118 148 189 242 291 334
#     4   8  17  34  59  88 113 146 189 233 284 343
#     4  10  22  38  59  87 119 155 196 237 284 344
#     4  10  23  43  62  82 114 160 200 236 289 353
#     4  10  20  36  60  86 114 153 195 232 282 350
#     4   9  18  37  61  84 115 149 189 238 286 342
#     4  11  25  42  60  84 116 154 198 245 294 349
#
# _framework density 21.617046999999999
#
# number of rings (size 3 to 8) (size 9 to 14) (size 15 to 20)
#    0.000    2.143    1.429    1.714    4.000    2.857 
#    0.000    2.143    0.000    0.000    0.000    0.000 
#    0.000    0.000    0.000    0.000    0.000    0.000 
#
# Total GULP energy -156346.093635 kJ/mol
# GULP energy per Si atom -5583.789058 kJ/mol
# Density = 2.156785 g / cm^3
# Si number density = 21.617047 Si / 1000 Ang^3
#
#
#
# Elastic Constant Matrix: (Units=GPa)
#
#
# Indices 1 2 3 4 5 6 
#
# 1 102.5402 9.0300 73.2728 0.0000 44.6283 0.0000
# 2 9.0300 33.5805 -8.4539 0.0000 11.6021 0.0000
# 3 73.2728 -8.4539 155.7203 0.0000 29.1840 0.0000
# 4 0.0000 0.0000 0.0000 20.5363 0.0000 -8.0775
# 5 44.6283 11.6021 29.1840 0.0000 41.2766 0.0000
# 6 0.0000 0.0000 0.0000 -8.0775 0.0000 5.7857
#
#
#
# Elastic Compliance Matrix: (Units=1/GPa)
#
#
# Indices 1 2 3 4 5 6 
#
# 1 0.024207 -0.001396 -0.007648 0.000000 -0.020373 0.000000
# 2 -0.001396 0.035459 0.004803 0.000000 -0.011854 0.000000
# 3 -0.007648 0.004803 0.010357 0.000000 -0.000404 0.000000
# 4 0.000000 0.000000 0.000000 0.108001 0.000000 0.150781
# 5 -0.020373 -0.011854 -0.000404 0.000000 0.049872 0.000000
# 6 0.000000 0.000000 0.000000 0.150781 0.000000 0.383347
#
#
# Mechanical properties :
#
#
# Convention : Reuss Voigt Hill
#
# Bulk Modulus (GPa) = 16.24893 48.83763 32.54328
# Shear Modulus (GPa) = 7.80960 28.05256 17.93108
#
# Velocity S-wave (km/s) = 1.90277 3.60628 2.88321
# Velocity P-wave (km/s) = 3.51574 6.32310 5.11576
#
# Compressibility (1/GPa) = 0.06154252
#
# Stress axis : x y z
#
# Youngs Moduli (GPa) = 41.30989 28.20126 96.55337
#
# Poissons Ratio (x) = 0.03937 0.73845
# Poissons Ratio (y) = 0.05767 -0.46379
# Poissons Ratio (z) = 0.31594 -0.13546
#
# Static dielectric constant tensor:
#      x y z
#    x 1.808430 0.000000 0.048590 
#    y 0.000000 1.831270 0.000000 
#    z 0.048590 0.000000 1.750590 
# 
# From -- ./inp_files/329677.got.cif
#   From: 2010.05.17/outbox.cif.g08.bks.cpg/sg12_165_cif.got.tgz:329677.got - 2010.06.03 13:09:07.
