data_PCOD9199971
_publ_section_title
;
Structure prediction by ZEFSAII (Michael W. Deem and Ramdas Pophale) SiO2 
 PCOD9199971
Probable space group: C 2/M
;
_chemical_formula_sum "Si O2"
_cell_formula_units_Z 50
_cell_length_a 18.227786
_cell_length_b 20.968944
_cell_length_c 11.817721
_cell_angle_alpha 90.000000
_cell_angle_beta 35.595061
_cell_angle_gamma 90.000000
_cell_volume 2629.097269
_symmetry_space_group_name_H-M "C 2/M"
_symmetry_group_IT_number 12
_symmetry_cell_setting 'monoclinic'
loop_
_space_group_symop_operation_xyz
x,y,z
-x,y,-z
-x,-y,-z
x,-y,z
1/2+x,1/2+y,z
1/2-x,1/2+y,-z
1/2-x,1/2-y,-z
1/2+x,1/2-y,z
loop_
_atom_site_type_symbol
_atom_site_label
_atom_site_fract_x
_atom_site_fract_y
_atom_site_fract_z
Si Si1 0.296404 0.396869 0.157396
Si Si2 0.712620 0.341905 0.486853
Si Si3 0.138939 0.073999 0.377064
Si Si4 0.865992 0.226872 0.199504
Si Si5 0.100710 0.425080 0.595805
Si Si6 0.500000 0.500000 0.000000
Si Si7 0.692890 0.922969 0.042476
O O1 0.325743 0.324503 0.156820
O O2 0.173860 0.417393 0.385166
O O3 0.408399 0.443937 0.057162
O O4 0.264512 0.401536 0.065541
O O5 0.644730 0.388168 0.485793
O O6 0.767676 0.282256 0.348928
O O7 0.626109 0.314238 0.694760
O O8 0.823650 0.381220 0.410432
O O9 0.000000 0.077380 0.500000
O O10 0.168881 0.000000 0.362473
O O11 0.237690 0.098626 0.159247
O O12 0.000000 0.255400 0.000000
O O13 0.107959 0.500000 0.619405
O O14 0.954744 0.405786 0.770658
O O15 0.699220 0.000000 0.034893
#
# Coordination Sequence:
#
# PCOD9199971 Si02
#       7
#     8   8   8   8   8   2   8
#     4  11  21  37  59  96 125 155 203 250 307 363
#     4  10  23  42  61  87 122 156 210 246 293 373
#     4  10  23  41  62  92 123 162 195 252 316 360
#     4  10  23  40  62  88 116 162 204 255 298 348
#     4  10  20  36  62  93 119 158 196 251 307 348
#     4  12  20  32  62  96 122 168 196 254 316 346
#     4  10  21  36  58  90 127 155 192 244 306 369
#
# _framework density 19.017932999999999
#
# number of rings (size 3 to 8) (size 9 to 14) (size 15 to 20)
#    0.000    1.760    2.400    0.960    4.480    1.280 
#    5.760    8.000    0.000    0.000    0.000    0.000 
#    0.000    0.000    0.000    0.000    0.000    0.000 
#
# Total GULP energy -139329.964815 kJ/mol
# GULP energy per Si atom -5573.198593 kJ/mol
# Density = 1.897465 g / cm^3
# Si number density = 19.017933 Si / 1000 Ang^3
#
#
#
# Elastic Constant Matrix: (Units=GPa)
#
#
# Indices 1 2 3 4 5 6 
#
# 1 62.5226 18.3694 -3.3064 0.0001 6.0585 -0.0001
# 2 18.3694 45.7308 -3.5634 -0.0001 5.5362 0.0000
# 3 -3.3064 -3.5634 41.5362 0.0000 -7.8534 -0.0002
# 4 0.0001 -0.0001 0.0000 4.3917 -0.0001 13.8938
# 5 6.0585 5.5362 -7.8534 -0.0001 10.7157 0.0001
# 6 -0.0001 0.0000 -0.0002 13.8938 0.0001 21.5977
#
#
#
# Elastic Compliance Matrix: (Units=1/GPa)
#
#
# Indices 1 2 3 4 5 6 
#
# 1 0.018638 -0.006619 -0.000499 0.000001 -0.007484 0.000000
# 2 -0.006619 0.025681 -0.000145 0.000000 -0.009631 0.000000
# 3 -0.000499 -0.000145 0.027966 0.000000 0.020853 0.000000
# 4 0.000001 0.000000 0.000000 -0.219962 -0.000003 0.141502
# 5 -0.007484 -0.009631 0.020853 -0.000003 0.117810 0.000002
# 6 0.000000 0.000000 0.000000 0.141502 0.000002 -0.044727
#
#
# Mechanical properties :
#
#
# Convention : Reuss Voigt Hill
#
# Bulk Modulus (GPa) = 17.31375 19.19875 18.25625
# Shear Modulus (GPa) = -122.50572 16.56036 -52.97268
#
# Velocity S-wave (km/s) = -8.03466 2.95409 -5.28342
# Velocity P-wave (km/s) = 8.77215 4.66396 5.25348
#
# Compressibility (1/GPa) = 0.05775757
#
# Stress axis : x y z
#
# Youngs Moduli (GPa) = 53.65443 38.93968 35.75773
#
# Poissons Ratio (x) = 0.25776 0.01785
# Poissons Ratio (y) = 0.35516 0.00518
# Poissons Ratio (z) = 0.02679 0.00564
#
# Static dielectric constant tensor:
#      x y z
#    x 1.622750 0.000000 0.007270 
#    y 0.000000 1.651170 0.000000 
#    z 0.007270 0.000000 1.675260 
# 
# From -- ./inp_files/148870.got.cif
#   From: 2010.05.17/outbox.cif.g08.bks.cpg/sg12_75_cif.got.tgz:148870.got - 2010.06.03 13:09:07.
