data_PCOD9199992
_publ_section_title
;
Structure prediction by ZEFSAII (Michael W. Deem and Ramdas Pophale) SiO2 
 PCOD9199992
Probable space group: C 2/M
;
_chemical_formula_sum "Si O2"
_cell_formula_units_Z 64
_cell_length_a 9.360822
_cell_length_b 28.678164
_cell_length_c 18.690840
_cell_angle_alpha 90.000000
_cell_angle_beta 139.497925
_cell_angle_gamma 90.000000
_cell_volume 3258.794552
_symmetry_space_group_name_H-M "C 2/M"
_symmetry_group_IT_number 12
_symmetry_cell_setting 'monoclinic'
loop_
_space_group_symop_operation_xyz
x,y,z
-x,y,-z
-x,-y,-z
x,-y,z
1/2+x,1/2+y,z
1/2-x,1/2+y,-z
1/2-x,1/2-y,-z
1/2+x,1/2-y,z
loop_
_atom_site_type_symbol
_atom_site_label
_atom_site_fract_x
_atom_site_fract_y
_atom_site_fract_z
Si Si1 0.591326 0.823883 0.614937
Si Si2 0.252953 0.220531 0.889839
Si Si3 0.743930 0.852511 0.386209
Si Si4 0.932453 0.447686 0.740657
Si Si5 0.049207 0.875166 0.819925
Si Si6 0.686796 0.771261 0.251708
Si Si7 0.148340 0.446145 0.127380
Si Si8 0.931798 0.948253 0.892496
O O1 0.500000 0.827596 0.500000
O O2 0.410932 0.840067 0.604784
O O3 0.812944 0.854425 0.708507
O O4 0.668780 0.770812 0.660298
O O5 0.223254 0.219067 0.792916
O O6 0.206618 0.168138 0.897996
O O7 0.064092 0.253199 0.849468
O O8 0.500000 0.235803 0.000000
O O9 0.701999 0.904959 0.342779
O O10 0.687137 0.816166 0.301770
O O11 0.000000 0.846295 0.500000
O O12 0.836954 0.500000 0.695062
O O13 0.967676 0.441254 0.839721
O O14 0.168315 0.447155 0.792154
O O15 0.022510 0.908304 0.877538
O O16 0.158793 0.908157 0.802268
O O17 0.224688 0.500000 0.152711
O O18 0.000000 0.438219 0.000000
O O19 0.008550 0.000000 0.898967
O O20 0.000000 0.941896 0.000000
#
# Coordination Sequence:
#
# PCOD9199992 Si02
#       8
#     8   8   8   8   8   8   8   8
#     4  11  26  45  64  94 125 163 219 278 328 379
#     4  11  24  42  64  97 135 176 203 256 319 394
#     4  12  26  43  71  94 121 170 218 274 331 380
#     4  10  22  41  62  95 136 166 211 266 322 394
#     4  11  22  39  61  93 131 166 214 265 317 391
#     4  11  24  45  69  96 132 163 218 268 318 384
#     4  10  20  36  62  94 129 169 213 261 313 378
#     4  10  20  37  64  94 129 173 215 264 319 382
#
# _framework density 19.639164000000001
#
# number of rings (size 3 to 8) (size 9 to 14) (size 15 to 20)
#    0.000    1.250    2.500    3.000    5.250    4.250 
#    0.000    1.875    0.000    1.875    0.000    0.000 
#    0.000    0.000    0.000    0.000    0.000    0.000 
#
# Total GULP energy -178856.675044 kJ/mol
# GULP energy per Si atom -5589.271095 kJ/mol
# Density = 1.959446 g / cm^3
# Si number density = 19.639164 Si / 1000 Ang^3
#
#
#
# Elastic Constant Matrix: (Units=GPa)
#
#
# Indices 1 2 3 4 5 6 
#
# 1 89.9872 35.3168 3.0924 0.0000 -1.7050 0.0001
# 2 35.3168 125.4946 22.9668 0.0000 -0.3390 -0.0003
# 3 3.0924 22.9668 42.8965 -0.0002 4.6182 0.0011
# 4 0.0000 0.0000 -0.0002 25.6382 -0.0001 -2.7242
# 5 -1.7050 -0.3390 4.6182 -0.0001 35.2021 0.0004
# 6 0.0001 -0.0003 0.0011 -2.7242 0.0004 21.6284
#
#
#
# Elastic Compliance Matrix: (Units=1/GPa)
#
#
# Indices 1 2 3 4 5 6 
#
# 1 0.012545 -0.003720 0.001040 0.000000 0.000435 0.000000
# 2 -0.003720 0.009955 -0.005125 0.000000 0.000588 0.000000
# 3 0.001040 -0.005125 0.026353 0.000000 -0.003456 -0.000001
# 4 0.000000 0.000000 0.000000 0.039533 0.000000 0.004979
# 5 0.000435 0.000588 -0.003456 0.000000 0.028888 0.000000
# 6 0.000000 0.000000 -0.000001 0.004979 0.000000 0.046863
#
#
# Mechanical properties :
#
#
# Convention : Reuss Voigt Hill
#
# Bulk Modulus (GPa) = 30.08057 42.34784 36.21421
# Shear Modulus (GPa) = 26.20184 29.62724 27.91454
#
# Velocity S-wave (km/s) = 3.65658 3.88826 3.77420
# Velocity P-wave (km/s) = 5.75998 6.46280 6.12148
#
# Compressibility (1/GPa) = 0.03324405
#
# Stress axis : x y z
#
# Youngs Moduli (GPa) = 79.71295 100.45445 37.94643
#
# Poissons Ratio (x) = 0.37365 -0.03947
# Poissons Ratio (y) = 0.29650 0.19447
# Poissons Ratio (z) = -0.08292 0.51482
#
# Static dielectric constant tensor:
#      x y z
#    x 1.692530 0.000000 0.019290 
#    y 0.000000 1.677960 0.000000 
#    z 0.019290 0.000000 1.672220 
# 
# From -- ./inp_files/260344.got.cif
#   From: 2010.05.17/outbox.cif.g08.bks.cpg/sg12_131_cif.got.tgz:260344.got - 2010.06.03 13:09:07.
