data_PCOD9199106
_publ_section_title
;
Structure prediction by ZEFSAII (Michael W. Deem and Ramdas Pophale) SiO2 
 PCOD9199106
Probable space group: C 2/M
;
_chemical_formula_sum "Si O2"
_cell_formula_units_Z 48
_cell_length_a 19.895693
_cell_length_b 14.419135
_cell_length_c 10.339195
_cell_angle_alpha 90.000000
_cell_angle_beta 49.890839
_cell_angle_gamma 90.000000
_cell_volume 2268.523770
_symmetry_space_group_name_H-M "C 2/M"
_symmetry_group_IT_number 12
_symmetry_cell_setting 'monoclinic'
loop_
_space_group_symop_operation_xyz
x,y,z
-x,y,-z
-x,-y,-z
x,-y,z
1/2+x,1/2+y,z
1/2-x,1/2+y,-z
1/2-x,1/2-y,-z
1/2+x,1/2-y,z
loop_
_atom_site_type_symbol
_atom_site_label
_atom_site_fract_x
_atom_site_fract_y
_atom_site_fract_z
Si Si1 0.117460 0.275604 0.244009
Si Si2 0.408491 0.718421 0.161550
Si Si3 0.745934 0.893887 0.430927
Si Si4 0.722064 0.607613 0.044765
Si Si5 0.312561 0.893188 0.212671
Si Si6 0.926622 0.296708 0.418280
O O1 0.142998 0.181857 0.135772
O O2 0.099043 0.249209 0.415182
O O3 0.028548 0.323358 0.303933
O O4 0.197957 0.346910 0.133879
O O5 0.317835 0.662787 0.261999
O O6 0.390161 0.817733 0.116275
O O7 0.418498 0.734675 0.301958
O O8 0.500000 0.677026 0.000000
O O9 0.742703 0.869787 0.588653
O O10 0.646363 0.875776 0.509273
O O11 0.769543 0.000000 0.390099
O O12 0.704090 0.500000 0.034971
O O13 0.756943 0.611855 0.150428
O O14 0.342904 0.000000 0.189630
#
# Coordination Sequence:
#
# PCOD9199106 Si02
#       6
#     8   8   8   8   8   8
#     4  10  21  37  57  82 114 151 185 224 272 326
#     4  11  21  35  58  85 112 143 182 232 283 327
#     4  10  21  37  58  82 111 148 186 227 276 328
#     4  10  20  36  59  86 114 144 183 229 277 327
#     4   9  18  35  60  85 109 142 185 230 274 323
#     4  10  21  38  57  78 111 151 189 226 270 327
#
# _framework density 21.159134999999999
#
# number of rings (size 3 to 8) (size 9 to 14) (size 15 to 20)
#    0.000    2.000    0.000    5.000    0.000    3.333 
#    0.000    7.500    0.000    1.000    0.000    0.000 
#    0.000    0.000    0.000    0.000    0.000    0.000 
#
# Total GULP energy -133946.518305 kJ/mol
# GULP energy per Si atom -5581.104929 kJ/mol
# Density = 2.111098 g / cm^3
# Si number density = 21.159135 Si / 1000 Ang^3
#
#
#
# Elastic Constant Matrix: (Units=GPa)
#
#
# Indices 1 2 3 4 5 6 
#
# 1 56.5697 4.1460 20.1088 0.0000 -6.0353 0.0000
# 2 4.1460 66.3611 36.5708 0.0000 -5.6552 0.0000
# 3 20.1088 36.5708 93.1344 0.0000 -6.8013 0.0000
# 4 0.0000 0.0000 0.0000 6.9881 0.0000 5.3044
# 5 -6.0353 -5.6552 -6.8013 0.0000 20.6374 0.0000
# 6 0.0000 0.0000 0.0000 5.3044 0.0000 14.3080
#
#
#
# Elastic Compliance Matrix: (Units=1/GPa)
#
#
# Indices 1 2 3 4 5 6 
#
# 1 0.019680 0.001690 -0.004569 0.000000 0.004713 0.000000
# 2 0.001690 0.019540 -0.007798 0.000000 0.003279 0.000000
# 3 -0.004569 -0.007798 0.014890 0.000000 0.001434 0.000000
# 4 0.000000 0.000000 0.000000 0.199139 0.000000 -0.073827
# 5 0.004713 0.003279 0.001434 0.000000 0.051205 0.000000
# 6 0.000000 0.000000 0.000000 -0.073827 0.000000 0.097261
#
#
# Mechanical properties :
#
#
# Convention : Reuss Voigt Hill
#
# Bulk Modulus (GPa) = 30.52784 37.52403 34.02593
# Shear Modulus (GPa) = 11.52101 18.73601 15.12851
#
# Velocity S-wave (km/s) = 2.33597 2.97893 2.67683
# Velocity P-wave (km/s) = 4.66205 5.44102 5.06653
#
# Compressibility (1/GPa) = 0.03275698
#
# Stress axis : x y z
#
# Youngs Moduli (GPa) = 50.81240 51.17588 67.15714
#
# Poissons Ratio (x) = -0.08647 0.30681
# Poissons Ratio (y) = -0.08586 0.52371
# Poissons Ratio (z) = 0.23214 0.39908
#
# Static dielectric constant tensor:
#      x y z
#    x 1.819430 0.000000 0.020170 
#    y 0.000000 1.731990 0.000000 
#    z 0.020170 0.000000 1.774830 
# 
# From -- ./inp_files/167535.got.cif
#   From: 2010.05.17/outbox.cif.g08.bks.cpg/sg12_84_cif.got.tgz:167535.got - 2010.06.03 13:09:07.
