data_PCOD9199245
_publ_section_title
;
Structure prediction by ZEFSAII (Michael W. Deem and Ramdas Pophale) SiO2 
 PCOD9199245
Probable space group: C 2/M
;
_chemical_formula_sum "Si O2"
_cell_formula_units_Z 52
_cell_length_a 22.658906
_cell_length_b 17.293968
_cell_length_c 12.312144
_cell_angle_alpha 90.000000
_cell_angle_beta 144.870691
_cell_angle_gamma 90.000000
_cell_volume 2776.227259
_symmetry_space_group_name_H-M "C 2/M"
_symmetry_group_IT_number 12
_symmetry_cell_setting 'monoclinic'
loop_
_space_group_symop_operation_xyz
x,y,z
-x,y,-z
-x,-y,-z
x,-y,z
1/2+x,1/2+y,z
1/2-x,1/2+y,-z
1/2-x,1/2-y,-z
1/2+x,1/2-y,z
loop_
_atom_site_type_symbol
_atom_site_label
_atom_site_fract_x
_atom_site_fract_y
_atom_site_fract_z
Si Si1 0.000000 0.345438 0.500000
Si Si2 0.777908 0.150056 0.398951
Si Si3 0.606388 0.500000 0.518382
Si Si4 0.787764 0.367380 0.112907
Si Si5 0.132584 0.000000 0.817871
Si Si6 0.581070 0.091947 0.221888
Si Si7 0.323483 0.234571 0.951399
Si Si8 0.046323 0.725023 0.337167
O O1 0.900345 0.394500 0.317401
O O2 0.970150 0.292004 0.559189
O O3 0.695568 0.119455 0.361679
O O4 0.706935 0.184971 0.197321
O O5 0.858904 0.218474 0.546505
O O6 0.842101 0.076612 0.453140
O O7 0.626561 0.500000 0.678048
O O8 0.484068 0.500000 0.316875
O O9 0.749111 0.308036 0.145657
O O10 0.699129 0.427816 0.957511
O O11 0.804132 0.319088 0.027163
O O12 0.552902 0.143617 0.283496
O O13 0.579110 0.000000 0.239919
O O14 0.500000 0.105731 0.000000
O O15 0.440656 0.261249 0.133821
#
# Coordination Sequence:
#
# PCOD9199245 Si02
#       8
#     4   8   4   8   4   8   8   8
#     4  10  22  39  60  95 124 162 208 246 316 377
#     4  12  21  41  65  88 126 159 213 262 313 367
#     4  11  24  36  59  97 117 170 214 267 308 360
#     4  10  20  37  55  87 129 168 200 257 304 380
#     4  11  22  37  58  89 131 166 212 256 314 370
#     4  11  24  43  66  93 125 162 211 268 311 363
#     4  10  20  36  59  88 123 164 209 250 311 368
#     4  11  23  40  65  94 125 171 206 254 318 380
#
# _framework density 18.730456
#
# number of rings (size 3 to 8) (size 9 to 14) (size 15 to 20)
#    0.000    1.231    5.385    1.385    0.000    1.538 
#    6.923    0.000    0.000    0.000    0.000    2.692 
#    0.000    0.000    0.000    0.000    0.000    0.000 
#
# Total GULP energy -145054.365108 kJ/mol
# GULP energy per Si atom -5579.014043 kJ/mol
# Density = 1.868782 g / cm^3
# Si number density = 18.730456 Si / 1000 Ang^3
#
#
#
# Elastic Constant Matrix: (Units=GPa)
#
#
# Indices 1 2 3 4 5 6 
#
# 1 69.8069 28.6753 27.3172 0.0000 13.3917 0.0000
# 2 28.6753 81.1944 38.1706 0.0000 -0.5515 0.0000
# 3 27.3172 38.1706 123.9618 0.0000 29.0978 0.0000
# 4 0.0000 0.0000 0.0000 44.0181 0.0000 20.0504
# 5 13.3917 -0.5515 29.0978 0.0000 27.3810 0.0000
# 6 0.0000 0.0000 0.0000 20.0504 0.0000 26.8494
#
#
#
# Elastic Compliance Matrix: (Units=1/GPa)
#
#
# Indices 1 2 3 4 5 6 
#
# 1 0.018893 -0.006825 0.000186 0.000000 -0.009575 0.000000
# 2 -0.006825 0.017841 -0.006472 0.000000 0.010575 0.000000
# 3 0.000186 -0.006472 0.013418 0.000000 -0.014480 0.000000
# 4 0.000000 0.000000 0.000000 0.034429 0.000000 -0.025711
# 5 -0.009575 0.010575 -0.014480 0.000000 0.056806 0.000000
# 6 0.000000 0.000000 0.000000 -0.025711 0.000000 0.056445
#
#
# Mechanical properties :
#
#
# Convention : Reuss Voigt Hill
#
# Bulk Modulus (GPa) = 41.78901 51.47658 46.63280
# Shear Modulus (GPa) = 21.54892 31.70304 26.62598
#
# Velocity S-wave (km/s) = 3.39554 4.11858 3.77441
# Velocity P-wave (km/s) = 6.14265 7.08233 6.62916
#
# Compressibility (1/GPa) = 0.02392973
#
# Stress axis : x y z
#
# Youngs Moduli (GPa) = 52.92993 56.05141 74.52688
#
# Poissons Ratio (x) = 0.38253 -0.01384
# Poissons Ratio (y) = 0.36123 0.48233
# Poissons Ratio (z) = -0.00983 0.36276
#
# Static dielectric constant tensor:
#      x y z
#    x 1.653770 0.000000 0.015960 
#    y 0.000000 1.632170 0.000000 
#    z 0.015960 0.000000 1.650680 
# 
# From -- ./inp_files/168862.got.cif
#   From: 2010.05.17/outbox.cif.g08.bks.cpg/sg12_85_cif.got.tgz:168862.got - 2010.06.03 13:09:07.
