data_PCOD9199000
_publ_section_title
;
Structure prediction by ZEFSAII (Michael W. Deem and Ramdas Pophale) SiO2 
 PCOD9199000
Probable space group: C 2/M
;
_chemical_formula_sum "Si O2"
_cell_formula_units_Z 64
_cell_length_a 15.038247
_cell_length_b 7.495965
_cell_length_c 21.791623
_cell_angle_alpha 90.000000
_cell_angle_beta 84.286911
_cell_angle_gamma 90.000000
_cell_volume 2444.284544
_symmetry_space_group_name_H-M "C 2/M"
_symmetry_group_IT_number 12
_symmetry_cell_setting 'monoclinic'
loop_
_space_group_symop_operation_xyz
x,y,z
-x,y,-z
-x,-y,-z
x,-y,z
1/2+x,1/2+y,z
1/2-x,1/2+y,-z
1/2-x,1/2-y,-z
1/2+x,1/2-y,z
loop_
_atom_site_type_symbol
_atom_site_label
_atom_site_fract_x
_atom_site_fract_y
_atom_site_fract_z
Si Si1 0.971549 0.282917 0.265557
Si Si2 0.082047 0.791380 0.956296
Si Si3 0.453814 0.216065 0.862910
Si Si4 0.161782 0.697179 0.542825
Si Si5 0.276572 0.786932 0.231440
Si Si6 0.766389 0.707073 0.905574
Si Si7 0.713433 0.789613 0.365311
Si Si8 0.481844 0.780567 0.600484
O O1 0.971550 0.500000 0.266896
O O2 0.873833 0.226303 0.248964
O O3 0.041022 0.227431 0.207999
O O4 0.995299 0.223154 0.331715
O O5 0.181583 0.713065 0.947093
O O6 0.042926 0.777858 0.890390
O O7 0.088613 0.000000 0.972123
O O8 0.000000 0.708373 0.000000
O O9 0.365778 0.284328 0.904012
O O10 0.452073 0.000000 0.864499
O O11 0.142269 0.500000 0.521746
O O12 0.250000 0.750000 0.500000
O O13 0.201054 0.698321 0.609577
O O14 0.064335 0.784877 0.553232
O O15 0.252849 0.712722 0.166366
O O16 0.211700 0.739556 0.292514
O O17 0.279030 0.000000 0.224420
O O18 0.770894 0.500000 0.922898
O O19 0.620717 0.726970 0.402699
O O20 0.723466 0.000000 0.375739
O O21 0.482348 0.000000 0.599379
#
# Coordination Sequence:
#
# PCOD9199000 Si02
#       8
#     8   8   8   8   8   8   8   8
#     4   9  16  31  56  83 110 143 181 225 275 331
#     4  10  22  39  56  79 114 150 187 240 296 335
#     4  10  20  36  59  84 110 147 192 233 277 343
#     4  11  23  42  63  85 116 155 197 241 286 334
#     4  11  20  34  59  88 118 150 185 230 286 341
#     4  10  21  37  58  83 113 149 190 233 283 342
#     4  11  22  38  62  90 116 150 194 236 282 341
#     4   9  19  37  61  84 114 155 191 224 277 346
#
# _framework density 26.183530999999999
#
# number of rings (size 3 to 8) (size 9 to 14) (size 15 to 20)
#    0.000    1.875    2.500    1.875    0.000    3.750 
#    0.000    5.000    0.000    0.000    0.000    0.000 
#    0.000    0.000    0.000    0.000    0.000    0.000 
#
# Total GULP energy -178994.817613 kJ/mol
# GULP energy per Si atom -5593.588050 kJ/mol
# Density = 2.612394 g / cm^3
# Si number density = 26.183531 Si / 1000 Ang^3
#
#
#
# Elastic Constant Matrix: (Units=GPa)
#
#
# Indices 1 2 3 4 5 6 
#
# 1 174.2805 8.8037 34.4815 0.0000 -33.6757 0.0000
# 2 8.8037 86.1606 3.4264 0.0000 -5.0148 0.0000
# 3 34.4815 3.4264 102.8004 0.0000 -22.5709 0.0000
# 4 0.0000 0.0000 0.0000 20.2110 0.0000 5.1024
# 5 -33.6757 -5.0148 -22.5709 0.0000 63.6954 0.0000
# 6 0.0000 0.0000 0.0000 5.1024 0.0000 4.5923
#
#
#
# Elastic Compliance Matrix: (Units=1/GPa)
#
#
# Indices 1 2 3 4 5 6 
#
# 1 0.006635 -0.000446 -0.001570 0.000000 0.002916 0.000000
# 2 -0.000446 0.011694 -0.000097 0.000000 0.000650 0.000000
# 3 -0.001570 -0.000097 0.010923 0.000000 0.003033 0.000000
# 4 0.000000 0.000000 0.000000 0.068767 0.000000 -0.076406
# 5 0.002916 0.000650 0.003033 0.000000 0.018367 0.000000
# 6 0.000000 0.000000 0.000000 -0.076406 0.000000 0.302650
#
#
# Mechanical properties :
#
#
# Convention : Reuss Voigt Hill
#
# Bulk Modulus (GPa) = 39.96052 50.74053 45.35052
# Shear Modulus (GPa) = 11.58467 38.80174 25.19321
#
# Velocity S-wave (km/s) = 2.10571 3.85374 3.10526
# Velocity P-wave (km/s) = 4.60509 6.26280 5.49679
#
# Compressibility (1/GPa) = 0.02502470
#
# Stress axis : x y z
#
# Youngs Moduli (GPa) = 150.72620 85.51755 91.54626
#
# Poissons Ratio (x) = 0.03812 0.14375
# Poissons Ratio (y) = 0.06718 0.00892
# Poissons Ratio (z) = 0.23668 0.00833
#
# Static dielectric constant tensor:
#      x y z
#    x 2.049140 0.000000 -0.038500 
#    y 0.000000 1.985920 0.000000 
#    z -0.038500 0.000000 2.102200 
# 
# From -- ./inp_files/359835.got.cif
#   From: 2010.05.17/outbox.cif.g08.bks.cpg/sg12_180_cif.got.tgz:359835.got - 2010.06.03 13:09:07.
