data_PCOD9199819
_publ_section_title
;
Structure prediction by ZEFSAII (Michael W. Deem and Ramdas Pophale) SiO2 
 PCOD9199819
Probable space group: C 2/M
;
_chemical_formula_sum "Si O2"
_cell_formula_units_Z 24
_cell_length_a 25.885724
_cell_length_b 7.854234
_cell_length_c 8.638872
_cell_angle_alpha 90.000000
_cell_angle_beta 48.206004
_cell_angle_gamma 90.000000
_cell_volume 1309.469971
_symmetry_space_group_name_H-M "C 2/M"
_symmetry_group_IT_number 12
_symmetry_cell_setting 'monoclinic'
loop_
_space_group_symop_operation_xyz
x,y,z
-x,y,-z
-x,-y,-z
x,-y,z
1/2+x,1/2+y,z
1/2-x,1/2+y,-z
1/2-x,1/2-y,-z
1/2+x,1/2-y,z
loop_
_atom_site_type_symbol
_atom_site_label
_atom_site_fract_x
_atom_site_fract_y
_atom_site_fract_z
Si Si1 0.578162 0.000000 0.780431
Si Si2 0.173711 0.806975 0.707837
Si Si3 0.187476 0.690811 0.017553
Si Si4 0.423417 0.000000 0.586100
O O1 0.619151 0.832894 0.757529
O O2 0.577532 0.000000 0.595958
O O3 0.500000 0.000000 0.000000
O O4 0.250000 0.750000 0.500000
O O5 0.174665 0.801836 0.892782
O O6 0.159335 0.000000 0.683952
O O7 0.204388 0.500000 0.923613
O O8 0.250000 0.750000 0.000000
O O9 0.119897 0.659596 0.258264
O O10 0.500000 0.000000 0.500000
#
# Coordination Sequence:
#
# PCOD9199819 Si02
#       4
#     4   8   8   4
#     4  12  24  44  68  96 135 170 215 274 326 390
#     4  12  23  40  67  96 130 171 219 267 325 386
#     4  10  20  36  61  92 127 164 214 262 318 378
#     4  10  22  40  64  88 127 174 207 260 332 380
#
# _framework density 18.328026000000001
#
# number of rings (size 3 to 8) (size 9 to 14) (size 15 to 20)
#    1.000    0.000    3.333    5.000    0.000    0.667 
#    0.000    1.667    0.000    7.000    0.000    0.000 
#    0.000    0.000    0.000    0.000    0.000    0.000 
#
# Total GULP energy -66954.381024 kJ/mol
# GULP energy per Si atom -5579.531752 kJ/mol
# Density = 1.828631 g / cm^3
# Si number density = 18.328026 Si / 1000 Ang^3
#
#
#
# Elastic Constant Matrix: (Units=GPa)
#
#
# Indices 1 2 3 4 5 6 
#
# 1 158.9233 56.7869 86.0026 0.0000 -8.1763 0.0000
# 2 56.7869 146.6244 40.9327 0.0000 -15.2438 0.0000
# 3 86.0026 40.9327 163.1682 0.0000 -7.1753 0.0000
# 4 0.0000 0.0000 0.0000 28.8661 0.0000 -1.4996
# 5 -8.1763 -15.2438 -7.1753 0.0000 48.6944 0.0000
# 6 0.0000 0.0000 0.0000 -1.4996 0.0000 38.9869
#
#
#
# Elastic Compliance Matrix: (Units=1/GPa)
#
#
# Indices 1 2 3 4 5 6 
#
# 1 0.009571 -0.002453 -0.004421 0.000000 0.000188 0.000000
# 2 -0.002453 0.008169 -0.000666 0.000000 0.002047 0.000000
# 3 -0.004421 -0.000666 0.008640 0.000000 0.000322 0.000000
# 4 0.000000 0.000000 0.000000 0.034712 0.000000 0.001335
# 5 0.000188 0.002047 0.000322 0.000000 0.021256 0.000000
# 6 0.000000 0.000000 0.000000 0.001335 0.000000 0.025701
#
#
# Mechanical properties :
#
#
# Convention : Reuss Voigt Hill
#
# Bulk Modulus (GPa) = 88.50016 92.90670 90.70343
# Shear Modulus (GPa) = 39.40207 42.30906 40.85557
#
# Velocity S-wave (km/s) = 4.64165 4.80983 4.72649
# Velocity P-wave (km/s) = 8.78170 9.03588 8.90969
#
# Compressibility (1/GPa) = 0.01129941
#
# Stress axis : x y z
#
# Youngs Moduli (GPa) = 104.48195 122.41295 115.73789
#
# Poissons Ratio (x) = 0.30029 0.51168
# Poissons Ratio (y) = 0.25630 0.07712
# Poissons Ratio (z) = 0.46192 0.08156
#
# Static dielectric constant tensor:
#      x y z
#    x 1.599660 0.000000 0.019280 
#    y 0.000000 1.666070 0.000000 
#    z 0.019280 0.000000 1.630300 
# 
# From -- ./inp_files/92014.got.cif
#   From: 2010.05.17/outbox.cif.g08.bks.cpg/sg12_47_cif.got.tgz:92014.got - 2010.06.03 13:09:07.
