data_PCOD9199854
_publ_section_title
;
Structure prediction by ZEFSAII (Michael W. Deem and Ramdas Pophale) SiO2 
 PCOD9199854
Probable space group: C 2/M
;
_chemical_formula_sum "Si O2"
_cell_formula_units_Z 56
_cell_length_a 17.377928
_cell_length_b 13.374779
_cell_length_c 13.536594
_cell_angle_alpha 90.000000
_cell_angle_beta 44.850757
_cell_angle_gamma 90.000000
_cell_volume 2218.936222
_symmetry_space_group_name_H-M "C 2/M"
_symmetry_group_IT_number 12
_symmetry_cell_setting 'monoclinic'
loop_
_space_group_symop_operation_xyz
x,y,z
-x,y,-z
-x,-y,-z
x,-y,z
1/2+x,1/2+y,z
1/2-x,1/2+y,-z
1/2-x,1/2-y,-z
1/2+x,1/2-y,z
loop_
_atom_site_type_symbol
_atom_site_label
_atom_site_fract_x
_atom_site_fract_y
_atom_site_fract_z
Si Si1 0.012148 0.779182 0.765169
Si Si2 0.878589 0.607460 0.063948
Si Si3 0.127161 0.606443 0.166398
Si Si4 0.906537 0.825789 0.508753
Si Si5 0.796406 0.388254 0.616046
Si Si6 0.188660 0.610020 0.627595
Si Si7 0.338737 0.329054 0.085492
O O1 0.937452 0.708162 0.761563
O O2 0.054874 0.848609 0.639270
O O3 0.948202 0.825387 0.917450
O O4 0.000000 0.616048 0.000000
O O5 0.834756 0.500000 0.136276
O O6 0.895453 0.701193 0.282476
O O7 0.820294 0.713003 0.127879
O O8 0.880373 0.600162 0.944206
O O9 0.086512 0.500000 0.244203
O O10 0.247630 0.625316 0.096433
O O11 0.874980 0.708018 0.559700
O O12 0.788804 0.878421 0.610408
O O13 0.000000 0.856869 0.500000
O O14 0.842994 0.500000 0.591163
O O15 0.772480 0.381548 0.521351
O O16 0.689831 0.380524 0.783827
O O17 0.136026 0.500000 0.683036
#
# Coordination Sequence:
#
# PCOD9199854 Si02
#       7
#     8   8   8   8   8   8   8
#     4  10  20  39  66  96 134 181 230 279 330 396
#     4   9  19  34  53  82 121 166 216 267 319 379
#     4  10  20  36  61  95 134 175 222 276 334 395
#     4  11  24  43  70 101 134 177 227 282 341 403
#     4  10  22  42  69 103 140 177 222 278 342 408
#     4  10  23  46  73  99 132 178 230 282 337 403
#     4  11  22  38  64 100 140 176 219 280 345 401
#
# _framework density 25.237318999999999
#
# number of rings (size 3 to 8) (size 9 to 14) (size 15 to 20)
#    0.000    1.857    0.000    5.143    0.000    6.286 
#    0.000    5.000    0.000   16.286    0.000    0.000 
#    0.000    0.000    0.000    0.000    0.000    0.000 
#
# Total GULP energy -156165.572075 kJ/mol
# GULP energy per Si atom -5577.341860 kJ/mol
# Density = 2.517988 g / cm^3
# Si number density = 25.237319 Si / 1000 Ang^3
#
#
#
# Elastic Constant Matrix: (Units=GPa)
#
#
# Indices 1 2 3 4 5 6 
#
# 1 152.4922 11.1702 38.6372 0.0000 10.8670 0.0000
# 2 11.1702 72.9778 9.3977 0.0000 0.5485 0.0000
# 3 38.6372 9.3977 191.1128 0.0000 15.0663 0.0000
# 4 0.0000 0.0000 0.0000 -3.5925 0.0000 25.6440
# 5 10.8670 0.5485 15.0663 0.0000 31.9518 0.0000
# 6 0.0000 0.0000 0.0000 25.6440 0.0000 -174.7288
#
#
#
# Elastic Compliance Matrix: (Units=1/GPa)
#
#
# Indices 1 2 3 4 5 6 
#
# 1 0.007067 -0.000908 -0.001242 0.000000 -0.001802 0.000000
# 2 -0.000908 0.013907 -0.000525 0.000000 0.000318 0.000000
# 3 -0.001242 -0.000525 0.005687 0.000000 -0.002250 0.000000
# 4 0.000000 0.000000 0.000000 5.845101 0.000000 0.857853
# 5 -0.001802 0.000318 -0.002250 0.000000 0.032966 0.000000
# 6 0.000000 0.000000 0.000000 0.857853 0.000000 0.120179
#
#
# Mechanical properties :
#
#
# Convention : Reuss Voigt Hill
#
# Bulk Modulus (GPa) = 46.92620 59.44367 53.18493
# Shear Modulus (GPa) = 0.82818 -5.44872 -2.31027
#
# Velocity S-wave (km/s) = 0.57347 -1.47094 -0.95781
# Velocity P-wave (km/s) = 4.36724 4.55193 4.46055
#
# Compressibility (1/GPa) = 0.02131006
#
# Stress axis : x y z
#
# Youngs Moduli (GPa) = 141.49495 71.90587 175.84484
#
# Poissons Ratio (x) = 0.06531 0.21841
# Poissons Ratio (y) = 0.12851 0.09237
# Poissons Ratio (z) = 0.17575 0.03777
#
# Static dielectric constant tensor:
#      x y z
#    x 1.978300 0.000000 0.041300 
#    y 0.000000 2.073650 0.000000 
#    z 0.041300 0.000000 2.309050 
# 
# From -- ./inp_files/156508.got.cif
#   From: 2010.05.17/outbox.cif.g08.bks.cpg/sg12_79_cif.got.tgz:156508.got - 2010.06.03 13:09:07.
