data_PCOD9199014
_publ_section_title
;
Structure prediction by ZEFSAII (Michael W. Deem and Ramdas Pophale) SiO2 
 PCOD9199014
Probable space group: C 2/M
;
_chemical_formula_sum "Si O2"
_cell_formula_units_Z 56
_cell_length_a 19.718338
_cell_length_b 8.430997
_cell_length_c 19.617275
_cell_angle_alpha 90.000000
_cell_angle_beta 66.177734
_cell_angle_gamma 90.000000
_cell_volume 2983.426858
_symmetry_space_group_name_H-M "C 2/M"
_symmetry_group_IT_number 12
_symmetry_cell_setting 'monoclinic'
loop_
_space_group_symop_operation_xyz
x,y,z
-x,y,-z
-x,-y,-z
x,-y,z
1/2+x,1/2+y,z
1/2-x,1/2+y,-z
1/2-x,1/2-y,-z
1/2+x,1/2-y,z
loop_
_atom_site_type_symbol
_atom_site_label
_atom_site_fract_x
_atom_site_fract_y
_atom_site_fract_z
Si Si1 0.961358 0.317122 0.823814
Si Si2 0.592562 0.319381 0.291365
Si Si3 0.673788 0.691298 0.564861
Si Si4 0.756363 0.308281 0.784173
Si Si5 0.373732 0.690452 0.261780
Si Si6 0.475223 0.180217 0.432524
Si Si7 0.697743 0.191730 0.081300
O O1 0.971453 0.500000 0.838457
O O2 0.931449 0.297962 0.759105
O O3 0.888145 0.252541 0.892809
O O4 0.042060 0.238659 0.789926
O O5 0.594785 0.500000 0.265149
O O6 0.672965 0.264706 0.283127
O O7 0.530092 0.298891 0.372392
O O8 0.672913 0.500000 0.564554
O O9 0.750000 0.750000 0.500000
O O10 0.655199 0.742667 0.651156
O O11 0.607429 0.761141 0.546612
O O12 0.759863 0.500000 0.780449
O O13 0.682226 0.256884 0.775366
O O14 0.768573 0.259552 0.858390
O O15 0.372108 0.500000 0.264410
O O16 0.500000 0.177126 0.500000
O O17 0.482932 0.000000 0.402243
O O18 0.695375 0.000000 0.082613
O O19 0.750000 0.250000 0.000000
#
# Coordination Sequence:
#
# PCOD9199014 Si02
#       7
#     8   8   8   8   8   8   8
#     4  10  20  36  59  84 113 150 189 227 280 340
#     4  11  21  35  56  83 110 142 189 238 283 333
#     4  11  24  40  58  84 116 151 194 242 293 343
#     4   9  20  38  58  83 116 150 189 231 280 339
#     4  10  21  38  60  84 113 151 194 238 284 339
#     4  11  24  40  58  79 109 149 191 237 291 342
#     4   9  19  36  59  86 115 150 187 231 279 335
#
# _framework density 18.77036
#
# number of rings (size 3 to 8) (size 9 to 14) (size 15 to 20)
#    0.000    1.857    1.429    3.429    2.000    5.143 
#    0.000    0.714    0.000    4.286    0.000    0.000 
#    0.000    0.000    0.000    0.000    0.000    0.000 
#
# Total GULP energy -156082.987760 kJ/mol
# GULP energy per Si atom -5574.392420 kJ/mol
# Density = 1.872764 g / cm^3
# Si number density = 18.770360 Si / 1000 Ang^3
#
#
#
# Elastic Constant Matrix: (Units=GPa)
#
#
# Indices 1 2 3 4 5 6 
#
# 1 183.4767 21.4156 71.9824 -0.0001 -22.5269 -0.0002
# 2 21.4156 29.4967 16.0314 -0.0001 -0.9026 -0.0004
# 3 71.9824 16.0314 89.7993 0.0000 -26.1115 -0.0001
# 4 -0.0001 -0.0001 0.0000 27.8165 0.0000 -8.7033
# 5 -22.5269 -0.9026 -26.1115 0.0000 28.9209 -0.0001
# 6 -0.0002 -0.0004 -0.0001 -8.7033 -0.0001 13.8258
#
#
#
# Elastic Compliance Matrix: (Units=1/GPa)
#
#
# Indices 1 2 3 4 5 6 
#
# 1 0.008154 -0.002777 -0.005720 0.000000 0.001100 0.000000
# 2 -0.002777 0.039449 -0.006898 0.000001 -0.007160 0.000001
# 3 -0.005720 -0.006898 0.021146 0.000000 0.014421 0.000000
# 4 0.000000 0.000001 0.000000 0.044767 0.000000 0.028181
# 5 0.001100 -0.007160 0.014421 0.000000 0.048230 0.000000
# 6 0.000000 0.000001 0.000000 0.028181 0.000000 0.090068
#
#
# Mechanical properties :
#
#
# Convention : Reuss Voigt Hill
#
# Bulk Modulus (GPa) = 26.34600 57.95906 42.15253
# Shear Modulus (GPa) = 16.93433 27.00220 21.96827
#
# Velocity S-wave (km/s) = 3.00690 3.79694 3.42478
# Velocity P-wave (km/s) = 5.11094 7.08289 6.17613
#
# Compressibility (1/GPa) = 0.03795643
#
# Stress axis : x y z
#
# Youngs Moduli (GPa) = 122.64375 25.34943 47.28986
#
# Poissons Ratio (x) = 0.07040 0.27052
# Poissons Ratio (y) = 0.34061 0.32623
# Poissons Ratio (z) = 0.70157 0.17487
#
# Static dielectric constant tensor:
#      x y z
#    x 1.620130 0.000000 -0.025480 
#    y 0.000000 1.659860 0.000000 
#    z -0.025480 0.000000 1.660760 
# 
# From -- ./inp_files/275313.got.cif
#   From: 2010.05.17/outbox.cif.g08.bks.cpg/sg12_138_cif.got.tgz:275313.got - 2010.06.03 13:09:07.
