data_PCOD9199467
_publ_section_title
;
Structure prediction by ZEFSAII (Michael W. Deem and Ramdas Pophale) SiO2 
 PCOD9199467
Probable space group: C 2/M
;
_chemical_formula_sum "Si O2"
_cell_formula_units_Z 60
_cell_length_a 14.575876
_cell_length_b 17.957540
_cell_length_c 14.878305
_cell_angle_alpha 90.000000
_cell_angle_beta 123.635073
_cell_angle_gamma 90.000000
_cell_volume 3242.366887
_symmetry_space_group_name_H-M "C 2/M"
_symmetry_group_IT_number 12
_symmetry_cell_setting 'monoclinic'
loop_
_space_group_symop_operation_xyz
x,y,z
-x,y,-z
-x,-y,-z
x,-y,z
1/2+x,1/2+y,z
1/2-x,1/2+y,-z
1/2-x,1/2-y,-z
1/2+x,1/2-y,z
loop_
_atom_site_type_symbol
_atom_site_label
_atom_site_fract_x
_atom_site_fract_y
_atom_site_fract_z
Si Si1 0.157825 0.292540 0.506659
Si Si2 0.000000 0.168564 0.500000
Si Si3 0.926174 0.281903 0.048768
Si Si4 0.228274 0.417897 0.827832
Si Si5 0.801580 0.865066 0.053132
Si Si6 0.964277 0.131065 0.288053
Si Si7 0.474041 0.807482 0.268366
Si Si8 0.692805 0.586708 0.318977
O O1 0.250000 0.250000 0.500000
O O2 0.213812 0.356668 0.595823
O O3 0.097715 0.226854 0.529294
O O4 0.071600 0.327626 0.388983
O O5 0.970275 0.118508 0.397679
O O6 0.875398 0.202808 0.052734
O O7 0.995011 0.311408 0.172593
O O8 0.816777 0.332862 0.979482
O O9 0.000000 0.277645 0.000000
O O10 0.179350 0.500000 0.786801
O O11 0.134104 0.355825 0.772949
O O12 0.312676 0.404886 0.792005
O O13 0.280809 0.414749 0.954665
O O14 0.866727 0.899207 0.172521
O O15 0.952056 0.220792 0.276593
O O16 0.079145 0.108333 0.304993
O O17 0.717694 0.500000 0.351941
#
# Coordination Sequence:
#
# PCOD9199467 Si02
#       8
#     8   4   8   8   8   8   8   8
#     4  11  20  36  60  86 116 154 197 238 287 344
#     4  10  20  36  60  88 114 150 202 248 292 328
#     4   9  18  32  54  87 114 145 190 252 290 330
#     4  10  22  38  58  85 121 156 188 241 299 352
#     4   9  20  34  53  83 116 151 194 230 293 352
#     4  10  20  37  55  85 117 153 195 242 282 345
#     4   9  19  36  56  85 113 151 198 242 290 335
#     4  11  23  37  56  88 123 154 189 236 294 355
#
# _framework density 18.505001
#
# number of rings (size 3 to 8) (size 9 to 14) (size 15 to 20)
#    0.000    2.133    2.667    2.400    3.733    2.133 
#    0.000    3.333    0.000    6.400    0.000    0.000 
#    0.000    0.000    0.000    0.000    0.000    0.000 
#
# Total GULP energy -167198.957251 kJ/mol
# GULP energy per Si atom -5573.298575 kJ/mol
# Density = 1.846288 g / cm^3
# Si number density = 18.505001 Si / 1000 Ang^3
#
#
#
# Elastic Constant Matrix: (Units=GPa)
#
#
# Indices 1 2 3 4 5 6 
#
# 1 108.0022 13.5159 41.2568 0.0000 -27.4713 0.0000
# 2 13.5159 51.8188 11.9386 0.0000 -6.3611 0.0000
# 3 41.2568 11.9386 135.7011 0.0000 -13.6754 0.0000
# 4 0.0000 0.0000 0.0000 14.4506 0.0000 -4.9600
# 5 -27.4713 -6.3611 -13.6754 0.0000 27.6772 0.0000
# 6 0.0000 0.0000 0.0000 -4.9600 0.0000 12.1358
#
#
#
# Elastic Compliance Matrix: (Units=1/GPa)
#
#
# Indices 1 2 3 4 5 6 
#
# 1 0.013473 -0.001439 -0.002794 0.000000 0.011661 0.000000
# 2 -0.001439 0.020251 -0.001072 0.000000 0.002696 0.000000
# 3 -0.002794 -0.001072 0.008428 0.000000 0.001144 0.000000
# 4 0.000000 0.000000 0.000000 0.080493 0.000000 0.032898
# 5 0.011661 0.002696 0.001144 0.000000 0.048890 0.000000
# 6 0.000000 0.000000 0.000000 0.032898 0.000000 0.095847
#
#
# Mechanical properties :
#
#
# Convention : Reuss Voigt Hill
#
# Bulk Modulus (GPa) = 31.70456 47.66051 39.68253
# Shear Modulus (GPa) = 17.33058 26.10678 21.71868
#
# Velocity S-wave (km/s) = 3.06361 3.76013 3.42960
# Velocity P-wave (km/s) = 5.44834 6.68303 6.09702
#
# Compressibility (1/GPa) = 0.03154120
#
# Stress axis : x y z
#
# Youngs Moduli (GPa) = 74.22448 49.37935 118.64689
#
# Poissons Ratio (x) = 0.07105 0.33154
# Poissons Ratio (y) = 0.10679 0.12725
# Poissons Ratio (z) = 0.20741 0.05296
#
# Static dielectric constant tensor:
#      x y z
#    x 1.646460 0.000000 -0.022750 
#    y 0.000000 1.651490 0.000000 
#    z -0.022750 0.000000 1.710750 
# 
# From -- ./inp_files/207736.got.cif
#   From: 2010.05.17/outbox.cif.g08.bks.cpg/sg12_104_cif.got.tgz:207736.got - 2010.06.03 13:09:07.
