data_PCOD9199661
_publ_section_title
;
Structure prediction by ZEFSAII (Michael W. Deem and Ramdas Pophale) SiO2 
 PCOD9199661
Probable space group: C 2/M
;
_chemical_formula_sum "Si O2"
_cell_formula_units_Z 64
_cell_length_a 5.240992
_cell_length_b 18.256312
_cell_length_c 29.533507
_cell_angle_alpha 90.000000
_cell_angle_beta 107.370147
_cell_angle_gamma 90.000000
_cell_volume 2696.933150
_symmetry_space_group_name_H-M "C 2/M"
_symmetry_group_IT_number 12
_symmetry_cell_setting 'monoclinic'
loop_
_space_group_symop_operation_xyz
x,y,z
-x,y,-z
-x,-y,-z
x,-y,z
1/2+x,1/2+y,z
1/2-x,1/2+y,-z
1/2-x,1/2-y,-z
1/2+x,1/2-y,z
loop_
_atom_site_type_symbol
_atom_site_label
_atom_site_fract_x
_atom_site_fract_y
_atom_site_fract_z
Si Si1 0.713879 0.334468 0.978556
Si Si2 0.083640 0.276132 0.446570
Si Si3 0.166388 0.198307 0.310573
Si Si4 0.259421 0.421095 0.452139
Si Si5 0.905056 0.586443 0.820424
Si Si6 0.439332 0.913749 0.269534
Si Si7 0.963757 0.918459 0.360657
Si Si8 0.516226 0.588448 0.880217
O O1 0.617467 0.353863 0.923320
O O2 0.500000 0.369830 0.000000
O O3 0.750000 0.250000 0.000000
O O4 0.000000 0.369558 0.000000
O O5 0.250000 0.250000 0.500000
O O6 0.316792 0.266257 0.422584
O O7 0.912318 0.249238 0.309036
O O8 0.538447 0.139126 0.449464
O O9 0.191808 0.135945 0.272692
O O10 0.165729 0.143279 0.353728
O O11 0.500000 0.409161 0.500000
O O12 0.139482 0.500000 0.452843
O O13 0.385300 0.417152 0.408993
O O14 0.857123 0.500000 0.811291
O O15 0.196957 0.595462 0.858700
O O16 0.944559 0.615884 0.771804
O O17 0.671581 0.609597 0.842175
O O18 0.683719 0.909632 0.318317
O O19 0.362443 0.000000 0.261053
O O20 0.070727 0.000000 0.355522
O O21 0.571197 0.500000 0.891927
#
# Coordination Sequence:
#
# PCOD9199661 Si02
#       8
#     8   8   8   8   8   8   8   8
#     4  10  21  37  60  82 126 172 222 262 316 389
#     4  10  20  40  63  90 122 160 211 256 312 394
#     4  12  25  45  69 100 143 178 224 281 350 416
#     4  10  21  42  68  99 137 177 223 285 346 407
#     4   9  20  36  64  96 129 168 214 279 349 401
#     4  10  22  44  74 102 135 183 235 286 352 430
#     4  10  23  44  71 102 136 181 239 288 347 426
#     4  10  20  36  60  98 130 163 221 283 334 387
#
# _framework density 23.730661000000001
#
# number of rings (size 3 to 8) (size 9 to 14) (size 15 to 20)
#    0.000    1.875    2.500    1.125    1.750    1.500 
#    2.250    1.875   16.500    0.000    0.000    0.000 
#    0.000    0.000    0.000    0.000    0.000    0.000 
#
# Total GULP energy -178611.750900 kJ/mol
# GULP energy per Si atom -5581.617216 kJ/mol
# Density = 2.367665 g / cm^3
# Si number density = 23.730661 Si / 1000 Ang^3
#
#
#
# Elastic Constant Matrix: (Units=GPa)
#
#
# Indices 1 2 3 4 5 6 
#
# 1 129.5315 26.6213 6.2870 0.0000 -15.1062 0.0000
# 2 26.6213 136.6202 16.0940 0.0000 -8.2405 0.0000
# 3 6.2870 16.0940 108.2512 0.0000 -12.2582 0.0000
# 4 0.0000 0.0000 0.0000 23.1381 0.0000 -17.4650
# 5 -15.1062 -8.2405 -12.2582 0.0000 29.8414 0.0000
# 6 0.0000 0.0000 0.0000 -17.4650 0.0000 16.6483
#
#
#
# Elastic Compliance Matrix: (Units=1/GPa)
#
#
# Indices 1 2 3 4 5 6 
#
# 1 0.008468 -0.001431 0.000170 0.000000 0.003961 0.000000
# 2 -0.001431 0.007773 -0.000956 0.000000 0.001029 0.000000
# 3 0.000170 -0.000956 0.009806 0.000000 0.003850 0.000000
# 4 0.000000 0.000000 0.000000 0.207625 0.000000 0.217811
# 5 0.003961 0.001029 0.003850 0.000000 0.037381 0.000000
# 6 0.000000 0.000000 0.000000 0.217811 0.000000 0.288562
#
#
# Mechanical properties :
#
#
# Convention : Reuss Voigt Hill
#
# Bulk Modulus (GPa) = 46.27059 52.48973 49.38016
# Shear Modulus (GPa) = 8.75266 35.61893 22.18580
#
# Velocity S-wave (km/s) = 1.92259 3.87843 3.06093
# Velocity P-wave (km/s) = 4.94662 6.49795 5.77461
#
# Compressibility (1/GPa) = 0.02161200
#
# Stress axis : x y z
#
# Youngs Moduli (GPa) = 118.09212 128.64845 101.97821
#
# Poissons Ratio (x) = 0.18411 -0.01729
# Poissons Ratio (y) = 0.16900 0.09749
# Poissons Ratio (z) = -0.02002 0.12298
#
# Static dielectric constant tensor:
#      x y z
#    x 1.957760 0.000000 0.024050 
#    y 0.000000 1.948540 0.000000 
#    z 0.024050 0.000000 1.929480 
# 
# From -- ./inp_files/331456.got.cif
#   From: 2010.05.17/outbox.cif.g08.bks.cpg/sg12_166_cif.got.tgz:331456.got - 2010.06.03 13:09:07.
