data_PCOD9199607
_publ_section_title
;
Structure prediction by ZEFSAII (Michael W. Deem and Ramdas Pophale) SiO2 
 PCOD9199607
Probable space group: C 2/M
;
_chemical_formula_sum "Si O2"
_cell_formula_units_Z 56
_cell_length_a 23.056954
_cell_length_b 15.012294
_cell_length_c 8.128710
_cell_angle_alpha 90.000000
_cell_angle_beta 51.918971
_cell_angle_gamma 90.000000
_cell_volume 2214.737255
_symmetry_space_group_name_H-M "C 2/M"
_symmetry_group_IT_number 12
_symmetry_cell_setting 'monoclinic'
loop_
_space_group_symop_operation_xyz
x,y,z
-x,y,-z
-x,-y,-z
x,-y,z
1/2+x,1/2+y,z
1/2-x,1/2+y,-z
1/2-x,1/2-y,-z
1/2+x,1/2-y,z
loop_
_atom_site_type_symbol
_atom_site_label
_atom_site_fract_x
_atom_site_fract_y
_atom_site_fract_z
Si Si1 0.928962 0.098160 0.545267
Si Si2 0.639878 0.595074 0.979483
Si Si3 0.048649 0.723425 0.078400
Si Si4 0.289094 0.671499 0.694963
Si Si5 0.792500 0.633271 0.841333
Si Si6 0.166795 0.603723 0.717236
Si Si7 0.566240 0.900032 0.569501
O O1 0.879505 0.089248 0.793365
O O2 0.872780 0.140451 0.516443
O O3 0.000000 0.144426 0.500000
O O4 0.952653 0.000000 0.444281
O O5 0.617127 0.500000 0.941169
O O6 0.595611 0.684900 0.012030
O O7 0.728655 0.599344 0.828092
O O8 0.992263 0.679839 0.310195
O O9 0.107817 0.646360 0.943717
O O10 0.000000 0.734779 0.000000
O O11 0.297634 0.764520 0.773421
O O12 0.241110 0.659943 0.615885
O O13 0.240026 0.619854 0.919129
O O14 0.876019 0.600729 0.680984
O O15 0.182897 0.500000 0.714972
O O16 0.124185 0.611466 0.619085
O O17 0.533285 0.000000 0.641200
#
# Coordination Sequence:
#
# PCOD9199607 Si02
#       7
#     8   8   8   8   8   8   8
#     4   9  19  34  54  81 114 153 195 241 296 355
#     4  10  20  37  58  81 117 159 198 244 303 364
#     4  10  21  39  58  86 119 160 203 250 303 358
#     4  10  20  36  60  91 117 159 200 246 300 363
#     4  10  21  38  60  89 120 156 200 246 309 363
#     4  10  20  38  62  87 119 160 207 250 301 363
#     4  10  22  39  62  90 121 160 202 254 308 358
#
# _framework density 25.285167000000001
#
# number of rings (size 3 to 8) (size 9 to 14) (size 15 to 20)
#    0.000    2.143    1.429    1.286    2.000    4.286 
#    0.000    0.714    0.000    1.714    0.000    0.000 
#    0.000    0.000    0.000    0.000    0.000    0.000 
#
# Total GULP energy -156138.131027 kJ/mol
# GULP energy per Si atom -5576.361822 kJ/mol
# Density = 2.522762 g / cm^3
# Si number density = 25.285167 Si / 1000 Ang^3
#
#
#
# Elastic Constant Matrix: (Units=GPa)
#
#
# Indices 1 2 3 4 5 6 
#
# 1 98.2919 27.0362 15.6930 0.0000 -23.9033 0.0000
# 2 27.0362 106.0164 33.4049 0.0000 -8.1085 0.0000
# 3 15.6930 33.4049 86.5322 0.0000 -24.0647 0.0000
# 4 0.0000 0.0000 0.0000 0.5469 0.0000 -1.3260
# 5 -23.9033 -8.1085 -24.0647 0.0000 34.5644 0.0000
# 6 0.0000 0.0000 0.0000 -1.3260 0.0000 19.6047
#
#
#
# Elastic Compliance Matrix: (Units=1/GPa)
#
#
# Indices 1 2 3 4 5 6 
#
# 1 0.013048 -0.003057 0.001394 0.000000 0.009277 0.000000
# 2 -0.003057 0.011461 -0.004601 0.000000 -0.002629 0.000000
# 3 0.001394 -0.004601 0.016181 0.000000 0.011150 0.000000
# 4 0.000000 0.000000 0.000000 2.187117 0.000000 0.147925
# 5 0.009277 -0.002629 0.011150 0.000000 0.042493 0.000000
# 6 0.000000 0.000000 0.000000 0.147925 0.000000 0.061013
#
#
# Mechanical properties :
#
#
# Convention : Reuss Voigt Hill
#
# Bulk Modulus (GPa) = 35.51059 49.23429 42.37244
# Shear Modulus (GPa) = 2.12474 25.25695 13.69084
#
# Velocity S-wave (km/s) = 0.91768 3.16394 2.32945
# Velocity P-wave (km/s) = 3.89838 5.73247 4.90197
#
# Compressibility (1/GPa) = 0.02816062
#
# Stress axis : x y z
#
# Youngs Moduli (GPa) = 76.63935 87.25387 61.80239
#
# Poissons Ratio (x) = 0.26675 -0.08613
# Poissons Ratio (y) = 0.23430 0.28435
# Poissons Ratio (z) = -0.10681 0.40146
#
# Static dielectric constant tensor:
#      x y z
#    x 2.073770 0.000000 0.002230 
#    y 0.000000 2.090470 0.000000 
#    z 0.002230 0.000000 2.057700 
# 
# From -- ./inp_files/183489.got.cif
#   From: 2010.05.17/outbox.cif.g08.bks.cpg/sg12_92_cif.got.tgz:183489.got - 2010.06.03 13:09:07.
