data_PCOD9199673
_publ_section_title
;
Structure prediction by ZEFSAII (Michael W. Deem and Ramdas Pophale) SiO2 
 PCOD9199673
Probable space group: C 2/M
;
_chemical_formula_sum "Si O2"
_cell_formula_units_Z 56
_cell_length_a 11.098584
_cell_length_b 28.550504
_cell_length_c 15.738107
_cell_angle_alpha 90.000000
_cell_angle_beta 34.332274
_cell_angle_gamma 90.000000
_cell_volume 2812.588803
_symmetry_space_group_name_H-M "C 2/M"
_symmetry_group_IT_number 12
_symmetry_cell_setting 'monoclinic'
loop_
_space_group_symop_operation_xyz
x,y,z
-x,y,-z
-x,-y,-z
x,-y,z
1/2+x,1/2+y,z
1/2-x,1/2+y,-z
1/2-x,1/2-y,-z
1/2+x,1/2-y,z
loop_
_atom_site_type_symbol
_atom_site_label
_atom_site_fract_x
_atom_site_fract_y
_atom_site_fract_z
Si Si1 0.699387 0.394467 0.820555
Si Si2 0.251160 0.192995 0.669827
Si Si3 0.267008 0.299168 0.682629
Si Si4 0.992934 0.860686 0.333530
Si Si5 0.377291 0.883011 0.321348
Si Si6 0.027677 0.947288 0.188026
Si Si7 0.510874 0.946426 0.894607
O O1 0.704061 0.344804 0.769594
O O2 0.650994 0.432922 0.776192
O O3 0.923520 0.399214 0.738241
O O4 0.500000 0.395933 0.000000
O O5 0.500000 0.190739 0.500000
O O6 0.199351 0.245570 0.729660
O O7 0.127223 0.175963 0.658163
O O8 0.500000 0.297615 0.500000
O O9 0.316288 0.330425 0.736797
O O10 0.100832 0.329521 0.724459
O O11 0.835085 0.879735 0.498669
O O12 0.039028 0.906551 0.251207
O O13 0.362364 0.915408 0.246584
O O14 0.993685 0.000000 0.240829
O O15 0.263389 0.946552 0.009176
O O16 0.590278 0.000000 0.849101
O O17 0.500000 0.931228 0.000000
#
# Coordination Sequence:
#
# PCOD9199673 Si02
#       7
#     8   8   8   8   8   8   8
#     4  11  22  38  57  85 119 152 192 244 289 341
#     4  10  20  36  61  85 118 157 192 241 289 348
#     4   9  21  35  59  88 115 154 195 236 292 348
#     4  10  21  38  60  90 120 151 194 245 294 341
#     4  11  21  37  60  86 117 150 195 244 284 345
#     4  10  22  39  59  85 120 157 190 242 298 346
#     4  10  21  38  60  84 114 156 198 236 291 352
#
# _framework density 19.910481999999998
#
# number of rings (size 3 to 8) (size 9 to 14) (size 15 to 20)
#    0.000    1.857    2.857    0.857    2.000    3.143 
#    0.000    3.571    0.000    5.143    0.000    0.000 
#    0.000    0.000    0.000    0.000    0.000    0.000 
#
# Total GULP energy -156160.242798 kJ/mol
# GULP energy per Si atom -5577.151528 kJ/mol
# Density = 1.986517 g / cm^3
# Si number density = 19.910482 Si / 1000 Ang^3
#
#
#
# Elastic Constant Matrix: (Units=GPa)
#
#
# Indices 1 2 3 4 5 6 
#
# 1 96.7646 42.9181 12.3671 0.0000 3.6334 0.0000
# 2 42.9181 141.8454 34.8176 0.0000 14.2555 0.0000
# 3 12.3671 34.8176 44.7245 0.0000 15.0445 0.0000
# 4 0.0000 0.0000 0.0000 6.0267 0.0000 -1.4189
# 5 3.6334 14.2555 15.0445 0.0000 29.1183 0.0000
# 6 0.0000 0.0000 0.0000 -1.4189 0.0000 18.7557
#
#
#
# Elastic Compliance Matrix: (Units=1/GPa)
#
#
# Indices 1 2 3 4 5 6 
#
# 1 0.011959 -0.003484 -0.000807 0.000000 0.000630 0.000000
# 2 -0.003484 0.009751 -0.006255 0.000000 -0.001107 0.000000
# 3 -0.000807 -0.006255 0.031939 0.000000 -0.013339 0.000000
# 4 0.000000 0.000000 0.000000 0.168939 0.000000 0.012781
# 5 0.000630 -0.001107 -0.013339 0.000000 0.041698 0.000000
# 6 0.000000 0.000000 0.000000 0.012781 0.000000 0.054284
#
#
# Mechanical properties :
#
#
# Convention : Reuss Voigt Hill
#
# Bulk Modulus (GPa) = 30.71531 51.50445 41.10988
# Shear Modulus (GPa) = 14.26486 23.66226 18.96356
#
# Velocity S-wave (km/s) = 2.67956 3.45110 3.08951
# Velocity P-wave (km/s) = 5.00336 6.46563 5.78091
#
# Compressibility (1/GPa) = 0.03255706
#
# Stress axis : x y z
#
# Youngs Moduli (GPa) = 83.61943 102.55744 31.31013
#
# Poissons Ratio (x) = 0.35728 0.02526
# Poissons Ratio (y) = 0.29131 0.19585
# Poissons Ratio (z) = 0.06746 0.64150
#
# Static dielectric constant tensor:
#      x y z
#    x 1.757180 0.000000 0.002810 
#    y 0.000000 1.699380 0.000000 
#    z 0.002810 0.000000 1.691380 
# 
# From -- ./inp_files/209985.got.cif
#   From: 2010.05.17/outbox.cif.g08.bks.cpg/sg12_105_cif.got.tgz:209985.got - 2010.06.03 13:09:07.
