data_PCOD9199777
_publ_section_title
;
Structure prediction by ZEFSAII (Michael W. Deem and Ramdas Pophale) SiO2 
 PCOD9199777
Probable space group: C 2/M
;
_chemical_formula_sum "Si O2"
_cell_formula_units_Z 52
_cell_length_a 15.603382
_cell_length_b 8.828245
_cell_length_c 33.638204
_cell_angle_alpha 90.000000
_cell_angle_beta 34.487089
_cell_angle_gamma 90.000000
_cell_volume 2623.683947
_symmetry_space_group_name_H-M "C 2/M"
_symmetry_group_IT_number 12
_symmetry_cell_setting 'monoclinic'
loop_
_space_group_symop_operation_xyz
x,y,z
-x,y,-z
-x,-y,-z
x,-y,z
1/2+x,1/2+y,z
1/2-x,1/2+y,-z
1/2-x,1/2-y,-z
1/2+x,1/2-y,z
loop_
_atom_site_type_symbol
_atom_site_label
_atom_site_fract_x
_atom_site_fract_y
_atom_site_fract_z
Si Si1 0.458521 0.500000 0.561269
Si Si2 0.650335 0.320863 0.825198
Si Si3 0.105424 0.000000 0.583515
Si Si4 0.445951 0.171030 0.662930
Si Si5 0.819718 0.500000 0.567457
Si Si6 0.974962 0.318071 0.818436
Si Si7 0.751520 0.222568 0.338128
Si Si8 0.642204 0.684838 0.919360
O O1 0.500000 0.500000 0.500000
O O2 0.597384 0.500000 0.539009
O O3 0.350696 0.363768 0.612951
O O4 0.614747 0.500000 0.837053
O O5 0.825179 0.306087 0.744649
O O6 0.546067 0.237883 0.832720
O O7 0.630375 0.266748 0.877947
O O8 0.267441 0.000000 0.542271
O O9 0.031921 0.164954 0.624802
O O10 0.342246 0.154552 0.663035
O O11 0.518790 0.000000 0.640528
O O12 0.750780 0.635259 0.619635
O O13 0.000000 0.500000 0.500000
O O14 0.982274 0.500000 0.814583
O O15 0.802828 0.268967 0.876731
O O16 0.083591 0.256924 0.741925
O O17 0.642195 0.500000 0.918976
O O18 0.500000 0.734888 0.000000
#
# Coordination Sequence:
#
# PCOD9199777 Si02
#       8
#     4   8   4   8   4   8   8   8
#     4  10  20  42  68  92 123 159 206 262 315 381
#     4   9  19  34  57  89 122 159 203 258 315 365
#     4  10  24  40  68  96 124 167 213 257 320 381
#     4   9  18  38  64  93 124 160 211 269 313 374
#     4  12  26  44  62  92 132 164 200 259 323 386
#     4  10  20  36  61  91 118 158 212 255 304 373
#     4  10  20  39  63  88 122 162 204 259 318 368
#     4   9  19  36  57  85 125 164 204 252 309 379
#
# _framework density 19.819459999999999
#
# number of rings (size 3 to 8) (size 9 to 14) (size 15 to 20)
#    0.000    2.308    1.538    0.462    6.462    0.615 
#    1.385    7.692    0.000    0.923    0.000    0.000 
#    0.000    0.000    0.000    0.000    0.000    0.000 
#
# Total GULP energy -144817.326289 kJ/mol
# GULP energy per Si atom -5569.897165 kJ/mol
# Density = 1.977435 g / cm^3
# Si number density = 19.819460 Si / 1000 Ang^3
#
#
#
# Elastic Constant Matrix: (Units=GPa)
#
#
# Indices 1 2 3 4 5 6 
#
# 1 120.4687 29.9329 65.1332 0.0189 -2.0537 -0.0073
# 2 29.9329 82.6922 30.8394 0.1175 -2.2654 -0.0496
# 3 65.1332 30.8394 115.1595 0.0065 6.7101 -0.0041
# 4 0.0189 0.1175 0.0065 220.2810 0.0080 -83.8766
# 5 -2.0537 -2.2654 6.7101 0.0080 35.1177 -0.0039
# 6 -0.0073 -0.0496 -0.0041 -83.8766 -0.0039 72.9363
#
#
#
# Elastic Compliance Matrix: (Units=1/GPa)
#
#
# Indices 1 2 3 4 5 6 
#
# 1 0.012382 -0.001977 -0.006582 0.000000 0.001854 0.000000
# 2 -0.001977 0.013837 -0.002662 -0.000007 0.001286 0.000002
# 3 -0.006582 -0.002662 0.013300 0.000002 -0.003098 0.000000
# 4 0.000000 -0.000007 0.000002 0.008076 -0.000002 0.009287
# 5 0.001854 0.001286 -0.003098 -0.000002 0.029259 0.000001
# 6 0.000000 0.000002 0.000000 0.009287 0.000001 0.024391
#
#
# Mechanical properties :
#
#
# Convention : Reuss Voigt Hill
#
# Bulk Modulus (GPa) = 58.55916 63.34794 60.95355
# Shear Modulus (GPa) = 38.64602 78.49465 58.57034
#
# Velocity S-wave (km/s) = 4.42056 6.30006 5.44207
# Velocity P-wave (km/s) = 7.46094 9.21699 8.38506
#
# Compressibility (1/GPa) = 0.01707675
#
# Stress axis : x y z
#
# Youngs Moduli (GPa) = 80.76016 72.27162 75.18885
#
# Poissons Ratio (x) = 0.14285 0.49490
# Poissons Ratio (y) = 0.15963 0.20018
# Poissons Ratio (z) = 0.53157 0.19241
#
# Static dielectric constant tensor:
#      x y z
#    x 1.706200 0.000000 0.008530 
#    y 0.000000 1.734330 0.000000 
#    z 0.008530 0.000000 1.676670 
# 
# From -- ./inp_files/375352.got.cif
#   From: 2010.05.17/outbox.cif.g08.bks.cpg/sg12_188_cif.got.tgz:375352.got - 2010.06.03 13:09:07.
