data_PCOD9199618
_publ_section_title
;
Structure prediction by ZEFSAII (Michael W. Deem and Ramdas Pophale) SiO2 
 PCOD9199618
Probable space group: C 2/M
;
_chemical_formula_sum "Si O2"
_cell_formula_units_Z 40
_cell_length_a 5.775818
_cell_length_b 24.610272
_cell_length_c 14.355725
_cell_angle_alpha 90.000000
_cell_angle_beta 69.643431
_cell_angle_gamma 90.000000
_cell_volume 1913.143747
_symmetry_space_group_name_H-M "C 2/M"
_symmetry_group_IT_number 12
_symmetry_cell_setting 'monoclinic'
loop_
_space_group_symop_operation_xyz
x,y,z
-x,y,-z
-x,-y,-z
x,-y,z
1/2+x,1/2+y,z
1/2-x,1/2+y,-z
1/2-x,1/2-y,-z
1/2+x,1/2-y,z
loop_
_atom_site_type_symbol
_atom_site_label
_atom_site_fract_x
_atom_site_fract_y
_atom_site_fract_z
Si Si1 0.500000 0.606866 0.000000
Si Si2 0.500000 0.864735 0.500000
Si Si3 0.751128 0.438199 0.679703
Si Si4 0.607252 0.780306 0.639423
Si Si5 0.084024 0.359638 0.183095
Si Si6 0.750355 0.440468 0.137786
O O1 0.338223 0.643724 0.091657
O O2 0.648695 0.567383 0.048214
O O3 0.304959 0.902387 0.581585
O O4 0.635135 0.826827 0.557004
O O5 0.835562 0.500000 0.655146
O O6 0.890696 0.407319 0.743311
O O7 0.471326 0.439470 0.755767
O O8 0.373465 0.745802 0.629133
O O9 0.504487 0.807564 0.748508
O O10 0.899070 0.385929 0.136116
O O11 0.872920 0.500000 0.129399
#
# Coordination Sequence:
#
# PCOD9199618 Si02
#       6
#     4   4   8   8   8   8
#     4  10  21  36  60  94 126 162 208 256 315 378
#     4  10  21  40  66  96 126 164 213 268 316 384
#     4   9  19  36  59  92 131 168 205 250 313 383
#     4  11  26  46  70  94 125 166 219 275 330 380
#     4  10  22  38  63  87 128 164 211 263 317 378
#     4  10  20  36  60  91 130 169 204 250 311 383
#
# _framework density 20.907995
#
# number of rings (size 3 to 8) (size 9 to 14) (size 15 to 20)
#    0.000    2.000    0.000    2.400    8.400    3.200 
#    3.600    1.000    0.000    6.000    0.000    0.000 
#    0.000    0.000    0.000    0.000    0.000    0.000 
#
# Total GULP energy -111523.063450 kJ/mol
# GULP energy per Si atom -5576.153173 kJ/mol
# Density = 2.086041 g / cm^3
# Si number density = 20.907995 Si / 1000 Ang^3
#
#
#
# Elastic Constant Matrix: (Units=GPa)
#
#
# Indices 1 2 3 4 5 6 
#
# 1 60.8304 27.3176 20.2075 0.0000 7.2549 0.0000
# 2 27.3176 71.4396 52.9960 0.0000 -4.9786 0.0000
# 3 20.2075 52.9960 135.1854 0.0000 3.0377 0.0000
# 4 0.0000 0.0000 0.0000 -24.4014 0.0000 7.1764
# 5 7.2549 -4.9786 3.0377 0.0000 15.9939 0.0000
# 6 0.0000 0.0000 0.0000 7.1764 0.0000 14.4846
#
#
#
# Elastic Compliance Matrix: (Units=1/GPa)
#
#
# Indices 1 2 3 4 5 6 
#
# 1 0.022296 -0.010175 0.000959 0.000000 -0.013463 0.000000
# 2 -0.010175 0.025359 -0.008739 0.000000 0.014169 0.000000
# 3 0.000959 -0.008739 0.010797 0.000000 -0.005206 0.000000
# 4 0.000000 0.000000 0.000000 -0.035769 0.000000 0.017722
# 5 -0.013463 0.014169 -0.005206 0.000000 0.074030 0.000000
# 6 0.000000 0.000000 0.000000 0.017722 0.000000 0.060258
#
#
# Mechanical properties :
#
#
# Convention : Reuss Voigt Hill
#
# Bulk Modulus (GPa) = 44.36351 52.05527 48.20939
# Shear Modulus (GPa) = 24.95095 12.34438 18.64766
#
# Velocity S-wave (km/s) = 3.45826 2.43248 2.98970
# Velocity P-wave (km/s) = 6.10005 5.73067 5.91825
#
# Compressibility (1/GPa) = 0.02254105
#
# Stress axis : x y z
#
# Youngs Moduli (GPa) = 44.85184 39.43446 92.62105
#
# Poissons Ratio (x) = 0.40124 -0.08878
# Poissons Ratio (y) = 0.45636 0.80938
# Poissons Ratio (z) = -0.04299 0.34460
#
# Static dielectric constant tensor:
#      x y z
#    x 1.831870 0.000000 -0.027170 
#    y 0.000000 1.749400 0.000000 
#    z -0.027170 0.000000 1.752970 
# 
# From -- ./inp_files/191551.got.cif
#   From: 2010.05.17/outbox.cif.g08.bks.cpg/sg12_96_cif.got.tgz:191551.got - 2010.06.03 13:09:07.
