data_PCOD9199765
_publ_section_title
;
Structure prediction by ZEFSAII (Michael W. Deem and Ramdas Pophale) SiO2 
 PCOD9199765
Probable space group: C 2/M
;
_chemical_formula_sum "Si O2"
_cell_formula_units_Z 56
_cell_length_a 27.116184
_cell_length_b 8.994290
_cell_length_c 12.808531
_cell_angle_alpha 90.000000
_cell_angle_beta 68.504451
_cell_angle_gamma 90.000000
_cell_volume 2906.604707
_symmetry_space_group_name_H-M "C 2/M"
_symmetry_group_IT_number 12
_symmetry_cell_setting 'monoclinic'
loop_
_space_group_symop_operation_xyz
x,y,z
-x,y,-z
-x,-y,-z
x,-y,z
1/2+x,1/2+y,z
1/2-x,1/2+y,-z
1/2-x,1/2-y,-z
1/2+x,1/2-y,z
loop_
_atom_site_type_symbol
_atom_site_label
_atom_site_fract_x
_atom_site_fract_y
_atom_site_fract_z
Si Si1 0.300274 0.678862 0.405707
Si Si2 0.156342 0.822639 0.846321
Si Si3 0.994844 0.323062 0.320581
Si Si4 0.115757 0.678706 0.283405
Si Si5 0.807559 0.678187 0.968048
Si Si6 0.392908 0.677595 0.493583
Si Si7 0.535537 0.674520 0.870512
O O1 0.295873 0.500000 0.411559
O O2 0.250000 0.750000 0.500000
O O3 0.306928 0.723118 0.279736
O O4 0.353237 0.717756 0.429755
O O5 0.096250 0.799071 0.854762
O O6 0.163225 0.000000 0.858902
O O7 0.168133 0.736206 0.942625
O O8 0.989683 0.500000 0.335653
O O9 0.950554 0.245606 0.426127
O O10 0.982777 0.272844 0.211931
O O11 0.055023 0.281898 0.302395
O O12 0.118477 0.500000 0.294759
O O13 0.154563 0.719824 0.158499
O O14 0.129227 0.757725 0.381322
O O15 0.803426 0.500000 0.972759
O O16 0.750000 0.750000 0.000000
O O17 0.396563 0.500000 0.495529
O O18 0.530785 0.500000 0.843881
O O19 0.500000 0.699800 0.000000
#
# Coordination Sequence:
#
# PCOD9199765 Si02
#       7
#     8   8   8   8   8   8   8
#     4  10  23  41  62  90 124 158 201 253 304 360
#     4  10  21  41  63  89 125 158 196 251 304 356
#     4  11  22  38  61  90 126 163 202 248 304 367
#     4  10  24  43  61  88 126 164 203 252 306 359
#     4  11  25  44  65  90 122 161 207 255 304 362
#     4  11  23  41  64  93 125 159 205 253 303 366
#     4  10  20  36  61  90 123 161 201 248 302 358
#
# _framework density 19.266463999999999
#
# number of rings (size 3 to 8) (size 9 to 14) (size 15 to 20)
#    0.000    1.571    1.429    2.571    2.000    6.571 
#    0.000    0.000    0.000    0.000    0.000    0.000 
#    0.000    0.000    0.000    0.000    0.000    0.000 
#
# Total GULP energy -156551.943894 kJ/mol
# GULP energy per Si atom -5591.140853 kJ/mol
# Density = 1.922261 g / cm^3
# Si number density = 19.266464 Si / 1000 Ang^3
#
#
#
# Elastic Constant Matrix: (Units=GPa)
#
#
# Indices 1 2 3 4 5 6 
#
# 1 50.4705 28.5024 41.4378 0.0000 -9.1305 0.0000
# 2 28.5024 32.5942 42.2580 0.0000 0.8681 0.0000
# 3 41.4378 42.2580 136.2713 0.0000 -4.8245 0.0000
# 4 0.0000 0.0000 0.0000 38.5554 0.0000 4.6116
# 5 -9.1305 0.8681 -4.8245 0.0000 37.9358 0.0000
# 6 0.0000 0.0000 0.0000 4.6116 0.0000 26.3281
#
#
#
# Elastic Compliance Matrix: (Units=1/GPa)
#
#
# Indices 1 2 3 4 5 6 
#
# 1 0.043745 -0.036486 -0.001593 0.000000 0.011161 0.000000
# 2 -0.036486 0.082132 -0.014819 0.000000 -0.012546 0.000000
# 3 -0.001593 -0.014819 0.012473 0.000000 0.001542 0.000000
# 4 0.000000 0.000000 0.000000 0.026492 0.000000 -0.004640
# 5 0.011161 -0.012546 0.001542 0.000000 0.029530 0.000000
# 6 0.000000 0.000000 0.000000 -0.004640 0.000000 0.038795
#
#
# Mechanical properties :
#
#
# Convention : Reuss Voigt Hill
#
# Bulk Modulus (GPa) = 30.71691 49.30360 40.01025
# Shear Modulus (GPa) = 14.29338 27.70639 20.99988
#
# Velocity S-wave (km/s) = 2.72670 3.79629 3.30505
# Velocity P-wave (km/s) = 5.08832 6.69789 5.94780
#
# Compressibility (1/GPa) = 0.03255536
#
# Stress axis : x y z
#
# Youngs Moduli (GPa) = 22.85976 12.17550 80.17598
#
# Poissons Ratio (x) = 0.44423 0.12770
# Poissons Ratio (y) = 0.83405 1.18811
# Poissons Ratio (z) = 0.03641 0.18043
#
# Static dielectric constant tensor:
#      x y z
#    x 1.652730 0.000000 -0.002320 
#    y 0.000000 1.645870 0.000000 
#    z -0.002320 0.000000 1.661210 
# 
# From -- ./inp_files/180696.got.cif
#   From: 2010.05.17/outbox.cif.g08.bks.cpg/sg12_91_cif.got.tgz:180696.got - 2010.06.03 13:09:07.
