data_PCOD9199259
_publ_section_title
;
Structure prediction by ZEFSAII (Michael W. Deem and Ramdas Pophale) SiO2 
 PCOD9199259
Probable space group: C 2/M
;
_chemical_formula_sum "Si O2"
_cell_formula_units_Z 48
_cell_length_a 24.213971
_cell_length_b 9.096501
_cell_length_c 11.567513
_cell_angle_alpha 90.000000
_cell_angle_beta 112.356899
_cell_angle_gamma 90.000000
_cell_volume 2356.369745
_symmetry_space_group_name_H-M "C 2/M"
_symmetry_group_IT_number 12
_symmetry_cell_setting 'monoclinic'
loop_
_space_group_symop_operation_xyz
x,y,z
-x,y,-z
-x,-y,-z
x,-y,z
1/2+x,1/2+y,z
1/2-x,1/2+y,-z
1/2-x,1/2-y,-z
1/2+x,1/2-y,z
loop_
_atom_site_type_symbol
_atom_site_label
_atom_site_fract_x
_atom_site_fract_y
_atom_site_fract_z
Si Si1 0.378978 0.824780 0.593571
Si Si2 0.440850 0.332150 0.031432
Si Si3 0.266174 0.673221 0.133061
Si Si4 0.673365 0.674448 0.224303
Si Si5 0.114239 0.827936 0.639556
Si Si6 0.520213 0.827194 0.713519
O O1 0.342404 0.746916 0.665958
O O2 0.364893 0.758471 0.457320
O O3 0.449844 0.794873 0.667962
O O4 0.369863 0.000000 0.589164
O O5 0.436508 0.500000 0.074235
O O6 0.448782 0.220684 0.142429
O O7 0.500000 0.324180 0.000000
O O8 0.383823 0.305057 0.905716
O O9 0.252620 0.500000 0.115212
O O10 0.227970 0.747524 0.204109
O O11 0.335516 0.688971 0.221681
O O12 0.250000 0.750000 0.000000
O O13 0.683372 0.500000 0.244712
O O14 0.053018 0.761416 0.638898
O O15 0.108043 0.000000 0.607707
O O16 0.527240 0.000000 0.697201
#
# Coordination Sequence:
#
# PCOD9199259 Si02
#       6
#     8   8   8   8   8   8
#     4  11  24  41  62  92 128 163 204 255 310 366
#     4  10  20  36  59  89 124 160 201 248 299 361
#     4  11  25  45  67  93 124 160 205 256 308 364
#     4  11  23  40  65  94 125 165 208 252 306 365
#     4  11  25  43  64  89 121 165 211 252 304 368
#     4  11  23  38  61  93 128 163 204 256 311 363
#
# _framework density 20.370318000000001
#
# number of rings (size 3 to 8) (size 9 to 14) (size 15 to 20)
#    0.000    1.167    1.667    4.000    0.000   13.000 
#    0.000    0.000    0.000    0.000    0.000    0.000 
#    0.000    0.000    0.000    0.000    0.000    0.000 
#
# Total GULP energy -134321.055318 kJ/mol
# GULP energy per Si atom -5596.710638 kJ/mol
# Density = 2.032395 g / cm^3
# Si number density = 20.370318 Si / 1000 Ang^3
#
#
#
# Elastic Constant Matrix: (Units=GPa)
#
#
# Indices 1 2 3 4 5 6 
#
# 1 80.4900 53.7456 16.9720 0.0000 -25.4740 0.0000
# 2 53.7456 105.7867 58.8675 0.0000 -12.5513 0.0000
# 3 16.9720 58.8675 93.5816 0.0000 -26.0354 0.0000
# 4 0.0000 0.0000 0.0000 36.8188 0.0000 -9.6751
# 5 -25.4740 -12.5513 -26.0354 0.0000 27.8099 0.0000
# 6 0.0000 0.0000 0.0000 -9.6751 0.0000 30.4234
#
#
#
# Elastic Compliance Matrix: (Units=1/GPa)
#
#
# Indices 1 2 3 4 5 6 
#
# 1 0.041486 -0.028613 0.023602 0.000000 0.047183 0.000000
# 2 -0.028613 0.034430 -0.026283 0.000000 -0.035276 0.000000
# 3 0.023602 -0.026283 0.034688 0.000000 0.042232 0.000000
# 4 0.000000 0.000000 0.000000 0.029637 0.000000 0.009425
# 5 0.047183 -0.035276 0.042232 0.000000 0.102795 0.000000
# 6 0.000000 0.000000 0.000000 0.009425 0.000000 0.035867
#
#
# Mechanical properties :
#
#
# Convention : Reuss Voigt Hill
#
# Bulk Modulus (GPa) = 20.82649 59.89207 40.35928
# Shear Modulus (GPa) = 13.98616 29.02862 21.50739
#
# Velocity S-wave (km/s) = 2.62314 3.77907 3.25286
# Velocity P-wave (km/s) = 4.40688 6.96472 5.82786
#
# Compressibility (1/GPa) = 0.04801577
#
# Stress axis : x y z
#
# Youngs Moduli (GPa) = 24.10474 29.04409 28.82807
#
# Poissons Ratio (x) = 0.83103 -0.68039
# Poissons Ratio (y) = 0.68970 0.75770
# Poissons Ratio (z) = -0.56891 0.76338
#
# Static dielectric constant tensor:
#      x y z
#    x 1.714070 0.000000 0.017030 
#    y 0.000000 1.681370 0.000000 
#    z 0.017030 0.000000 1.708380 
# 
# From -- ./inp_files/172437.got.cif
#   From: 2010.05.17/outbox.cif.g08.bks.cpg/sg12_87_cif.got.tgz:172437.got - 2010.06.03 13:09:07.
