data_PCOD9199645
_publ_section_title
;
Structure prediction by ZEFSAII (Michael W. Deem and Ramdas Pophale) SiO2 
 PCOD9199645
Probable space group: C 2/M
;
_chemical_formula_sum "Si O2"
_cell_formula_units_Z 32
_cell_length_a 15.960281
_cell_length_b 11.182482
_cell_length_c 14.741919
_cell_angle_alpha 90.000000
_cell_angle_beta 27.206026
_cell_angle_gamma 90.000000
_cell_volume 1202.903749
_symmetry_space_group_name_H-M "C 2/M"
_symmetry_group_IT_number 12
_symmetry_cell_setting 'monoclinic'
loop_
_space_group_symop_operation_xyz
x,y,z
-x,y,-z
-x,-y,-z
x,-y,z
1/2+x,1/2+y,z
1/2-x,1/2+y,-z
1/2-x,1/2-y,-z
1/2+x,1/2-y,z
loop_
_atom_site_type_symbol
_atom_site_label
_atom_site_fract_x
_atom_site_fract_y
_atom_site_fract_z
Si Si1 0.711347 0.633122 0.267612
Si Si2 0.149897 0.627806 0.571126
Si Si3 0.264549 0.133799 0.882753
Si Si4 0.397014 0.320180 0.191274
O O1 0.500000 0.626855 0.500000
O O2 0.764784 0.500000 0.185459
O O3 0.716082 0.744744 0.194022
O O4 0.844638 0.682478 0.219588
O O5 0.210962 0.500000 0.551637
O O6 0.250000 0.750000 0.500000
O O7 0.207420 0.625491 0.408405
O O8 0.932115 0.637310 0.791070
O O9 0.288218 0.000000 0.818762
O O10 0.051610 0.142639 0.115331
O O11 0.500000 0.362692 0.000000
#
# Coordination Sequence:
#
# PCOD9199645 Si02
#       4
#     8   8   8   8
#     4  10  20  36  60  93 130 165 204 255 317 376
#     4  11  25  44  64  91 127 171 214 263 316 377
#     4  10  22  39  63  93 125 166 215 261 314 376
#     4  10  22  40  67  97 126 164 208 263 312 378
#
# _framework density 26.602295999999999
#
# number of rings (size 3 to 8) (size 9 to 14) (size 15 to 20)
#    0.000    1.750    2.500    0.750    0.000   17.000 
#    0.000    0.000    0.000    0.000    0.000    0.000 
#    0.000    0.000    0.000    0.000    0.000    0.000 
#
# Total GULP energy -89079.664282 kJ/mol
# GULP energy per Si atom -5567.479018 kJ/mol
# Density = 2.654175 g / cm^3
# Si number density = 26.602296 Si / 1000 Ang^3
#
#
#
# Elastic Constant Matrix: (Units=GPa)
#
#
# Indices 1 2 3 4 5 6 
#
# 1 30.7930 61.5653 19.2394 -0.0001 -14.4029 0.0000
# 2 61.5653 309.7962 24.0554 -0.0001 -26.2450 0.0001
# 3 19.2394 24.0554 102.6198 -0.0005 -32.9830 0.0002
# 4 -0.0001 -0.0001 -0.0005 20.3056 0.0003 -3.7353
# 5 -14.4029 -26.2450 -32.9830 0.0003 50.7858 -0.0001
# 6 0.0000 0.0001 0.0002 -3.7353 -0.0001 42.8330
#
#
#
# Elastic Compliance Matrix: (Units=1/GPa)
#
#
# Indices 1 2 3 4 5 6 
#
# 1 0.062868 -0.011328 -0.006676 0.000000 0.007640 0.000000
# 2 -0.011328 0.005424 0.000911 0.000000 0.000182 0.000000
# 3 -0.006676 0.000911 0.013050 0.000000 0.007053 0.000000
# 4 0.000000 0.000000 0.000000 0.050050 0.000000 0.004365
# 5 0.007640 0.000182 0.007053 0.000000 0.026531 0.000000
# 6 0.000000 0.000000 0.000000 0.004365 0.000000 0.023727
#
#
# Mechanical properties :
#
#
# Convention : Reuss Voigt Hill
#
# Bulk Modulus (GPa) = 21.20653 72.54771 46.87712
# Shear Modulus (GPa) = 21.59322 45.34146 33.46734
#
# Velocity S-wave (km/s) = 2.85213 4.13294 3.55077
# Velocity P-wave (km/s) = 4.33996 7.07851 5.87114
#
# Compressibility (1/GPa) = 0.04715528
#
# Stress axis : x y z
#
# Youngs Moduli (GPa) = 15.90642 184.37240 76.63120
#
# Poissons Ratio (x) = 2.08857 0.51157
# Poissons Ratio (y) = 0.18019 -0.06980
# Poissons Ratio (z) = 0.10619 -0.16793
#
# Static dielectric constant tensor:
#      x y z
#    x 2.481220 0.000000 0.002180 
#    y 0.000000 2.099270 0.000000 
#    z 0.002180 0.000000 2.085600 
# 
# From -- ./inp_files/348713.got.cif
#   From: 2010.05.17/outbox.cif.g08.bks.cpg/sg12_175_cif.got.tgz:348713.got - 2010.06.03 13:09:07.
