data_PCOD9199635
_publ_section_title
;
Structure prediction by ZEFSAII (Michael W. Deem and Ramdas Pophale) SiO2 
 PCOD9199635
Probable space group: C 2/M
;
_chemical_formula_sum "Si O2"
_cell_formula_units_Z 24
_cell_length_a 10.022435
_cell_length_b 10.628469
_cell_length_c 13.349665
_cell_angle_alpha 90.000000
_cell_angle_beta 42.933364
_cell_angle_gamma 90.000000
_cell_volume 968.624343
_symmetry_space_group_name_H-M "C 2/M"
_symmetry_group_IT_number 12
_symmetry_cell_setting 'monoclinic'
loop_
_space_group_symop_operation_xyz
x,y,z
-x,y,-z
-x,-y,-z
x,-y,z
1/2+x,1/2+y,z
1/2-x,1/2+y,-z
1/2-x,1/2-y,-z
1/2+x,1/2-y,z
loop_
_atom_site_type_symbol
_atom_site_label
_atom_site_fract_x
_atom_site_fract_y
_atom_site_fract_z
Si Si1 0.728718 0.000000 0.402417
Si Si2 0.285821 0.651343 0.071669
Si Si3 0.889866 0.257434 0.326202
Si Si4 0.269825 0.500000 0.619081
O O1 0.500000 0.000000 0.500000
O O2 0.853870 0.120929 0.299489
O O3 0.726065 0.000000 0.524649
O O4 0.260203 0.500000 0.065539
O O5 0.105112 0.698838 0.239990
O O6 0.500000 0.668532 0.000000
O O7 0.250000 0.750000 0.000000
O O8 0.750000 0.250000 0.500000
O O9 0.817831 0.370303 0.294236
O O10 0.500000 0.500000 0.500000
#
# Coordination Sequence:
#
# PCOD9199635 Si02
#       4
#     4   8   8   4
#     4  10  22  36  62  98 132 170 221 284 349 406
#     4  11  27  50  74 106 150 195 241 300 368 439
#     4  10  22  44  68 102 136 181 237 294 354 421
#     4  10  20  36  60  92 132 166 217 282 341 402
#
# _framework density 24.777407
#
# number of rings (size 3 to 8) (size 9 to 14) (size 15 to 20)
#    0.000    1.667    1.667    1.000    2.333   11.333 
#    0.000    0.000    0.000    0.000    0.000    0.000 
#    0.000    0.000    0.000    0.000    0.000    0.000 
#
# Total GULP energy -67017.333749 kJ/mol
# GULP energy per Si atom -5584.777812 kJ/mol
# Density = 2.472101 g / cm^3
# Si number density = 24.777407 Si / 1000 Ang^3
#
#
#
# Elastic Constant Matrix: (Units=GPa)
#
#
# Indices 1 2 3 4 5 6 
#
# 1 136.2937 74.3411 60.9789 0.0000 -45.5079 0.0000
# 2 74.3411 316.1635 66.9535 0.0000 -50.7012 0.0000
# 3 60.9789 66.9535 152.5020 -0.0001 -43.0257 0.0000
# 4 0.0000 0.0000 -0.0001 48.7310 0.0000 -11.8685
# 5 -45.5079 -50.7012 -43.0257 0.0000 60.7209 0.0000
# 6 0.0000 0.0000 0.0000 -11.8685 0.0000 33.3395
#
#
#
# Elastic Compliance Matrix: (Units=1/GPa)
#
#
# Indices 1 2 3 4 5 6 
#
# 1 0.010840 -0.001184 -0.002252 0.000000 0.005540 0.000000
# 2 -0.001184 0.003889 -0.000710 0.000000 0.001857 0.000000
# 3 -0.002252 -0.000710 0.008907 0.000000 0.004030 0.000000
# 4 0.000000 0.000000 0.000000 0.022469 0.000000 0.007999
# 5 0.005540 0.001857 0.004030 0.000000 0.025028 0.000000
# 6 0.000000 0.000000 0.000000 0.007999 0.000000 0.032842
#
#
# Mechanical properties :
#
#
# Convention : Reuss Voigt Hill
#
# Bulk Modulus (GPa) = 65.16840 112.16736 88.66788
# Shear Modulus (GPa) = 42.59639 55.40398 49.00019
#
# Velocity S-wave (km/s) = 4.15078 4.73384 4.45186
# Velocity P-wave (km/s) = 7.02357 8.67452 7.89233
#
# Compressibility (1/GPa) = 0.01534486
#
# Stress axis : x y z
#
# Youngs Moduli (GPa) = 92.25097 257.10305 112.27608
#
# Poissons Ratio (x) = 0.30429 0.25281
# Poissons Ratio (y) = 0.10918 0.07976
# Poissons Ratio (z) = 0.20772 0.18264
#
# Static dielectric constant tensor:
#      x y z
#    x 1.932550 0.000000 0.029300 
#    y 0.000000 2.230850 0.000000 
#    z 0.029300 0.000000 2.089660 
# 
# From -- ./inp_files/116804.got.cif
#   From: 2010.05.17/outbox.cif.g08.bks.cpg/sg12_59_cif.got.tgz:116804.got - 2010.06.03 13:09:07.
