data_PCOD9199220
_publ_section_title
;
Structure prediction by ZEFSAII (Michael W. Deem and Ramdas Pophale) SiO2 
 PCOD9199220
Probable space group: C 2/M
;
_chemical_formula_sum "Si O2"
_cell_formula_units_Z 56
_cell_length_a 19.725744
_cell_length_b 8.698929
_cell_length_c 19.186054
_cell_angle_alpha 90.000000
_cell_angle_beta 66.657922
_cell_angle_gamma 90.000000
_cell_volume 3022.742484
_symmetry_space_group_name_H-M "C 2/M"
_symmetry_group_IT_number 12
_symmetry_cell_setting 'monoclinic'
loop_
_space_group_symop_operation_xyz
x,y,z
-x,y,-z
-x,-y,-z
x,-y,z
1/2+x,1/2+y,z
1/2-x,1/2+y,-z
1/2-x,1/2-y,-z
1/2+x,1/2-y,z
loop_
_atom_site_type_symbol
_atom_site_label
_atom_site_fract_x
_atom_site_fract_y
_atom_site_fract_z
Si Si1 0.789750 0.682973 0.698388
Si Si2 0.443301 0.176596 0.458711
Si Si3 0.788846 0.819605 0.551540
Si Si4 0.774539 0.686069 0.137309
Si Si5 0.923181 0.685406 0.996835
Si Si6 0.118610 0.184328 0.134870
Si Si7 0.556494 0.684167 0.309594
O O1 0.797697 0.500000 0.696532
O O2 0.764439 0.737979 0.632908
O O3 0.737745 0.739967 0.782150
O O4 0.869420 0.759416 0.681550
O O5 0.500000 0.180298 0.500000
O O6 0.375136 0.283606 0.505473
O O7 0.487154 0.234560 0.373266
O O8 0.417972 0.000000 0.460517
O O9 0.750000 0.750000 0.500000
O O10 0.775433 0.000000 0.562489
O O11 0.772618 0.500000 0.145178
O O12 0.703116 0.730036 0.119464
O O13 0.851142 0.732606 0.070631
O O14 0.924283 0.500000 0.996014
O O15 0.911286 0.741820 0.923110
O O16 0.000000 0.739012 0.000000
O O17 0.070123 0.222662 0.222922
O O18 0.118205 0.000000 0.127412
O O19 0.550747 0.500000 0.318756
#
# Coordination Sequence:
#
# PCOD9199220 Si02
#       7
#     8   8   8   8   8   8   8
#     4  11  21  36  59  88 117 149 195 244 292 347
#     4  11  22  37  61  91 121 154 199 244 288 347
#     4  12  25  42  62  85 119 159 199 244 297 350
#     4   9  19  37  59  83 112 147 191 236 284 344
#     4  10  21  37  57  83 115 150 185 229 286 347
#     4   9  19  35  57  84 112 146 189 236 282 336
#     4  10  20  36  59  88 118 153 194 242 296 342
#
# _framework density 18.526221
#
# number of rings (size 3 to 8) (size 9 to 14) (size 15 to 20)
#    0.000    1.714    1.429    4.714    0.000    4.286 
#    2.571    0.000    0.000    0.000    0.000    0.000 
#    0.000    0.000    0.000    0.000    0.000    0.000 
#
# Total GULP energy -156416.632622 kJ/mol
# GULP energy per Si atom -5586.308308 kJ/mol
# Density = 1.848405 g / cm^3
# Si number density = 18.526221 Si / 1000 Ang^3
#
#
#
# Elastic Constant Matrix: (Units=GPa)
#
#
# Indices 1 2 3 4 5 6 
#
# 1 73.2287 12.3435 64.1165 0.0000 13.9453 0.0000
# 2 12.3435 38.9638 27.4308 0.0000 5.1001 0.0000
# 3 64.1165 27.4308 142.5572 0.0000 15.2079 0.0000
# 4 0.0000 0.0000 0.0000 29.2018 0.0000 8.3963
# 5 13.9453 5.1001 15.2079 0.0000 29.1111 0.0000
# 6 0.0000 0.0000 0.0000 8.3963 0.0000 21.0192
#
#
#
# Elastic Compliance Matrix: (Units=1/GPa)
#
#
# Indices 1 2 3 4 5 6 
#
# 1 0.023504 0.000390 -0.009995 0.000000 -0.006106 0.000000
# 2 0.000390 0.029845 -0.005656 0.000000 -0.002461 0.000000
# 3 -0.009995 -0.005656 0.012689 0.000000 -0.000850 0.000000
# 4 0.000000 0.000000 0.000000 0.038688 0.000000 -0.015454
# 5 -0.006106 -0.002461 -0.000850 0.000000 0.038151 0.000000
# 6 0.000000 0.000000 0.000000 -0.015454 0.000000 0.053749
#
#
# Mechanical properties :
#
#
# Convention : Reuss Voigt Hill
#
# Bulk Modulus (GPa) = 28.15563 51.39234 39.77399
# Shear Modulus (GPa) = 20.92171 25.92370 23.42271
#
# Velocity S-wave (km/s) = 3.36416 3.74478 3.55956
# Velocity P-wave (km/s) = 5.50643 6.81897 6.19754
#
# Compressibility (1/GPa) = 0.03551687
#
# Stress axis : x y z
#
# Youngs Moduli (GPa) = 42.54582 33.50641 78.80909
#
# Poissons Ratio (x) = -0.01306 0.78768
# Poissons Ratio (y) = -0.01658 0.44571
# Poissons Ratio (z) = 0.42524 0.18950
#
# Static dielectric constant tensor:
#      x y z
#    x 1.672720 0.000000 0.002840 
#    y 0.000000 1.619980 0.000000 
#    z 0.002840 0.000000 1.632200 
# 
# From -- ./inp_files/275165.got.cif
#   From: 2010.05.17/outbox.cif.g08.bks.cpg/sg12_138_cif.got.tgz:275165.got - 2010.06.03 13:09:07.
