data_PCOD9199287
_publ_section_title
;
Structure prediction by ZEFSAII (Michael W. Deem and Ramdas Pophale) SiO2 
 PCOD9199287
Probable space group: C 2/M
;
_chemical_formula_sum "Si O2"
_cell_formula_units_Z 64
_cell_length_a 29.110883
_cell_length_b 8.709979
_cell_length_c 22.466392
_cell_angle_alpha 90.000000
_cell_angle_beta 149.368379
_cell_angle_gamma 90.000000
_cell_volume 2902.444767
_symmetry_space_group_name_H-M "C 2/M"
_symmetry_group_IT_number 12
_symmetry_cell_setting 'monoclinic'
loop_
_space_group_symop_operation_xyz
x,y,z
-x,y,-z
-x,-y,-z
x,-y,z
1/2+x,1/2+y,z
1/2-x,1/2+y,-z
1/2-x,1/2-y,-z
1/2+x,1/2-y,z
loop_
_atom_site_type_symbol
_atom_site_label
_atom_site_fract_x
_atom_site_fract_y
_atom_site_fract_z
Si Si1 0.108072 0.679351 0.626483
Si Si2 0.873695 0.314908 0.983266
Si Si3 0.708013 0.317672 0.353701
Si Si4 0.306501 0.318120 0.160775
Si Si5 0.967114 0.321101 0.281716
Si Si6 0.895507 0.184268 0.883309
Si Si7 0.629992 0.320692 0.526708
Si Si8 0.949042 0.318432 0.755144
O O1 0.126837 0.500000 0.659086
O O2 0.146440 0.778446 0.723409
O O3 0.148291 0.728441 0.607767
O O4 0.000000 0.698557 0.500000
O O5 0.875233 0.500000 0.984230
O O6 0.796886 0.269116 0.944584
O O7 0.851634 0.254702 0.893223
O O8 0.972745 0.260315 0.113063
O O9 0.721738 0.500000 0.370815
O O10 0.652649 0.274343 0.231889
O O11 0.803143 0.235855 0.450569
O O12 0.644622 0.265372 0.336895
O O13 0.309771 0.500000 0.153475
O O14 0.364375 0.229462 0.176123
O O15 0.976757 0.500000 0.309413
O O16 0.029342 0.219485 0.393825
O O17 0.006906 0.301550 0.260419
O O18 0.893165 0.000000 0.885509
O O19 0.000000 0.234632 0.000000
O O20 0.640769 0.500000 0.549570
O O21 0.934312 0.500000 0.748853
#
# Coordination Sequence:
#
# PCOD9199287 Si02
#       8
#     8   8   8   8   8   8   8   8
#     4  11  22  38  63  92 125 162 199 244 302 362
#     4  10  22  39  61  91 124 160 199 245 301 358
#     4  11  23  40  64  92 125 160 201 248 300 362
#     4  11  23  39  62  93 126 160 201 248 301 362
#     4  11  24  43  64  87 118 160 207 255 304 355
#     4  10  20  36  59  91 125 158 195 241 297 358
#     4  12  25  41  64  92 124 159 200 249 304 363
#     4  10  23  43  64  87 120 160 206 254 301 356
#
# _framework density 22.050376
#
# number of rings (size 3 to 8) (size 9 to 14) (size 15 to 20)
#    0.000    1.250    2.500    3.375    0.000    6.750 
#    0.000    0.000    0.000    0.000    0.000    0.000 
#    0.000    0.000    0.000    0.000    0.000    0.000 
#
# Total GULP energy -179063.901769 kJ/mol
# GULP energy per Si atom -5595.746930 kJ/mol
# Density = 2.200019 g / cm^3
# Si number density = 22.050376 Si / 1000 Ang^3
#
#
#
# Elastic Constant Matrix: (Units=GPa)
#
#
# Indices 1 2 3 4 5 6 
#
# 1 106.6396 25.2426 8.8842 0.0000 34.3790 0.0000
# 2 25.2426 28.5405 1.6114 0.0000 7.5279 0.0000
# 3 8.8842 1.6114 30.4771 0.0000 17.6379 0.0000
# 4 0.0000 0.0000 0.0000 19.7935 0.0000 6.4601
# 5 34.3790 7.5279 17.6379 0.0000 37.4183 0.0000
# 6 0.0000 0.0000 0.0000 6.4601 0.0000 35.9572
#
#
#
# Elastic Compliance Matrix: (Units=1/GPa)
#
#
# Indices 1 2 3 4 5 6 
#
# 1 0.016397 -0.010798 0.004473 0.000000 -0.015001 0.000000
# 2 -0.010798 0.044346 0.000309 0.000000 0.000854 0.000000
# 3 0.004473 0.000309 0.046624 0.000000 -0.026149 0.000000
# 4 0.000000 0.000000 0.000000 0.053669 0.000000 -0.009642
# 5 -0.015001 0.000854 -0.026149 0.000000 0.052661 0.000000
# 6 0.000000 0.000000 0.000000 -0.009642 0.000000 0.029543
#
#
# Mechanical properties :
#
#
# Convention : Reuss Voigt Hill
#
# Bulk Modulus (GPa) = 10.48949 26.34818 18.41884
# Shear Modulus (GPa) = 17.41851 27.29506 22.35679
#
# Velocity S-wave (km/s) = 2.81364 3.52213 3.18763
# Velocity P-wave (km/s) = 3.91444 5.33999 4.68179
#
# Compressibility (1/GPa) = 0.09533348
#
# Stress axis : x y z
#
# Youngs Moduli (GPa) = 60.98734 22.55014 21.44804
#
# Poissons Ratio (x) = 0.24350 -0.09593
# Poissons Ratio (y) = 0.65855 -0.00662
# Poissons Ratio (z) = -0.27277 -0.00697
#
# Static dielectric constant tensor:
#      x y z
#    x 1.820870 0.000000 0.009810 
#    y 0.000000 1.731030 0.000000 
#    z 0.009810 0.000000 1.825320 
# 
# From -- ./inp_files/353533.got.cif
#   From: 2010.05.17/outbox.cif.g08.bks.cpg/sg12_177_cif.got.tgz:353533.got - 2010.06.03 13:09:07.
