data_PCOD9199567
_publ_section_title
;
Structure prediction by ZEFSAII (Michael W. Deem and Ramdas Pophale) SiO2 
 PCOD9199567
Probable space group: C 2/M
;
_chemical_formula_sum "Si O2"
_cell_formula_units_Z 48
_cell_length_a 8.978457
_cell_length_b 20.645767
_cell_length_c 17.386677
_cell_angle_alpha 90.000000
_cell_angle_beta 49.602204
_cell_angle_gamma 90.000000
_cell_volume 2454.456202
_symmetry_space_group_name_H-M "C 2/M"
_symmetry_group_IT_number 12
_symmetry_cell_setting 'monoclinic'
loop_
_space_group_symop_operation_xyz
x,y,z
-x,y,-z
-x,-y,-z
x,-y,z
1/2+x,1/2+y,z
1/2-x,1/2+y,-z
1/2-x,1/2-y,-z
1/2+x,1/2-y,z
loop_
_atom_site_type_symbol
_atom_site_label
_atom_site_fract_x
_atom_site_fract_y
_atom_site_fract_z
Si Si1 0.333469 0.799273 0.116968
Si Si2 0.128616 0.236251 0.617864
Si Si3 0.111277 0.815329 0.782040
Si Si4 0.089634 0.427179 0.811633
Si Si5 0.165409 0.849569 0.379859
Si Si6 0.657857 0.425130 0.884282
O O1 0.120055 0.805692 0.152086
O O2 0.327481 0.740848 0.179732
O O3 0.385231 0.868358 0.137596
O O4 0.500000 0.783503 0.000000
O O5 0.250000 0.250000 0.500000
O O6 0.149121 0.307625 0.650064
O O7 0.202010 0.193063 0.665998
O O8 0.947994 0.195643 0.644075
O O9 0.152287 0.882473 0.809858
O O10 0.117928 0.500000 0.832951
O O11 0.246264 0.411296 0.692204
O O12 0.872147 0.422768 0.849879
O O13 0.000000 0.862459 0.500000
O O14 0.609151 0.500000 0.883881
O O15 0.500000 0.400894 0.000000
#
# Coordination Sequence:
#
# PCOD9199567 Si02
#       6
#     8   8   8   8   8   8
#     4  12  24  37  59  91 123 159 204 253 303 360
#     4  10  20  36  60  90 117 148 197 250 304 358
#     4  12  21  38  62  89 122 158 199 255 305 362
#     4  11  23  40  61  86 123 166 203 249 308 364
#     4  10  21  39  61  91 119 156 200 250 311 361
#     4  10  23  42  63  89 125 168 208 250 305 369
#
# _framework density 19.556266000000001
#
# number of rings (size 3 to 8) (size 9 to 14) (size 15 to 20)
#    0.000    1.167    3.333    3.000    2.333    1.333 
#    0.000    0.000    0.000    0.000    0.000    4.667 
#    0.000    0.000    0.000    0.000    0.000    0.000 
#
# Total GULP energy -133810.021146 kJ/mol
# GULP energy per Si atom -5575.417548 kJ/mol
# Density = 1.951175 g / cm^3
# Si number density = 19.556266 Si / 1000 Ang^3
#
#
#
# Elastic Constant Matrix: (Units=GPa)
#
#
# Indices 1 2 3 4 5 6 
#
# 1 42.5636 21.0986 -6.4841 0.0000 -8.8951 0.0000
# 2 21.0986 81.5638 21.9334 0.0000 5.8910 0.0000
# 3 -6.4841 21.9334 97.3579 0.0000 8.9012 0.0000
# 4 0.0000 0.0000 0.0000 29.0183 0.0000 2.8625
# 5 -8.8951 5.8910 8.9012 0.0000 29.1142 0.0000
# 6 0.0000 0.0000 0.0000 2.8625 0.0000 34.5834
#
#
#
# Elastic Compliance Matrix: (Units=1/GPa)
#
#
# Indices 1 2 3 4 5 6 
#
# 1 0.030946 -0.009639 0.003281 0.000000 0.010402 0.000000
# 2 -0.009639 0.016145 -0.003818 0.000000 -0.005044 0.000000
# 3 0.003281 -0.003818 0.011509 0.000000 -0.001744 0.000000
# 4 0.000000 0.000000 0.000000 0.034745 0.000000 -0.002876
# 5 0.010402 -0.005044 -0.001744 0.000000 0.039079 0.000000
# 6 0.000000 0.000000 0.000000 -0.002876 0.000000 0.029154
#
#
# Mechanical properties :
#
#
# Convention : Reuss Voigt Hill
#
# Bulk Modulus (GPa) = 26.14400 32.73124 29.43762
# Shear Modulus (GPa) = 25.68350 30.87232 28.27791
#
# Velocity S-wave (km/s) = 3.62790 3.97752 3.80673
# Velocity P-wave (km/s) = 5.56296 6.15366 5.86575
#
# Compressibility (1/GPa) = 0.03824969
#
# Stress axis : x y z
#
# Youngs Moduli (GPa) = 32.31465 61.94016 86.88485
#
# Poissons Ratio (x) = 0.59702 -0.28511
# Poissons Ratio (y) = 0.31147 0.33172
# Poissons Ratio (z) = -0.10604 0.23648
#
# Static dielectric constant tensor:
#      x y z
#    x 1.718150 0.000000 -0.010040 
#    y 0.000000 1.671970 0.000000 
#    z -0.010040 0.000000 1.757140 
# 
# From -- ./inp_files/257910.got.cif
#   From: 2010.05.17/outbox.cif.g08.bks.cpg/sg12_129_cif.got.tgz:257910.got - 2010.06.03 13:09:07.
