data_PCOD9199518
_publ_section_title
;
Structure prediction by ZEFSAII (Michael W. Deem and Ramdas Pophale) SiO2 
 PCOD9199518
Probable space group: C 2/M
;
_chemical_formula_sum "Si O2"
_cell_formula_units_Z 32
_cell_length_a 16.942324
_cell_length_b 21.186794
_cell_length_c 7.651363
_cell_angle_alpha 90.000000
_cell_angle_beta 28.248263
_cell_angle_gamma 90.000000
_cell_volume 1299.891426
_symmetry_space_group_name_H-M "C 2/M"
_symmetry_group_IT_number 12
_symmetry_cell_setting 'monoclinic'
loop_
_space_group_symop_operation_xyz
x,y,z
-x,y,-z
-x,-y,-z
x,-y,z
1/2+x,1/2+y,z
1/2-x,1/2+y,-z
1/2-x,1/2-y,-z
1/2+x,1/2-y,z
loop_
_atom_site_type_symbol
_atom_site_label
_atom_site_fract_x
_atom_site_fract_y
_atom_site_fract_z
Si Si1 0.204141 0.569649 0.570560
Si Si2 0.866148 0.297753 0.415432
Si Si3 0.328314 0.567057 0.724429
Si Si4 0.188298 0.700414 0.982172
O O1 0.238970 0.500000 0.420451
O O2 0.235016 0.636352 0.412304
O O3 0.309558 0.570103 0.546953
O O4 0.000000 0.570666 0.000000
O O5 0.773861 0.232292 0.640843
O O6 0.000000 0.291337 0.000000
O O7 0.995288 0.306693 0.321661
O O8 0.500000 0.565901 0.500000
O O9 0.242988 0.500000 0.934247
O O10 0.249836 0.633027 0.922387
O O11 0.250000 0.750000 0.000000
#
# Coordination Sequence:
#
# PCOD9199518 Si02
#       4
#     8   8   8   8
#     4   9  17  34  61  90 119 158 208 256 304 365
#     4  11  22  39  65  92 123 162 209 258 309 365
#     4  10  20  36  60  88 123 166 205 251 312 371
#     4  12  24  41  61  93 129 165 205 256 315 375
#
# _framework density 24.617442
#
# number of rings (size 3 to 8) (size 9 to 14) (size 15 to 20)
#    0.000    1.500    5.000    3.000    0.000    0.000 
#    0.000    1.250    0.000    5.250    0.000    0.000 
#    0.000    0.000    0.000    0.000    0.000    0.000 
#
# Total GULP energy -89084.036701 kJ/mol
# GULP energy per Si atom -5567.752294 kJ/mol
# Density = 2.456141 g / cm^3
# Si number density = 24.617442 Si / 1000 Ang^3
#
#
#
# Elastic Constant Matrix: (Units=GPa)
#
#
# Indices 1 2 3 4 5 6 
#
# 1 149.3518 49.4184 31.8309 -0.0054 -33.5596 0.0167
# 2 49.4184 264.3715 55.3552 -0.0124 -25.0406 0.0315
# 3 31.8309 55.3552 38.8093 -0.0186 -5.1783 0.0505
# 4 -0.0054 -0.0124 -0.0186 -67.8999 0.0058 120.4323
# 5 -33.5596 -25.0406 -5.1783 0.0058 44.4945 -0.0197
# 6 0.0167 0.0315 0.0505 120.4323 -0.0197 -153.7261
#
#
#
# Elastic Compliance Matrix: (Units=1/GPa)
#
#
# Indices 1 2 3 4 5 6 
#
# 1 0.009682 0.000423 -0.007657 0.000005 0.006649 0.000002
# 2 0.000423 0.005627 -0.008033 0.000005 0.002551 0.000002
# 3 -0.007657 -0.008033 0.042796 -0.000030 -0.005316 -0.000011
# 4 0.000005 0.000005 -0.000030 0.037808 0.000011 0.029620
# 5 0.006649 0.002551 -0.005316 0.000011 0.028307 0.000005
# 6 0.000002 0.000002 -0.000011 0.029620 0.000005 0.016700
#
#
# Mechanical properties :
#
#
# Convention : Reuss Voigt Hill
#
# Bulk Modulus (GPa) = 36.27036 80.63798 58.45417
# Shear Modulus (GPa) = 27.67880 -14.36445 6.65717
#
# Velocity S-wave (km/s) = 3.35678 -2.41821 1.64624
# Velocity P-wave (km/s) = 5.45798 5.00306 5.23546
#
# Compressibility (1/GPa) = 0.02757072
#
# Stress axis : x y z
#
# Youngs Moduli (GPa) = 103.28815 177.71394 23.36668
#
# Poissons Ratio (x) = -0.07524 0.17893
# Poissons Ratio (y) = -0.04373 0.18770
# Poissons Ratio (z) = 0.79093 1.42756
#
# Static dielectric constant tensor:
#      x y z
#    x 2.201830 0.000000 0.119520 
#    y 0.000000 1.952300 0.000000 
#    z 0.119520 0.000000 2.260580 
# 
# From -- ./inp_files/77156.got.cif
#   From: 2010.05.17/outbox.cif.g08.bks.cpg/sg12_39_cif.got.tgz:77156.got - 2010.06.03 13:09:07.
