data_PCOD9199001
_publ_section_title
;
Structure prediction by ZEFSAII (Michael W. Deem and Ramdas Pophale) SiO2 
 PCOD9199001
Probable space group: C 2/M
;
_chemical_formula_sum "Si O2"
_cell_formula_units_Z 40
_cell_length_a 13.532280
_cell_length_b 9.205576
_cell_length_c 17.760972
_cell_angle_alpha 90.000000
_cell_angle_beta 89.404479
_cell_angle_gamma 90.000000
_cell_volume 2212.407967
_symmetry_space_group_name_H-M "C 2/M"
_symmetry_group_IT_number 12
_symmetry_cell_setting 'monoclinic'
loop_
_space_group_symop_operation_xyz
x,y,z
-x,y,-z
-x,-y,-z
x,-y,z
1/2+x,1/2+y,z
1/2-x,1/2+y,-z
1/2-x,1/2-y,-z
1/2+x,1/2-y,z
loop_
_atom_site_type_symbol
_atom_site_label
_atom_site_fract_x
_atom_site_fract_y
_atom_site_fract_z
Si Si1 0.121116 0.000000 0.586860
Si Si2 0.749268 0.754336 0.333684
Si Si3 0.614807 0.500000 0.406162
Si Si4 0.601281 0.830292 0.795563
Si Si5 0.383099 0.166916 0.802849
Si Si6 0.747549 0.824859 0.919382
O O1 0.185947 0.862316 0.615258
O O2 0.117924 0.000000 0.496622
O O3 0.003982 0.000000 0.613713
O O4 0.678044 0.638916 0.375902
O O5 0.829955 0.683063 0.277544
O O6 0.679065 0.832987 0.273522
O O7 0.491920 0.774256 0.783905
O O8 0.654143 0.771662 0.869887
O O9 0.590396 0.000000 0.810181
O O10 0.336693 0.270131 0.866214
O O11 0.383672 0.000000 0.830947
O O12 0.747232 0.000000 0.925885
O O13 0.750000 0.750000 0.000000
#
# Coordination Sequence:
#
# PCOD9199001 Si02
#       6
#     4   8   4   8   8   8
#     4  11  24  40  59  97 118 163 209 249 311 371
#     4  11  20  40  61  86 121 160 200 252 306 360
#     4  11  24  40  63  85 132 161 199 257 311 369
#     4   9  19  36  59  82 108 153 201 237 299 358
#     4  10  20  36  59  84 110 149 200 250 290 353
#     4  10  21  37  56  81 117 154 192 240 300 357
#
# _framework density 18.079847999999998
#
# number of rings (size 3 to 8) (size 9 to 14) (size 15 to 20)
#    0.000    1.800    2.000    2.400    1.400    0.800 
#    1.800    4.000    0.000    4.800    0.000    0.000 
#    0.000    0.000    0.000    0.000    0.000    0.000 
#
# Total GULP energy -111340.196873 kJ/mol
# GULP energy per Si atom -5567.009844 kJ/mol
# Density = 1.803870 g / cm^3
# Si number density = 18.079848 Si / 1000 Ang^3
#
#
#
# Elastic Constant Matrix: (Units=GPa)
#
#
# Indices 1 2 3 4 5 6 
#
# 1 167.0947 45.5200 61.0433 0.0000 -6.2010 0.0000
# 2 45.5200 85.0529 43.4715 0.0000 -2.3001 0.0000
# 3 61.0433 43.4715 115.0142 0.0000 -1.6460 0.0000
# 4 0.0000 0.0000 0.0000 26.1372 0.0000 -1.0798
# 5 -6.2010 -2.3001 -1.6460 0.0000 10.9537 0.0000
# 6 0.0000 0.0000 0.0000 -1.0798 0.0000 25.8404
#
#
#
# Elastic Compliance Matrix: (Units=1/GPa)
#
#
# Indices 1 2 3 4 5 6 
#
# 1 0.007984 -0.002526 -0.003232 0.000000 0.003504 0.000000
# 2 -0.002526 0.015427 -0.004474 0.000000 0.001137 0.000000
# 3 -0.003232 -0.004474 0.012087 0.000000 -0.000953 0.000000
# 4 0.000000 0.000000 0.000000 0.038326 0.000000 0.001602
# 5 0.003504 0.001137 -0.000953 0.000000 0.093373 0.000000
# 6 0.000000 0.000000 0.000000 0.001602 0.000000 0.038766
#
#
# Mechanical properties :
#
#
# Convention : Reuss Voigt Hill
#
# Bulk Modulus (GPa) = 66.51873 74.13683 70.32778
# Shear Modulus (GPa) = 21.60406 27.06137 24.33272
#
# Velocity S-wave (km/s) = 3.46052 3.87301 3.67256
# Velocity P-wave (km/s) = 7.26901 7.81630 7.54761
#
# Compressibility (1/GPa) = 0.01503336
#
# Stress axis : x y z
#
# Youngs Moduli (GPa) = 125.25609 64.82286 82.73016
#
# Poissons Ratio (x) = 0.16374 0.26742
# Poissons Ratio (y) = 0.31639 0.37012
# Poissons Ratio (z) = 0.40488 0.29001
#
# Static dielectric constant tensor:
#      x y z
#    x 1.685150 0.000000 0.024270 
#    y 0.000000 1.585200 0.000000 
#    z 0.024270 0.000000 1.584490 
# 
# From -- ./inp_files/211387.got.cif
#   From: 2010.05.17/outbox.cif.g08.bks.cpg/sg12_106_cif.got.tgz:211387.got - 2010.06.03 13:09:07.
