data_PCOD9199504
_publ_section_title
;
Structure prediction by ZEFSAII (Michael W. Deem and Ramdas Pophale) SiO2 
 PCOD9199504
Probable space group: C 2/M
;
_chemical_formula_sum "Si O2"
_cell_formula_units_Z 64
_cell_length_a 8.856853
_cell_length_b 19.062467
_cell_length_c 30.787998
_cell_angle_alpha 90.000000
_cell_angle_beta 138.858497
_cell_angle_gamma 90.000000
_cell_volume 3419.902243
_symmetry_space_group_name_H-M "C 2/M"
_symmetry_group_IT_number 12
_symmetry_cell_setting 'monoclinic'
loop_
_space_group_symop_operation_xyz
x,y,z
-x,y,-z
-x,-y,-z
x,-y,z
1/2+x,1/2+y,z
1/2-x,1/2+y,-z
1/2-x,1/2-y,-z
1/2+x,1/2-y,z
loop_
_atom_site_type_symbol
_atom_site_label
_atom_site_fract_x
_atom_site_fract_y
_atom_site_fract_z
Si Si1 0.236612 0.920703 0.789755
Si Si2 0.423751 0.195191 0.278518
Si Si3 0.817689 0.420530 0.326412
Si Si4 0.341425 0.660224 0.309246
Si Si5 0.570400 0.829000 0.090122
Si Si6 0.995620 0.181181 0.879822
Si Si7 0.616140 0.583214 0.978079
Si Si8 0.693283 0.916314 0.576434
O O1 0.279020 0.893529 0.750396
O O2 0.337151 0.868963 0.847190
O O3 0.960197 0.920416 0.734329
O O4 0.321113 0.000000 0.814724
O O5 0.399716 0.137156 0.310634
O O6 0.409869 0.272331 0.295714
O O7 0.661703 0.184537 0.305720
O O8 0.216014 0.186714 0.199276
O O9 0.892815 0.500000 0.331811
O O10 0.884983 0.404458 0.390713
O O11 0.568392 0.624350 0.377427
O O12 0.499836 0.751251 0.089879
O O13 0.772727 0.824992 0.098502
O O14 0.354053 0.874078 0.027588
O O15 0.970367 0.115848 0.907077
O O16 0.649841 0.500000 0.980420
O O17 0.500000 0.595688 0.000000
O O18 0.500000 0.896310 0.500000
O O19 0.735913 0.000000 0.581801
#
# Coordination Sequence:
#
# PCOD9199504 Si02
#       8
#     8   8   8   8   8   8   8   8
#     4  10  20  36  60  88 120 157 199 248 304 362
#     4  12  23  39  61  93 128 164 204 260 306 362
#     4   9  19  37  59  90 125 159 203 251 301 356
#     4  11  22  37  61  91 127 162 207 250 306 357
#     4  12  23  42  65  91 119 159 208 254 313 372
#     4  12  25  41  66  90 121 165 209 250 314 375
#     4  11  27  47  64  88 123 159 205 262 314 374
#     4   9  19  40  67  92 125 169 208 245 300 368
#
# _framework density 18.713985999999998
#
# number of rings (size 3 to 8) (size 9 to 14) (size 15 to 20)
#    0.000    1.250    2.500    5.250    1.750    3.000 
#    0.000    3.125    0.000    2.250    0.000    0.000 
#    0.000    0.000    0.000    0.000    0.000    0.000 
#
# Total GULP energy -178891.420707 kJ/mol
# GULP energy per Si atom -5590.356897 kJ/mol
# Density = 1.867139 g / cm^3
# Si number density = 18.713986 Si / 1000 Ang^3
#
#
#
# Elastic Constant Matrix: (Units=GPa)
#
#
# Indices 1 2 3 4 5 6 
#
# 1 73.4681 47.6445 29.7378 -0.0005 11.1110 0.0003
# 2 47.6445 98.0662 42.3987 0.0001 0.0350 0.0000
# 3 29.7378 42.3987 112.9295 0.0004 -3.4703 -0.0002
# 4 -0.0005 0.0001 0.0004 23.8667 0.0002 0.4061
# 5 11.1110 0.0350 -3.4703 0.0002 11.9375 -0.0001
# 6 0.0003 0.0000 -0.0002 0.4061 -0.0001 27.7249
#
#
#
# Elastic Compliance Matrix: (Units=1/GPa)
#
#
# Indices 1 2 3 4 5 6 
#
# 1 0.026060 -0.011162 -0.003447 0.000001 -0.025225 0.000000
# 2 -0.011162 0.016976 -0.003145 0.000000 0.009425 0.000000
# 3 -0.003447 -0.003145 0.011142 0.000000 0.006456 0.000000
# 4 0.000001 0.000000 0.000000 0.041910 -0.000001 -0.000614
# 5 -0.025225 0.009425 0.006456 -0.000001 0.109097 0.000001
# 6 0.000000 0.000000 0.000000 -0.000614 0.000001 0.036078
#
#
# Mechanical properties :
#
#
# Convention : Reuss Voigt Hill
#
# Bulk Modulus (GPa) = 53.55842 58.22509 55.89175
# Shear Modulus (GPa) = 17.66829 23.68468 20.67648
#
# Velocity S-wave (km/s) = 3.07599 3.56141 3.32756
# Velocity P-wave (km/s) = 6.42629 6.93485 6.68541
#
# Compressibility (1/GPa) = 0.01867120
#
# Stress axis : x y z
#
# Youngs Moduli (GPa) = 38.37324 58.90581 89.75163
#
# Poissons Ratio (x) = 0.65749 0.30937
# Poissons Ratio (y) = 0.42831 0.28225
# Poissons Ratio (z) = 0.13227 0.18525
#
# Static dielectric constant tensor:
#      x y z
#    x 1.627850 0.000000 -0.006780 
#    y 0.000000 1.646610 0.000000 
#    z -0.006780 0.000000 1.650290 
# 
# From -- ./inp_files/372999.got.cif
#   From: 2010.05.17/outbox.cif.g08.bks.cpg/sg12_187_cif.got.tgz:372999.got - 2010.06.03 13:09:07.
