data_PCOD9199402
_publ_section_title
;
Structure prediction by ZEFSAII (Michael W. Deem and Ramdas Pophale) SiO2 
 PCOD9199402
Probable space group: C 2/M
;
_chemical_formula_sum "Si O2"
_cell_formula_units_Z 40
_cell_length_a 8.054903
_cell_length_b 18.682143
_cell_length_c 12.188699
_cell_angle_alpha 90.000000
_cell_angle_beta 78.957158
_cell_angle_gamma 90.000000
_cell_volume 1800.228725
_symmetry_space_group_name_H-M "C 2/M"
_symmetry_group_IT_number 12
_symmetry_cell_setting 'monoclinic'
loop_
_space_group_symop_operation_xyz
x,y,z
-x,y,-z
-x,-y,-z
x,-y,z
1/2+x,1/2+y,z
1/2-x,1/2+y,-z
1/2-x,1/2-y,-z
1/2+x,1/2-y,z
loop_
_atom_site_type_symbol
_atom_site_label
_atom_site_fract_x
_atom_site_fract_y
_atom_site_fract_z
Si Si1 0.928083 0.708548 0.399561
Si Si2 0.879462 0.919408 0.798205
Si Si3 0.299781 0.331078 0.010811
Si Si4 0.196555 0.921472 0.440921
Si Si5 0.223749 0.832946 0.736200
O O1 0.794274 0.650169 0.459737
O O2 0.854049 0.759758 0.312076
O O3 0.000000 0.748018 0.500000
O O4 0.089507 0.664658 0.336398
O O5 0.789043 0.921073 0.692795
O O6 0.063210 0.885655 0.746124
O O7 0.904706 0.000000 0.836131
O O8 0.773647 0.876345 0.903504
O O9 0.232429 0.344737 0.140430
O O10 0.500000 0.337201 0.000000
O O11 0.250000 0.250000 0.000000
O O12 0.000000 0.918175 0.500000
O O13 0.258668 0.000000 0.473518
#
# Coordination Sequence:
#
# PCOD9199402 Si02
#       5
#     8   8   8   8   8
#     4  12  24  39  62  92 127 164 208 259 311 371
#     4  10  22  41  64  91 125 166 208 253 311 372
#     4  10  20  36  60  86 120 161 203 253 304 364
#     4  10  22  42  65  90 126 167 206 254 313 374
#     4  11  23  37  59  90 124 160 204 256 306 366
#
# _framework density 22.219398999999999
#
# number of rings (size 3 to 8) (size 9 to 14) (size 15 to 20)
#    0.000    1.400    0.000    6.600    0.000    6.400 
#    0.000    0.000    0.000    3.000    0.000    0.000 
#    0.000    0.000    0.000    0.000    0.000    0.000 
#
# Total GULP energy -111362.903603 kJ/mol
# GULP energy per Si atom -5568.145180 kJ/mol
# Density = 2.216883 g / cm^3
# Si number density = 22.219399 Si / 1000 Ang^3
#
#
#
# Elastic Constant Matrix: (Units=GPa)
#
#
# Indices 1 2 3 4 5 6 
#
# 1 47.0247 28.4787 21.9722 0.0000 -14.4998 0.0000
# 2 28.4787 133.7090 24.7836 0.0000 -7.0822 0.0000
# 3 21.9722 24.7836 127.1954 0.0000 -10.7694 0.0000
# 4 0.0000 0.0000 0.0000 24.3732 0.0000 -14.2580
# 5 -14.4998 -7.0822 -10.7694 0.0000 32.5976 0.0000
# 6 0.0000 0.0000 0.0000 -14.2580 0.0000 19.8811
#
#
#
# Elastic Compliance Matrix: (Units=1/GPa)
#
#
# Indices 1 2 3 4 5 6 
#
# 1 0.029124 -0.005049 -0.003131 0.000000 0.010823 0.000000
# 2 -0.005049 0.008682 -0.000874 0.000000 -0.000649 0.000000
# 3 -0.003131 -0.000874 0.008682 0.000000 0.001286 0.000000
# 4 0.000000 0.000000 0.000000 0.070682 0.000000 0.050691
# 5 0.010823 -0.000649 0.001286 0.000000 0.035775 0.000000
# 6 0.000000 0.000000 0.000000 0.050691 0.000000 0.086653
#
#
# Mechanical properties :
#
#
# Convention : Reuss Voigt Hill
#
# Bulk Modulus (GPa) = 35.23776 50.93314 43.08545
# Shear Modulus (GPa) = 18.71496 30.88334 24.79915
#
# Velocity S-wave (km/s) = 2.90536 3.73222 3.34444
# Velocity P-wave (km/s) = 5.21040 6.44555 5.86061
#
# Compressibility (1/GPa) = 0.02837865
#
# Stress axis : x y z
#
# Youngs Moduli (GPa) = 34.33651 115.17921 115.18152
#
# Poissons Ratio (x) = 0.58159 0.36059
# Poissons Ratio (y) = 0.17338 0.10071
# Poissons Ratio (z) = 0.10750 0.10071
#
# Static dielectric constant tensor:
#      x y z
#    x 1.807000 0.000000 0.056880 
#    y 0.000000 1.858770 0.000000 
#    z 0.056880 0.000000 2.012820 
# 
# From -- ./inp_files/118958.got.cif
#   From: 2010.05.17/outbox.cif.g08.bks.cpg/sg12_60_cif.got.tgz:118958.got - 2010.06.03 13:09:07.
