data_PCOD9199899
_publ_section_title
;
Structure prediction by ZEFSAII (Michael W. Deem and Ramdas Pophale) SiO2 
 PCOD9199899
Probable space group: C 2/M
;
_chemical_formula_sum "Si O2"
_cell_formula_units_Z 64
_cell_length_a 19.950082
_cell_length_b 8.198372
_cell_length_c 32.065144
_cell_angle_alpha 90.000000
_cell_angle_beta 36.079921
_cell_angle_gamma 90.000000
_cell_volume 3088.565127
_symmetry_space_group_name_H-M "C 2/M"
_symmetry_group_IT_number 12
_symmetry_cell_setting 'monoclinic'
loop_
_space_group_symop_operation_xyz
x,y,z
-x,y,-z
-x,-y,-z
x,-y,z
1/2+x,1/2+y,z
1/2-x,1/2+y,-z
1/2-x,1/2-y,-z
1/2+x,1/2-y,z
loop_
_atom_site_type_symbol
_atom_site_label
_atom_site_fract_x
_atom_site_fract_y
_atom_site_fract_z
Si Si1 0.974133 0.197184 0.234256
Si Si2 0.857089 0.189478 0.973213
Si Si3 0.436116 0.199593 0.490375
Si Si4 0.995640 0.304046 0.369413
Si Si5 0.825290 0.802823 0.388295
Si Si6 0.263383 0.691661 0.887859
Si Si7 0.906081 0.312239 0.178542
Si Si8 0.778980 0.690051 0.789395
O O1 0.906311 0.251071 0.309436
O O2 0.916675 0.261352 0.221273
O O3 0.106429 0.247687 0.169358
O O4 0.972573 0.000000 0.234245
O O5 0.821851 0.215462 0.038814
O O6 0.877555 0.000000 0.953692
O O7 0.750000 0.250000 0.000000
O O8 0.969655 0.285714 0.903949
O O9 0.500000 0.254733 0.500000
O O10 0.494007 0.253446 0.417981
O O11 0.304027 0.249441 0.554716
O O12 0.437791 0.000000 0.490001
O O13 0.005497 0.500000 0.365670
O O14 0.880461 0.259518 0.403232
O O15 0.102467 0.242434 0.288716
O O16 0.826472 0.000000 0.388866
O O17 0.256226 0.500000 0.901589
O O18 0.242111 0.718990 0.849821
O O19 0.872420 0.500000 0.192020
O O20 0.815310 0.207460 0.198769
O O21 0.794439 0.500000 0.792482
#
# Coordination Sequence:
#
# PCOD9199899 Si02
#       8
#     8   8   8   8   8   8   8   8
#     4  10  21  37  61  91 122 159 207 257 307 364
#     4  12  24  41  65  93 125 162 206 253 308 366
#     4   9  19  35  58  89 122 159 206 251 300 358
#     4  10  21  37  61  89 120 160 203 253 302 361
#     4  10  20  36  62  89 119 162 205 251 301 361
#     4  11  22  40  65  92 125 161 206 257 308 365
#     4  12  26  42  63  91 124 162 206 255 312 370
#     4  11  24  41  62  90 126 163 206 257 313 369
#
# _framework density 20.721598
#
# number of rings (size 3 to 8) (size 9 to 14) (size 15 to 20)
#    0.000    1.375    2.500    3.375    1.750    2.000 
#    0.000    2.500    0.000    0.750    0.000    0.000 
#    0.000    0.000    0.000    0.000    0.000    0.000 
#
# Total GULP energy -178947.631159 kJ/mol
# GULP energy per Si atom -5592.113474 kJ/mol
# Density = 2.067443 g / cm^3
# Si number density = 20.721598 Si / 1000 Ang^3
#
#
#
# Elastic Constant Matrix: (Units=GPa)
#
#
# Indices 1 2 3 4 5 6 
#
# 1 117.7730 -11.1835 24.4439 0.0048 17.2460 0.0377
# 2 -11.1835 21.9456 -4.8229 -0.0012 4.3295 -0.0015
# 3 24.4439 -4.8229 70.8465 0.0000 18.9575 -0.0011
# 4 0.0048 -0.0012 0.0000 5.7121 -0.0021 1.5229
# 5 17.2460 4.3295 18.9575 -0.0021 38.1410 -0.0021
# 6 0.0377 -0.0015 -0.0011 1.5229 -0.0021 32.4008
#
#
#
# Elastic Compliance Matrix: (Units=1/GPa)
#
#
# Indices 1 2 3 4 5 6 
#
# 1 0.010035 0.005507 -0.001968 -0.000006 -0.004185 -0.000011
# 2 0.005507 0.051420 0.004416 0.000004 -0.010522 -0.000005
# 3 -0.001968 0.004416 0.017290 -0.000001 -0.008205 0.000003
# 4 -0.000006 0.000004 -0.000001 0.177289 0.000012 -0.008333
# 5 -0.004185 -0.010522 -0.008205 0.000012 0.033383 0.000006
# 6 -0.000011 -0.000005 0.000003 -0.008333 0.000006 0.031255
#
#
# Mechanical properties :
#
#
# Convention : Reuss Voigt Hill
#
# Bulk Modulus (GPa) = 10.56467 25.27112 17.91790
# Shear Modulus (GPa) = 14.86704 28.72595 21.79650
#
# Velocity S-wave (km/s) = 2.68146 3.72732 3.24678
# Velocity P-wave (km/s) = 3.83359 5.54490 4.76667
#
# Compressibility (1/GPa) = 0.09465513
#
# Stress axis : x y z
#
# Youngs Moduli (GPa) = 99.65118 19.44774 57.83626
#
# Poissons Ratio (x) = -0.10710 0.11381
# Poissons Ratio (y) = -0.54877 -0.25540
# Poissons Ratio (z) = 0.19609 -0.08588
#
# Static dielectric constant tensor:
#      x y z
#    x 1.710690 0.000000 0.010010 
#    y 0.000000 1.726190 0.000000 
#    z 0.010010 0.000000 1.734620 
# 
# From -- ./inp_files/378250.got.cif
#   From: 2010.05.17/outbox.cif.g08.bks.cpg/sg12_190_cif.got.tgz:378250.got - 2010.06.03 13:09:07.
