data_PCOD9199158
_publ_section_title
;
Structure prediction by ZEFSAII (Michael W. Deem and Ramdas Pophale) SiO2 
 PCOD9199158
Probable space group: C 2/M
;
_chemical_formula_sum "Si O2"
_cell_formula_units_Z 64
_cell_length_a 23.305216
_cell_length_b 8.976644
_cell_length_c 17.136512
_cell_angle_alpha 90.000000
_cell_angle_beta 96.209240
_cell_angle_gamma 90.000000
_cell_volume 3563.972035
_symmetry_space_group_name_H-M "C 2/M"
_symmetry_group_IT_number 12
_symmetry_cell_setting 'monoclinic'
loop_
_space_group_symop_operation_xyz
x,y,z
-x,y,-z
-x,-y,-z
x,-y,z
1/2+x,1/2+y,z
1/2-x,1/2+y,-z
1/2-x,1/2-y,-z
1/2+x,1/2-y,z
loop_
_atom_site_type_symbol
_atom_site_label
_atom_site_fract_x
_atom_site_fract_y
_atom_site_fract_z
Si Si1 0.234118 0.820963 0.118059
Si Si2 0.331063 0.318664 0.734764
Si Si3 0.486361 0.171654 0.368634
Si Si4 0.160288 0.822064 0.952626
Si Si5 0.964873 0.177573 0.773414
Si Si6 0.699560 0.676406 0.443228
Si Si7 0.906522 0.671825 0.495573
Si Si8 0.465905 0.177635 0.074967
O O1 0.257194 0.500000 0.879036
O O2 0.207318 0.772729 0.196788
O O3 0.293681 0.742956 0.102417
O O4 0.188185 0.789604 0.041975
O O5 0.331282 0.500000 0.734193
O O6 0.397979 0.272962 0.754567
O O7 0.306843 0.269006 0.647303
O O8 0.500833 0.277341 0.299449
O O9 0.431355 0.209890 0.413948
O O10 0.540234 0.174991 0.436205
O O11 0.480170 0.000000 0.340646
O O12 0.097576 0.749629 0.935787
O O13 0.156076 0.000000 0.943820
O O14 0.996140 0.255857 0.849788
O O15 0.965216 0.000000 0.784229
O O16 0.707887 0.500000 0.441918
O O17 0.750000 0.750000 0.500000
O O18 0.641069 0.718562 0.479154
O O19 0.885304 0.500000 0.490334
O O20 0.460387 0.000000 0.082604
O O21 0.500000 0.209580 0.000000
#
# Coordination Sequence:
#
# PCOD9199158 Si02
#       8
#     8   8   8   8   8   8   8   8
#     4   9  18  36  61  84 111 151 192 231 279 335
#     4   9  19  36  58  83 110 144 187 232 282 339
#     4   9  18  34  57  84 113 147 186 227 279 339
#     4  10  20  36  59  87 117 148 188 235 282 332
#     4  11  21  36  59  87 116 147 189 238 287 337
#     4  11  22  38  57  81 112 147 191 238 289 343
#     4   9  18  35  58  82 111 147 186 229 280 339
#     4  11  24  40  58  84 118 155 192 230 281 340
#
# _framework density 17.957492999999999
#
# number of rings (size 3 to 8) (size 9 to 14) (size 15 to 20)
#    0.000    2.125    1.250    3.000    0.000    3.000 
#    2.250    3.750    0.000    0.000    0.000    0.000 
#    0.000    0.000    0.000    0.000    0.000    0.000 
#
# Total GULP energy -178590.332959 kJ/mol
# GULP energy per Si atom -5580.947905 kJ/mol
# Density = 1.791662 g / cm^3
# Si number density = 17.957493 Si / 1000 Ang^3
#
#
#
# Elastic Constant Matrix: (Units=GPa)
#
#
# Indices 1 2 3 4 5 6 
#
# 1 109.6171 46.2919 90.9423 0.0000 -0.3481 0.0000
# 2 46.2919 44.4975 56.6850 0.0000 -0.9031 0.0000
# 3 90.9423 56.6850 141.4046 0.0000 -9.2415 0.0000
# 4 0.0000 0.0000 0.0000 25.7824 0.0000 -0.4105
# 5 -0.3481 -0.9031 -9.2415 0.0000 25.8705 0.0000
# 6 0.0000 0.0000 0.0000 -0.4105 0.0000 27.7767
#
#
#
# Elastic Compliance Matrix: (Units=1/GPa)
#
#
# Indices 1 2 3 4 5 6 
#
# 1 0.021771 -0.009347 -0.010502 0.000000 -0.003785 0.000000
# 2 -0.009347 0.050604 -0.014506 0.000000 -0.003541 0.000000
# 3 -0.010502 -0.014506 0.020067 0.000000 0.006521 0.000000
# 4 0.000000 0.000000 0.000000 0.038795 0.000000 0.000573
# 5 -0.003785 -0.003541 0.006521 0.000000 0.040809 0.000000
# 6 0.000000 0.000000 0.000000 0.000573 0.000000 0.036010
#
#
# Mechanical properties :
#
#
# Convention : Reuss Voigt Hill
#
# Bulk Modulus (GPa) = 42.13634 75.92859 59.03247
# Shear Modulus (GPa) = 17.56383 22.65926 20.11154
#
# Velocity S-wave (km/s) = 3.13082 3.55607 3.35020
# Velocity P-wave (km/s) = 6.04854 7.69643 6.92170
#
# Compressibility (1/GPa) = 0.02373248
#
# Stress axis : x y z
#
# Youngs Moduli (GPa) = 45.93312 19.76126 49.83306
#
# Poissons Ratio (x) = 0.18472 0.52334
# Poissons Ratio (y) = 0.42935 0.72285
# Poissons Ratio (z) = 0.48238 0.28665
#
# Static dielectric constant tensor:
#      x y z
#    x 1.513260 0.000000 -0.054360 
#    y 0.000000 1.605700 0.000000 
#    z -0.054360 0.000000 1.582020 
# 
# From -- ./inp_files/238572.got.cif
#   From: 2010.05.17/outbox.cif.g08.bks.cpg/sg12_120_cif.got.tgz:238572.got - 2010.06.03 13:09:07.
