data_PCOD9199187
_publ_section_title
;
Structure prediction by ZEFSAII (Michael W. Deem and Ramdas Pophale) SiO2 
 PCOD9199187
Probable space group: C 2/M
;
_chemical_formula_sum "Si O2"
_cell_formula_units_Z 64
_cell_length_a 30.624520
_cell_length_b 8.319736
_cell_length_c 16.473388
_cell_angle_alpha 90.000000
_cell_angle_beta 46.741025
_cell_angle_gamma 90.000000
_cell_volume 3056.682890
_symmetry_space_group_name_H-M "C 2/M"
_symmetry_group_IT_number 12
_symmetry_cell_setting 'monoclinic'
loop_
_space_group_symop_operation_xyz
x,y,z
-x,y,-z
-x,-y,-z
x,-y,z
1/2+x,1/2+y,z
1/2-x,1/2+y,-z
1/2-x,1/2-y,-z
1/2+x,1/2-y,z
loop_
_atom_site_type_symbol
_atom_site_label
_atom_site_fract_x
_atom_site_fract_y
_atom_site_fract_z
Si Si1 0.221516 0.191943 0.952617
Si Si2 0.897219 0.685879 0.974568
Si Si3 0.544547 0.306825 0.372674
Si Si4 0.876056 0.689490 0.336905
Si Si5 0.995914 0.188706 0.260439
Si Si6 0.156475 0.189280 0.790942
Si Si7 0.664677 0.192545 0.299552
Si Si8 0.792804 0.303763 0.584652
O O1 0.159241 0.275666 0.011299
O O2 0.270630 0.229880 0.821167
O O3 0.212210 0.000000 0.966013
O O4 0.250000 0.250000 0.000000
O O5 0.913725 0.500000 0.947641
O O6 0.875159 0.726668 0.093136
O O7 0.953232 0.788285 0.872355
O O8 0.500000 0.246935 0.500000
O O9 0.541422 0.500000 0.375122
O O10 0.523309 0.251177 0.311132
O O11 0.611547 0.261377 0.313069
O O12 0.868315 0.500000 0.330809
O O13 0.877502 0.780585 0.249922
O O14 0.821495 0.748905 0.463468
O O15 0.936608 0.718264 0.309763
O O16 0.981290 0.000000 0.287160
O O17 0.224679 0.247630 0.688025
O O18 0.159692 0.000000 0.805981
O O19 0.666356 0.247799 0.390870
O O20 0.658410 0.000000 0.306880
O O21 0.792879 0.500000 0.583750
#
# Coordination Sequence:
#
# PCOD9199187 Si02
#       8
#     8   8   8   8   8   8   8   8
#     4  11  22  38  60  88 124 162 206 253 307 370
#     4  12  25  42  64  92 125 163 211 265 317 369
#     4  10  22  39  59  88 125 162 206 257 305 361
#     4  11  23  40  64  95 126 159 208 263 314 372
#     4  11  24  43  64  88 124 170 213 256 316 378
#     4  11  22  42  67  92 127 167 207 253 316 380
#     4  10  20  36  59  87 119 160 203 244 299 365
#     4   9  19  38  63  92 128 164 202 254 311 376
#
# _framework density 20.937728
#
# number of rings (size 3 to 8) (size 9 to 14) (size 15 to 20)
#    0.000    1.375    1.250    4.500    0.000    4.750 
#    0.000    5.000    0.000    0.000    0.000    0.000 
#    0.000    0.000    0.000    0.000    0.000    0.000 
#
# Total GULP energy -178971.342431 kJ/mol
# GULP energy per Si atom -5592.854451 kJ/mol
# Density = 2.089007 g / cm^3
# Si number density = 20.937728 Si / 1000 Ang^3
#
#
#
# Elastic Constant Matrix: (Units=GPa)
#
#
# Indices 1 2 3 4 5 6 
#
# 1 68.9648 -7.3094 6.6417 0.0001 6.2639 0.0000
# 2 -7.3094 17.7463 -1.6759 -0.0001 0.6757 -0.0003
# 3 6.6417 -1.6759 79.4899 0.0001 8.2784 0.0000
# 4 0.0001 -0.0001 0.0001 18.0842 0.0000 -1.1401
# 5 6.2639 0.6757 8.2784 0.0000 35.0466 0.0000
# 6 0.0000 -0.0003 0.0000 -1.1401 0.0000 29.7721
#
#
#
# Elastic Compliance Matrix: (Units=1/GPa)
#
#
# Indices 1 2 3 4 5 6 
#
# 1 0.015508 0.006407 -0.000881 0.000000 -0.002687 0.000000
# 2 0.006407 0.059176 0.000974 0.000000 -0.002516 0.000001
# 3 -0.000881 0.000974 0.012979 0.000000 -0.002927 0.000000
# 4 0.000000 0.000000 0.000000 0.055431 0.000000 0.002123
# 5 -0.002687 -0.002516 -0.002927 0.000000 0.029754 0.000000
# 6 0.000000 0.000001 0.000000 0.002123 0.000000 0.033670
#
#
# Mechanical properties :
#
#
# Convention : Reuss Voigt Hill
#
# Bulk Modulus (GPa) = 9.93405 17.94598 13.94001
# Shear Modulus (GPa) = 22.01943 27.81687 24.91815
#
# Velocity S-wave (km/s) = 3.24645 3.64889 3.45354
# Velocity P-wave (km/s) = 4.33676 5.13247 4.75130
#
# Compressibility (1/GPa) = 0.10066391
#
# Stress axis : x y z
#
# Youngs Moduli (GPa) = 64.48252 16.89866 77.04626
#
# Poissons Ratio (x) = -0.10826 0.06786
# Poissons Ratio (y) = -0.41311 -0.07507
# Poissons Ratio (z) = 0.05680 -0.01647
#
# Static dielectric constant tensor:
#      x y z
#    x 1.731390 0.000000 0.012280 
#    y 0.000000 1.723980 0.000000 
#    z 0.012280 0.000000 1.762280 
# 
# From -- ./inp_files/249672.got.cif
#   From: 2010.05.17/outbox.cif.g08.bks.cpg/sg12_125_cif.got.tgz:249672.got - 2010.06.03 13:09:07.
