data_PCOD9199021
_publ_section_title
;
Structure prediction by ZEFSAII (Michael W. Deem and Ramdas Pophale) SiO2 
 PCOD9199021
Probable space group: C 2/M
;
_chemical_formula_sum "Si O2"
_cell_formula_units_Z 48
_cell_length_a 20.692336
_cell_length_b 9.581871
_cell_length_c 18.807343
_cell_angle_alpha 90.000000
_cell_angle_beta 145.262572
_cell_angle_gamma 90.000000
_cell_volume 2124.820646
_symmetry_space_group_name_H-M "C 2/M"
_symmetry_group_IT_number 12
_symmetry_cell_setting 'monoclinic'
loop_
_space_group_symop_operation_xyz
x,y,z
-x,y,-z
-x,-y,-z
x,-y,z
1/2+x,1/2+y,z
1/2-x,1/2+y,-z
1/2-x,1/2-y,-z
1/2+x,1/2-y,z
loop_
_atom_site_type_symbol
_atom_site_label
_atom_site_fract_x
_atom_site_fract_y
_atom_site_fract_z
Si Si1 0.551462 0.229500 0.115759
Si Si2 0.237899 0.651143 0.759195
Si Si3 0.184416 0.656076 0.366357
Si Si4 0.972734 0.836164 0.183876
Si Si5 0.615316 0.335497 0.749263
Si Si6 0.891891 0.663792 0.506146
O O1 0.636585 0.344508 0.160406
O O2 0.636618 0.143424 0.242259
O O3 0.461343 0.291263 0.091177
O O4 0.500000 0.159855 0.000000
O O5 0.216520 0.500000 0.773407
O O6 0.217961 0.772294 0.797603
O O7 0.150716 0.667750 0.614390
O O8 0.209778 0.500000 0.415416
O O9 0.077284 0.737508 0.302368
O O10 0.289399 0.760725 0.455734
O O11 0.879138 0.815831 0.160123
O O12 0.004046 0.000000 0.213265
O O13 0.601319 0.500000 0.723611
O O14 0.505696 0.250917 0.621760
O O15 0.905347 0.500000 0.536596
#
# Coordination Sequence:
#
# PCOD9199021 Si02
#       6
#     8   8   8   8   8   8
#     4   9  20  39  66  87 108 144 194 239 283 334
#     4  10  21  37  58  86 114 146 193 240 276 332
#     4   9  19  34  56  86 116 144 184 235 283 333
#     4   9  20  38  57  83 115 149 193 234 279 337
#     4  11  23  37  56  82 121 158 184 231 288 338
#     4  10  20  36  59  84 114 154 197 234 271 332
#
# _framework density 22.590142
#
# number of rings (size 3 to 8) (size 9 to 14) (size 15 to 20)
#    1.000    1.333    0.000    2.500    0.000    9.000 
#    0.000    0.833    0.000    0.000    0.000    0.000 
#    0.000    0.000    0.000    0.000    0.000    0.000 
#
# Total GULP energy -133733.759240 kJ/mol
# GULP energy per Si atom -5572.239968 kJ/mol
# Density = 2.253873 g / cm^3
# Si number density = 22.590142 Si / 1000 Ang^3
#
#
#
# Elastic Constant Matrix: (Units=GPa)
#
#
# Indices 1 2 3 4 5 6 
#
# 1 116.9273 42.0007 13.3156 0.0000 -20.5728 0.0000
# 2 42.0007 145.1704 9.2318 0.0000 -8.2435 0.0000
# 3 13.3156 9.2318 69.6989 0.0000 -18.0523 0.0000
# 4 0.0000 0.0000 0.0000 -6.0977 0.0000 -3.2827
# 5 -20.5728 -8.2435 -18.0523 0.0000 26.7003 0.0000
# 6 0.0000 0.0000 0.0000 -3.2827 0.0000 13.9574
#
#
#
# Elastic Compliance Matrix: (Units=1/GPa)
#
#
# Indices 1 2 3 4 5 6 
#
# 1 0.010855 -0.002720 0.000285 0.000000 0.007717 0.000000
# 2 -0.002720 0.007705 -0.000518 0.000000 -0.000068 0.000000
# 3 0.000285 -0.000518 0.017429 0.000000 0.011844 0.000000
# 4 0.000000 0.000000 0.000000 -0.145565 0.000000 -0.034236
# 5 0.007717 -0.000068 0.011844 0.000000 0.051385 0.000000
# 6 0.000000 0.000000 0.000000 -0.034236 0.000000 0.063595
#
#
# Mechanical properties :
#
#
# Convention : Reuss Voigt Hill
#
# Bulk Modulus (GPa) = 33.24307 51.21029 42.22668
# Shear Modulus (GPa) = 234.32750 24.72855 129.52802
#
# Velocity S-wave (km/s) = 10.19584 3.31216 7.58042
# Velocity P-wave (km/s) = 12.38364 6.11111 9.76474
#
# Compressibility (1/GPa) = 0.03008146
#
# Stress axis : x y z
#
# Youngs Moduli (GPa) = 92.12560 129.79177 57.37501
#
# Poissons Ratio (x) = 0.35309 -0.01636
# Poissons Ratio (y) = 0.25062 0.02974
# Poissons Ratio (z) = -0.02628 0.06728
#
# Static dielectric constant tensor:
#      x y z
#    x 1.904200 0.000000 -0.039940 
#    y 0.000000 1.805860 0.000000 
#    z -0.039940 0.000000 1.858550 
# 
# From -- ./inp_files/320321.got.cif
#   From: 2010.05.17/outbox.cif.g08.bks.cpg/sg12_161_cif.got.tgz:320321.got - 2010.06.03 13:09:07.
