data_PCOD9199623
_publ_section_title
;
Structure prediction by ZEFSAII (Michael W. Deem and Ramdas Pophale) SiO2 
 PCOD9199623
Probable space group: C 2/M
;
_chemical_formula_sum "Si O2"
_cell_formula_units_Z 46
_cell_length_a 12.240278
_cell_length_b 15.953934
_cell_length_c 16.390896
_cell_angle_alpha 90.000000
_cell_angle_beta 142.426190
_cell_angle_gamma 90.000000
_cell_volume 1951.807756
_symmetry_space_group_name_H-M "C 2/M"
_symmetry_group_IT_number 12
_symmetry_cell_setting 'monoclinic'
loop_
_space_group_symop_operation_xyz
x,y,z
-x,y,-z
-x,-y,-z
x,-y,z
1/2+x,1/2+y,z
1/2-x,1/2+y,-z
1/2-x,1/2-y,-z
1/2+x,1/2-y,z
loop_
_atom_site_type_symbol
_atom_site_label
_atom_site_fract_x
_atom_site_fract_y
_atom_site_fract_z
Si Si1 0.500000 0.500000 0.500000
Si Si2 0.991672 0.100498 0.794626
Si Si3 0.637876 0.897215 0.910021
Si Si4 0.249272 0.858094 0.669814
Si Si5 0.500000 0.200978 0.500000
Si Si6 0.697771 0.595025 0.158055
Si Si7 0.764632 0.651068 0.494685
O O1 0.609611 0.426791 0.616101
O O2 0.854330 0.129808 0.784390
O O3 0.906781 0.124417 0.658747
O O4 0.995436 0.000000 0.803040
O O5 0.192916 0.128967 0.934453
O O6 0.446417 0.862062 0.823744
O O7 0.682504 0.867008 0.843606
O O8 0.629507 0.000000 0.904361
O O9 0.277489 0.887984 0.591362
O O10 0.154477 0.768327 0.615363
O O11 0.435096 0.143488 0.536225
O O12 0.765051 0.500000 0.209932
O O13 0.500000 0.589398 0.000000
O O14 0.750000 0.750000 0.500000
#
# Coordination Sequence:
#
# PCOD9199623 Si02
#       7
#     2   8   8   8   4   8   8
#     4  10  20  36  60  92 120 152 192 240 302 370
#     4   9  18  32  56  87 123 154 185 251 308 352
#     4   9  16  30  55  91 121 146 191 240 304 365
#     4  10  20  36  62  84 114 159 201 244 295 361
#     4   9  22  41  53  74 117 164 208 246 287 344
#     4   7  12  24  43  76 120 152 175 222 292 358
#     4  10  22  39  57  80 116 164 203 247 297 353
#
# _framework density 23.567895
#
# number of rings (size 3 to 8) (size 9 to 14) (size 15 to 20)
#    0.000    2.957    0.870    2.087    3.652    0.000 
#    0.000    3.913    0.000   14.609    0.000    0.000 
#    0.000    0.000    0.000    0.000    0.000    0.000 
#
# Total GULP energy -128086.357287 kJ/mol
# GULP energy per Si atom -5568.972056 kJ/mol
# Density = 2.351425 g / cm^3
# Si number density = 23.567895 Si / 1000 Ang^3
#
#
#
# Elastic Constant Matrix: (Units=GPa)
#
#
# Indices 1 2 3 4 5 6 
#
# 1 71.1916 4.9751 34.6186 0.0001 16.7662 0.0001
# 2 4.9751 51.2322 32.0327 0.0002 5.7909 0.0002
# 3 34.6186 32.0327 136.2060 0.0003 24.7067 0.0003
# 4 0.0001 0.0002 0.0003 27.8280 0.0002 12.2311
# 5 16.7662 5.7909 24.7067 0.0002 46.3052 0.0002
# 6 0.0001 0.0002 0.0003 12.2311 0.0002 -11.2324
#
#
#
# Elastic Compliance Matrix: (Units=1/GPa)
#
#
# Indices 1 2 3 4 5 6 
#
# 1 0.016797 0.001215 -0.003791 0.000000 -0.004211 0.000000
# 2 0.001215 0.022972 -0.005658 0.000000 -0.000294 0.000000
# 3 -0.003791 -0.005658 0.010251 0.000000 -0.003389 0.000000
# 4 0.000000 0.000000 0.000000 0.024303 0.000000 0.026464
# 5 -0.004211 -0.000294 -0.003389 0.000000 0.024966 0.000000
# 6 0.000000 0.000000 0.000000 0.026464 0.000000 -0.060211
#
#
# Mechanical properties :
#
#
# Convention : Reuss Voigt Hill
#
# Bulk Modulus (GPa) = 29.80470 44.65361 37.22916
# Shear Modulus (GPa) = 74.92956 25.04705 49.98831
#
# Velocity S-wave (km/s) = 5.64465 3.26354 4.61046
# Velocity P-wave (km/s) = 7.42675 5.76098 6.64625
#
# Compressibility (1/GPa) = 0.03355175
#
# Stress axis : x y z
#
# Youngs Moduli (GPa) = 59.53467 43.53151 97.55339
#
# Poissons Ratio (x) = -0.05290 0.36984
# Poissons Ratio (y) = -0.07235 0.55196
# Poissons Ratio (z) = 0.22570 0.24630
#
# Static dielectric constant tensor:
#      x y z
#    x 2.054960 0.000000 0.025870 
#    y 0.000000 1.863150 0.000000 
#    z 0.025870 0.000000 1.939700 
# 
# From -- ./inp_files/272126.got.cif
#   From: 2010.05.17/outbox.cif.g08.bks.cpg/sg12_137_cif.got.tgz:272126.got - 2010.06.03 13:09:07.
