data_PCOD9199496
_publ_section_title
;
Structure prediction by ZEFSAII (Michael W. Deem and Ramdas Pophale) SiO2 
 PCOD9199496
Probable space group: C 2/M
;
_chemical_formula_sum "Si O2"
_cell_formula_units_Z 56
_cell_length_a 28.466596
_cell_length_b 8.626417
_cell_length_c 17.282781
_cell_angle_alpha 90.000000
_cell_angle_beta 138.679594
_cell_angle_gamma 90.000000
_cell_volume 2802.209785
_symmetry_space_group_name_H-M "C 2/M"
_symmetry_group_IT_number 12
_symmetry_cell_setting 'monoclinic'
loop_
_space_group_symop_operation_xyz
x,y,z
-x,y,-z
-x,-y,-z
x,-y,z
1/2+x,1/2+y,z
1/2-x,1/2+y,-z
1/2-x,1/2-y,-z
1/2+x,1/2-y,z
loop_
_atom_site_type_symbol
_atom_site_label
_atom_site_fract_x
_atom_site_fract_y
_atom_site_fract_z
Si Si1 0.166689 0.814650 0.539907
Si Si2 0.904584 0.685022 0.695979
Si Si3 0.021722 0.188070 0.443026
Si Si4 0.082708 0.313257 0.112584
Si Si5 0.789910 0.187240 0.974291
Si Si6 0.951800 0.186852 0.199010
Si Si7 0.783185 0.815439 0.795770
O O1 0.150967 0.752935 0.434512
O O2 0.098930 0.761956 0.507907
O O3 0.236212 0.758052 0.669964
O O4 0.166754 0.000000 0.536510
O O5 0.901955 0.500000 0.688381
O O6 0.893358 0.730762 0.770973
O O7 0.983522 0.740220 0.768818
O O8 0.000000 0.248095 0.500000
O O9 0.966561 0.227427 0.307017
O O10 0.024026 0.000000 0.450124
O O11 0.088380 0.500000 0.111428
O O12 0.135315 0.232561 0.117882
O O13 0.000000 0.271812 0.000000
O O14 0.760121 0.236666 0.853514
O O15 0.788057 0.000000 0.974927
O O16 0.750000 0.250000 0.000000
O O17 0.872763 0.235231 0.079083
O O18 0.957359 0.000000 0.198292
O O19 0.776780 0.000000 0.784267
#
# Coordination Sequence:
#
# PCOD9199496 Si02
#       7
#     8   8   8   8   8   8   8
#     4  10  21  37  59  84 116 158 198 238 291 354
#     4  10  20  36  60  88 119 150 187 243 297 343
#     4   8  15  28  51  80 104 136 188 238 275 325
#     4  10  22  40  63  90 117 153 199 240 288 354
#     4  10  23  39  57  83 116 156 197 240 292 347
#     4   9  18  34  55  80 112 149 192 234 280 347
#     4  11  24  40  58  86 122 154 194 248 297 345
#
# _framework density 19.984228999999999
#
# number of rings (size 3 to 8) (size 9 to 14) (size 15 to 20)
#    0.000    2.286    0.000    3.000    2.000    3.714 
#    0.000    0.000    0.000    2.143    0.000    0.000 
#    0.000    0.000    0.000    0.000    0.000    0.000 
#
# Total GULP energy -156341.113754 kJ/mol
# GULP energy per Si atom -5583.611205 kJ/mol
# Density = 1.993874 g / cm^3
# Si number density = 19.984229 Si / 1000 Ang^3
#
#
#
# Elastic Constant Matrix: (Units=GPa)
#
#
# Indices 1 2 3 4 5 6 
#
# 1 90.9914 20.5432 36.3895 0.0000 -27.5157 0.0000
# 2 20.5432 26.0809 22.0792 0.0000 -7.6185 0.0000
# 3 36.3895 22.0792 99.6072 0.0000 -4.1817 0.0000
# 4 0.0000 0.0000 0.0000 22.0120 0.0000 4.1455
# 5 -27.5157 -7.6185 -4.1817 0.0000 25.5309 0.0000
# 6 0.0000 0.0000 0.0000 4.1455 0.0000 28.0646
#
#
#
# Elastic Compliance Matrix: (Units=1/GPa)
#
#
# Indices 1 2 3 4 5 6 
#
# 1 0.020228 -0.005852 -0.005287 0.000000 0.019189 0.000000
# 2 -0.005852 0.053184 -0.009314 0.000000 0.008038 0.000000
# 3 -0.005287 -0.009314 0.013774 0.000000 -0.006221 0.000000
# 4 0.000000 0.000000 0.000000 0.046730 0.000000 -0.006903
# 5 0.019189 0.008038 -0.006221 0.000000 0.061228 0.000000
# 6 0.000000 0.000000 0.000000 -0.006903 0.000000 0.036652
#
#
# Mechanical properties :
#
#
# Convention : Reuss Voigt Hill
#
# Bulk Modulus (GPa) = 21.60712 41.63371 31.62041
# Shear Modulus (GPa) = 17.35332 24.29933 20.82633
#
# Velocity S-wave (km/s) = 2.94998 3.49080 3.23172
# Velocity P-wave (km/s) = 4.73695 6.09311 5.45732
#
# Compressibility (1/GPa) = 0.04628105
#
# Stress axis : x y z
#
# Youngs Moduli (GPa) = 49.43548 18.80259 72.59894
#
# Poissons Ratio (x) = 0.11003 0.38385
# Poissons Ratio (y) = 0.28930 0.67615
# Poissons Ratio (z) = 0.26138 0.17512
#
# Static dielectric constant tensor:
#      x y z
#    x 1.701180 0.000000 -0.013580 
#    y 0.000000 1.675630 0.000000 
#    z -0.013580 0.000000 1.717630 
# 
# From -- ./inp_files/292564.got.cif
#   From: 2010.05.17/outbox.cif.g08.bks.cpg/sg12_147_cif.got.tgz:292564.got - 2010.06.03 13:09:07.
