data_PCOD9199215
_publ_section_title
;
Structure prediction by ZEFSAII (Michael W. Deem and Ramdas Pophale) SiO2 
 PCOD9199215
Probable space group: C 2/M
;
_chemical_formula_sum "Si O2"
_cell_formula_units_Z 64
_cell_length_a 33.570647
_cell_length_b 8.558146
_cell_length_c 17.103324
_cell_angle_alpha 90.000000
_cell_angle_beta 42.341351
_cell_angle_gamma 90.000000
_cell_volume 3309.689681
_symmetry_space_group_name_H-M "C 2/M"
_symmetry_group_IT_number 12
_symmetry_cell_setting 'monoclinic'
loop_
_space_group_symop_operation_xyz
x,y,z
-x,y,-z
-x,-y,-z
x,-y,z
1/2+x,1/2+y,z
1/2-x,1/2+y,-z
1/2-x,1/2-y,-z
1/2+x,1/2-y,z
loop_
_atom_site_type_symbol
_atom_site_label
_atom_site_fract_x
_atom_site_fract_y
_atom_site_fract_z
Si Si1 0.224912 0.815029 0.455768
Si Si2 0.405168 0.185026 0.350149
Si Si3 0.094219 0.814433 0.226154
Si Si4 0.236986 0.308913 0.768581
Si Si5 0.644267 0.688974 0.313926
Si Si6 0.533885 0.183716 0.571966
Si Si7 0.999172 0.690947 0.911506
Si Si8 0.114355 0.688550 0.023872
O O1 0.250000 0.750000 0.500000
O O2 0.155886 0.773600 0.550045
O O3 0.256456 0.756038 0.330793
O O4 0.232492 0.000000 0.446139
O O5 0.446072 0.203298 0.367012
O O6 0.442594 0.238069 0.220925
O O7 0.391993 0.000000 0.361130
O O8 0.138017 0.764191 0.232377
O O9 0.106849 0.738585 0.124258
O O10 0.027978 0.770314 0.349329
O O11 0.098305 0.000000 0.211554
O O12 0.236891 0.500000 0.768443
O O13 0.295208 0.259685 0.732278
O O14 0.176344 0.257547 0.897013
O O15 0.642096 0.500000 0.320713
O O16 0.587500 0.753485 0.442138
O O17 0.525236 0.000000 0.569550
O O18 0.998721 0.500000 0.911890
O O19 0.941111 0.742373 0.948206
O O20 0.000000 0.742361 0.000000
O O21 0.113855 0.500000 0.022512
#
# Coordination Sequence:
#
# PCOD9199215 Si02
#       8
#     8   8   8   8   8   8   8   8
#     4  11  23  39  61  88 117 154 193 235 286 341
#     4  10  20  36  59  88 117 147 187 239 289 337
#     4  11  23  37  57  83 117 155 189 235 294 351
#     4   9  20  38  61  83 110 152 198 239 282 343
#     4  10  21  39  58  83 116 153 195 235 286 350
#     4  11  21  36  59  88 119 149 190 243 290 337
#     4   9  18  33  58  86 112 145 188 236 283 335
#     4  10  20  38  60  83 111 148 195 241 284 339
#
# _framework density 19.337160000000001
#
# number of rings (size 3 to 8) (size 9 to 14) (size 15 to 20)
#    0.000    1.875    2.500    1.500    1.750    3.500 
#    0.000    1.875    0.000    0.750    0.000    0.000 
#    0.000    0.000    0.000    0.000    0.000    0.000 
#
# Total GULP energy -178728.702168 kJ/mol
# GULP energy per Si atom -5585.271943 kJ/mol
# Density = 1.929315 g / cm^3
# Si number density = 19.337160 Si / 1000 Ang^3
#
#
#
# Elastic Constant Matrix: (Units=GPa)
#
#
# Indices 1 2 3 4 5 6 
#
# 1 63.4539 13.4892 31.2957 0.0001 14.9161 0.0001
# 2 13.4892 9.1825 6.5994 -0.0033 5.6369 0.0003
# 3 31.2957 6.5994 122.8636 -0.0005 8.1042 0.0001
# 4 0.0001 -0.0033 -0.0005 26.6598 0.0001 2.6839
# 5 14.9161 5.6369 8.1042 0.0001 33.0739 0.0001
# 6 0.0001 0.0003 0.0001 2.6839 0.0001 18.2890
#
#
#
# Elastic Compliance Matrix: (Units=1/GPa)
#
#
# Indices 1 2 3 4 5 6 
#
# 1 0.025968 -0.031674 -0.004571 -0.000004 -0.005193 0.000001
# 2 -0.031674 0.163688 0.000177 0.000021 -0.013656 -0.000006
# 3 -0.004571 0.000177 0.009310 0.000000 -0.000250 0.000000
# 4 -0.000004 0.000021 0.000000 0.038072 -0.000002 -0.005587
# 5 -0.005193 -0.013656 -0.000250 -0.000002 0.034966 0.000000
# 6 0.000001 -0.000006 0.000000 -0.005587 0.000000 0.055497
#
#
# Mechanical properties :
#
#
# Convention : Reuss Voigt Hill
#
# Bulk Modulus (GPa) = 7.88458 33.14095 20.51276
# Shear Modulus (GPa) = 11.31440 25.21227 18.26334
#
# Velocity S-wave (km/s) = 2.42153 3.61477 3.07655
# Velocity P-wave (km/s) = 3.45032 5.88199 4.82195
#
# Compressibility (1/GPa) = 0.12682991
#
# Stress axis : x y z
#
# Youngs Moduli (GPa) = 38.50927 6.10918 107.40737
#
# Poissons Ratio (x) = 0.19350 0.49092
# Poissons Ratio (y) = 1.21974 -0.01896
# Poissons Ratio (z) = 0.17601 -0.00108
#
# Static dielectric constant tensor:
#      x y z
#    x 1.672350 0.000000 0.013820 
#    y 0.000000 1.667530 0.000000 
#    z 0.013820 0.000000 1.655250 
# 
# From -- ./inp_files/249705.got.cif
#   From: 2010.05.17/outbox.cif.g08.bks.cpg/sg12_125_cif.got.tgz:249705.got - 2010.06.03 13:09:07.
