data_PCOD9199817
_publ_section_title
;
Structure prediction by ZEFSAII (Michael W. Deem and Ramdas Pophale) SiO2 
 PCOD9199817
Probable space group: C 2/M
;
_chemical_formula_sum "Si O2"
_cell_formula_units_Z 40
_cell_length_a 8.911547
_cell_length_b 14.616075
_cell_length_c 18.709152
_cell_angle_alpha 90.000000
_cell_angle_beta 45.723252
_cell_angle_gamma 90.000000
_cell_volume 1744.763224
_symmetry_space_group_name_H-M "C 2/M"
_symmetry_group_IT_number 12
_symmetry_cell_setting 'monoclinic'
loop_
_space_group_symop_operation_xyz
x,y,z
-x,y,-z
-x,-y,-z
x,-y,z
1/2+x,1/2+y,z
1/2-x,1/2+y,-z
1/2-x,1/2-y,-z
1/2+x,1/2-y,z
loop_
_atom_site_type_symbol
_atom_site_label
_atom_site_fract_x
_atom_site_fract_y
_atom_site_fract_z
Si Si1 0.730218 0.111291 0.899470
Si Si2 0.929356 0.722235 0.602557
Si Si3 0.912913 0.893516 0.108520
Si Si4 0.123009 0.900420 0.309770
Si Si5 0.030451 0.671223 0.717162
O O1 0.796913 0.128888 0.795332
O O2 0.909534 0.139747 0.895652
O O3 0.721259 0.000000 0.907405
O O4 0.500000 0.145546 0.000000
O O5 0.005671 0.823050 0.604656
O O6 0.007394 0.658069 0.639740
O O7 0.678661 0.740604 0.684374
O O8 0.000000 0.700781 0.500000
O O9 0.705778 0.832282 0.178068
O O10 0.858678 0.000000 0.145562
O O11 0.000000 0.894522 0.000000
O O12 0.334165 0.903705 0.286940
O O13 0.022003 0.000000 0.338691
#
# Coordination Sequence:
#
# PCOD9199817 Si02
#       5
#     8   8   8   8   8
#     4   9  17  31  55  85 119 155 192 236 294 355
#     4  10  23  41  63  83 117 165 203 251 309 361
#     4  10  20  36  61  92 127 162 198 245 302 359
#     4   9  20  36  60  89 117 151 202 253 296 354
#     4  10  22  37  63  86 120 158 203 243 304 364
#
# _framework density 22.925746
#
# number of rings (size 3 to 8) (size 9 to 14) (size 15 to 20)
#    1.200    1.200    0.000    2.400    2.800    3.600 
#    0.000    2.000    0.000    2.400    0.000    0.000 
#    0.000    0.000    0.000    0.000    0.000    0.000 
#
# Total GULP energy -111483.033687 kJ/mol
# GULP energy per Si atom -5574.151684 kJ/mol
# Density = 2.287357 g / cm^3
# Si number density = 22.925746 Si / 1000 Ang^3
#
#
#
# Elastic Constant Matrix: (Units=GPa)
#
#
# Indices 1 2 3 4 5 6 
#
# 1 133.6797 16.0039 40.0189 0.0003 18.1045 -0.0003
# 2 16.0039 36.4311 9.9176 0.0001 3.5686 0.0000
# 3 40.0189 9.9176 100.4371 0.0000 29.2978 -0.0001
# 4 0.0003 0.0001 0.0000 18.6611 0.0000 7.4134
# 5 18.1045 3.5686 29.2978 0.0000 48.0572 0.0001
# 6 -0.0003 0.0000 -0.0001 7.4134 0.0001 7.2551
#
#
#
# Elastic Compliance Matrix: (Units=1/GPa)
#
#
# Indices 1 2 3 4 5 6 
#
# 1 0.008876 -0.002991 -0.002835 -0.000001 -0.001394 0.000001
# 2 -0.002991 0.029224 -0.001690 0.000000 -0.000013 0.000000
# 3 -0.002835 -0.001690 0.013263 0.000000 -0.006893 0.000000
# 4 -0.000001 0.000000 0.000000 0.090203 0.000000 -0.092171
# 5 -0.001394 -0.000013 -0.006893 0.000000 0.025536 -0.000001
# 6 0.000001 0.000000 0.000000 -0.092171 -0.000001 0.232014
#
#
# Mechanical properties :
#
#
# Convention : Reuss Voigt Hill
#
# Bulk Modulus (GPa) = 27.52404 44.71431 36.11918
# Shear Modulus (GPa) = 11.72991 28.43519 20.08255
#
# Velocity S-wave (km/s) = 2.26442 3.52563 2.96291
# Velocity P-wave (km/s) = 4.34380 6.00997 5.24349
#
# Compressibility (1/GPa) = 0.03633187
#
# Stress axis : x y z
#
# Youngs Moduli (GPa) = 112.66342 34.21803 75.39512
#
# Poissons Ratio (x) = 0.10234 0.21373
# Poissons Ratio (y) = 0.33697 0.12744
# Poissons Ratio (z) = 0.31938 0.05784
#
# Static dielectric constant tensor:
#      x y z
#    x 1.862700 0.000000 -0.024960 
#    y 0.000000 1.970720 0.000000 
#    z -0.024960 0.000000 1.829510 
# 
# From -- ./inp_files/195709.got.cif
#   From: 2010.05.17/outbox.cif.g08.bks.cpg/sg12_98_cif.got.tgz:195709.got - 2010.06.03 13:09:07.
