data_PCOD9199464
_publ_section_title
;
Structure prediction by ZEFSAII (Michael W. Deem and Ramdas Pophale) SiO2 
 PCOD9199464
Probable space group: C 2/M
;
_chemical_formula_sum "Si O2"
_cell_formula_units_Z 64
_cell_length_a 32.273105
_cell_length_b 8.881652
_cell_length_c 18.355197
_cell_angle_alpha 90.000000
_cell_angle_beta 138.421660
_cell_angle_gamma 90.000000
_cell_volume 3491.631303
_symmetry_space_group_name_H-M "C 2/M"
_symmetry_group_IT_number 12
_symmetry_cell_setting 'monoclinic'
loop_
_space_group_symop_operation_xyz
x,y,z
-x,y,-z
-x,-y,-z
x,-y,z
1/2+x,1/2+y,z
1/2-x,1/2+y,-z
1/2-x,1/2-y,-z
1/2+x,1/2-y,z
loop_
_atom_site_type_symbol
_atom_site_label
_atom_site_fract_x
_atom_site_fract_y
_atom_site_fract_z
Si Si1 0.046175 0.681596 0.495011
Si Si2 0.279480 0.679948 0.644592
Si Si3 0.397863 0.821931 0.072442
Si Si4 0.184265 0.677607 0.890699
Si Si5 0.199857 0.179311 0.163597
Si Si6 0.027457 0.318371 0.305137
Si Si7 0.843515 0.820311 0.578091
Si Si8 0.830276 0.179648 0.282237
O O1 0.053124 0.500000 0.507407
O O2 0.020203 0.721464 0.381061
O O3 0.113590 0.755780 0.595420
O O4 0.000000 0.726357 0.500000
O O5 0.268485 0.500000 0.626057
O O6 0.307111 0.714016 0.759951
O O7 0.213542 0.761772 0.546354
O O8 0.323702 0.720777 0.634845
O O9 0.361913 0.806877 0.102031
O O10 0.468204 0.768489 0.179625
O O11 0.398489 0.000000 0.055268
O O12 0.358300 0.735742 0.960008
O O13 0.192243 0.500000 0.885760
O O14 0.159870 0.759394 0.786658
O O15 0.250000 0.750000 0.000000
O O16 0.263131 0.258293 0.219140
O O17 0.207176 0.000000 0.164688
O O18 0.029362 0.500000 0.304495
O O19 0.091978 0.252944 0.360907
O O20 0.847788 0.000000 0.578479
O O21 0.829839 0.000000 0.283029
#
# Coordination Sequence:
#
# PCOD9199464 Si02
#       8
#     8   8   8   8   8   8   8   8
#     4  10  21  39  60  81 109 149 191 233 282 336
#     4   9  20  38  59  85 115 145 181 227 283 341
#     4  10  22  39  58  81 112 148 190 236 279 333
#     4  11  21  36  57  81 110 148 192 237 281 328
#     4  11  22  37  58  82 110 146 187 233 282 334
#     4  10  21  38  59  82 112 151 189 227 280 342
#     4  10  20  36  60  88 114 144 183 229 279 335
#     4  12  24  36  54  83 117 149 185 234 284 338
#
# _framework density 18.329542
#
# number of rings (size 3 to 8) (size 9 to 14) (size 15 to 20)
#    0.000    1.625    1.250    3.750    0.000    8.250 
#    0.000    1.875    0.000    3.750    0.000    0.000 
#    0.000    0.000    0.000    0.000    0.000    0.000 
#
# Total GULP energy -178827.615853 kJ/mol
# GULP energy per Si atom -5588.362995 kJ/mol
# Density = 1.828782 g / cm^3
# Si number density = 18.329542 Si / 1000 Ang^3
#
#
#
# Elastic Constant Matrix: (Units=GPa)
#
#
# Indices 1 2 3 4 5 6 
#
# 1 87.2646 36.8319 65.3968 0.0000 5.5212 0.0000
# 2 36.8319 48.4417 50.4585 0.0000 -3.4417 0.0000
# 3 65.3968 50.4585 149.3299 0.0000 -2.5490 0.0000
# 4 0.0000 0.0000 0.0000 32.9142 0.0000 -0.3791
# 5 5.5212 -3.4417 -2.5490 0.0000 32.2695 0.0000
# 6 0.0000 0.0000 0.0000 -0.3791 0.0000 22.2051
#
#
#
# Elastic Compliance Matrix: (Units=1/GPa)
#
#
# Indices 1 2 3 4 5 6 
#
# 1 0.020086 -0.009833 -0.005558 0.000000 -0.004924 0.000000
# 2 -0.009833 0.036880 -0.008071 0.000000 0.004978 0.000000
# 3 -0.005558 -0.008071 0.011875 0.000000 0.001028 0.000000
# 4 0.000000 0.000000 0.000000 0.030388 0.000000 0.000519
# 5 -0.004924 0.004978 0.001028 0.000000 0.032444 0.000000
# 6 0.000000 0.000000 0.000000 0.000519 0.000000 0.045044
#
#
# Mechanical properties :
#
#
# Convention : Reuss Voigt Hill
#
# Bulk Modulus (GPa) = 45.62333 65.60119 55.61226
# Shear Modulus (GPa) = 21.65009 26.30103 23.97556
#
# Velocity S-wave (km/s) = 3.44053 3.79211 3.62059
# Velocity P-wave (km/s) = 6.38182 7.41897 6.91985
#
# Compressibility (1/GPa) = 0.02191861
#
# Stress axis : x y z
#
# Youngs Moduli (GPa) = 49.78503 27.11505 84.20858
#
# Poissons Ratio (x) = 0.26662 0.46804
# Poissons Ratio (y) = 0.48952 0.67962
# Poissons Ratio (z) = 0.27671 0.21884
#
# Static dielectric constant tensor:
#      x y z
#    x 1.623390 0.000000 -0.017130 
#    y 0.000000 1.614540 0.000000 
#    z -0.017130 0.000000 1.617090 
# 
# From -- ./inp_files/295688.got.cif
#   From: 2010.05.17/outbox.cif.g08.bks.cpg/sg12_148_cif.got.tgz:295688.got - 2010.06.03 13:09:07.
