data_PCOD9199502
_publ_section_title
;
Structure prediction by ZEFSAII (Michael W. Deem and Ramdas Pophale) SiO2 
 PCOD9199502
Probable space group: C 2/M
;
_chemical_formula_sum "Si O2"
_cell_formula_units_Z 48
_cell_length_a 16.440426
_cell_length_b 14.147620
_cell_length_c 15.985943
_cell_angle_alpha 90.000000
_cell_angle_beta 149.733982
_cell_angle_gamma 90.000000
_cell_volume 1874.038759
_symmetry_space_group_name_H-M "C 2/M"
_symmetry_group_IT_number 12
_symmetry_cell_setting 'monoclinic'
loop_
_space_group_symop_operation_xyz
x,y,z
-x,y,-z
-x,-y,-z
x,-y,z
1/2+x,1/2+y,z
1/2-x,1/2+y,-z
1/2-x,1/2-y,-z
1/2+x,1/2-y,z
loop_
_atom_site_type_symbol
_atom_site_label
_atom_site_fract_x
_atom_site_fract_y
_atom_site_fract_z
Si Si1 0.481195 0.899361 0.340255
Si Si2 0.304103 0.394159 0.047897
Si Si3 0.241813 0.646869 0.450867
Si Si4 0.581891 0.312922 0.692222
Si Si5 0.153993 0.313017 0.198031
Si Si6 0.591880 0.603743 0.170503
O O1 0.652650 0.905472 0.445994
O O2 0.464432 0.796440 0.366794
O O3 0.448959 0.000000 0.355993
O O4 0.347013 0.892440 0.147950
O O5 0.309225 0.500000 0.089764
O O6 0.307314 0.320186 0.126052
O O7 0.461299 0.383391 0.128351
O O8 0.250000 0.750000 0.500000
O O9 0.422494 0.630198 0.578356
O O10 0.134959 0.641120 0.271887
O O11 0.689078 0.349422 0.711431
O O12 0.185311 0.201900 0.246340
O O13 0.000000 0.320849 0.000000
O O14 0.668716 0.500000 0.248106
O O15 0.500000 0.599816 0.000000
#
# Coordination Sequence:
#
# PCOD9199502 Si02
#       6
#     8   8   8   8   8   8
#     4  10  20  36  60  88 119 157 200 244 292 353
#     4  10  20  36  60  89 120 157 202 247 295 356
#     4  10  22  39  57  81 117 158 198 240 293 349
#     4  11  22  37  59  85 122 158 195 245 303 358
#     4  11  21  36  60  87 117 156 200 245 294 354
#     4   9  17  30  52  84 118 149 188 241 296 351
#
# _framework density 25.613132
#
# number of rings (size 3 to 8) (size 9 to 14) (size 15 to 20)
#    0.000    1.833    0.000    6.000    0.000    2.667 
#    0.000    5.833    0.000   10.000    0.000    0.000 
#    0.000    0.000    0.000    0.000    0.000    0.000 
#
# Total GULP energy -134142.590086 kJ/mol
# GULP energy per Si atom -5589.274587 kJ/mol
# Density = 2.555484 g / cm^3
# Si number density = 25.613132 Si / 1000 Ang^3
#
#
#
# Elastic Constant Matrix: (Units=GPa)
#
#
# Indices 1 2 3 4 5 6 
#
# 1 128.6645 -4.8173 17.8295 0.0003 4.5677 0.0001
# 2 -4.8173 59.4819 -3.4819 0.0010 0.2055 0.0002
# 3 17.8295 -3.4819 107.0803 0.0013 -6.7703 0.0008
# 4 0.0003 0.0010 0.0013 60.0039 0.0008 -26.5286
# 5 4.5677 0.2055 -6.7703 0.0008 57.8512 0.0004
# 6 0.0001 0.0002 0.0008 -26.5286 0.0004 24.5034
#
#
#
# Elastic Compliance Matrix: (Units=1/GPa)
#
#
# Indices 1 2 3 4 5 6 
#
# 1 0.008011 0.000572 -0.001366 0.000000 -0.000794 0.000000
# 2 0.000572 0.016885 0.000451 -0.000001 -0.000052 -0.000001
# 3 -0.001366 0.000451 0.009659 -0.000001 0.001237 -0.000001
# 4 0.000000 -0.000001 -0.000001 0.031966 -0.000001 0.034608
# 5 -0.000794 -0.000052 0.001237 -0.000001 0.017493 -0.000001
# 6 0.000000 -0.000001 -0.000001 0.034608 -0.000001 0.078279
#
#
# Mechanical properties :
#
#
# Convention : Reuss Voigt Hill
#
# Bulk Modulus (GPa) = 29.52643 34.92078 32.22360
# Shear Modulus (GPa) = 28.69112 47.51812 38.10462
#
# Velocity S-wave (km/s) = 3.35053 4.31190 3.86125
# Velocity P-wave (km/s) = 5.14985 6.20109 5.69976
#
# Compressibility (1/GPa) = 0.03386797
#
# Stress axis : x y z
#
# Youngs Moduli (GPa) = 124.82872 59.22522 103.53053
#
# Poissons Ratio (x) = -0.03385 0.14137
# Poissons Ratio (y) = -0.07135 -0.04665
# Poissons Ratio (z) = 0.17045 -0.02668
#
# Static dielectric constant tensor:
#      x y z
#    x 1.943190 0.000000 -0.008310 
#    y 0.000000 2.031640 0.000000 
#    z -0.008310 0.000000 2.120860 
# 
# From -- ./inp_files/278218.got.cif
#   From: 2010.05.17/outbox.cif.g08.bks.cpg/sg12_140_cif.got.tgz:278218.got - 2010.06.03 13:09:07.
