data_PCOD9199127
_publ_section_title
;
Structure prediction by ZEFSAII (Michael W. Deem and Ramdas Pophale) SiO2 
 PCOD9199127
Probable space group: C 2/M
;
_chemical_formula_sum "Si O2"
_cell_formula_units_Z 40
_cell_length_a 8.641151
_cell_length_b 10.759963
_cell_length_c 19.754070
_cell_angle_alpha 90.000000
_cell_angle_beta 93.105912
_cell_angle_gamma 90.000000
_cell_volume 1834.005146
_symmetry_space_group_name_H-M "C 2/M"
_symmetry_group_IT_number 12
_symmetry_cell_setting 'monoclinic'
loop_
_space_group_symop_operation_xyz
x,y,z
-x,y,-z
-x,-y,-z
x,-y,z
1/2+x,1/2+y,z
1/2-x,1/2+y,-z
1/2-x,1/2-y,-z
1/2+x,1/2-y,z
loop_
_atom_site_type_symbol
_atom_site_label
_atom_site_fract_x
_atom_site_fract_y
_atom_site_fract_z
Si Si1 0.589816 0.639379 0.858659
Si Si2 0.092172 0.140527 0.568217
Si Si3 0.835437 0.220681 0.658525
Si Si4 0.570057 0.138424 0.750418
Si Si5 0.625304 0.795542 0.050972
O O1 0.550641 0.500000 0.834225
O O2 0.580930 0.748655 0.803452
O O3 0.468377 0.685078 0.913427
O O4 0.765651 0.638630 0.891580
O O5 0.232045 0.225649 0.595360
O O6 0.000000 0.185122 0.500000
O O7 0.972734 0.142763 0.628303
O O8 0.144613 0.000000 0.555846
O O9 0.720789 0.149357 0.706057
O O10 0.919141 0.331780 0.701497
O O11 0.562505 0.000000 0.780189
O O12 0.500000 0.862841 0.000000
O O13 0.750000 0.750000 0.000000
#
# Coordination Sequence:
#
# PCOD9199127 Si02
#       5
#     8   8   8   8   8
#     4  11  24  41  64  94 125 158 202 253 302 356
#     4  10  20  36  59  86 117 154 197 247 303 361
#     4  10  22  38  59  86 119 156 202 251 300 356
#     4  11  24  41  61  87 122 163 205 249 301 360
#     4   9  21  41  63  91 123 157 194 243 300 357
#
# _framework density 21.810189999999999
#
# number of rings (size 3 to 8) (size 9 to 14) (size 15 to 20)
#    0.000    1.800    0.000    3.000    0.000   13.600 
#    0.000    6.000    0.000    9.600    0.000    0.000 
#    0.000    0.000    0.000    0.000    0.000    0.000 
#
# Total GULP energy -111626.384080 kJ/mol
# GULP energy per Si atom -5581.319204 kJ/mol
# Density = 2.176055 g / cm^3
# Si number density = 21.810190 Si / 1000 Ang^3
#
#
#
# Elastic Constant Matrix: (Units=GPa)
#
#
# Indices 1 2 3 4 5 6 
#
# 1 88.4902 24.5855 9.9749 0.0000 1.2112 0.0000
# 2 24.5855 143.1475 39.7618 0.0000 6.5624 0.0000
# 3 9.9749 39.7618 78.2811 0.0000 6.4667 0.0000
# 4 0.0000 0.0000 0.0000 48.7849 0.0000 -5.1955
# 5 1.2112 6.5624 6.4667 0.0000 35.1682 0.0000
# 6 0.0000 0.0000 0.0000 -5.1955 0.0000 4.3094
#
#
#
# Elastic Compliance Matrix: (Units=1/GPa)
#
#
# Indices 1 2 3 4 5 6 
#
# 1 0.011888 -0.001888 -0.000559 0.000000 0.000046 0.000000
# 2 -0.001888 0.008454 -0.003989 0.000000 -0.000779 0.000000
# 3 -0.000559 -0.003989 0.015037 0.000000 -0.002001 0.000000
# 4 0.000000 0.000000 0.000000 0.023518 0.000000 0.028354
# 5 0.000046 -0.000779 -0.002001 0.000000 0.028947 0.000000
# 6 0.000000 0.000000 0.000000 0.028354 0.000000 0.266237
#
#
# Mechanical properties :
#
#
# Convention : Reuss Voigt Hill
#
# Bulk Modulus (GPa) = 44.43411 50.95143 47.69277
# Shear Modulus (GPa) = 13.35269 33.35892 23.35581
#
# Velocity S-wave (km/s) = 2.47700 3.91514 3.27596
# Velocity P-wave (km/s) = 5.34771 6.62192 6.01863
#
# Compressibility (1/GPa) = 0.02250523
#
# Stress axis : x y z
#
# Youngs Moduli (GPa) = 84.11994 118.28886 66.50142
#
# Poissons Ratio (x) = 0.22338 0.03720
# Poissons Ratio (y) = 0.15886 0.26528
# Poissons Ratio (z) = 0.04705 0.47186
#
# Static dielectric constant tensor:
#      x y z
#    x 1.804410 0.000000 0.031890 
#    y 0.000000 1.790580 0.000000 
#    z 0.031890 0.000000 1.833190 
# 
# From -- ./inp_files/254689.got.cif
#   From: 2010.05.17/outbox.cif.g08.bks.cpg/sg12_128_cif.got.tgz:254689.got - 2010.06.03 13:09:07.
