data_PCOD9199292
_publ_section_title
;
Structure prediction by ZEFSAII (Michael W. Deem and Ramdas Pophale) SiO2 
 PCOD9199292
Probable space group: C 2/M
;
_chemical_formula_sum "Si O2"
_cell_formula_units_Z 40
_cell_length_a 10.588041
_cell_length_b 30.673839
_cell_length_c 5.805032
_cell_angle_alpha 90.000000
_cell_angle_beta 67.398867
_cell_angle_gamma 90.000000
_cell_volume 1740.545551
_symmetry_space_group_name_H-M "C 2/M"
_symmetry_group_IT_number 12
_symmetry_cell_setting 'monoclinic'
loop_
_space_group_symop_operation_xyz
x,y,z
-x,y,-z
-x,-y,-z
x,-y,z
1/2+x,1/2+y,z
1/2-x,1/2+y,-z
1/2-x,1/2-y,-z
1/2+x,1/2-y,z
loop_
_atom_site_type_symbol
_atom_site_label
_atom_site_fract_x
_atom_site_fract_y
_atom_site_fract_z
Si Si1 0.639289 0.682210 0.039689
Si Si2 0.849106 0.742906 0.639651
Si Si3 0.198115 0.919915 0.983343
Si Si4 0.777388 0.050827 0.536039
Si Si5 0.497932 0.108649 0.249871
O O1 0.769155 0.707181 0.843973
O O2 0.660985 0.630958 0.031960
O O3 0.500000 0.691668 0.000000
O O4 0.629918 0.708139 0.281417
O O5 0.750000 0.750000 0.500000
O O6 0.000000 0.726089 0.500000
O O7 0.152342 0.936238 0.759875
O O8 0.365082 0.921122 0.854496
O O9 0.154590 0.941835 0.257301
O O10 0.640812 0.080452 0.647263
O O11 0.743892 0.000000 0.541711
O O12 0.500000 0.130855 0.500000
O O13 0.500000 0.133270 0.000000
#
# Coordination Sequence:
#
# PCOD9199292 Si02
#       5
#     8   8   8   8   8
#     4  11  25  44  69 103 139 184 239 290 354 431
#     4  11  24  46  74 104 141 184 231 290 354 430
#     4  10  22  36  59  91 127 174 225 279 346 414
#     4  10  20  36  59  91 131 175 229 291 352 411
#     4   8  16  30  48  80 119 158 210 268 335 399
#
# _framework density 22.981297999999999
#
# number of rings (size 3 to 8) (size 9 to 14) (size 15 to 20)
#    0.000    2.000    2.000    0.600    2.800    9.600 
#    7.200    0.000    0.000    3.600    0.000    0.000 
#    0.000    0.000    0.000    0.000    0.000    0.000 
#
# Total GULP energy -111450.837545 kJ/mol
# GULP energy per Si atom -5572.541877 kJ/mol
# Density = 2.292899 g / cm^3
# Si number density = 22.981298 Si / 1000 Ang^3
#
#
#
# Elastic Constant Matrix: (Units=GPa)
#
#
# Indices 1 2 3 4 5 6 
#
# 1 110.7283 17.6216 57.9226 0.0000 11.8912 0.0000
# 2 17.6216 91.9495 46.8385 0.0000 7.1622 0.0000
# 3 57.9226 46.8385 201.2939 0.0000 34.8189 0.0000
# 4 0.0000 0.0000 0.0000 47.4950 0.0000 18.0216
# 5 11.8912 7.1622 34.8189 0.0000 50.4589 0.0000
# 6 0.0000 0.0000 0.0000 18.0216 0.0000 11.0346
#
#
#
# Elastic Compliance Matrix: (Units=1/GPa)
#
#
# Indices 1 2 3 4 5 6 
#
# 1 0.010665 -0.000551 -0.002861 0.000000 -0.000461 0.000000
# 2 -0.000551 0.012369 -0.002769 0.000000 0.000285 0.000000
# 3 -0.002861 -0.002769 0.007098 0.000000 -0.003831 0.000000
# 4 0.000000 0.000000 0.000000 0.055364 0.000000 -0.090419
# 5 -0.000461 0.000285 -0.003831 0.000000 0.022530 0.000000
# 6 0.000000 0.000000 0.000000 -0.090419 0.000000 0.238296
#
#
# Mechanical properties :
#
#
# Convention : Reuss Voigt Hill
#
# Bulk Modulus (GPa) = 56.27116 72.08189 64.17652
# Shear Modulus (GPa) = 13.71342 40.57031 27.14187
#
# Velocity S-wave (km/s) = 2.44544 4.20618 3.44036
# Velocity P-wave (km/s) = 5.70196 7.41774 6.61571
#
# Compressibility (1/GPa) = 0.01777109
#
# Stress axis : x y z
#
# Youngs Moduli (GPa) = 93.76623 80.84469 140.88391
#
# Poissons Ratio (x) = 0.04451 0.40306
# Poissons Ratio (y) = 0.05163 0.39011
# Poissons Ratio (z) = 0.26826 0.22386
#
# Static dielectric constant tensor:
#      x y z
#    x 1.845680 0.000000 0.028700 
#    y 0.000000 1.782000 0.000000 
#    z 0.028700 0.000000 1.951120 
# 
# From -- ./inp_files/8303.got.cif
#   From: 2010.05.17/outbox.cif.g08.bks.cpg/sg12_5_cif.got.tgz:8303.got - 2010.06.03 13:09:07.
