data_PCOD9199499
_publ_section_title
;
Structure prediction by ZEFSAII (Michael W. Deem and Ramdas Pophale) SiO2 
 PCOD9199499
Probable space group: C 2/M
;
_chemical_formula_sum "Si O2"
_cell_formula_units_Z 48
_cell_length_a 14.646274
_cell_length_b 14.247592
_cell_length_c 14.595908
_cell_angle_alpha 90.000000
_cell_angle_beta 123.599639
_cell_angle_gamma 90.000000
_cell_volume 2536.912552
_symmetry_space_group_name_H-M "C 2/M"
_symmetry_group_IT_number 12
_symmetry_cell_setting 'monoclinic'
loop_
_space_group_symop_operation_xyz
x,y,z
-x,y,-z
-x,-y,-z
x,-y,z
1/2+x,1/2+y,z
1/2-x,1/2+y,-z
1/2-x,1/2-y,-z
1/2+x,1/2-y,z
loop_
_atom_site_type_symbol
_atom_site_label
_atom_site_fract_x
_atom_site_fract_y
_atom_site_fract_z
Si Si1 0.091410 0.888519 0.984178
Si Si2 0.274078 0.243651 0.620896
Si Si3 0.341394 0.893371 0.156531
Si Si4 0.886856 0.393895 0.395468
Si Si5 0.530703 0.714933 0.774036
Si Si6 0.104128 0.888212 0.626749
O O1 0.057935 0.864068 0.863083
O O2 0.089964 0.000000 0.994322
O O3 0.214729 0.863040 0.080465
O O4 0.000000 0.845754 0.000000
O O5 0.250000 0.250000 0.500000
O O6 0.215461 0.333482 0.631989
O O7 0.403935 0.255365 0.701702
O O8 0.210875 0.156501 0.634880
O O9 0.385417 0.896963 0.285279
O O10 0.408284 0.807371 0.153676
O O11 0.352191 0.000000 0.125115
O O12 0.876873 0.500000 0.425621
O O13 0.000000 0.354524 0.500000
O O14 0.574093 0.674614 0.700103
O O15 0.000000 0.881491 0.500000
O O16 0.119103 0.000000 0.656011
#
# Coordination Sequence:
#
# PCOD9199499 Si02
#       6
#     8   8   8   8   8   8
#     4  10  22  40  63  94 121 155 210 262 310 368
#     4  12  23  37  60  91 127 164 207 256 310 377
#     4  10  21  39  61  86 122 157 198 259 308 362
#     4  10  20  36  60  88 119 155 200 251 308 367
#     4  12  23  39  68  90 124 169 214 252 317 380
#     4  11  24  43  62  90 131 171 210 260 317 378
#
# _framework density 18.920635999999998
#
# number of rings (size 3 to 8) (size 9 to 14) (size 15 to 20)
#    0.000    1.167    3.333    3.500    0.000    4.000 
#    0.000    0.000    0.000    0.500    0.000    0.000 
#    0.000    0.000    0.000    0.000    0.000    0.000 
#
# Total GULP energy -133821.790589 kJ/mol
# GULP energy per Si atom -5575.907941 kJ/mol
# Density = 1.887757 g / cm^3
# Si number density = 18.920636 Si / 1000 Ang^3
#
#
#
# Elastic Constant Matrix: (Units=GPa)
#
#
# Indices 1 2 3 4 5 6 
#
# 1 95.9156 28.9548 28.0980 0.0000 25.7745 0.0000
# 2 28.9548 60.9774 -18.1145 0.0000 24.5373 0.0000
# 3 28.0980 -18.1145 80.6696 0.0000 25.7213 0.0000
# 4 0.0000 0.0000 0.0000 23.5536 0.0000 5.4905
# 5 25.7745 24.5373 25.7213 0.0000 43.0241 0.0000
# 6 0.0000 0.0000 0.0000 5.4905 0.0000 -2.8365
#
#
#
# Elastic Compliance Matrix: (Units=1/GPa)
#
#
# Indices 1 2 3 4 5 6 
#
# 1 0.015608 -0.010548 -0.008329 0.000000 0.001645 0.000000
# 2 -0.010548 0.039891 0.022079 0.000000 -0.029631 0.000000
# 3 -0.008329 0.022079 0.028021 0.000000 -0.024354 0.000000
# 4 0.000000 0.000000 0.000000 0.029256 0.000000 0.056629
# 5 0.001645 -0.029631 -0.024354 0.000000 0.053716 0.000000
# 6 0.000000 0.000000 0.000000 0.056629 0.000000 -0.242932
#
#
# Mechanical properties :
#
#
# Convention : Reuss Voigt Hill
#
# Bulk Modulus (GPa) = 11.12051 35.04882 23.08466
# Shear Modulus (GPa) = -94.56965 25.98984 -34.28991
#
# Velocity S-wave (km/s) = -7.07748 3.71026 -4.26173
# Velocity P-wave (km/s) = 7.80369 6.07611 3.46254
#
# Compressibility (1/GPa) = 0.08992394
#
# Stress axis : x y z
#
# Youngs Moduli (GPa) = 64.06978 25.06849 35.68806
#
# Poissons Ratio (x) = 0.26441 0.29726
# Poissons Ratio (y) = 0.67578 -0.78796
# Poissons Ratio (z) = 0.53366 -0.55349
#
# Static dielectric constant tensor:
#      x y z
#    x 1.674390 0.000000 0.039430 
#    y 0.000000 1.699580 0.000000 
#    z 0.039430 0.000000 1.654280 
# 
# From -- ./inp_files/143577.got.cif
#   From: 2010.05.17/outbox.cif.g08.bks.cpg/sg12_72_cif.got.tgz:143577.got - 2010.06.03 13:09:07.
