data_PCOD9199810
_publ_section_title
;
Structure prediction by ZEFSAII (Michael W. Deem and Ramdas Pophale) SiO2 
 PCOD9199810
Probable space group: C 2/M
;
_chemical_formula_sum "Si O2"
_cell_formula_units_Z 48
_cell_length_a 29.995033
_cell_length_b 18.462925
_cell_length_c 13.048123
_cell_angle_alpha 90.000000
_cell_angle_beta 161.256749
_cell_angle_gamma 90.000000
_cell_volume 2321.915213
_symmetry_space_group_name_H-M "C 2/M"
_symmetry_group_IT_number 12
_symmetry_cell_setting 'monoclinic'
loop_
_space_group_symop_operation_xyz
x,y,z
-x,y,-z
-x,-y,-z
x,-y,z
1/2+x,1/2+y,z
1/2-x,1/2+y,-z
1/2-x,1/2-y,-z
1/2+x,1/2-y,z
loop_
_atom_site_type_symbol
_atom_site_label
_atom_site_fract_x
_atom_site_fract_y
_atom_site_fract_z
Si Si1 0.206707 0.680674 0.700281
Si Si2 0.549671 0.580220 0.723948
Si Si3 0.357437 0.584955 0.652002
Si Si4 0.356151 0.083021 0.627745
Si Si5 0.062367 0.701475 0.746066
Si Si6 0.279100 0.412309 0.255284
O O1 0.166563 0.646346 0.503574
O O2 0.067900 0.696181 0.461450
O O3 0.303444 0.618315 0.958001
O O4 0.316147 0.746683 0.945537
O O5 0.500000 0.576758 0.500000
O O6 0.568641 0.500000 0.809024
O O7 0.422563 0.612758 0.513105
O O8 0.386676 0.500000 0.692826
O O9 0.257856 0.587977 0.531844
O O10 0.291982 0.610345 0.402857
O O11 0.500000 0.620512 0.000000
O O12 0.352459 0.000000 0.576306
O O13 0.500000 0.090940 0.000000
O O14 0.000000 0.725392 0.500000
O O15 0.144368 0.625486 0.914169
O O16 0.269225 0.500000 0.224427
#
# Coordination Sequence:
#
# PCOD9199810 Si02
#       6
#     8   8   8   8   8   8
#     4  12  24  41  62  87 121 164 207 250 306 367
#     4  10  20  36  61  92 124 159 203 254 305 363
#     4   9  17  32  57  88 120 154 192 239 296 357
#     4  10  21  39  64  93 122 154 198 252 307 363
#     4  12  26  43  63  87 121 164 208 257 309 366
#     4  10  21  39  63  93 126 161 206 257 310 368
#
# _framework density 20.672591000000001
#
# number of rings (size 3 to 8) (size 9 to 14) (size 15 to 20)
#    0.000    1.500    0.000    5.500    0.000    5.667 
#    0.000    4.167    0.000    0.000    0.000    0.000 
#    0.000    0.000    0.000    0.000    0.000    0.000 
#
# Total GULP energy -133916.518369 kJ/mol
# GULP energy per Si atom -5579.854932 kJ/mol
# Density = 2.062554 g / cm^3
# Si number density = 20.672591 Si / 1000 Ang^3
#
#
#
# Elastic Constant Matrix: (Units=GPa)
#
#
# Indices 1 2 3 4 5 6 
#
# 1 82.7934 35.4299 37.0282 0.0000 -3.4846 0.0000
# 2 35.4299 65.5790 45.8429 0.0000 4.3480 0.0000
# 3 37.0282 45.8429 133.7725 0.0000 13.5924 0.0000
# 4 0.0000 0.0000 0.0000 51.3741 0.0000 -0.3071
# 5 -3.4846 4.3480 13.5924 0.0000 41.7667 0.0000
# 6 0.0000 0.0000 0.0000 -0.3071 0.0000 19.0773
#
#
#
# Elastic Compliance Matrix: (Units=1/GPa)
#
#
# Indices 1 2 3 4 5 6 
#
# 1 0.016414 -0.007467 -0.002278 0.000000 0.002888 0.000000
# 2 -0.007467 0.023450 -0.005852 0.000000 -0.001160 0.000000
# 3 -0.002278 -0.005852 0.010413 0.000000 -0.002970 0.000000
# 4 0.000000 0.000000 0.000000 0.019467 0.000000 0.000313
# 5 0.002888 -0.001160 -0.002970 0.000000 0.025271 0.000000
# 6 0.000000 0.000000 0.000000 0.000313 0.000000 0.052423
#
#
# Mechanical properties :
#
#
# Convention : Reuss Voigt Hill
#
# Bulk Modulus (GPa) = 52.39908 57.63854 55.01881
# Shear Modulus (GPa) = 27.02813 33.36655 30.19734
#
# Velocity S-wave (km/s) = 3.61977 4.02188 3.82611
# Velocity P-wave (km/s) = 6.54771 7.03630 6.79640
#
# Compressibility (1/GPa) = 0.01908431
#
# Stress axis : x y z
#
# Youngs Moduli (GPa) = 60.92399 42.64339 96.03425
#
# Poissons Ratio (x) = 0.31841 0.21876
# Poissons Ratio (y) = 0.45491 0.56195
# Poissons Ratio (z) = 0.13878 0.24953
#
# Static dielectric constant tensor:
#      x y z
#    x 1.714940 0.000000 -0.032250 
#    y 0.000000 1.821070 0.000000 
#    z -0.032250 0.000000 1.720190 
# 
# From -- ./inp_files/184822.got.cif
#   From: 2010.05.17/outbox.cif.g08.bks.cpg/sg12_93_cif.got.tgz:184822.got - 2010.06.03 13:09:07.
