data_PCOD9199619
_publ_section_title
;
Structure prediction by ZEFSAII (Michael W. Deem and Ramdas Pophale) SiO2 
 PCOD9199619
Probable space group: C 2/M
;
_chemical_formula_sum "Si O2"
_cell_formula_units_Z 64
_cell_length_a 15.438244
_cell_length_b 22.759083
_cell_length_c 20.028357
_cell_angle_alpha 90.000000
_cell_angle_beta 151.731411
_cell_angle_gamma 90.000000
_cell_volume 3332.841531
_symmetry_space_group_name_H-M "C 2/M"
_symmetry_group_IT_number 12
_symmetry_cell_setting 'monoclinic'
loop_
_space_group_symop_operation_xyz
x,y,z
-x,y,-z
-x,-y,-z
x,-y,z
1/2+x,1/2+y,z
1/2-x,1/2+y,-z
1/2-x,1/2-y,-z
1/2+x,1/2-y,z
loop_
_atom_site_type_symbol
_atom_site_label
_atom_site_fract_x
_atom_site_fract_y
_atom_site_fract_z
Si Si1 0.100076 0.124962 0.236097
Si Si2 0.397714 0.431553 0.361320
Si Si3 0.311321 0.561916 0.832816
Si Si4 0.532999 0.844284 0.696157
Si Si5 0.809406 0.070481 0.558870
Si Si6 0.702988 0.817262 0.952568
Si Si7 0.148760 0.270499 0.651968
Si Si8 0.412996 0.836085 0.867985
O O1 0.148326 0.073981 0.216660
O O2 0.122742 0.099055 0.325388
O O3 0.243391 0.177123 0.314033
O O4 0.895492 0.148110 0.082323
O O5 0.500000 0.416619 0.500000
O O6 0.342641 0.500000 0.328355
O O7 0.536962 0.425303 0.394039
O O8 0.225889 0.389924 0.233437
O O9 0.212650 0.500000 0.774614
O O10 0.197909 0.614171 0.785769
O O11 0.500000 0.560287 0.000000
O O12 0.357715 0.886899 0.576245
O O13 0.588459 0.820432 0.806132
O O14 0.539495 0.795051 0.642556
O O15 0.766148 0.000000 0.536919
O O16 0.573883 0.841062 0.923334
O O17 0.750000 0.750000 0.000000
O O18 0.297247 0.223022 0.775168
O O19 0.000000 0.244942 0.500000
O O20 0.500000 0.833160 0.000000
#
# Coordination Sequence:
#
# PCOD9199619 Si02
#       8
#     8   8   8   8   8   8   8   8
#     4  11  22  41  61  95 135 171 212 262 319 383
#     4  10  23  46  70  93 128 171 215 271 329 384
#     4  10  20  36  60  91 130 170 208 254 316 381
#     4  11  23  39  63  95 127 170 213 265 313 382
#     4  11  23  42  67  97 132 170 218 269 319 383
#     4  12  24  42  64  94 128 169 218 268 322 383
#     4  11  23  41  62  93 133 171 211 256 322 389
#     4  12  25  43  68  95 127 170 218 270 328 382
#
# _framework density 19.202832999999998
#
# number of rings (size 3 to 8) (size 9 to 14) (size 15 to 20)
#    0.000    1.000    3.750    3.375    0.000    0.250 
#    0.000    5.625    0.000    0.000    0.000    0.000 
#    0.000    0.000    0.000    0.000    0.000    0.000 
#
# Total GULP energy -178735.544672 kJ/mol
# GULP energy per Si atom -5585.485771 kJ/mol
# Density = 1.915913 g / cm^3
# Si number density = 19.202833 Si / 1000 Ang^3
#
#
#
# Elastic Constant Matrix: (Units=GPa)
#
#
# Indices 1 2 3 4 5 6 
#
# 1 108.8576 21.2429 43.6349 0.0121 -21.7640 0.0041
# 2 21.2429 71.2935 38.1487 0.0053 -10.8661 -0.0028
# 3 43.6349 38.1487 117.6331 0.0006 -26.4603 -0.0020
# 4 0.0121 0.0053 0.0006 53.9119 -0.0005 8.2341
# 5 -21.7640 -10.8661 -26.4603 -0.0005 43.5415 -0.0008
# 6 0.0041 -0.0028 -0.0020 8.2341 -0.0008 23.0014
#
#
#
# Elastic Compliance Matrix: (Units=1/GPa)
#
#
# Indices 1 2 3 4 5 6 
#
# 1 0.011340 -0.001228 -0.003014 -0.000002 0.003530 -0.000002
# 2 -0.001228 0.017145 -0.004958 -0.000002 0.000652 0.000003
# 3 -0.003014 -0.004958 0.012290 0.000001 0.004725 0.000001
# 4 -0.000002 -0.000002 0.000001 0.019622 -0.000001 -0.007024
# 5 0.003530 0.000652 0.004725 -0.000001 0.027765 0.000001
# 6 -0.000002 0.000003 0.000001 -0.007024 0.000001 0.045990
#
#
# Mechanical properties :
#
#
# Convention : Reuss Voigt Hill
#
# Bulk Modulus (GPa) = 44.69444 55.98191 50.33817
# Shear Modulus (GPa) = 31.24819 37.07480 34.16150
#
# Velocity S-wave (km/s) = 4.03832 4.39873 4.22237
# Velocity P-wave (km/s) = 6.71338 7.41719 7.07404
#
# Compressibility (1/GPa) = 0.02237415
#
# Stress axis : x y z
#
# Youngs Moduli (GPa) = 88.18411 58.32698 81.36899
#
# Poissons Ratio (x) = 0.07163 0.24526
# Poissons Ratio (y) = 0.10829 0.40342
# Poissons Ratio (z) = 0.26580 0.28918
#
# Static dielectric constant tensor:
#      x y z
#    x 1.628290 0.000000 0.038620 
#    y 0.000000 1.672540 -0.000010 
#    z 0.038620 -0.000010 1.574100 
# 
# From -- ./inp_files/272858.got.cif
#   From: 2010.05.17/outbox.cif.g08.bks.cpg/sg12_137_cif.got.tgz:272858.got - 2010.06.03 13:09:07.
