data_PCOD9199262
_publ_section_title
;
Structure prediction by ZEFSAII (Michael W. Deem and Ramdas Pophale) SiO2 
 PCOD9199262
Probable space group: C 2/M
;
_chemical_formula_sum "Si O2"
_cell_formula_units_Z 44
_cell_length_a 16.065927
_cell_length_b 18.036302
_cell_length_c 10.310741
_cell_angle_alpha 90.000000
_cell_angle_beta 52.530470
_cell_angle_gamma 90.000000
_cell_volume 2371.302414
_symmetry_space_group_name_H-M "C 2/M"
_symmetry_group_IT_number 12
_symmetry_cell_setting 'monoclinic'
loop_
_space_group_symop_operation_xyz
x,y,z
-x,y,-z
-x,-y,-z
x,-y,z
1/2+x,1/2+y,z
1/2-x,1/2+y,-z
1/2-x,1/2-y,-z
1/2+x,1/2-y,z
loop_
_atom_site_type_symbol
_atom_site_label
_atom_site_fract_x
_atom_site_fract_y
_atom_site_fract_z
Si Si1 0.926276 0.872486 0.677230
Si Si2 0.824326 0.000000 0.247985
Si Si3 0.500000 0.217042 0.000000
Si Si4 0.916774 0.764022 0.349266
Si Si5 0.727585 0.778654 0.872160
Si Si6 0.056741 0.000000 0.137545
Si Si7 0.265518 0.841167 0.609955
O O1 0.813019 0.840293 0.751982
O O2 0.916816 0.927104 0.806454
O O3 0.000000 0.910374 0.500000
O O4 0.995119 0.801124 0.649436
O O5 0.756696 0.926289 0.337762
O O6 0.931578 0.000000 0.230705
O O7 0.874255 0.000000 0.057279
O O8 0.462013 0.259996 0.162305
O O9 0.388227 0.187036 0.048666
O O10 0.816494 0.816977 0.425028
O O11 0.876116 0.686799 0.446866
O O12 0.744038 0.708973 0.758615
O O13 0.750000 0.750000 0.000000
#
# Coordination Sequence:
#
# PCOD9199262 Si02
#       7
#     8   4   4   8   8   4   8
#     4  12  22  39  59  92 129 168 204 262 319 380
#     4  11  22  38  64  89 133 166 203 265 325 377
#     4  10  22  34  60  94 118 160 214 268 304 358
#     4  10  20  36  59  89 126 159 214 252 308 377
#     4  11  21  35  61  90 126 164 212 261 307 372
#     4  11  25  36  60  96 131 164 204 261 335 380
#     4  10  21  37  59  91 124 166 204 257 314 376
#
# _framework density 18.555204
#
# number of rings (size 3 to 8) (size 9 to 14) (size 15 to 20)
#    0.000    1.273    5.455    1.364    2.545    0.000 
#    0.000    0.000    0.000    4.364    0.000    0.000 
#    0.000    0.000    0.000    0.000    0.000    0.000 
#
# Total GULP energy -122483.786084 kJ/mol
# GULP energy per Si atom -5567.444822 kJ/mol
# Density = 1.851297 g / cm^3
# Si number density = 18.555204 Si / 1000 Ang^3
#
#
#
# Elastic Constant Matrix: (Units=GPa)
#
#
# Indices 1 2 3 4 5 6 
#
# 1 107.9714 29.7457 32.6227 0.0000 -12.2364 0.0000
# 2 29.7457 116.1718 38.0168 0.0000 -8.8497 0.0000
# 3 32.6227 38.0168 72.0313 0.0000 -1.2430 0.0000
# 4 0.0000 0.0000 0.0000 19.6175 0.0000 -5.2329
# 5 -12.2364 -8.8497 -1.2430 0.0000 40.2235 0.0000
# 6 0.0000 0.0000 0.0000 -5.2329 0.0000 1.0822
#
#
#
# Elastic Compliance Matrix: (Units=1/GPa)
#
#
# Indices 1 2 3 4 5 6 
#
# 1 0.011272 -0.001211 -0.004413 0.000000 0.003026 0.000000
# 2 -0.001211 0.010719 -0.005077 0.000000 0.001833 0.000000
# 3 -0.004413 -0.005077 0.018529 0.000000 -0.001887 0.000000
# 4 0.000000 0.000000 0.000000 -0.175882 0.000000 -0.850462
# 5 0.003026 0.001833 -0.001887 0.000000 0.026127 0.000000
# 6 0.000000 0.000000 0.000000 -0.850462 0.000000 -3.188289
#
#
# Mechanical properties :
#
#
# Convention : Reuss Voigt Hill
#
# Bulk Modulus (GPa) = 52.31236 55.21611 53.76424
# Shear Modulus (GPa) = -1.52917 25.23725 11.85404
#
# Velocity S-wave (km/s) = -0.90879 3.69198 2.53030
# Velocity P-wave (km/s) = 5.21084 6.92796 6.12982
#
# Compressibility (1/GPa) = 0.01911594
#
# Stress axis : x y z
#
# Youngs Moduli (GPa) = 88.71639 93.29041 53.97016
#
# Poissons Ratio (x) = 0.11301 0.23819
# Poissons Ratio (y) = 0.10747 0.27401
# Poissons Ratio (z) = 0.39155 0.47365
#
# Static dielectric constant tensor:
#      x y z
#    x 1.688010 0.000000 -0.000550 
#    y 0.000000 1.614940 0.000000 
#    z -0.000550 0.000000 1.744410 
# 
# From -- ./inp_files/145377.got.cif
#   From: 2010.05.17/outbox.cif.g08.bks.cpg/sg12_73_cif.got.tgz:145377.got - 2010.06.03 13:09:07.
