data_PCOD9199179
_publ_section_title
;
Structure prediction by ZEFSAII (Michael W. Deem and Ramdas Pophale) SiO2 
 PCOD9199179
Probable space group: C 2/M
;
_chemical_formula_sum "Si O2"
_cell_formula_units_Z 56
_cell_length_a 19.310197
_cell_length_b 8.355942
_cell_length_c 26.107263
_cell_angle_alpha 90.000000
_cell_angle_beta 40.181462
_cell_angle_gamma 90.000000
_cell_volume 2717.971578
_symmetry_space_group_name_H-M "C 2/M"
_symmetry_group_IT_number 12
_symmetry_cell_setting 'monoclinic'
loop_
_space_group_symop_operation_xyz
x,y,z
-x,y,-z
-x,-y,-z
x,-y,z
1/2+x,1/2+y,z
1/2-x,1/2+y,-z
1/2-x,1/2-y,-z
1/2+x,1/2-y,z
loop_
_atom_site_type_symbol
_atom_site_label
_atom_site_fract_x
_atom_site_fract_y
_atom_site_fract_z
Si Si1 0.417870 0.310280 0.678026
Si Si2 0.327327 0.814346 0.000456
Si Si3 0.659578 0.813680 0.168350
Si Si4 0.962681 0.810516 0.075740
Si Si5 0.562335 0.690508 0.737874
Si Si6 0.787109 0.193831 0.252315
Si Si7 0.137054 0.309245 0.585150
O O1 0.423451 0.500000 0.681295
O O2 0.372481 0.232280 0.756052
O O3 0.331705 0.264209 0.683733
O O4 0.537826 0.242705 0.605050
O O5 0.258383 0.786602 0.090963
O O6 0.350987 0.000000 0.979427
O O7 0.250000 0.750000 0.000000
O O8 0.437147 0.717144 0.943232
O O9 0.552577 0.777819 0.195791
O O10 0.687959 0.000000 0.149321
O O11 0.856515 0.748991 0.163853
O O12 0.945369 0.000000 0.078212
O O13 0.000000 0.740986 0.000000
O O14 0.542679 0.500000 0.752344
O O15 0.643806 0.737122 0.736783
O O16 0.612996 0.731345 0.654084
O O17 0.780193 0.000000 0.254549
O O18 0.136145 0.500000 0.591212
O O19 0.250000 0.250000 0.500000
#
# Coordination Sequence:
#
# PCOD9199179 Si02
#       7
#     8   8   8   8   8   8   8
#     4  11  22  37  60  88 117 150 190 231 275 334
#     4  12  24  37  54  78 109 145 191 244 296 346
#     4  11  21  36  57  80 110 148 193 240 288 342
#     4  10  21  37  57  81 113 154 197 242 294 345
#     4  10  20  36  59  87 119 154 193 236 288 344
#     4  10  21  37  57  83 118 156 193 238 289 341
#     4  11  22  40  65  91 120 150 187 231 281 341
#
# _framework density 20.6036
#
# number of rings (size 3 to 8) (size 9 to 14) (size 15 to 20)
#    0.000    1.286    0.000    9.000    0.000    4.286 
#    0.000    0.714    0.000    4.286    0.000    0.000 
#    0.000    0.000    0.000    0.000    0.000    0.000 
#
# Total GULP energy -156613.296865 kJ/mol
# GULP energy per Si atom -5593.332031 kJ/mol
# Density = 2.055671 g / cm^3
# Si number density = 20.603600 Si / 1000 Ang^3
#
#
#
# Elastic Constant Matrix: (Units=GPa)
#
#
# Indices 1 2 3 4 5 6 
#
# 1 98.0453 6.3945 15.4027 -0.0001 -26.6106 0.0000
# 2 6.3945 45.4216 -8.8180 -0.0001 2.4050 0.0003
# 3 15.4027 -8.8180 78.1757 0.0000 -26.3248 0.0000
# 4 -0.0001 -0.0001 0.0000 24.9122 0.0000 -3.4012
# 5 -26.6106 2.4050 -26.3248 0.0000 31.2422 -0.0001
# 6 0.0000 0.0003 0.0000 -3.4012 -0.0001 30.9881
#
#
#
# Elastic Compliance Matrix: (Units=1/GPa)
#
#
# Indices 1 2 3 4 5 6 
#
# 1 0.013661 -0.002335 0.001429 0.000000 0.013020 0.000000
# 2 -0.002335 0.022915 0.002487 0.000000 -0.001658 0.000000
# 3 0.001429 0.002487 0.018340 0.000000 0.016479 0.000000
# 4 0.000000 0.000000 0.000000 0.040752 0.000000 0.004473
# 5 0.013020 -0.001658 0.016479 0.000000 0.057111 0.000000
# 6 0.000000 0.000000 0.000000 0.004473 0.000000 0.032761
#
#
# Mechanical properties :
#
#
# Convention : Reuss Voigt Hill
#
# Bulk Modulus (GPa) = 17.21832 27.51123 22.36477
# Shear Modulus (GPa) = 24.78473 31.33937 28.06205
#
# Velocity S-wave (km/s) = 3.47209 3.90431 3.69453
# Velocity P-wave (km/s) = 4.94459 5.80573 5.39238
#
# Compressibility (1/GPa) = 0.05807766
#
# Stress axis : x y z
#
# Youngs Moduli (GPa) = 73.20196 43.63912 54.52629
#
# Poissons Ratio (x) = 0.10190 -0.07794
# Poissons Ratio (y) = 0.17093 -0.13559
# Poissons Ratio (z) = -0.10463 -0.10852
#
# Static dielectric constant tensor:
#      x y z
#    x 1.778330 0.000000 0.016350 
#    y 0.000000 1.711230 0.000000 
#    z 0.016350 0.000000 1.727030 
# 
# From -- ./inp_files/363023.got.cif
#   From: 2010.05.17/outbox.cif.g08.bks.cpg/sg12_182_cif.got.tgz:363023.got - 2010.06.03 13:09:07.
