data_PCOD9199902
_publ_section_title
;
Structure prediction by ZEFSAII (Michael W. Deem and Ramdas Pophale) SiO2 
 PCOD9199902
Probable space group: C 2/M
;
_chemical_formula_sum "Si O2"
_cell_formula_units_Z 64
_cell_length_a 22.846625
_cell_length_b 12.435001
_cell_length_c 10.185990
_cell_angle_alpha 90.000000
_cell_angle_beta 86.954184
_cell_angle_gamma 90.000000
_cell_volume 2889.729492
_symmetry_space_group_name_H-M "C 2/M"
_symmetry_group_IT_number 12
_symmetry_cell_setting 'monoclinic'
loop_
_space_group_symop_operation_xyz
x,y,z
-x,y,-z
-x,-y,-z
x,-y,z
1/2+x,1/2+y,z
1/2-x,1/2+y,-z
1/2-x,1/2-y,-z
1/2+x,1/2-y,z
loop_
_atom_site_type_symbol
_atom_site_label
_atom_site_fract_x
_atom_site_fract_y
_atom_site_fract_z
Si Si1 0.806768 0.120588 0.984156
Si Si2 0.203711 0.376448 0.353655
Si Si3 0.453671 0.876477 0.110035
Si Si4 0.121558 0.203515 0.278507
Si Si5 0.797362 0.303642 0.355980
Si Si6 0.510445 0.259914 0.647427
Si Si7 0.824019 0.342750 0.085782
Si Si8 0.119268 0.882990 0.563167
O O1 0.841295 0.155910 0.846955
O O2 0.735323 0.125280 0.982661
O O3 0.823435 0.000000 0.017318
O O4 0.825031 0.213198 0.081316
O O5 0.213373 0.500000 0.309351
O O6 0.142799 0.325842 0.309588
O O7 0.211342 0.370169 0.510513
O O8 0.245140 0.274641 0.314579
O O9 0.457347 0.813764 0.247759
O O10 0.389898 0.875756 0.047325
O O11 0.469442 0.000000 0.135466
O O12 0.500000 0.830970 0.000000
O O13 0.131253 0.130791 0.406728
O O14 0.051292 0.208655 0.279280
O O15 0.813381 0.378529 0.234989
O O16 0.846868 0.217096 0.381583
O O17 0.500000 0.211666 0.500000
O O18 0.551947 0.361192 0.608120
O O19 0.139302 0.000000 0.605279
#
# Coordination Sequence:
#
# PCOD9199902 Si02
#       8
#     8   8   8   8   8   8   8   8
#     4  11  24  41  65  91 123 164 203 256 318 375
#     4  10  21  36  60  91 125 164 198 244 312 374
#     4  11  24  44  68  90 122 171 213 256 318 379
#     4  10  21  39  58  91 129 161 205 253 303 369
#     4  10  20  39  58  89 124 156 198 260 305 366
#     4  10  22  40  62  93 130 163 211 268 308 365
#     4  11  23  44  62  90 125 158 208 261 306 371
#     4  10  20  36  62  89 122 165 204 250 313 372
#
# _framework density 22.147403000000001
#
# number of rings (size 3 to 8) (size 9 to 14) (size 15 to 20)
#    0.000    1.625    2.500    1.875    0.000    5.500 
#    0.000    0.625    0.000    1.500    0.000    0.000 
#    0.000    0.000    0.000    0.000    0.000    0.000 
#
# Total GULP energy -178380.997401 kJ/mol
# GULP energy per Si atom -5574.406169 kJ/mol
# Density = 2.209699 g / cm^3
# Si number density = 22.147403 Si / 1000 Ang^3
#
#
#
# Elastic Constant Matrix: (Units=GPa)
#
#
# Indices 1 2 3 4 5 6 
#
# 1 89.8864 -1.0050 9.0700 0.0000 -20.6052 0.0000
# 2 -1.0050 119.4119 17.6430 0.0000 0.1090 0.0000
# 3 9.0700 17.6430 83.3470 0.0000 -16.3557 0.0000
# 4 0.0000 0.0000 0.0000 6.2868 0.0000 -6.3072
# 5 -20.6052 0.1090 -16.3557 0.0000 28.6856 0.0000
# 6 0.0000 0.0000 0.0000 -6.3072 0.0000 -5.4608
#
#
#
# Elastic Compliance Matrix: (Units=1/GPa)
#
#
# Indices 1 2 3 4 5 6 
#
# 1 0.013336 0.000033 0.000475 0.000000 0.009850 0.000000
# 2 0.000033 0.008682 -0.002076 0.000000 -0.001193 0.000000
# 3 0.000475 -0.002076 0.014023 0.000000 0.008344 0.000000
# 4 0.000000 0.000000 0.000000 0.073683 0.000000 -0.085104
# 5 0.009850 -0.001193 0.008344 0.000000 0.046698 0.000000
# 6 0.000000 0.000000 0.000000 -0.085104 0.000000 -0.084829
#
#
# Mechanical properties :
#
#
# Convention : Reuss Voigt Hill
#
# Bulk Modulus (GPa) = 30.39001 38.22903 34.30952
# Shear Modulus (GPa) = 58.34467 23.69815 41.02141
#
# Velocity S-wave (km/s) = 5.13819 3.27466 4.30839
# Velocity P-wave (km/s) = 6.99663 5.62108 6.34623
#
# Compressibility (1/GPa) = 0.03290555
#
# Stress axis : x y z
#
# Youngs Moduli (GPa) = 74.98772 115.17551 71.31034
#
# Poissons Ratio (x) = -0.00381 -0.03385
# Poissons Ratio (y) = -0.00248 0.14801
# Poissons Ratio (z) = -0.03559 0.23905
#
# Static dielectric constant tensor:
#      x y z
#    x 1.909580 0.000000 -0.015320 
#    y 0.000000 1.783960 0.000000 
#    z -0.015320 0.000000 1.863050 
# 
# From -- ./inp_files/174613.got.cif
#   From: 2010.05.17/outbox.cif.g08.bks.cpg/sg12_88_cif.got.tgz:174613.got - 2010.06.03 13:09:07.
