data_PCOD9199511
_publ_section_title
;
Structure prediction by ZEFSAII (Michael W. Deem and Ramdas Pophale) SiO2 
 PCOD9199511
Probable space group: C 2/M
;
_chemical_formula_sum "Si O2"
_cell_formula_units_Z 48
_cell_length_a 9.642420
_cell_length_b 23.127189
_cell_length_c 12.556479
_cell_angle_alpha 90.000000
_cell_angle_beta 116.954982
_cell_angle_gamma 90.000000
_cell_volume 2495.923956
_symmetry_space_group_name_H-M "C 2/M"
_symmetry_group_IT_number 12
_symmetry_cell_setting 'monoclinic'
loop_
_space_group_symop_operation_xyz
x,y,z
-x,y,-z
-x,-y,-z
x,-y,z
1/2+x,1/2+y,z
1/2-x,1/2+y,-z
1/2-x,1/2-y,-z
1/2+x,1/2-y,z
loop_
_atom_site_type_symbol
_atom_site_label
_atom_site_fract_x
_atom_site_fract_y
_atom_site_fract_z
Si Si1 0.308333 0.134575 0.640725
Si Si2 0.603574 0.266480 0.634307
Si Si3 0.207040 0.066392 0.803689
Si Si4 0.401838 0.377972 0.624892
Si Si5 0.185042 0.932049 0.043368
Si Si6 0.656310 0.144868 0.723298
O O1 0.254666 0.201037 0.638988
O O2 0.302057 0.104852 0.753629
O O3 0.176460 0.109541 0.516235
O O4 0.476512 0.127757 0.649193
O O5 0.500000 0.242688 0.500000
O O6 0.499793 0.318021 0.648205
O O7 0.651362 0.214689 0.727407
O O8 0.026586 0.075793 0.708331
O O9 0.251889 0.000000 0.806555
O O10 0.220833 0.081730 0.932561
O O11 0.264239 0.370256 0.660904
O O12 0.274161 0.888903 0.152206
O O13 0.224750 0.000000 0.076279
O O14 0.000000 0.926471 0.000000
#
# Coordination Sequence:
#
# PCOD9199511 Si02
#       6
#     8   8   8   8   8   8
#     4  10  22  36  57  94 123 146 189 242 289 339
#     4   9  19  37  59  85 122 163 190 219 283 362
#     4  10  21  41  63  79 111 160 200 233 283 353
#     4  10  20  36  60  88 121 156 190 228 287 353
#     4  10  22  42  63  81 107 153 203 238 284 351
#     4  12  21  34  62  89 115 150 196 243 284 330
#
# _framework density 19.231356000000002
#
# number of rings (size 3 to 8) (size 9 to 14) (size 15 to 20)
#    0.000    1.833    1.667    4.000    0.000    5.333 
#    0.000    5.000    0.000    5.500    0.000    0.000 
#    0.000    0.000    0.000    0.000    0.000    0.000 
#
# Total GULP energy -133977.865439 kJ/mol
# GULP energy per Si atom -5582.411060 kJ/mol
# Density = 1.918758 g / cm^3
# Si number density = 19.231356 Si / 1000 Ang^3
#
#
#
# Elastic Constant Matrix: (Units=GPa)
#
#
# Indices 1 2 3 4 5 6 
#
# 1 83.0486 -4.7558 0.2485 0.0000 -6.2791 0.0000
# 2 -4.7558 52.4989 47.2849 0.0000 -0.9798 0.0000
# 3 0.2485 47.2849 96.6981 0.0000 -7.3729 0.0000
# 4 0.0000 0.0000 0.0000 42.1574 0.0000 17.7657
# 5 -6.2791 -0.9798 -7.3729 0.0000 29.0755 0.0000
# 6 0.0000 0.0000 0.0000 17.7657 0.0000 44.3222
#
#
#
# Elastic Compliance Matrix: (Units=1/GPa)
#
#
# Indices 1 2 3 4 5 6 
#
# 1 0.012340 0.001822 -0.000729 0.000000 0.002541 0.000000
# 2 0.001822 0.034592 -0.017132 0.000000 -0.002785 0.000000
# 3 -0.000729 -0.017132 0.019033 0.000000 0.004092 0.000000
# 4 0.000000 0.000000 0.000000 0.028542 0.000000 -0.011440
# 5 0.002541 -0.002785 0.004092 0.000000 0.035886 0.000000
# 6 0.000000 0.000000 0.000000 -0.011440 0.000000 0.027148
#
#
# Mechanical properties :
#
#
# Convention : Reuss Voigt Hill
#
# Bulk Modulus (GPa) = 29.51093 35.31121 32.41107
# Shear Modulus (GPa) = 24.88630 35.74220 30.31425
#
# Velocity S-wave (km/s) = 3.60119 4.31575 3.97456
# Velocity P-wave (km/s) = 5.71576 6.57537 6.16058
#
# Compressibility (1/GPa) = 0.03388575
#
# Stress axis : x y z
#
# Youngs Moduli (GPa) = 81.03861 28.90860 52.54057
#
# Poissons Ratio (x) = -0.05266 0.03829
# Poissons Ratio (y) = -0.14762 0.90014
# Poissons Ratio (z) = 0.05905 0.49527
#
# Static dielectric constant tensor:
#      x y z
#    x 1.698600 0.000000 -0.004200 
#    y 0.000000 1.663970 0.000000 
#    z -0.004200 0.000000 1.651120 
# 
# From -- ./inp_files/122419.got.cif
#   From: 2010.05.17/outbox.cif.g08.bks.cpg/sg12_62_cif.got.tgz:122419.got - 2010.06.03 13:09:07.
