data_PCOD9199367
_publ_section_title
;
Structure prediction by ZEFSAII (Michael W. Deem and Ramdas Pophale) SiO2 
 PCOD9199367
Probable space group: C 2/M
;
_chemical_formula_sum "Si O2"
_cell_formula_units_Z 64
_cell_length_a 25.240157
_cell_length_b 7.524532
_cell_length_c 15.616751
_cell_angle_alpha 90.000000
_cell_angle_beta 90.264605
_cell_angle_gamma 90.000000
_cell_volume 2965.907484
_symmetry_space_group_name_H-M "C 2/M"
_symmetry_group_IT_number 12
_symmetry_cell_setting 'monoclinic'
loop_
_space_group_symop_operation_xyz
x,y,z
-x,y,-z
-x,-y,-z
x,-y,z
1/2+x,1/2+y,z
1/2-x,1/2+y,-z
1/2-x,1/2-y,-z
1/2+x,1/2-y,z
loop_
_atom_site_type_symbol
_atom_site_label
_atom_site_fract_x
_atom_site_fract_y
_atom_site_fract_z
Si Si1 0.122781 0.715830 0.663447
Si Si2 0.492738 0.217200 0.401605
Si Si3 0.117558 0.203323 0.857441
Si Si4 0.806453 0.707115 0.757450
Si Si5 0.734437 0.210749 0.596527
Si Si6 0.425705 0.209357 0.743800
Si Si7 0.002206 0.784915 0.900567
Si Si8 0.229095 0.786356 0.905893
O O1 0.122241 0.500000 0.668328
O O2 0.065879 0.771959 0.627986
O O3 0.129736 0.792064 0.757594
O O4 0.174156 0.771907 0.610892
O O5 0.500000 0.272671 0.500000
O O6 0.536761 0.279666 0.333024
O O7 0.494024 0.000000 0.400564
O O8 0.059382 0.281762 0.868716
O O9 0.169325 0.286626 0.899826
O O10 0.113040 0.000000 0.889214
O O11 0.813968 0.500000 0.780385
O O12 0.774557 0.715415 0.668044
O O13 0.865903 0.783765 0.749347
O O14 0.768556 0.782655 0.832105
O O15 0.750000 0.250000 0.500000
O O16 0.735223 0.000000 0.609780
O O17 0.456778 0.226444 0.834160
O O18 0.420088 0.000000 0.724949
O O19 0.000237 0.000000 0.897659
O O20 0.000000 0.731506 0.000000
O O21 0.224879 0.000000 0.892718
O O22 0.250000 0.750000 0.000000
#
# Coordination Sequence:
#
# PCOD9199367 Si02
#       8
#     8   8   8   8   8   8   8   8
#     4  10  20  36  60  86 109 143 193 237 277 332
#     4   9  18  33  56  84 111 141 180 226 277 328
#     4  10  20  37  59  81 111 150 188 234 291 336
#     4  10  22  40  59  83 117 153 192 237 287 342
#     4  11  24  39  60  88 117 153 193 235 286 341
#     4  10  21  37  59  84 113 149 187 234 284 331
#     4  10  22  38  57  82 114 153 191 230 283 346
#     4  10  22  38  57  83 114 149 191 238 287 341
#
# _framework density 21.578555000000001
#
# number of rings (size 3 to 8) (size 9 to 14) (size 15 to 20)
#    0.000    2.000    2.500    0.375    3.500    2.250 
#    0.000    0.000    0.000    0.750    0.000    0.000 
#    0.000    0.000    0.000    0.000    0.000    0.000 
#
# Total GULP energy -178659.884089 kJ/mol
# GULP energy per Si atom -5583.121378 kJ/mol
# Density = 2.152944 g / cm^3
# Si number density = 21.578555 Si / 1000 Ang^3
#
#
#
# Elastic Constant Matrix: (Units=GPa)
#
#
# Indices 1 2 3 4 5 6 
#
# 1 144.4749 5.7711 20.9953 0.0000 4.6972 0.0000
# 2 5.7711 52.2289 -16.2581 0.0000 -3.7523 0.0000
# 3 20.9953 -16.2581 83.3815 0.0000 3.2626 0.0000
# 4 0.0000 0.0000 0.0000 4.1076 0.0000 14.1371
# 5 4.6972 -3.7523 3.2626 0.0000 43.7176 0.0000
# 6 0.0000 0.0000 0.0000 14.1371 0.0000 -6.7977
#
#
#
# Elastic Compliance Matrix: (Units=1/GPa)
#
#
# Indices 1 2 3 4 5 6 
#
# 1 0.007313 -0.001519 -0.002108 0.000000 -0.000759 0.000000
# 2 -0.001519 0.020792 0.004373 0.000000 0.001621 0.000000
# 3 -0.002108 0.004373 0.013392 0.000000 -0.000398 0.000000
# 4 0.000000 0.000000 0.000000 0.029843 0.000000 0.062065
# 5 -0.000759 0.001621 -0.000398 0.000000 0.023124 0.000000
# 6 0.000000 0.000000 0.000000 0.062065 0.000000 -0.018033
#
#
# Mechanical properties :
#
#
# Convention : Reuss Voigt Hill
#
# Bulk Modulus (GPa) = 23.26105 33.45574 28.35840
# Shear Modulus (GPa) = 56.01035 26.17731 41.09383
#
# Velocity S-wave (km/s) = 5.10028 3.48676 4.36866
# Velocity P-wave (km/s) = 6.74440 5.63452 6.21429
#
# Compressibility (1/GPa) = 0.04299032
#
# Stress axis : x y z
#
# Youngs Moduli (GPa) = 136.73750 48.09525 74.67096
#
# Poissons Ratio (x) = 0.07305 0.15740
# Poissons Ratio (y) = 0.20767 -0.32654
# Poissons Ratio (z) = 0.28823 -0.21033
#
# Static dielectric constant tensor:
#      x y z
#    x 0.164420 0.000000 0.564780 
#    y 0.000000 1.818210 0.000000 
#    z 0.564780 0.000000 1.547840 
# 
# From -- ./inp_files/238585.got.cif
#   From: 2010.05.17/outbox.cif.g08.bks.cpg/sg12_120_cif.got.tgz:238585.got - 2010.06.03 13:09:07.
