data_PCOD9199570
_publ_section_title
;
Structure prediction by ZEFSAII (Michael W. Deem and Ramdas Pophale) SiO2 
 PCOD9199570
Probable space group: C 2/M
;
_chemical_formula_sum "Si O2"
_cell_formula_units_Z 64
_cell_length_a 27.883208
_cell_length_b 13.749297
_cell_length_c 19.940848
_cell_angle_alpha 90.000000
_cell_angle_beta 23.846787
_cell_angle_gamma 90.000000
_cell_volume 3090.738994
_symmetry_space_group_name_H-M "C 2/M"
_symmetry_group_IT_number 12
_symmetry_cell_setting 'monoclinic'
loop_
_space_group_symop_operation_xyz
x,y,z
-x,y,-z
-x,-y,-z
x,-y,z
1/2+x,1/2+y,z
1/2-x,1/2+y,-z
1/2-x,1/2-y,-z
1/2+x,1/2-y,z
loop_
_atom_site_type_symbol
_atom_site_label
_atom_site_fract_x
_atom_site_fract_y
_atom_site_fract_z
Si Si1 0.262757 0.384697 0.886918
Si Si2 0.174709 0.114095 0.955625
Si Si3 0.949820 0.383061 0.633517
Si Si4 0.497136 0.115972 0.717107
Si Si5 0.266370 0.616388 0.623429
Si Si6 0.042770 0.882351 0.256701
Si Si7 0.658774 0.209125 0.891377
Si Si8 0.417603 0.882852 0.252960
O O1 0.277258 0.500000 0.857378
O O2 0.370413 0.348374 0.795030
O O3 0.245979 0.335369 0.836730
O O4 0.139302 0.371495 0.084819
O O5 0.307976 0.126316 0.813420
O O6 0.157660 0.177302 0.911005
O O7 0.155760 0.000000 0.967605
O O8 0.089095 0.150355 0.124691
O O9 0.972901 0.500000 0.603195
O O10 0.006977 0.345055 0.629209
O O11 0.000000 0.341513 0.500000
O O12 0.577963 0.150790 0.675275
O O13 0.516736 0.000000 0.687474
O O14 0.251927 0.500000 0.656011
O O15 0.405439 0.637602 0.442650
O O16 0.203526 0.677340 0.762012
O O17 0.201027 0.636147 0.636655
O O18 0.057010 0.000000 0.237282
O O19 0.529556 0.164390 0.072011
O O20 0.437238 0.000000 0.227889
#
# Coordination Sequence:
#
# PCOD9199570 Si02
#       8
#     8   8   8   8   8   8   8   8
#     4   9  16  30  52  80 117 154 186 230 295 364
#     4  10  21  39  57  79 115 161 202 236 283 352
#     4   9  16  30  54  80 110 147 190 242 290 330
#     4   8  13  26  50  80 111 141 178 228 283 341
#     4  10  20  36  60  90 119 151 190 243 305 355
#     4   9  18  35  58  81 117 161 196 235 289 360
#     4  11  21  33  54  87 118 153 192 246 296 352
#     4   9  18  34  58  86 117 151 191 240 299 359
#
# _framework density 20.707023
#
# number of rings (size 3 to 8) (size 9 to 14) (size 15 to 20)
#    0.000    2.625    1.250    2.250    0.000    2.000 
#    2.250    2.500    0.000    3.000    0.000    4.375 
#    0.000    0.000    0.000    0.000    0.000    0.000 
#
# Total GULP energy -178751.445569 kJ/mol
# GULP energy per Si atom -5585.982674 kJ/mol
# Density = 2.065989 g / cm^3
# Si number density = 20.707023 Si / 1000 Ang^3
#
#
#
# Elastic Constant Matrix: (Units=GPa)
#
#
# Indices 1 2 3 4 5 6 
#
# 1 108.9689 9.9935 16.6651 0.0000 -4.7351 0.0000
# 2 9.9935 77.1742 -9.9547 0.0000 -10.1877 0.0000
# 3 16.6651 -9.9547 19.7806 0.0000 -3.1040 0.0000
# 4 0.0000 0.0000 0.0000 -11.1409 0.0000 -12.6250
# 5 -4.7351 -10.1877 -3.1040 0.0000 27.8480 0.0000
# 6 0.0000 0.0000 0.0000 -12.6250 0.0000 8.7522
#
#
#
# Elastic Compliance Matrix: (Units=1/GPa)
#
#
# Indices 1 2 3 4 5 6 
#
# 1 0.011084 -0.002885 -0.010850 0.000000 -0.000380 0.000000
# 2 -0.002885 0.015650 0.011326 0.000000 0.006497 0.000000
# 3 -0.010850 0.011326 0.066927 0.000000 0.009758 0.000000
# 4 0.000000 0.000000 0.000000 -0.034069 0.000000 -0.049144
# 5 -0.000380 0.006497 0.009758 0.000000 0.039309 0.000000
# 6 0.000000 0.000000 0.000000 -0.049144 0.000000 0.043367
#
#
# Mechanical properties :
#
#
# Convention : Reuss Voigt Hill
#
# Bulk Modulus (GPa) = 11.25584 26.59240 18.92412
# Shear Modulus (GPa) = 28.29645 17.70652 23.00148
#
# Velocity S-wave (km/s) = 3.70065 2.92738 3.33649
# Velocity P-wave (km/s) = 4.86902 4.92911 4.89916
#
# Compressibility (1/GPa) = 0.08884274
#
# Stress axis : x y z
#
# Youngs Moduli (GPa) = 90.21728 63.89812 14.94172
#
# Poissons Ratio (x) = 0.18435 0.16212
# Poissons Ratio (y) = 0.26028 -0.16923
# Poissons Ratio (z) = 0.97886 -0.72371
#
# Static dielectric constant tensor:
#      x y z
#    x 1.734160 0.000000 0.010080 
#    y 0.000000 1.790970 0.000000 
#    z 0.010080 0.000000 1.710060 
# 
# From -- ./inp_files/278177.got.cif
#   From: 2010.05.17/outbox.cif.g08.bks.cpg/sg12_140_cif.got.tgz:278177.got - 2010.06.03 13:09:07.
