data_PCOD9199594
_publ_section_title
;
Structure prediction by ZEFSAII (Michael W. Deem and Ramdas Pophale) SiO2 
 PCOD9199594
Probable space group: C 2/M
;
_chemical_formula_sum "Si O2"
_cell_formula_units_Z 50
_cell_length_a 25.299146
_cell_length_b 7.603903
_cell_length_c 15.068601
_cell_angle_alpha 90.000000
_cell_angle_beta 49.907758
_cell_angle_gamma 90.000000
_cell_volume 2217.592203
_symmetry_space_group_name_H-M "C 2/M"
_symmetry_group_IT_number 12
_symmetry_cell_setting 'monoclinic'
loop_
_space_group_symop_operation_xyz
x,y,z
-x,y,-z
-x,-y,-z
x,-y,z
1/2+x,1/2+y,z
1/2-x,1/2+y,-z
1/2-x,1/2-y,-z
1/2+x,1/2-y,z
loop_
_atom_site_type_symbol
_atom_site_label
_atom_site_fract_x
_atom_site_fract_y
_atom_site_fract_z
Si Si1 0.310087 0.299063 0.824061
Si Si2 0.577026 0.797441 0.434618
Si Si3 0.408860 0.286523 0.869946
Si Si4 0.437385 0.290427 0.353698
Si Si5 0.000000 0.500000 0.000000
Si Si6 0.592872 0.300439 0.806121
Si Si7 0.323882 0.793768 0.125504
O O1 0.292389 0.500000 0.867595
O O2 0.366102 0.298847 0.684894
O O3 0.349386 0.222327 0.866591
O O4 0.240724 0.217131 0.859206
O O5 0.500000 0.726087 0.500000
O O6 0.588936 0.789848 0.526686
O O7 0.577849 0.000000 0.403524
O O8 0.408538 0.500000 0.871256
O O9 0.484026 0.231095 0.753909
O O10 0.389379 0.221334 0.988648
O O11 0.440281 0.500000 0.365904
O O12 0.394186 0.259294 0.311137
O O13 0.957594 0.654214 0.100659
O O14 0.563264 0.500000 0.840072
O O15 0.658198 0.294634 0.801166
O O16 0.311212 0.000000 0.156283
#
# Coordination Sequence:
#
# PCOD9199594 Si02
#       7
#     8   8   8   8   2   8   8
#     4  10  22  40  62  88 123 167 215 258 319 388
#     4  11  23  38  61  93 123 157 206 266 323 377
#     4  10  20  36  60  90 123 165 205 261 320 381
#     4  10  22  39  64  91 122 160 209 258 317 381
#     4  12  22  40  68  94 130 172 208 272 312 366
#     4  11  24  41  62  95 131 172 216 259 319 379
#     4  11  23  39  60  90 128 173 214 258 314 385
#
# _framework density 22.546976999999998
#
# number of rings (size 3 to 8) (size 9 to 14) (size 15 to 20)
#    0.000    1.440    2.400    2.640    1.120    4.480 
#    0.000    0.800    0.000    0.000    0.000    0.000 
#    0.000    0.000    0.000    0.000    0.000    0.000 
#
# Total GULP energy -139528.437388 kJ/mol
# GULP energy per Si atom -5581.137496 kJ/mol
# Density = 2.249566 g / cm^3
# Si number density = 22.546977 Si / 1000 Ang^3
#
#
#
# Elastic Constant Matrix: (Units=GPa)
#
#
# Indices 1 2 3 4 5 6 
#
# 1 124.5889 -1.2545 26.7409 0.0000 30.4041 0.0003
# 2 -1.2545 85.9520 -2.9101 -0.0006 5.5757 0.0004
# 3 26.7409 -2.9101 70.5175 -0.0005 21.1860 0.0002
# 4 0.0000 -0.0006 -0.0005 17.0841 0.0001 -1.2520
# 5 30.4041 5.5757 21.1860 0.0001 40.1595 0.0000
# 6 0.0003 0.0004 0.0002 -1.2520 0.0000 14.3865
#
#
#
# Elastic Compliance Matrix: (Units=1/GPa)
#
#
# Indices 1 2 3 4 5 6 
#
# 1 0.010059 0.000526 -0.001762 0.000000 -0.006759 0.000000
# 2 0.000526 0.011848 0.001073 0.000000 -0.002609 0.000000
# 3 -0.001762 0.001073 0.017275 0.000001 -0.007928 0.000000
# 4 0.000000 0.000000 0.000001 0.058910 -0.000001 0.005127
# 5 -0.006759 -0.002609 -0.007928 -0.000001 0.034563 0.000000
# 6 0.000000 0.000000 0.000000 0.005127 0.000000 0.069956
#
#
# Mechanical properties :
#
#
# Convention : Reuss Voigt Hill
#
# Bulk Modulus (GPa) = 25.73587 36.24566 30.99076
# Shear Modulus (GPa) = 23.16004 31.55816 27.35910
#
# Velocity S-wave (km/s) = 3.20846 3.74527 3.48721
# Velocity P-wave (km/s) = 5.01644 5.90027 5.47622
#
# Compressibility (1/GPa) = 0.03885628
#
# Stress axis : x y z
#
# Youngs Moduli (GPa) = 99.40962 84.40473 57.88566
#
# Poissons Ratio (x) = -0.04437 0.10201
# Poissons Ratio (y) = -0.05225 -0.06214
# Poissons Ratio (z) = 0.17518 -0.09061
#
# Static dielectric constant tensor:
#      x y z
#    x 1.921240 0.000000 -0.001830 
#    y 0.000000 1.832010 0.000000 
#    z -0.001830 0.000000 1.772620 
# 
# From -- ./inp_files/237239.got.cif
#   From: 2010.05.17/outbox.cif.g08.bks.cpg/sg12_119_cif.got.tgz:237239.got - 2010.06.03 13:09:07.
