data_PCOD9199091
_publ_section_title
;
Structure prediction by ZEFSAII (Michael W. Deem and Ramdas Pophale) SiO2 
 PCOD9199091
Probable space group: C 2/M
;
_chemical_formula_sum "Si O2"
_cell_formula_units_Z 56
_cell_length_a 13.964517
_cell_length_b 23.627177
_cell_length_c 16.830065
_cell_angle_alpha 90.000000
_cell_angle_beta 34.665702
_cell_angle_gamma 90.000000
_cell_volume 3158.445730
_symmetry_space_group_name_H-M "C 2/M"
_symmetry_group_IT_number 12
_symmetry_cell_setting 'monoclinic'
loop_
_space_group_symop_operation_xyz
x,y,z
-x,y,-z
-x,-y,-z
x,-y,z
1/2+x,1/2+y,z
1/2-x,1/2+y,-z
1/2-x,1/2-y,-z
1/2+x,1/2-y,z
loop_
_atom_site_type_symbol
_atom_site_label
_atom_site_fract_x
_atom_site_fract_y
_atom_site_fract_z
Si Si1 0.411851 0.879318 0.643150
Si Si2 0.216863 0.135564 0.005844
Si Si3 0.974643 0.567369 0.280130
Si Si4 0.308014 0.434094 0.660117
Si Si5 0.200580 0.215737 0.876332
Si Si6 0.931439 0.937434 0.137007
Si Si7 0.701415 0.846448 0.867570
O O1 0.500000 0.867381 0.500000
O O2 0.536182 0.902129 0.627002
O O3 0.309158 0.825856 0.747321
O O4 0.266295 0.925996 0.729728
O O5 0.355605 0.092759 0.874661
O O6 0.233821 0.193430 0.943447
O O7 0.246098 0.140526 0.078557
O O8 0.033970 0.109446 0.114385
O O9 0.989686 0.500000 0.280462
O O10 0.820584 0.578204 0.324867
O O11 0.500000 0.430040 0.500000
O O12 0.277419 0.500000 0.705430
O O13 0.276280 0.389860 0.752533
O O14 0.244965 0.280297 0.826555
O O15 0.000000 0.208773 0.000000
O O16 0.968479 0.000000 0.143001
O O17 0.000000 0.934366 0.000000
O O18 0.500000 0.851366 0.000000
#
# Coordination Sequence:
#
# PCOD9199091 Si02
#       7
#     8   8   8   8   8   8   8
#     4  11  22  37  58  87 121 156 193 236 286 353
#     4  11  19  36  60  89 116 150 193 247 286 341
#     4  10  20  36  59  85 118 155 190 237 294 341
#     4  10  23  43  61  83 121 158 188 236 296 346
#     4  10  20  40  60  83 120 152 188 244 299 336
#     4  11  20  34  57  85 117 158 190 231 293 346
#     4  11  23  37  63  90 109 150 204 247 278 341
#
# _framework density 17.730239999999998
#
# number of rings (size 3 to 8) (size 9 to 14) (size 15 to 20)
#    0.000    1.429    5.714    1.286    0.000    4.286 
#    0.000    1.429    0.000    3.429    0.000    0.000 
#    0.000    0.000    0.000    0.000    0.000    0.000 
#
# Total GULP energy -156250.031403 kJ/mol
# GULP energy per Si atom -5580.358264 kJ/mol
# Density = 1.768988 g / cm^3
# Si number density = 17.730240 Si / 1000 Ang^3
#
#
#
# Elastic Constant Matrix: (Units=GPa)
#
#
# Indices 1 2 3 4 5 6 
#
# 1 134.9673 61.9631 47.9850 -0.0152 16.5650 -0.0139
# 2 61.9631 126.6568 45.5177 -0.0335 22.2405 -0.0252
# 3 47.9850 45.5177 71.4465 -0.0760 18.8836 -0.0535
# 4 -0.0152 -0.0335 -0.0760 -18.0737 0.0100 -21.1282
# 5 16.5650 22.2405 18.8836 0.0100 27.7938 0.0120
# 6 -0.0139 -0.0252 -0.0535 -21.1282 0.0120 6.8113
#
#
#
# Elastic Compliance Matrix: (Units=1/GPa)
#
#
# Indices 1 2 3 4 5 6 
#
# 1 0.010795 -0.003439 -0.004981 0.000011 -0.000298 0.000006
# 2 -0.003439 0.011838 -0.003986 -0.000005 -0.004715 0.000000
# 3 -0.004981 -0.003986 0.022249 -0.000061 -0.008958 -0.000022
# 4 0.000011 -0.000005 -0.000061 -0.011960 0.000058 -0.037099
# 5 -0.000298 -0.004715 -0.008958 0.000058 0.046016 0.000012
# 6 0.000006 0.000000 -0.000022 -0.037099 0.000012 0.031736
#
#
# Mechanical properties :
#
#
# Convention : Reuss Voigt Hill
#
# Bulk Modulus (GPa) = 49.82359 71.55579 60.68969
# Shear Modulus (GPa) = 35.16761 15.14659 25.15710
#
# Velocity S-wave (km/s) = 4.45846 2.92598 3.77089
# Velocity P-wave (km/s) = 7.39363 7.20144 7.29817
#
# Compressibility (1/GPa) = 0.02007082
#
# Stress axis : x y z
#
# Youngs Moduli (GPa) = 92.63184 84.47182 44.94657
#
# Poissons Ratio (x) = 0.29050 0.22386
# Poissons Ratio (y) = 0.31856 0.17916
# Poissons Ratio (z) = 0.46137 0.33671
#
# Static dielectric constant tensor:
#      x y z
#    x 1.642500 0.000000 -0.010950 
#    y 0.000000 1.615500 0.000000 
#    z -0.010950 0.000000 1.569540 
# 
# From -- ./inp_files/272359.got.cif
#   From: 2010.05.17/outbox.cif.g08.bks.cpg/sg12_137_cif.got.tgz:272359.got - 2010.06.03 13:09:07.
