data_PCOD9199276
_publ_section_title
;
Structure prediction by ZEFSAII (Michael W. Deem and Ramdas Pophale) SiO2 
 PCOD9199276
Probable space group: C 2/M
;
_chemical_formula_sum "Si O2"
_cell_formula_units_Z 64
_cell_length_a 8.408529
_cell_length_b 27.728609
_cell_length_c 16.995552
_cell_angle_alpha 90.000000
_cell_angle_beta 45.121322
_cell_angle_gamma 90.000000
_cell_volume 2807.928516
_symmetry_space_group_name_H-M "C 2/M"
_symmetry_group_IT_number 12
_symmetry_cell_setting 'monoclinic'
loop_
_space_group_symop_operation_xyz
x,y,z
-x,y,-z
-x,-y,-z
x,-y,z
1/2+x,1/2+y,z
1/2-x,1/2+y,-z
1/2-x,1/2-y,-z
1/2+x,1/2-y,z
loop_
_atom_site_type_symbol
_atom_site_label
_atom_site_fract_x
_atom_site_fract_y
_atom_site_fract_z
Si Si1 0.092382 0.410311 0.048388
Si Si2 0.238321 0.420060 0.426492
Si Si3 0.780059 0.051886 0.713436
Si Si4 0.226920 0.356493 0.278330
Si Si5 0.145912 0.786161 0.147275
Si Si6 0.756491 0.868205 0.586717
Si Si7 0.047431 0.309182 0.110538
Si Si8 0.059918 0.945842 0.886443
O O1 0.122919 0.364285 0.095031
O O2 0.916737 0.443383 0.154466
O O3 0.308890 0.438439 0.942934
O O4 0.000000 0.388200 0.000000
O O5 0.476750 0.445199 0.330092
O O6 0.223038 0.376689 0.368976
O O7 0.251971 0.401710 0.510896
O O8 0.000000 0.446473 0.500000
O O9 0.756170 0.096279 0.661744
O O10 0.763228 0.000000 0.678049
O O11 0.422079 0.316829 0.209267
O O12 0.294055 0.403304 0.201880
O O13 0.978299 0.340325 0.338781
O O14 0.096246 0.729090 0.161758
O O15 0.287979 0.803943 0.173185
O O16 0.303828 0.794030 0.016492
O O17 0.000000 0.842296 0.500000
O O18 0.148370 0.000000 0.842192
O O19 0.000000 0.940610 0.000000
#
# Coordination Sequence:
#
# PCOD9199276 Si02
#       8
#     8   8   8   8   8   8   8   8
#     4  12  22  39  57  84 123 166 202 248 291 363
#     4   9  20  37  60  85 113 149 201 264 316 360
#     4  11  23  37  57  85 120 163 207 254 311 368
#     4  11  20  39  63  89 122 161 205 252 313 363
#     4  10  20  36  59  90 122 160 193 246 296 361
#     4   9  21  40  60  88 117 153 203 264 314 359
#     4  10  20  37  56  88 128 156 196 241 293 354
#     4  11  24  38  53  81 123 167 207 244 291 362
#
# _framework density 22.792601999999999
#
# number of rings (size 3 to 8) (size 9 to 14) (size 15 to 20)
#    0.000    1.625    2.500    2.625    0.000    8.500 
#    0.000    3.750    0.000    0.000    0.000   55.125 
#    0.000    0.000    0.000    0.000    0.000    0.000 
#
# Total GULP energy -178576.573084 kJ/mol
# GULP energy per Si atom -5580.517909 kJ/mol
# Density = 2.274073 g / cm^3
# Si number density = 22.792602 Si / 1000 Ang^3
#
#
#
# Elastic Constant Matrix: (Units=GPa)
#
#
# Indices 1 2 3 4 5 6 
#
# 1 80.1036 2.5470 31.8055 0.0000 -24.4247 0.0000
# 2 2.5470 64.3643 11.9549 0.0000 -2.7907 0.0000
# 3 31.8055 11.9549 83.7993 0.0000 -21.1630 0.0000
# 4 0.0000 0.0000 0.0000 -24.9458 0.0000 2.7062
# 5 -24.4247 -2.7907 -21.1630 0.0000 48.1694 0.0000
# 6 0.0000 0.0000 0.0000 2.7062 0.0000 10.2330
#
#
#
# Elastic Compliance Matrix: (Units=1/GPa)
#
#
# Indices 1 2 3 4 5 6 
#
# 1 0.016208 0.000492 -0.004656 0.000000 0.006201 0.000000
# 2 0.000492 0.015975 -0.002440 0.000000 0.000103 0.000000
# 3 -0.004656 -0.002440 0.015091 0.000000 0.004128 0.000000
# 4 0.000000 0.000000 0.000000 -0.038969 0.000000 0.010305
# 5 0.006201 0.000103 0.004128 0.000000 0.025724 0.000000
# 6 0.000000 0.000000 0.000000 0.010305 0.000000 0.094998
#
#
# Mechanical properties :
#
#
# Convention : Reuss Voigt Hill
#
# Bulk Modulus (GPa) = 29.35398 35.65356 32.50377
# Shear Modulus (GPa) = 32.55463 18.82198 25.68830
#
# Velocity S-wave (km/s) = 3.78338 2.87678 3.36079
# Velocity P-wave (km/s) = 5.65615 5.16827 5.41770
#
# Compressibility (1/GPa) = 0.03406693
#
# Stress axis : x y z
#
# Youngs Moduli (GPa) = 61.69954 62.59896 66.26527
#
# Poissons Ratio (x) = -0.03081 0.30851
# Poissons Ratio (y) = -0.03037 0.16167
# Poissons Ratio (z) = 0.28725 0.15272
#
# Static dielectric constant tensor:
#      x y z
#    x 2.008390 0.000000 -0.066130 
#    y 0.000000 1.821390 0.000000 
#    z -0.066130 0.000000 1.868410 
# 
# From -- ./inp_files/260318.got.cif
#   From: 2010.05.17/outbox.cif.g08.bks.cpg/sg12_131_cif.got.tgz:260318.got - 2010.06.03 13:09:07.
