data_PCOD9199381
_publ_section_title
;
Structure prediction by ZEFSAII (Michael W. Deem and Ramdas Pophale) SiO2 
 PCOD9199381
Probable space group: C 2/M
;
_chemical_formula_sum "Si O2"
_cell_formula_units_Z 48
_cell_length_a 20.289872
_cell_length_b 26.031351
_cell_length_c 9.496890
_cell_angle_alpha 90.000000
_cell_angle_beta 151.953412
_cell_angle_gamma 90.000000
_cell_volume 2358.469184
_symmetry_space_group_name_H-M "C 2/M"
_symmetry_group_IT_number 12
_symmetry_cell_setting 'monoclinic'
loop_
_space_group_symop_operation_xyz
x,y,z
-x,y,-z
-x,-y,-z
x,-y,z
1/2+x,1/2+y,z
1/2-x,1/2+y,-z
1/2-x,1/2-y,-z
1/2+x,1/2-y,z
loop_
_atom_site_type_symbol
_atom_site_label
_atom_site_fract_x
_atom_site_fract_y
_atom_site_fract_z
Si Si1 0.198517 0.059250 0.114173
Si Si2 0.335920 0.391594 0.231720
Si Si3 0.625671 0.223674 0.349085
Si Si4 0.646114 0.723168 0.693276
Si Si5 0.851037 0.396011 0.646001
Si Si6 0.380301 0.559185 0.593019
O O1 0.317571 0.066860 0.453511
O O2 0.182181 0.000000 0.040093
O O3 0.234617 0.093678 0.047518
O O4 0.045504 0.073896 0.892967
O O5 0.500000 0.391627 0.500000
O O6 0.301111 0.335510 0.226421
O O7 0.321004 0.433926 0.323746
O O8 0.750000 0.250000 0.500000
O O9 0.621139 0.249173 0.496030
O O10 0.647812 0.162619 0.404874
O O11 0.500000 0.230595 0.000000
O O12 0.500000 0.720673 0.500000
O O13 0.750000 0.750000 0.000000
O O14 0.719331 0.405547 0.500958
O O15 0.000000 0.406444 0.000000
O O16 0.372530 0.500000 0.626402
#
# Coordination Sequence:
#
# PCOD9199381 Si02
#       6
#     8   8   8   8   8   8
#     4  10  20  37  62  89 116 150 194 242 292 348
#     4   9  19  36  59  88 115 143 186 244 300 345
#     4  11  24  41  61  88 122 160 202 250 302 356
#     4  11  22  38  61  87 117 156 200 245 298 359
#     4  11  24  39  55  83 121 159 196 237 290 347
#     4  10  20  36  60  86 113 150 196 243 290 345
#
# _framework density 20.352184999999999
#
# number of rings (size 3 to 8) (size 9 to 14) (size 15 to 20)
#    0.000    1.667    0.000    4.500    0.000   10.000 
#    0.000    0.833    0.000    2.000    0.000    0.000 
#    0.000    0.000    0.000    0.000    0.000    0.000 
#
# Total GULP energy -133916.346155 kJ/mol
# GULP energy per Si atom -5579.847756 kJ/mol
# Density = 2.030586 g / cm^3
# Si number density = 20.352185 Si / 1000 Ang^3
#
#
#
# Elastic Constant Matrix: (Units=GPa)
#
#
# Indices 1 2 3 4 5 6 
#
# 1 85.2594 45.6256 37.8526 0.0000 -27.9552 0.0000
# 2 45.6256 82.8578 46.1890 0.0000 -7.4131 0.0000
# 3 37.8526 46.1890 86.8485 0.0000 -18.3048 0.0000
# 4 0.0000 0.0000 0.0000 26.3634 0.0000 -7.8191
# 5 -27.9552 -7.4131 -18.3048 0.0000 31.5803 0.0000
# 6 0.0000 0.0000 0.0000 -7.8191 0.0000 34.9463
#
#
#
# Elastic Compliance Matrix: (Units=1/GPa)
#
#
# Indices 1 2 3 4 5 6 
#
# 1 0.024003 -0.011224 -0.000648 0.000000 0.018237 0.000000
# 2 -0.011224 0.022461 -0.009155 0.000000 -0.009970 0.000000
# 3 -0.000648 -0.009155 0.018331 0.000000 0.007902 0.000000
# 4 0.000000 0.000000 0.000000 0.040627 0.000000 0.009090
# 5 0.018237 -0.009970 0.007902 0.000000 0.050049 0.000000
# 6 0.000000 0.000000 0.000000 0.009090 0.000000 0.030649
#
#
# Mechanical properties :
#
#
# Convention : Reuss Voigt Hill
#
# Bulk Modulus (GPa) = 43.97453 57.14446 50.55949
# Shear Modulus (GPa) = 21.20846 26.93122 24.06984
#
# Velocity S-wave (km/s) = 3.23162 3.64161 3.44272
# Velocity P-wave (km/s) = 5.96474 6.76909 6.37960
#
# Compressibility (1/GPa) = 0.02274044
#
# Stress axis : x y z
#
# Youngs Moduli (GPa) = 41.66168 44.52220 54.55167
#
# Poissons Ratio (x) = 0.49972 0.03538
# Poissons Ratio (y) = 0.46761 0.49940
# Poissons Ratio (z) = 0.02702 0.40759
#
# Static dielectric constant tensor:
#      x y z
#    x 1.724340 0.000000 0.043300 
#    y 0.000000 1.796120 0.000000 
#    z 0.043300 0.000000 1.703300 
# 
# From -- ./inp_files/80622.got.cif
#   From: 2010.05.17/outbox.cif.g08.bks.cpg/sg12_41_cif.got.tgz:80622.got - 2010.06.03 13:09:07.
