data_PCOD9199465
_publ_section_title
;
Structure prediction by ZEFSAII (Michael W. Deem and Ramdas Pophale) SiO2 
 PCOD9199465
Probable space group: C 2/M
;
_chemical_formula_sum "Si O2"
_cell_formula_units_Z 48
_cell_length_a 15.480635
_cell_length_b 8.613086
_cell_length_c 27.187317
_cell_angle_alpha 90.000000
_cell_angle_beta 134.520732
_cell_angle_gamma 90.000000
_cell_volume 2584.648425
_symmetry_space_group_name_H-M "C 2/M"
_symmetry_group_IT_number 12
_symmetry_cell_setting 'monoclinic'
loop_
_space_group_symop_operation_xyz
x,y,z
-x,y,-z
-x,-y,-z
x,-y,z
1/2+x,1/2+y,z
1/2-x,1/2+y,-z
1/2-x,1/2-y,-z
1/2+x,1/2-y,z
loop_
_atom_site_type_symbol
_atom_site_label
_atom_site_fract_x
_atom_site_fract_y
_atom_site_fract_z
Si Si1 0.413706 0.813629 0.826090
Si Si2 0.706713 0.814301 0.673115
Si Si3 0.682687 0.686746 0.924675
Si Si4 0.723283 0.187359 0.565819
Si Si5 0.622382 0.188907 0.076592
Si Si6 0.554209 0.314752 0.414356
O O1 0.314702 0.756651 0.747966
O O2 0.546832 0.748935 0.868105
O O3 0.378403 0.760864 0.867254
O O4 0.418489 0.000000 0.827857
O O5 0.715689 0.765018 0.619454
O O6 0.576590 0.762124 0.641615
O O7 0.715573 0.000000 0.677942
O O8 0.681801 0.500000 0.926444
O O9 0.762047 0.736250 0.909223
O O10 0.750000 0.750000 0.000000
O O11 0.618899 0.261365 0.490609
O O12 0.851327 0.228361 0.591263
O O13 0.710326 0.000000 0.558014
O O14 0.620252 0.000000 0.075823
O O15 0.500000 0.240343 0.000000
O O16 0.540759 0.500000 0.408756
#
# Coordination Sequence:
#
# PCOD9199465 Si02
#       6
#     8   8   8   8   8   8
#     4  11  23  40  59  83 114 150 193 236 283 338
#     4  11  23  39  57  81 118 156 190 230 286 345
#     4  11  21  37  61  86 112 144 185 231 282 338
#     4   9  20  38  59  83 116 156 191 228 284 345
#     4   9  18  36  60  82 109 147 183 221 281 346
#     4  10  20  36  60  88 114 147 195 240 278 328
#
# _framework density 18.571190999999999
#
# number of rings (size 3 to 8) (size 9 to 14) (size 15 to 20)
#    0.000    1.833    1.667    2.500    0.000    5.333 
#    0.000   10.833    0.000    0.000    0.000    0.000 
#    0.000    0.000    0.000    0.000    0.000    0.000 
#
# Total GULP energy -134080.234950 kJ/mol
# GULP energy per Si atom -5586.676456 kJ/mol
# Density = 1.852892 g / cm^3
# Si number density = 18.571191 Si / 1000 Ang^3
#
#
#
# Elastic Constant Matrix: (Units=GPa)
#
#
# Indices 1 2 3 4 5 6 
#
# 1 118.6579 29.1576 55.1188 0.0000 24.7419 0.0000
# 2 29.1576 40.3569 28.7404 0.0000 9.4609 0.0000
# 3 55.1188 28.7404 99.2654 0.0000 30.6893 0.0000
# 4 0.0000 0.0000 0.0000 36.2999 0.0000 4.9493
# 5 24.7419 9.4609 30.6893 0.0000 26.9819 0.0000
# 6 0.0000 0.0000 0.0000 4.9493 0.0000 29.8421
#
#
#
# Elastic Compliance Matrix: (Units=1/GPa)
#
#
# Indices 1 2 3 4 5 6 
#
# 1 0.012590 -0.005091 -0.003855 0.000000 -0.005375 0.000000
# 2 -0.005091 0.033292 -0.007167 0.000000 0.001146 0.000000
# 3 -0.003855 -0.007167 0.019156 0.000000 -0.015740 0.000000
# 4 0.000000 0.000000 0.000000 0.028186 0.000000 -0.004675
# 5 -0.005375 0.001146 -0.015740 0.000000 0.059491 0.000000
# 6 0.000000 0.000000 0.000000 -0.004675 0.000000 0.034285
#
#
# Mechanical properties :
#
#
# Convention : Reuss Voigt Hill
#
# Bulk Modulus (GPa) = 30.47589 53.81263 42.14426
# Shear Modulus (GPa) = 21.72378 28.30902 25.01640
#
# Velocity S-wave (km/s) = 3.42388 3.90853 3.67421
# Velocity P-wave (km/s) = 5.66362 7.02909 6.38297
#
# Compressibility (1/GPa) = 0.03281282
#
# Stress axis : x y z
#
# Youngs Moduli (GPa) = 79.42757 30.03719 52.20351
#
# Poissons Ratio (x) = 0.15291 0.20125
# Poissons Ratio (y) = 0.40434 0.37413
# Poissons Ratio (z) = 0.30621 0.21527
#
# Static dielectric constant tensor:
#      x y z
#    x 1.644660 0.000000 -0.006910 
#    y 0.000000 1.631960 0.000000 
#    z -0.006910 0.000000 1.594870 
# 
# From -- ./inp_files/360319.got.cif
#   From: 2010.05.17/outbox.cif.g08.bks.cpg/sg12_181_cif.got.tgz:360319.got - 2010.06.03 13:09:07.
