data_PCOD9199685
_publ_section_title
;
Structure prediction by ZEFSAII (Michael W. Deem and Ramdas Pophale) SiO2 
 PCOD9199685
Probable space group: C 2/M
;
_chemical_formula_sum "Si O2"
_cell_formula_units_Z 64
_cell_length_a 33.282863
_cell_length_b 8.220988
_cell_length_c 10.870167
_cell_angle_alpha 90.000000
_cell_angle_beta 93.339480
_cell_angle_gamma 90.000000
_cell_volume 2969.222973
_symmetry_space_group_name_H-M "C 2/M"
_symmetry_group_IT_number 12
_symmetry_cell_setting 'monoclinic'
loop_
_space_group_symop_operation_xyz
x,y,z
-x,y,-z
-x,-y,-z
x,-y,z
1/2+x,1/2+y,z
1/2-x,1/2+y,-z
1/2-x,1/2-y,-z
1/2+x,1/2-y,z
loop_
_atom_site_type_symbol
_atom_site_label
_atom_site_fract_x
_atom_site_fract_y
_atom_site_fract_z
Si Si1 0.274354 0.194950 0.624675
Si Si2 0.561369 0.305193 0.706058
Si Si3 0.445175 0.308246 0.564842
Si Si4 0.514083 0.189013 0.183352
Si Si5 0.093551 0.690821 0.073890
Si Si6 0.730003 0.697139 0.868078
Si Si7 0.138719 0.192368 0.845185
Si Si8 0.863764 0.188594 0.678848
O O1 0.250000 0.250000 0.500000
O O2 0.253923 0.250338 0.749843
O O3 0.319849 0.258886 0.629890
O O4 0.274912 0.000000 0.626548
O O5 0.564079 0.500000 0.696176
O O6 0.546087 0.248204 0.570355
O O7 0.529515 0.266373 0.806887
O O8 0.605568 0.239153 0.745050
O O9 0.456916 0.500000 0.579731
O O10 0.465476 0.212890 0.679288
O O11 0.397239 0.298737 0.578535
O O12 0.548418 0.253816 0.097045
O O13 0.508602 0.000000 0.155013
O O14 0.090664 0.500000 0.041601
O O15 0.119462 0.709741 0.203174
O O16 0.117450 0.782499 0.972490
O O17 0.729666 0.500000 0.868148
O O18 0.683881 0.758408 0.852510
O O19 0.750000 0.750000 0.000000
O O20 0.142323 0.000000 0.821154
O O21 0.863038 0.000000 0.718090
#
# Coordination Sequence:
#
# PCOD9199685 Si02
#       8
#     8   8   8   8   8   8   8   8
#     4  11  24  40  61  91 126 161 198 248 305 364
#     4  10  21  36  56  81 112 148 191 239 286 341
#     4   9  19  35  58  83 111 150 192 234 283 341
#     4  10  21  36  55  81 115 151 187 233 288 343
#     4  10  21  38  58  82 115 151 191 237 286 347
#     4  10  23  42  65  89 120 158 201 250 302 360
#     4  10  22  39  60  84 111 148 193 242 291 342
#     4  10  20  36  61  87 114 150 192 239 290 346
#
# _framework density 21.554462999999998
#
# number of rings (size 3 to 8) (size 9 to 14) (size 15 to 20)
#    0.000    2.000    0.000    2.625    1.750    8.500 
#    0.000    2.500    0.000    0.000    0.000    0.000 
#    0.000    0.000    0.000    0.000    0.000    0.000 
#
# Total GULP energy -178764.765687 kJ/mol
# GULP energy per Si atom -5586.398928 kJ/mol
# Density = 2.150540 g / cm^3
# Si number density = 21.554463 Si / 1000 Ang^3
#
#
#
# Elastic Constant Matrix: (Units=GPa)
#
#
# Indices 1 2 3 4 5 6 
#
# 1 127.1910 10.9796 29.7749 0.0000 -3.7942 0.0000
# 2 10.9796 20.9017 2.0953 0.0000 -2.9820 0.0000
# 3 29.7749 2.0953 95.1879 0.0000 -0.6447 0.0000
# 4 0.0000 0.0000 0.0000 8.0829 0.0000 8.0015
# 5 -3.7942 -2.9820 -0.6447 0.0000 28.5975 0.0000
# 6 0.0000 0.0000 0.0000 8.0015 0.0000 24.6847
#
#
#
# Elastic Compliance Matrix: (Units=1/GPa)
#
#
# Indices 1 2 3 4 5 6 
#
# 1 0.008880 -0.004301 -0.002679 0.000000 0.000669 0.000000
# 2 -0.004301 0.050751 0.000260 0.000000 0.004727 0.000000
# 3 -0.002679 0.000260 0.011337 0.000000 -0.000073 0.000000
# 4 0.000000 0.000000 0.000000 0.182176 0.000000 -0.059052
# 5 0.000669 0.004727 -0.000073 0.000000 0.035548 0.000000
# 6 0.000000 0.000000 0.000000 -0.059052 0.000000 0.059652
#
#
# Mechanical properties :
#
#
# Convention : Reuss Voigt Hill
#
# Bulk Modulus (GPa) = 17.38230 36.55334 26.96782
# Shear Modulus (GPa) = 13.12475 25.63507 19.37991
#
# Velocity S-wave (km/s) = 2.47029 3.45239 3.00178
# Velocity P-wave (km/s) = 4.02720 5.73475 4.95508
#
# Compressibility (1/GPa) = 0.05752978
#
# Stress axis : x y z
#
# Youngs Moduli (GPa) = 112.60651 19.70417 88.20525
#
# Poissons Ratio (x) = 0.08475 0.23627
# Poissons Ratio (y) = 0.48431 -0.02295
# Poissons Ratio (z) = 0.30163 -0.00513
#
# Static dielectric constant tensor:
#      x y z
#    x 1.795680 0.000000 0.009000 
#    y 0.000000 1.759930 0.000000 
#    z 0.009000 0.000000 1.782960 
# 
# From -- ./inp_files/187442.got.cif
#   From: 2010.05.17/outbox.cif.g08.bks.cpg/sg12_94_cif.got.tgz:187442.got - 2010.06.03 13:09:07.
