data_PCOD9199852
_publ_section_title
;
Structure prediction by ZEFSAII (Michael W. Deem and Ramdas Pophale) SiO2 
 PCOD9199852
Probable space group: C 2/M
;
_chemical_formula_sum "Si O2"
_cell_formula_units_Z 56
_cell_length_a 12.616767
_cell_length_b 15.027698
_cell_length_c 28.979762
_cell_angle_alpha 90.000000
_cell_angle_beta 26.995700
_cell_angle_gamma 90.000000
_cell_volume 2494.124605
_symmetry_space_group_name_H-M "C 2/M"
_symmetry_group_IT_number 12
_symmetry_cell_setting 'monoclinic'
loop_
_space_group_symop_operation_xyz
x,y,z
-x,y,-z
-x,-y,-z
x,-y,z
1/2+x,1/2+y,z
1/2-x,1/2+y,-z
1/2-x,1/2-y,-z
1/2+x,1/2-y,z
loop_
_atom_site_type_symbol
_atom_site_label
_atom_site_fract_x
_atom_site_fract_y
_atom_site_fract_z
Si Si1 0.779636 0.103281 0.884707
Si Si2 0.780852 0.096205 0.639059
Si Si3 0.374088 0.895972 0.722169
Si Si4 0.017688 0.775415 0.116279
Si Si5 0.505373 0.219867 0.416350
Si Si6 0.251132 0.400970 0.756072
Si Si7 0.653635 0.398026 0.658548
O O1 0.896299 0.178369 0.870389
O O2 0.923809 0.113625 0.780936
O O3 0.822436 0.000000 0.882313
O O4 0.500000 0.114828 0.000000
O O5 0.595125 0.104455 0.670325
O O6 0.918960 0.186369 0.590057
O O7 0.679866 0.093623 0.730265
O O8 0.906186 0.000000 0.585555
O O9 0.407125 0.831683 0.664800
O O10 0.160020 0.850711 0.833287
O O11 0.332998 0.000000 0.725152
O O12 0.882996 0.683083 0.172931
O O13 0.250000 0.750000 0.000000
O O14 0.628614 0.155763 0.406398
O O15 0.250000 0.250000 0.500000
O O16 0.203084 0.500000 0.794569
O O17 0.529242 0.382748 0.656993
O O18 0.723852 0.500000 0.632981
#
# Coordination Sequence:
#
# PCOD9199852 Si02
#       7
#     8   8   8   8   8   8   8
#     4  10  20  36  61  95 131 171 228 291 344 406
#     4  10  23  44  68  94 136 183 225 280 349 416
#     4  11  24  47  73 100 138 185 235 289 346 419
#     4  12  23  36  63  99 137 183 230 284 340 419
#     4  12  25  42  71 102 134 174 233 291 354 413
#     4  10  21  40  64  93 134 183 224 275 346 414
#     4  10  20  39  67  96 133 175 228 292 348 407
#
# _framework density 22.452767999999999
#
# number of rings (size 3 to 8) (size 9 to 14) (size 15 to 20)
#    0.000    1.286    2.857    2.571    0.000    5.143 
#    0.000    1.429    0.000    5.571    0.000    0.000 
#    0.000    0.000    0.000    0.000    0.000    0.000 
#
# Total GULP energy -155890.314076 kJ/mol
# GULP energy per Si atom -5567.511217 kJ/mol
# Density = 2.240166 g / cm^3
# Si number density = 22.452768 Si / 1000 Ang^3
#
#
#
# Elastic Constant Matrix: (Units=GPa)
#
#
# Indices 1 2 3 4 5 6 
#
# 1 116.4555 75.0729 43.6389 -0.0155 -21.5400 -0.0160
# 2 75.0729 191.4974 66.6079 0.0975 -26.0100 0.0426
# 3 43.6389 66.6079 88.8709 0.2715 -17.6110 0.1236
# 4 -0.0155 0.0975 0.2715 42.4122 -0.0691 -6.9586
# 5 -21.5400 -26.0100 -17.6110 -0.0691 35.6240 -0.0277
# 6 -0.0160 0.0426 0.1236 -6.9586 -0.0277 49.5575
#
#
#
# Elastic Compliance Matrix: (Units=1/GPa)
#
#
# Indices 1 2 3 4 5 6 
#
# 1 0.012547 -0.003423 -0.002869 0.000040 0.003670 0.000022
# 2 -0.003423 0.008261 -0.004131 0.000010 0.001920 0.000005
# 3 -0.002869 -0.004131 0.016425 -0.000099 0.003369 -0.000050
# 4 0.000040 0.000010 -0.000099 0.024135 0.000032 0.003389
# 5 0.003670 0.001920 0.003369 0.000032 0.033357 0.000014
# 6 0.000022 0.000005 -0.000050 0.003389 0.000014 0.020655
#
#
# Mechanical properties :
#
#
# Convention : Reuss Voigt Hill
#
# Bulk Modulus (GPa) = 61.01633 85.27368 73.14501
# Shear Modulus (GPa) = 35.28891 39.61902 37.45396
#
# Velocity S-wave (km/s) = 3.96876 4.20521 4.08870
# Velocity P-wave (km/s) = 6.94520 7.85111 7.41201
#
# Compressibility (1/GPa) = 0.01638905
#
# Stress axis : x y z
#
# Youngs Moduli (GPa) = 79.69949 121.04565 60.88320
#
# Poissons Ratio (x) = 0.41429 0.17467
# Poissons Ratio (y) = 0.27278 0.25149
# Poissons Ratio (z) = 0.22865 0.50000
#
# Static dielectric constant tensor:
#      x y z
#    x 1.817560 0.001420 0.020530 
#    y 0.001420 1.753230 0.000450 
#    z 0.020530 0.000450 1.920440 
# 
# From -- ./inp_files/374207.got.cif
#   From: 2010.05.17/outbox.cif.g08.bks.cpg/sg12_188_cif.got.tgz:374207.got - 2010.06.03 13:09:07.
