data_PCOD9199131
_publ_section_title
;
Structure prediction by ZEFSAII (Michael W. Deem and Ramdas Pophale) SiO2 
 PCOD9199131
Probable space group: C 2/M
;
_chemical_formula_sum "Si O2"
_cell_formula_units_Z 32
_cell_length_a 18.910821
_cell_length_b 8.914638
_cell_length_c 11.229289
_cell_angle_alpha 90.000000
_cell_angle_beta 65.670317
_cell_angle_gamma 90.000000
_cell_volume 1724.945120
_symmetry_space_group_name_H-M "C 2/M"
_symmetry_group_IT_number 12
_symmetry_cell_setting 'monoclinic'
loop_
_space_group_symop_operation_xyz
x,y,z
-x,y,-z
-x,-y,-z
x,-y,z
1/2+x,1/2+y,z
1/2-x,1/2+y,-z
1/2-x,1/2-y,-z
1/2+x,1/2-y,z
loop_
_atom_site_type_symbol
_atom_site_label
_atom_site_fract_x
_atom_site_fract_y
_atom_site_fract_z
Si Si1 0.790029 0.821784 0.155635
Si Si2 0.140172 0.820961 0.149905
Si Si3 0.022287 0.178888 0.621484
Si Si4 0.676447 0.821638 0.617621
O O1 0.703305 0.765742 0.185128
O O2 0.821760 0.737214 0.248303
O O3 0.790220 0.000000 0.176597
O O4 0.839875 0.790529 0.001781
O O5 0.052884 0.782866 0.247025
O O6 0.150701 0.000000 0.162572
O O7 0.097983 0.266984 0.609073
O O8 0.000000 0.207801 0.500000
O O9 0.037222 0.000000 0.623097
O O10 0.750000 0.750000 0.500000
O O11 0.682634 0.000000 0.610221
#
# Coordination Sequence:
#
# PCOD9199131 Si02
#       4
#     8   8   8   8
#     4  10  20  36  59  86 118 154 192 233 279 334
#     4   9  19  36  59  87 119 155 191 231 281 334
#     4  10  21  38  60  85 115 150 188 233 285 339
#     4  12  25  40  59  83 113 148 190 238 288 342
#
# _framework density 18.551316
#
# number of rings (size 3 to 8) (size 9 to 14) (size 15 to 20)
#    0.000    1.750    0.000    4.500    0.000    5.500 
#    0.000    5.000    0.000    0.000    0.000    0.000 
#    0.000    0.000    0.000    0.000    0.000    0.000 
#
# Total GULP energy -89441.012835 kJ/mol
# GULP energy per Si atom -5590.063302 kJ/mol
# Density = 1.850909 g / cm^3
# Si number density = 18.551316 Si / 1000 Ang^3
#
#
#
# Elastic Constant Matrix: (Units=GPa)
#
#
# Indices 1 2 3 4 5 6 
#
# 1 147.0269 94.3351 82.8889 0.0000 -5.3915 0.0000
# 2 94.3351 108.0114 68.6655 0.0000 4.9129 0.0000
# 3 82.8889 68.6655 86.6191 0.0000 -8.6223 0.0000
# 4 0.0000 0.0000 0.0000 25.5747 0.0000 3.2820
# 5 -5.3915 4.9129 -8.6223 0.0000 34.2602 0.0000
# 6 0.0000 0.0000 0.0000 3.2820 0.0000 41.3821
#
#
#
# Elastic Compliance Matrix: (Units=1/GPa)
#
#
# Indices 1 2 3 4 5 6 
#
# 1 0.019218 -0.010735 -0.009668 0.000000 0.002131 0.000000
# 2 -0.010735 0.026221 -0.011339 0.000000 -0.008303 0.000000
# 3 -0.009668 -0.011339 0.030562 0.000000 0.007796 0.000000
# 4 0.000000 0.000000 0.000000 0.039503 0.000000 -0.003133
# 5 0.002131 -0.008303 0.007796 0.000000 0.032676 0.000000
# 6 0.000000 0.000000 0.000000 -0.003133 0.000000 0.024413
#
#
# Mechanical properties :
#
#
# Convention : Reuss Voigt Hill
#
# Bulk Modulus (GPa) = 79.90612 92.60406 86.25509
# Shear Modulus (GPa) = 20.81144 26.62793 23.71968
#
# Velocity S-wave (km/s) = 3.35301 3.79273 3.57963
# Velocity P-wave (km/s) = 7.62606 8.31901 7.98006
#
# Compressibility (1/GPa) = 0.01251469
#
# Stress axis : x y z
#
# Youngs Moduli (GPa) = 52.03354 38.13753 32.72038
#
# Poissons Ratio (x) = 0.40942 0.31635
# Poissons Ratio (y) = 0.55860 0.37103
# Poissons Ratio (z) = 0.50308 0.43246
#
# Static dielectric constant tensor:
#      x y z
#    x 1.594000 0.000000 -0.001990 
#    y 0.000000 1.620480 0.000000 
#    z -0.001990 0.000000 1.641460 
# 
# From -- ./inp_files/138621.got.cif
#   From: 2010.05.17/outbox.cif.g08.bks.cpg/sg12_70_cif.got.tgz:138621.got - 2010.06.03 13:09:07.
