data_PCOD9199555
_publ_section_title
;
Structure prediction by ZEFSAII (Michael W. Deem and Ramdas Pophale) SiO2 
 PCOD9199555
Probable space group: C 2/M
;
_chemical_formula_sum "Si O2"
_cell_formula_units_Z 56
_cell_length_a 25.659615
_cell_length_b 8.891599
_cell_length_c 14.815600
_cell_angle_alpha 90.000000
_cell_angle_beta 58.400696
_cell_angle_gamma 90.000000
_cell_volume 2879.074315
_symmetry_space_group_name_H-M "C 2/M"
_symmetry_group_IT_number 12
_symmetry_cell_setting 'monoclinic'
loop_
_space_group_symop_operation_xyz
x,y,z
-x,y,-z
-x,-y,-z
x,-y,z
1/2+x,1/2+y,z
1/2-x,1/2+y,-z
1/2-x,1/2-y,-z
1/2+x,1/2-y,z
loop_
_atom_site_type_symbol
_atom_site_label
_atom_site_fract_x
_atom_site_fract_y
_atom_site_fract_z
Si Si1 0.133832 0.320170 0.218840
Si Si2 0.073232 0.320294 0.686217
Si Si3 0.529273 0.178147 0.071156
Si Si4 0.843859 0.821129 0.990604
Si Si5 0.494726 0.320437 0.609715
Si Si6 0.253076 0.180871 0.766064
Si Si7 0.210540 0.680503 0.616420
O O1 0.128683 0.500000 0.218712
O O2 0.162447 0.260931 0.099514
O O3 0.067078 0.250402 0.293546
O O4 0.179240 0.280332 0.259642
O O5 0.073323 0.500000 0.670842
O O6 0.139713 0.277471 0.662859
O O7 0.021688 0.287189 0.807737
O O8 0.052198 0.238990 0.614461
O O9 0.589795 0.273752 0.032203
O O10 0.544746 0.000000 0.064580
O O11 0.500000 0.203439 0.000000
O O12 0.840527 0.000000 0.979702
O O13 0.793626 0.778627 0.110841
O O14 0.500000 0.278209 0.500000
O O15 0.491117 0.500000 0.620017
O O16 0.233909 0.258864 0.691018
O O17 0.250236 0.000000 0.756658
O O18 0.214872 0.500000 0.611136
O O19 0.250000 0.750000 0.500000
#
# Coordination Sequence:
#
# PCOD9199555 Si02
#       7
#     8   8   8   8   8   8   8
#     4  11  23  41  65  92 126 168 211 254 309 377
#     4  10  22  41  64  91 123 164 207 250 306 370
#     4  10  20  36  60  89 123 163 206 249 301 369
#     4  11  22  38  61  93 129 162 205 258 315 368
#     4  11  25  42  63  94 127 160 205 260 318 369
#     4  10  24  43  63  92 128 168 211 258 312 371
#     4  11  25  44  67  94 125 166 212 259 311 369
#
# _framework density 19.450696000000001
#
# number of rings (size 3 to 8) (size 9 to 14) (size 15 to 20)
#    0.000    1.429    1.429    3.000    2.000    6.000 
#    0.000    0.000    0.000    0.000    0.000    0.000 
#    0.000    0.000    0.000    0.000    0.000    0.000 
#
# Total GULP energy -156589.441374 kJ/mol
# GULP energy per Si atom -5592.480049 kJ/mol
# Density = 1.940643 g / cm^3
# Si number density = 19.450696 Si / 1000 Ang^3
#
#
#
# Elastic Constant Matrix: (Units=GPa)
#
#
# Indices 1 2 3 4 5 6 
#
# 1 125.3048 29.6408 33.8965 0.0000 17.9325 0.0000
# 2 29.6408 22.9575 23.6772 0.0000 8.4866 0.0000
# 3 33.8965 23.6772 74.7746 0.0000 20.4132 0.0000
# 4 0.0000 0.0000 0.0000 24.9463 0.0000 10.4109
# 5 17.9325 8.4866 20.4132 0.0000 37.9300 0.0000
# 6 0.0000 0.0000 0.0000 10.4109 0.0000 31.4988
#
#
#
# Elastic Compliance Matrix: (Units=1/GPa)
#
#
# Indices 1 2 3 4 5 6 
#
# 1 0.011680 -0.013989 -0.000249 0.000000 -0.002258 0.000000
# 2 -0.013989 0.081970 -0.019240 0.000000 -0.001372 0.000000
# 3 -0.000249 -0.019240 0.021535 0.000000 -0.007167 0.000000
# 4 0.000000 0.000000 0.000000 0.046500 0.000000 -0.015369
# 5 -0.002258 -0.001372 -0.007167 0.000000 0.031596 0.000000
# 6 0.000000 0.000000 0.000000 -0.015369 0.000000 0.036827
#
#
# Mechanical properties :
#
#
# Convention : Reuss Voigt Hill
#
# Bulk Modulus (GPa) = 20.73367 44.16289 32.44828
# Shear Modulus (GPa) = 15.96729 27.92985 21.94857
#
# Velocity S-wave (km/s) = 2.86826 3.79348 3.36284
# Velocity P-wave (km/s) = 4.65317 6.47624 5.63887
#
# Compressibility (1/GPa) = 0.04823072
#
# Stress axis : x y z
#
# Youngs Moduli (GPa) = 85.61566 12.19958 46.43585
#
# Poissons Ratio (x) = 0.17066 0.01155
# Poissons Ratio (y) = 1.19768 0.89340
# Poissons Ratio (z) = 0.02129 0.23471
#
# Static dielectric constant tensor:
#      x y z
#    x 1.664840 0.000000 0.000000 
#    y 0.000000 1.652970 0.000000 
#    z 0.000000 0.000000 1.656860 
# 
# From -- ./inp_files/238349.got.cif
#   From: 2010.05.17/outbox.cif.g08.bks.cpg/sg12_120_cif.got.tgz:238349.got - 2010.06.03 13:09:07.
