data_PCOD9199889
_publ_section_title
;
Structure prediction by ZEFSAII (Michael W. Deem and Ramdas Pophale) SiO2 
 PCOD9199889
Probable space group: C 2/M
;
_chemical_formula_sum "Si O2"
_cell_formula_units_Z 58
_cell_length_a 25.027884
_cell_length_b 7.845988
_cell_length_c 29.490121
_cell_angle_alpha 90.000000
_cell_angle_beta 156.459410
_cell_angle_gamma 90.000000
_cell_volume 2312.889637
_symmetry_space_group_name_H-M "C 2/M"
_symmetry_group_IT_number 12
_symmetry_cell_setting 'monoclinic'
loop_
_space_group_symop_operation_xyz
x,y,z
-x,y,-z
-x,-y,-z
x,-y,z
1/2+x,1/2+y,z
1/2-x,1/2+y,-z
1/2-x,1/2-y,-z
1/2+x,1/2-y,z
loop_
_atom_site_type_symbol
_atom_site_label
_atom_site_fract_x
_atom_site_fract_y
_atom_site_fract_z
Si Si1 0.778228 0.700157 0.970653
Si Si2 0.986445 0.296788 0.732544
Si Si3 0.701143 0.703296 0.339739
Si Si4 0.558572 0.202879 0.983540
Si Si5 0.112795 0.304581 0.436200
Si Si6 0.500000 0.500000 0.000000
Si Si7 0.847565 0.705893 0.365243
Si Si8 0.837540 0.191841 0.254959
O O1 0.796334 0.500000 0.983756
O O2 0.636780 0.745331 0.838105
O O3 0.901049 0.762772 0.035753
O O4 0.750000 0.750000 0.000000
O O5 0.979489 0.500000 0.727298
O O6 0.940265 0.236315 0.746174
O O7 0.894563 0.227990 0.620067
O O8 0.720519 0.500000 0.352213
O O9 0.801845 0.775699 0.456786
O O10 0.744395 0.766883 0.324032
O O11 0.699676 0.217237 0.120916
O O12 0.518381 0.000000 0.954474
O O13 0.472291 0.347767 0.940272
O O14 0.157124 0.500000 0.466159
O O15 0.959608 0.307767 0.334154
O O16 0.840455 0.500000 0.355152
O O17 0.820762 0.785098 0.295573
O O18 0.000000 0.744838 0.500000
O O19 0.882419 0.000000 0.280043
#
# Coordination Sequence:
#
# PCOD9199889 Si02
#       8
#     8   8   8   8   8   2   8   8
#     4  11  24  45  72  97 132 171 220 284 341 416
#     4  11  23  38  62  94 127 165 214 267 325 397
#     4  10  21  38  57  87 128 172 214 267 320 373
#     4  10  25  47  70 106 138 170 226 281 342 416
#     4  10  20  36  62  88 123 168 218 257 307 388
#     4  12  26  44  84 102 134 184 210 294 342 418
#     4  10  20  37  59  83 120 170 219 260 307 380
#     4  11  22  37  62  92 126 166 208 265 318 383
#
# _framework density 25.076857
#
# number of rings (size 3 to 8) (size 9 to 14) (size 15 to 20)
#    0.000    1.517    2.759    1.862    3.862    1.931 
#    2.483    0.000    0.000    0.000    0.000    0.000 
#    0.000    0.000    0.000    0.000    0.000    0.000 
#
# Total GULP energy -161893.207691 kJ/mol
# GULP energy per Si atom -5582.524403 kJ/mol
# Density = 2.501978 g / cm^3
# Si number density = 25.076857 Si / 1000 Ang^3
#
#
#
# Elastic Constant Matrix: (Units=GPa)
#
#
# Indices 1 2 3 4 5 6 
#
# 1 183.4170 25.1295 -6.6419 0.0001 -7.4030 -0.0009
# 2 25.1295 79.1814 17.6266 0.0007 7.6185 -0.0023
# 3 -6.6419 17.6266 58.5160 0.0008 -7.3196 0.0001
# 4 0.0001 0.0007 0.0008 12.6982 0.0002 0.7095
# 5 -7.4030 7.6185 -7.3196 0.0002 41.4528 -0.0001
# 6 -0.0009 -0.0023 0.0001 0.7095 -0.0001 33.0572
#
#
#
# Elastic Compliance Matrix: (Units=1/GPa)
#
#
# Indices 1 2 3 4 5 6 
#
# 1 0.005913 -0.002409 0.001620 0.000000 0.001785 0.000000
# 2 -0.002409 0.014969 -0.005297 0.000000 -0.004117 0.000001
# 3 0.001620 -0.005297 0.019457 -0.000001 0.004699 0.000000
# 4 0.000000 0.000000 -0.000001 0.078846 -0.000001 -0.001692
# 5 0.001785 -0.004117 0.004699 -0.000001 0.026029 0.000000
# 6 0.000000 0.000001 0.000000 -0.001692 0.000000 0.030287
#
#
# Mechanical properties :
#
#
# Convention : Reuss Voigt Hill
#
# Bulk Modulus (GPa) = 35.50395 43.70477 39.60436
# Shear Modulus (GPa) = 25.37280 36.44164 30.90722
#
# Velocity S-wave (km/s) = 3.18433 3.81622 3.51451
# Velocity P-wave (km/s) = 5.26391 6.07324 5.68300
#
# Compressibility (1/GPa) = 0.02816588
#
# Stress axis : x y z
#
# Youngs Moduli (GPa) = 169.12499 66.80427 51.39618
#
# Poissons Ratio (x) = 0.16092 -0.08326
# Poissons Ratio (y) = 0.40740 0.27227
# Poissons Ratio (z) = -0.27398 0.35389
#
# Static dielectric constant tensor:
#      x y z
#    x 2.063940 0.000000 0.000710 
#    y 0.000000 1.924800 0.000000 
#    z 0.000710 0.000000 2.074320 
# 
# From -- ./inp_files/382075.got.cif
#   From: 2010.05.17/outbox.cif.g08.bks.cpg/sg12_192_cif.got.tgz:382075.got - 2010.06.03 13:09:07.
