data_PCOD9199982
_publ_section_title
;
Structure prediction by ZEFSAII (Michael W. Deem and Ramdas Pophale) SiO2 
 PCOD9199982
Probable space group: C 2/M
;
_chemical_formula_sum "Si O2"
_cell_formula_units_Z 56
_cell_length_a 10.752587
_cell_length_b 24.364603
_cell_length_c 9.333530
_cell_angle_alpha 90.000000
_cell_angle_beta 112.235508
_cell_angle_gamma 90.000000
_cell_volume 2263.385791
_symmetry_space_group_name_H-M "C 2/M"
_symmetry_group_IT_number 12
_symmetry_cell_setting 'monoclinic'
loop_
_space_group_symop_operation_xyz
x,y,z
-x,y,-z
-x,-y,-z
x,-y,z
1/2+x,1/2+y,z
1/2-x,1/2+y,-z
1/2-x,1/2-y,-z
1/2+x,1/2-y,z
loop_
_atom_site_type_symbol
_atom_site_label
_atom_site_fract_x
_atom_site_fract_y
_atom_site_fract_z
Si Si1 0.812684 0.060391 0.059979
Si Si2 0.720019 0.818318 0.318809
Si Si3 0.859966 0.560607 0.284997
Si Si4 0.143328 0.559788 0.254263
Si Si5 0.263797 0.165458 0.379713
Si Si6 0.362614 0.265802 0.929439
Si Si7 0.036783 0.167973 0.762923
O O1 0.678696 0.060113 0.100668
O O2 0.898795 0.112422 0.144705
O O3 0.876999 0.000000 0.108716
O O4 0.766866 0.065250 0.876788
O O5 0.710824 0.883910 0.330066
O O6 0.679349 0.800249 0.461442
O O7 0.624931 0.791888 0.156615
O O8 0.867419 0.808188 0.317288
O O9 0.858424 0.500000 0.352270
O O10 0.007898 0.563263 0.755636
O O11 0.848380 0.611364 0.385286
O O12 0.196335 0.500000 0.327410
O O13 0.230565 0.195829 0.216417
O O14 0.109531 0.153837 0.357952
O O15 0.250000 0.250000 0.000000
O O16 0.472175 0.290636 0.102570
#
# Coordination Sequence:
#
# PCOD9199982 Si02
#       7
#     8   8   8   8   8   8   8
#     4   9  17  33  61  94 124 162 210 261 306 362
#     4  11  23  40  65  90 122 168 208 254 318 374
#     4  10  20  36  62  93 130 168 206 257 316 372
#     4   9  20  38  61  92 126 161 210 263 314 369
#     4  11  23  40  59  92 131 162 203 258 314 373
#     4  10  22  42  65  90 120 157 212 266 309 367
#     4  10  21  40  64  88 124 165 208 260 301 369
#
# _framework density 24.741693000000001
#
# number of rings (size 3 to 8) (size 9 to 14) (size 15 to 20)
#    0.000    2.000    1.429    1.714    0.000    5.714 
#    5.143    2.857    0.000    4.286    0.000    0.000 
#    0.000    0.000    0.000    0.000    0.000    0.000 
#
# Total GULP energy -156103.993175 kJ/mol
# GULP energy per Si atom -5575.142613 kJ/mol
# Density = 2.468538 g / cm^3
# Si number density = 24.741693 Si / 1000 Ang^3
#
#
#
# Elastic Constant Matrix: (Units=GPa)
#
#
# Indices 1 2 3 4 5 6 
#
# 1 57.0816 26.8039 30.6008 0.0000 3.8617 0.0000
# 2 26.8039 123.9510 47.4192 0.0000 -6.1922 0.0000
# 3 30.6008 47.4192 152.6415 0.0000 -20.1702 0.0000
# 4 0.0000 0.0000 0.0000 -9.4842 0.0000 -20.1269
# 5 3.8617 -6.1922 -20.1702 0.0000 32.7357 0.0000
# 6 0.0000 0.0000 0.0000 -20.1269 0.0000 34.0658
#
#
#
# Elastic Compliance Matrix: (Units=1/GPa)
#
#
# Indices 1 2 3 4 5 6 
#
# 1 0.021675 -0.003429 -0.004032 0.000000 -0.005690 0.000000
# 2 -0.003429 0.009698 -0.002209 0.000000 0.000878 0.000000
# 3 -0.004032 -0.002209 0.008767 0.000000 0.005460 0.000000
# 4 0.000000 0.000000 0.000000 -0.046782 0.000000 -0.027640
# 5 -0.005690 0.000878 0.005460 0.000000 0.034749 0.000000
# 6 0.000000 0.000000 0.000000 -0.027640 0.000000 0.013025
#
#
# Mechanical properties :
#
#
# Convention : Reuss Voigt Hill
#
# Bulk Modulus (GPa) = 48.07623 60.36908 54.22265
# Shear Modulus (GPa) = 74.17653 26.72015 50.44834
#
# Velocity S-wave (km/s) = 5.48137 3.28985 4.52043
# Velocity P-wave (km/s) = 7.71583 6.23566 7.01490
#
# Compressibility (1/GPa) = 0.02080030
#
# Stress axis : x y z
#
# Youngs Moduli (GPa) = 46.13529 103.11086 114.05799
#
# Poissons Ratio (x) = 0.35356 0.45988
# Poissons Ratio (y) = 0.15820 0.25201
# Poissons Ratio (z) = 0.18602 0.22782
#
# Static dielectric constant tensor:
#      x y z
#    x 2.043440 0.000000 -0.043520 
#    y 0.000000 1.911710 0.000000 
#    z -0.043520 0.000000 2.021520 
# 
# From -- ./inp_files/65455.got.cif
#   From: 2010.05.17/outbox.cif.g08.bks.cpg/sg12_33_cif.got.tgz:65455.got - 2010.06.03 13:09:07.
