data_PCOD9199155
_publ_section_title
;
Structure prediction by ZEFSAII (Michael W. Deem and Ramdas Pophale) SiO2 
 PCOD9199155
Probable space group: C 2/M
;
_chemical_formula_sum "Si O2"
_cell_formula_units_Z 50
_cell_length_a 18.824593
_cell_length_b 7.782450
_cell_length_c 19.639175
_cell_angle_alpha 90.000000
_cell_angle_beta 47.756500
_cell_angle_gamma 90.000000
_cell_volume 2129.951129
_symmetry_space_group_name_H-M "C 2/M"
_symmetry_group_IT_number 12
_symmetry_cell_setting 'monoclinic'
loop_
_space_group_symop_operation_xyz
x,y,z
-x,y,-z
-x,-y,-z
x,-y,z
1/2+x,1/2+y,z
1/2-x,1/2+y,-z
1/2-x,1/2-y,-z
1/2+x,1/2-y,z
loop_
_atom_site_type_symbol
_atom_site_label
_atom_site_fract_x
_atom_site_fract_y
_atom_site_fract_z
Si Si1 0.703185 0.297484 0.457741
Si Si2 0.989613 0.210061 0.612734
Si Si3 0.000000 0.500000 0.000000
Si Si4 0.718307 0.200245 0.300665
Si Si5 0.563471 0.299388 0.204854
Si Si6 0.024230 0.206610 0.080196
Si Si7 0.767028 0.205577 0.119111
O O1 0.694030 0.500000 0.465609
O O2 0.750000 0.250000 0.500000
O O3 0.594376 0.226897 0.524335
O O4 0.752619 0.256917 0.353415
O O5 0.896460 0.268726 0.631435
O O6 0.974461 0.273776 0.700028
O O7 0.987192 0.000000 0.611676
O O8 0.033008 0.345559 0.925594
O O9 0.757028 0.272779 0.203392
O O10 0.740101 0.000000 0.284159
O O11 0.540256 0.500000 0.222086
O O12 0.678163 0.279119 0.133870
O O13 0.522044 0.240907 0.160261
O O14 0.133153 0.237218 0.982951
O O15 0.002143 0.000000 0.085531
O O16 0.754672 0.000000 0.129185
#
# Coordination Sequence:
#
# PCOD9199155 Si02
#       7
#     8   8   2   8   8   8   8
#     4  11  23  39  56  80 114 152 193 241 291 350
#     4   9  19  37  59  85 114 149 190 238 298 348
#     4  12  26  40  60  82 120 172 206 238 280 370
#     4  10  20  36  59  87 116 149 190 238 292 347
#     4   9  18  34  61  88 113 145 188 245 298 347
#     4  10  22  41  59  86 122 159 201 243 291 345
#     4   9  19  35  59  88 118 147 185 243 296 342
#
# _framework density 23.474717999999999
#
# number of rings (size 3 to 8) (size 9 to 14) (size 15 to 20)
#    0.000    2.240    0.000    2.160    2.240    3.840 
#    2.880    0.000    0.000    0.000    0.000    0.000 
#    0.000    0.000    0.000    0.000    0.000    0.000 
#
# Total GULP energy -139273.061783 kJ/mol
# GULP energy per Si atom -5570.922471 kJ/mol
# Density = 2.342129 g / cm^3
# Si number density = 23.474718 Si / 1000 Ang^3
#
#
#
# Elastic Constant Matrix: (Units=GPa)
#
#
# Indices 1 2 3 4 5 6 
#
# 1 71.0552 10.2102 49.0308 0.0000 37.7314 0.0000
# 2 10.2102 28.5296 13.6119 -0.0003 6.0078 -0.0003
# 3 49.0308 13.6119 71.1647 0.0006 32.8530 -0.0003
# 4 0.0000 -0.0003 0.0006 -39.7050 0.0005 56.4560
# 5 37.7314 6.0078 32.8530 0.0005 48.4744 -0.0003
# 6 0.0000 -0.0003 -0.0003 56.4560 -0.0003 -6.4844
#
#
#
# Elastic Compliance Matrix: (Units=1/GPa)
#
#
# Indices 1 2 3 4 5 6 
#
# 1 0.032898 -0.001215 -0.015546 0.000000 -0.014921 0.000000
# 2 -0.001215 0.038620 -0.006952 0.000000 0.000871 0.000000
# 3 -0.015546 -0.006952 0.029265 0.000000 -0.006872 0.000000
# 4 0.000000 0.000000 0.000000 0.002213 0.000000 0.019269
# 5 -0.014921 0.000871 -0.006872 0.000000 0.036793 0.000000
# 6 0.000000 0.000000 0.000000 0.019269 0.000000 0.013552
#
#
# Mechanical properties :
#
#
# Convention : Reuss Voigt Hill
#
# Bulk Modulus (GPa) = 18.74133 35.16170 26.95152
# Shear Modulus (GPa) = 22.87793 6.98344 14.93069
#
# Velocity S-wave (km/s) = 3.12521 1.72665 2.52470
# Velocity P-wave (km/s) = 4.58514 4.35731 4.47268
#
# Compressibility (1/GPa) = 0.05335800
#
# Stress axis : x y z
#
# Youngs Moduli (GPa) = 30.39659 25.89361 34.17105
#
# Poissons Ratio (x) = 0.03145 0.53121
# Poissons Ratio (y) = 0.03692 0.23756
# Poissons Ratio (z) = 0.47254 0.18001
#
# Static dielectric constant tensor:
#      x y z
#    x 1.974060 0.000000 0.000270 
#    y 0.000000 1.866340 0.000000 
#    z 0.000270 0.000000 1.995790 
# 
# From -- ./inp_files/274535.got.cif
#   From: 2010.05.17/outbox.cif.g08.bks.cpg/sg12_138_cif.got.tgz:274535.got - 2010.06.03 13:09:07.
