data_PCOD9199721
_publ_section_title
;
Structure prediction by ZEFSAII (Michael W. Deem and Ramdas Pophale) SiO2 
 PCOD9199721
Probable space group: C 2/M
;
_chemical_formula_sum "Si O2"
_cell_formula_units_Z 40
_cell_length_a 7.794408
_cell_length_b 32.698327
_cell_length_c 12.554999
_cell_angle_alpha 90.000000
_cell_angle_beta 148.579826
_cell_angle_gamma 90.000000
_cell_volume 1668.097842
_symmetry_space_group_name_H-M "C 2/M"
_symmetry_group_IT_number 12
_symmetry_cell_setting 'monoclinic'
loop_
_space_group_symop_operation_xyz
x,y,z
-x,y,-z
-x,-y,-z
x,-y,z
1/2+x,1/2+y,z
1/2-x,1/2+y,-z
1/2-x,1/2-y,-z
1/2+x,1/2-y,z
loop_
_atom_site_type_symbol
_atom_site_label
_atom_site_fract_x
_atom_site_fract_y
_atom_site_fract_z
Si Si1 0.977022 0.196766 0.145987
Si Si2 0.786561 0.612038 0.278071
Si Si3 0.771069 0.785301 0.275789
Si Si4 0.346106 0.545642 0.128224
Si Si5 0.292545 0.955875 0.571441
O O1 0.946065 0.199548 0.259513
O O2 0.164059 0.157704 0.200344
O O3 0.174251 0.237230 0.214488
O O4 0.594281 0.195642 0.908018
O O5 0.471470 0.582579 0.124374
O O6 0.000000 0.613701 0.500000
O O7 0.008658 0.585973 0.315103
O O8 0.000000 0.791604 0.500000
O O9 0.319644 0.500000 0.067315
O O10 0.620865 0.543431 0.365627
O O11 0.000000 0.554705 0.000000
O O12 0.000000 0.955807 0.500000
O O13 0.470936 0.000000 0.674860
#
# Coordination Sequence:
#
# PCOD9199721 Si02
#       5
#     8   8   8   8   8
#     4  10  22  39  66  95 128 174 223 270 326 394
#     4  10  20  36  61  88 126 163 213 267 320 384
#     4  10  21  40  65  93 129 176 222 270 331 391
#     4   9  18  33  58  86 120 166 204 245 312 388
#     4   9  18  36  63  91 123 163 207 262 328 388
#
# _framework density 23.979410000000001
#
# number of rings (size 3 to 8) (size 9 to 14) (size 15 to 20)
#    0.000    2.400    0.000    1.800    2.800    2.400 
#    0.000    9.000   17.600    4.800    0.000    0.000 
#    0.000    2.400    0.000    0.000    0.000    0.000 
#
# Total GULP energy -111813.558812 kJ/mol
# GULP energy per Si atom -5590.677941 kJ/mol
# Density = 2.392483 g / cm^3
# Si number density = 23.979410 Si / 1000 Ang^3
#
#
#
# Elastic Constant Matrix: (Units=GPa)
#
#
# Indices 1 2 3 4 5 6 
#
# 1 84.0592 46.7279 33.7805 0.0000 6.7610 0.0000
# 2 46.7279 140.1311 22.8937 0.0000 26.8137 0.0000
# 3 33.7805 22.8937 134.8407 0.0000 -24.4694 0.0000
# 4 0.0000 0.0000 0.0000 39.4203 0.0000 13.3972
# 5 6.7610 26.8137 -24.4694 0.0000 46.2790 0.0000
# 6 0.0000 0.0000 0.0000 13.3972 0.0000 -22.4337
#
#
#
# Elastic Compliance Matrix: (Units=1/GPa)
#
#
# Indices 1 2 3 4 5 6 
#
# 1 0.015899 -0.004413 -0.003530 0.000000 -0.001633 0.000000
# 2 -0.004413 0.010049 -0.001704 0.000000 -0.006079 0.000000
# 3 -0.003530 -0.001704 0.009803 0.000000 0.006686 0.000000
# 4 0.000000 0.000000 0.000000 0.021088 0.000000 0.012593
# 5 -0.001633 -0.006079 0.006686 0.000000 0.028904 0.000000
# 6 0.000000 0.000000 0.000000 0.012593 0.000000 -0.037055
#
#
# Mechanical properties :
#
#
# Convention : Reuss Voigt Hill
#
# Bulk Modulus (GPa) = 60.75949 62.87057 61.81503
# Shear Modulus (GPa) = 68.05768 29.69504 48.87636
#
# Velocity S-wave (km/s) = 5.33323 3.52285 4.51961
# Velocity P-wave (km/s) = 7.95724 6.54391 7.28493
#
# Compressibility (1/GPa) = 0.01645834
#
# Stress axis : x y z
#
# Youngs Moduli (GPa) = 62.89585 99.51174 102.00802
#
# Poissons Ratio (x) = 0.43911 0.36011
# Poissons Ratio (y) = 0.27753 0.17380
# Poissons Ratio (z) = 0.22204 0.16955
#
# Static dielectric constant tensor:
#      x y z
#    x 1.843100 0.000000 -0.021250 
#    y 0.000000 1.904470 0.000000 
#    z -0.021250 0.000000 1.941320 
# 
# From -- ./inp_files/201414.got.cif
#   From: 2010.05.17/outbox.cif.g08.bks.cpg/sg12_101_cif.got.tgz:201414.got - 2010.06.03 13:09:07.
