data_PCOD9199768
_publ_section_title
;
Structure prediction by ZEFSAII (Michael W. Deem and Ramdas Pophale) SiO2 
 PCOD9199768
Probable space group: C 2/M
;
_chemical_formula_sum "Si O2"
_cell_formula_units_Z 40
_cell_length_a 23.951213
_cell_length_b 7.995982
_cell_length_c 9.855643
_cell_angle_alpha 90.000000
_cell_angle_beta 103.461683
_cell_angle_gamma 90.000000
_cell_volume 1835.631178
_symmetry_space_group_name_H-M "C 2/M"
_symmetry_group_IT_number 12
_symmetry_cell_setting 'monoclinic'
loop_
_space_group_symop_operation_xyz
x,y,z
-x,y,-z
-x,-y,-z
x,-y,z
1/2+x,1/2+y,z
1/2-x,1/2+y,-z
1/2-x,1/2-y,-z
1/2+x,1/2-y,z
loop_
_atom_site_type_symbol
_atom_site_label
_atom_site_fract_x
_atom_site_fract_y
_atom_site_fract_z
Si Si1 0.243846 0.694861 0.341740
Si Si2 0.514973 0.704697 0.357570
Si Si3 0.885776 0.796802 0.776816
Si Si4 0.575409 0.693744 0.913426
Si Si5 0.195345 0.691670 0.881817
O O1 0.257232 0.500000 0.336533
O O2 0.250000 0.750000 0.500000
O O3 0.178242 0.727550 0.261176
O O4 0.285872 0.790151 0.263301
O O5 0.500000 0.763269 0.500000
O O6 0.512381 0.500000 0.359150
O O7 0.577551 0.748679 0.334998
O O8 0.468969 0.765960 0.220173
O O9 0.881571 0.000000 0.780352
O O10 0.919097 0.737959 0.931018
O O11 0.558405 0.500000 0.920463
O O12 0.639092 0.704608 0.887043
O O13 0.182749 0.500000 0.908072
O O14 0.250000 0.750000 0.000000
#
# Coordination Sequence:
#
# PCOD9199768 Si02
#       5
#     8   8   8   8   8
#     4  12  26  43  64  92 128 167 208 258 316 375
#     4   9  19  35  58  90 122 161 209 256 307 368
#     4  10  20  37  61  89 124 164 209 254 306 370
#     4  10  20  36  61  90 124 165 208 254 306 367
#     4  12  24  41  64  94 128 165 209 257 312 373
#
# _framework density 21.790868
#
# number of rings (size 3 to 8) (size 9 to 14) (size 15 to 20)
#    0.000    1.400    2.000    4.200    2.800    2.400 
#    0.000    1.000    0.000    3.600    0.000    0.000 
#    0.000    0.000    0.000    0.000    0.000    0.000 
#
# Total GULP energy -111837.154174 kJ/mol
# GULP energy per Si atom -5591.857709 kJ/mol
# Density = 2.174127 g / cm^3
# Si number density = 21.790868 Si / 1000 Ang^3
#
#
#
# Elastic Constant Matrix: (Units=GPa)
#
#
# Indices 1 2 3 4 5 6 
#
# 1 65.4015 -10.8920 11.6661 0.0000 -20.7480 0.0000
# 2 -10.8920 43.7692 0.9858 0.0000 4.6360 0.0000
# 3 11.6661 0.9858 116.1364 0.0000 -22.4773 0.0000
# 4 0.0000 0.0000 0.0000 16.9935 0.0000 -1.0496
# 5 -20.7480 4.6360 -22.4773 0.0000 40.9869 0.0000
# 6 0.0000 0.0000 0.0000 -1.0496 0.0000 18.5254
#
#
#
# Elastic Compliance Matrix: (Units=1/GPa)
#
#
# Indices 1 2 3 4 5 6 
#
# 1 0.018797 0.003729 -0.000179 0.000000 0.008995 0.000000
# 2 0.003729 0.023928 -0.000824 0.000000 -0.001271 0.000000
# 3 -0.000179 -0.000824 0.009661 0.000000 0.005301 0.000000
# 4 0.000000 0.000000 0.000000 0.059053 0.000000 0.003346
# 5 0.008995 -0.001271 0.005301 0.000000 0.032002 0.000000
# 6 0.000000 0.000000 0.000000 0.003346 0.000000 0.054170
#
#
# Mechanical properties :
#
#
# Convention : Reuss Voigt Hill
#
# Bulk Modulus (GPa) = 17.28931 25.42522 21.35727
# Shear Modulus (GPa) = 23.64761 30.20431 26.92596
#
# Velocity S-wave (km/s) = 3.29782 3.72707 3.51900
# Velocity P-wave (km/s) = 4.73838 5.49678 5.13161
#
# Compressibility (1/GPa) = 0.05783919
#
# Stress axis : x y z
#
# Youngs Moduli (GPa) = 53.20073 41.79169 103.50377
#
# Poissons Ratio (x) = -0.15584 0.01851
# Poissons Ratio (y) = -0.19838 0.08525
# Poissons Ratio (z) = 0.00952 0.03442
#
# Static dielectric constant tensor:
#      x y z
#    x 1.739410 0.000000 0.024340 
#    y 0.000000 1.792120 0.000000 
#    z 0.024340 0.000000 1.767340 
# 
# From -- ./inp_files/92728.got.cif
#   From: 2010.05.17/outbox.cif.g08.bks.cpg/sg12_47_cif.got.tgz:92728.got - 2010.06.03 13:09:07.
