data_PCOD9199082
_publ_section_title
;
Structure prediction by ZEFSAII (Michael W. Deem and Ramdas Pophale) SiO2 
 PCOD9199082
Probable space group: C 2/M
;
_chemical_formula_sum "Si O2"
_cell_formula_units_Z 48
_cell_length_a 20.973082
_cell_length_b 8.729653
_cell_length_c 21.698074
_cell_angle_alpha 90.000000
_cell_angle_beta 41.542968
_cell_angle_gamma 90.000000
_cell_volume 2634.588812
_symmetry_space_group_name_H-M "C 2/M"
_symmetry_group_IT_number 12
_symmetry_cell_setting 'monoclinic'
loop_
_space_group_symop_operation_xyz
x,y,z
-x,y,-z
-x,-y,-z
x,-y,z
1/2+x,1/2+y,z
1/2-x,1/2+y,-z
1/2-x,1/2-y,-z
1/2+x,1/2-y,z
loop_
_atom_site_type_symbol
_atom_site_label
_atom_site_fract_x
_atom_site_fract_y
_atom_site_fract_z
Si Si1 0.845890 0.183589 0.960695
Si Si2 0.707163 0.183318 0.740546
Si Si3 0.600420 0.814796 0.457484
Si Si4 0.611366 0.684772 0.929946
Si Si5 0.539895 0.184869 0.764506
Si Si6 0.855925 0.684871 0.435048
O O1 0.940018 0.242255 0.857075
O O2 0.843198 0.000000 0.960613
O O3 0.750000 0.250000 0.000000
O O4 0.856514 0.230144 0.024748
O O5 0.807925 0.250429 0.644884
O O6 0.675887 0.243728 0.829827
O O7 0.623596 0.228745 0.752354
O O8 0.712323 0.000000 0.737107
O O9 0.500000 0.765645 0.500000
O O10 0.607984 0.767790 0.523613
O O11 0.604371 0.000000 0.452369
O O12 0.616301 0.500000 0.921741
O O13 0.500000 0.729867 0.000000
O O14 0.574881 0.231318 0.671130
O O15 0.530752 0.000000 0.772559
O O16 0.850198 0.500000 0.438044
O O17 0.750000 0.750000 0.500000
#
# Coordination Sequence:
#
# PCOD9199082 Si02
#       6
#     8   8   8   8   8   8
#     4  11  24  41  62  88 121 157 194 243 295 349
#     4  11  22  36  60  91 121 152 193 248 298 346
#     4  10  22  39  59  85 119 158 198 241 292 351
#     4  10  21  39  62  87 116 154 201 242 286 350
#     4  10  21  37  58  87 120 155 197 243 295 350
#     4  10  20  36  59  85 116 153 196 242 288 345
#
# _framework density 18.219161
#
# number of rings (size 3 to 8) (size 9 to 14) (size 15 to 20)
#    0.000    1.667    3.333    1.000    0.000    4.667 
#    0.000    3.333    0.000    0.000    0.000    0.000 
#    0.000    0.000    0.000    0.000    0.000    0.000 
#
# Total GULP energy -134092.621930 kJ/mol
# GULP energy per Si atom -5587.192580 kJ/mol
# Density = 1.817769 g / cm^3
# Si number density = 18.219161 Si / 1000 Ang^3
#
#
#
# Elastic Constant Matrix: (Units=GPa)
#
#
# Indices 1 2 3 4 5 6 
#
# 1 194.3206 45.2873 127.3851 0.0000 -1.0175 0.0000
# 2 45.2873 18.7249 46.6832 0.0001 0.1686 -0.0001
# 3 127.3851 46.6832 215.9152 0.0001 8.3815 -0.0001
# 4 0.0000 0.0001 0.0001 30.6798 0.0000 -6.1723
# 5 -1.0175 0.1686 8.3815 0.0000 37.6396 0.0000
# 6 0.0000 -0.0001 -0.0001 -6.1723 0.0000 26.1528
#
#
#
# Elastic Compliance Matrix: (Units=1/GPa)
#
#
# Indices 1 2 3 4 5 6 
#
# 1 0.012121 -0.024757 -0.001831 0.000000 0.000846 0.000000
# 2 -0.024757 0.167404 -0.021721 0.000000 0.003418 0.000000
# 3 -0.001831 -0.021721 0.010497 0.000000 -0.002290 0.000000
# 4 0.000000 0.000000 0.000000 0.034220 0.000000 0.008076
# 5 0.000846 0.003418 -0.002290 0.000000 0.027085 0.000000
# 6 0.000000 0.000000 0.000000 0.008076 0.000000 0.040143
#
#
# Mechanical properties :
#
#
# Convention : Reuss Voigt Hill
#
# Bulk Modulus (GPa) = 10.70628 96.40797 53.55712
# Shear Modulus (GPa) = 11.92685 32.86812 22.39748
#
# Velocity S-wave (km/s) = 2.56135 4.25201 3.50999
# Velocity P-wave (km/s) = 3.82577 8.78275 6.77396
#
# Compressibility (1/GPa) = 0.09340309
#
# Stress axis : x y z
#
# Youngs Moduli (GPa) = 82.50377 5.97356 95.26687
#
# Poissons Ratio (x) = 0.14789 0.17443
# Poissons Ratio (y) = 2.04258 2.06928
# Poissons Ratio (z) = 0.15106 0.12975
#
# Static dielectric constant tensor:
#      x y z
#    x 1.612070 0.000000 0.018500 
#    y 0.000000 1.616560 0.000000 
#    z 0.018500 0.000000 1.586930 
# 
# From -- ./inp_files/244852.got.cif
#   From: 2010.05.17/outbox.cif.g08.bks.cpg/sg12_123_cif.got.tgz:244852.got - 2010.06.03 13:09:07.
