data_PCOD9199779
_publ_section_title
;
Structure prediction by ZEFSAII (Michael W. Deem and Ramdas Pophale) SiO2 
 PCOD9199779
Probable space group: C 2/M
;
_chemical_formula_sum "Si O2"
_cell_formula_units_Z 48
_cell_length_a 28.011194
_cell_length_b 11.374156
_cell_length_c 8.237717
_cell_angle_alpha 90.000000
_cell_angle_beta 59.764339
_cell_angle_gamma 90.000000
_cell_volume 2267.525015
_symmetry_space_group_name_H-M "C 2/M"
_symmetry_group_IT_number 12
_symmetry_cell_setting 'monoclinic'
loop_
_space_group_symop_operation_xyz
x,y,z
-x,y,-z
-x,-y,-z
x,-y,z
1/2+x,1/2+y,z
1/2-x,1/2+y,-z
1/2-x,1/2-y,-z
1/2+x,1/2-y,z
loop_
_atom_site_type_symbol
_atom_site_label
_atom_site_fract_x
_atom_site_fract_y
_atom_site_fract_z
Si Si1 0.655077 0.129006 0.490008
Si Si2 0.202938 0.185235 0.185215
Si Si3 0.483911 0.371535 0.836323
Si Si4 0.796740 0.369627 0.259962
Si Si5 0.970960 0.370358 0.225964
Si Si6 0.647964 0.372859 0.957945
O O1 0.662754 0.223991 0.340643
O O2 0.701926 0.138718 0.547529
O O3 0.595328 0.138797 0.676336
O O4 0.659475 0.000000 0.407524
O O5 0.238009 0.127537 0.270078
O O6 0.168334 0.120036 0.108538
O O7 0.250000 0.250000 0.000000
O O8 0.501854 0.500000 0.738456
O O9 0.508889 0.250088 0.724672
O O10 0.417934 0.364794 0.938392
O O11 0.500000 0.373041 0.000000
O O12 0.822998 0.500000 0.179303
O O13 0.827371 0.249638 0.152416
O O14 0.982381 0.500000 0.281821
O O15 0.000000 0.372575 0.000000
O O16 0.664316 0.500000 0.851634
#
# Coordination Sequence:
#
# PCOD9199779 Si02
#       6
#     8   8   8   8   8   8
#     4  10  21  38  62  92 123 157 200 250 300 355
#     4  10  22  38  56  81 118 162 201 241 292 350
#     4   9  17  31  53  81 112 148 190 235 286 344
#     4  10  20  36  61  91 119 153 200 249 300 358
#     4   9  17  32  57  88 117 144 183 239 297 350
#     4  10  21  37  58  87 123 161 200 245 301 360
#
# _framework density 21.168454000000001
#
# number of rings (size 3 to 8) (size 9 to 14) (size 15 to 20)
#    0.000    2.333    0.000    3.000    0.000    7.333 
#    0.000    4.167    0.000    4.000    0.000    0.000 
#    0.000    0.000    0.000    0.000    0.000    0.000 
#
# Total GULP energy -133602.953473 kJ/mol
# GULP energy per Si atom -5566.789728 kJ/mol
# Density = 2.112027 g / cm^3
# Si number density = 21.168454 Si / 1000 Ang^3
#
#
#
# Elastic Constant Matrix: (Units=GPa)
#
#
# Indices 1 2 3 4 5 6 
#
# 1 95.9476 29.1576 1.5105 0.0000 -8.2047 0.0000
# 2 29.1576 211.7087 19.7106 0.0000 -1.5903 0.0000
# 3 1.5105 19.7106 40.0462 0.0000 -6.3615 0.0000
# 4 0.0000 0.0000 0.0000 -451.9105 0.0000 1938.4292
# 5 -8.2047 -1.5903 -6.3615 0.0000 13.7136 0.0000
# 6 0.0000 0.0000 0.0000 1938.4292 0.0000-8017.9401
#
#
#
# Elastic Compliance Matrix: (Units=1/GPa)
#
#
# Indices 1 2 3 4 5 6 
#
# 1 0.011545 -0.001681 0.001574 0.000000 0.007442 0.000000
# 2 -0.001681 0.005200 -0.002763 0.000000 -0.001684 0.000000
# 3 0.001574 -0.002763 0.028468 0.000000 0.013827 0.000000
# 4 0.000000 0.000000 0.000000 0.059783 0.000000 0.014453
# 5 0.007442 -0.001684 0.013827 0.000000 0.083592 0.000000
# 6 0.000000 0.000000 0.000000 0.014453 0.000000 0.003370
#
#
# Mechanical properties :
#
#
# Convention : Reuss Voigt Hill
#
# Bulk Modulus (GPa) = 25.33396 49.82888 37.58142
# Shear Modulus (GPa) = 23.71295 -1671.40582 -823.84643
#
# Velocity S-wave (km/s) = 3.35057 -28.12984 -19.74920
# Velocity P-wave (km/s) = 5.19252 32.11636 22.41091
#
# Compressibility (1/GPa) = 0.03947271
#
# Stress axis : x y z
#
# Youngs Moduli (GPa) = 86.61967 192.32375 35.12657
#
# Poissons Ratio (x) = 0.32323 -0.05529
# Poissons Ratio (y) = 0.14558 0.09707
# Poissons Ratio (z) = -0.13634 0.53147
#
# Static dielectric constant tensor:
#      x y z
#    x 1.849000 0.000000 -0.039580 
#    y 0.000000 1.866140 0.000000 
#    z -0.039580 0.000000 1.735410 
# 
# From -- ./inp_files/102399.got.cif
#   From: 2010.05.17/outbox.cif.g08.bks.cpg/sg12_52_cif.got.tgz:102399.got - 2010.06.03 13:09:07.
