data_PCOD9199398
_publ_section_title
;
Structure prediction by ZEFSAII (Michael W. Deem and Ramdas Pophale) SiO2 
 PCOD9199398
Probable space group: C 2/M
;
_chemical_formula_sum "Si O2"
_cell_formula_units_Z 56
_cell_length_a 14.792846
_cell_length_b 13.826806
_cell_length_c 28.466831
_cell_angle_alpha 90.000000
_cell_angle_beta 30.183141
_cell_angle_gamma 90.000000
_cell_volume 2927.374582
_symmetry_space_group_name_H-M "C 2/M"
_symmetry_group_IT_number 12
_symmetry_cell_setting 'monoclinic'
loop_
_space_group_symop_operation_xyz
x,y,z
-x,y,-z
-x,-y,-z
x,-y,z
1/2+x,1/2+y,z
1/2-x,1/2+y,-z
1/2-x,1/2-y,-z
1/2+x,1/2-y,z
loop_
_atom_site_type_symbol
_atom_site_label
_atom_site_fract_x
_atom_site_fract_y
_atom_site_fract_z
Si Si1 0.384272 0.892969 0.166593
Si Si2 0.032567 0.740044 0.175927
Si Si3 0.485236 0.796286 0.306344
Si Si4 0.380557 0.386850 0.512119
Si Si5 0.956970 0.110452 0.372215
Si Si6 0.445356 0.726637 0.971066
Si Si7 0.662823 0.614651 0.801182
O O1 0.452063 0.853324 0.185946
O O2 0.169680 0.894898 0.266414
O O3 0.450914 0.818520 0.097390
O O4 0.452409 0.000000 0.126243
O O5 0.038665 0.723952 0.228664
O O6 0.910281 0.829126 0.212200
O O7 0.234347 0.748891 0.065617
O O8 0.326353 0.873498 0.381798
O O9 0.398035 0.696628 0.364815
O O10 0.655122 0.834412 0.260557
O O11 0.500000 0.341911 0.500000
O O12 0.427537 0.500000 0.488381
O O13 0.421471 0.353061 0.441061
O O14 0.885220 0.000000 0.398684
O O15 0.510856 0.638730 0.908782
O O16 0.500000 0.708901 0.000000
O O17 0.686442 0.500000 0.784292
#
# Coordination Sequence:
#
# PCOD9199398 Si02
#       7
#     8   8   8   8   8   8   8
#     4  10  20  36  60  86 116 157 203 251 304 361
#     4  11  23  39  61  86 127 163 207 259 308 368
#     4  12  22  41  65  89 125 166 204 252 316 369
#     4  10  22  38  62  95 122 153 204 254 304 371
#     4  10  20  38  61  88 120 154 200 253 303 363
#     4  11  21  40  58  87 126 162 208 260 301 369
#     4  11  24  41  62  91 125 164 209 259 314 369
#
# _framework density 19.129769
#
# number of rings (size 3 to 8) (size 9 to 14) (size 15 to 20)
#    0.000    1.286    4.286    3.429    0.000    5.714 
#    0.000    0.000    0.000    0.429    0.000    0.000 
#    0.000    0.000    0.000    0.000    0.000    0.000 
#
# Total GULP energy -156169.268371 kJ/mol
# GULP energy per Si atom -5577.473870 kJ/mol
# Density = 1.908623 g / cm^3
# Si number density = 19.129769 Si / 1000 Ang^3
#
#
#
# Elastic Constant Matrix: (Units=GPa)
#
#
# Indices 1 2 3 4 5 6 
#
# 1 -66.0224 -125.0813 -119.2260 0.0000 -0.8460 0.0016
# 2 -125.0813 -64.5215 -135.9170 0.0004 5.1969 0.0012
# 3 -119.2260 -135.9170 -74.2184 -0.0012 13.7314 0.0015
# 4 0.0000 0.0004 -0.0012 5.6357 0.0000 5.9687
# 5 -0.8460 5.1969 13.7314 0.0000 32.0834 0.0000
# 6 0.0016 0.0012 0.0015 5.9687 0.0000 -10.9843
#
#
#
# Elastic Compliance Matrix: (Units=1/GPa)
#
#
# Indices 1 2 3 4 5 6 
#
# 1 0.013647 -0.006319 -0.009353 -0.000001 0.005386 -0.000001
# 2 -0.006319 0.008710 -0.005645 -0.000001 0.000838 -0.000001
# 3 -0.009353 -0.005645 0.011130 0.000002 -0.004096 0.000001
# 4 -0.000001 -0.000001 0.000002 0.112625 -0.000001 0.061199
# 5 0.005386 0.000838 -0.004096 -0.000001 0.032928 0.000000
# 6 -0.000001 -0.000001 0.000001 0.061199 0.000000 -0.057785
#
#
# Mechanical properties :
#
#
# Convention : Reuss Voigt Hill
#
# Bulk Modulus (GPa) = -109.32952 -107.24565 -108.28758
# Shear Modulus (GPa) = 31.08669 17.04444 24.06556
#
# Velocity S-wave (km/s) = 4.03555 2.98818 3.55070
# Velocity P-wave (km/s) = 5.96333 6.65419 6.31821
#
# Compressibility (1/GPa) = -0.00914666
#
# Stress axis : x y z
#
# Youngs Moduli (GPa) = 73.27837 114.80519 89.84612
#
# Poissons Ratio (x) = 0.72550 0.84031
# Poissons Ratio (y) = 0.46308 0.50715
# Poissons Ratio (z) = 0.68536 0.64804
#
# Static dielectric constant tensor:
#      x y z
#    x 1.697620 0.000000 -0.004450 
#    y 0.000000 1.707770 0.000000 
#    z -0.004450 0.000000 1.661090 
# 
# From -- ./inp_files/361405.got.cif
#   From: 2010.05.17/outbox.cif.g08.bks.cpg/sg12_181_cif.got.tgz:361405.got - 2010.06.03 13:09:07.
