data_PCOD9199240
_publ_section_title
;
Structure prediction by ZEFSAII (Michael W. Deem and Ramdas Pophale) SiO2 
 PCOD9199240
Probable space group: C 2/M
;
_chemical_formula_sum "Si O2"
_cell_formula_units_Z 56
_cell_length_a 13.607518
_cell_length_b 14.481722
_cell_length_c 19.699219
_cell_angle_alpha 90.000000
_cell_angle_beta 136.175978
_cell_angle_gamma 90.000000
_cell_volume 2688.028491
_symmetry_space_group_name_H-M "C 2/M"
_symmetry_group_IT_number 12
_symmetry_cell_setting 'monoclinic'
loop_
_space_group_symop_operation_xyz
x,y,z
-x,y,-z
-x,-y,-z
x,-y,z
1/2+x,1/2+y,z
1/2-x,1/2+y,-z
1/2-x,1/2-y,-z
1/2+x,1/2-y,z
loop_
_atom_site_type_symbol
_atom_site_label
_atom_site_fract_x
_atom_site_fract_y
_atom_site_fract_z
Si Si1 0.835687 0.106442 0.398789
Si Si2 0.323895 0.153177 0.544846
Si Si3 0.479506 0.607901 0.070234
Si Si4 0.126609 0.604618 0.705706
Si Si5 0.096458 0.261686 0.227618
Si Si6 0.331708 0.892650 0.120249
Si Si7 0.804863 0.098927 0.655657
O O1 0.745512 0.106855 0.423832
O O2 0.743820 0.178557 0.306395
O O3 0.000000 0.132671 0.500000
O O4 0.839204 0.000000 0.374262
O O5 0.250000 0.250000 0.500000
O O6 0.490217 0.167393 0.634527
O O7 0.291832 0.101980 0.458587
O O8 0.515264 0.500000 0.108258
O O9 0.561245 0.690799 0.148507
O O10 0.500000 0.610727 0.000000
O O11 0.310175 0.623454 0.993973
O O12 0.069289 0.500000 0.681659
O O13 0.200480 0.620262 0.815079
O O14 0.212114 0.607323 0.678262
O O15 0.099414 0.189620 0.292070
O O16 0.965599 0.331078 0.168117
O O17 0.369644 0.000000 0.130862
O O18 0.880468 0.000000 0.693720
#
# Coordination Sequence:
#
# PCOD9199240 Si02
#       7
#     8   8   8   8   8   8   8
#     4  11  25  44  64  87 125 178 226 261 302 368
#     4  12  22  37  58  87 123 165 213 263 316 376
#     4  10  22  42  67  97 128 160 203 266 336 394
#     4  10  20  36  59  88 122 162 205 258 322 379
#     4  12  22  39  63  94 126 163 215 258 313 380
#     4  10  20  38  65  94 126 164 208 254 314 384
#     4  11  23  36  57  89 126 162 205 265 324 375
#
# _framework density 20.833113000000001
#
# number of rings (size 3 to 8) (size 9 to 14) (size 15 to 20)
#    0.000    1.143    2.857    3.857    2.000    3.429 
#    2.571    0.000    0.000    3.000    0.000    0.000 
#    0.000    0.000    0.000    0.000    0.000    0.000 
#
# Total GULP energy -156137.527587 kJ/mol
# GULP energy per Si atom -5576.340271 kJ/mol
# Density = 2.078570 g / cm^3
# Si number density = 20.833113 Si / 1000 Ang^3
#
#
#
# Elastic Constant Matrix: (Units=GPa)
#
#
# Indices 1 2 3 4 5 6 
#
# 1 57.5169 27.7852 30.8289 0.0000 6.7217 0.0000
# 2 27.7852 148.8147 74.7465 0.0000 18.1472 0.0000
# 3 30.8289 74.7465 134.7035 0.0000 3.9419 0.0000
# 4 0.0000 0.0000 0.0000 28.8026 0.0000 -3.3801
# 5 6.7217 18.1472 3.9419 0.0000 37.1453 0.0000
# 6 0.0000 0.0000 0.0000 -3.3801 0.0000 19.9262
#
#
#
# Elastic Compliance Matrix: (Units=1/GPa)
#
#
# Indices 1 2 3 4 5 6 
#
# 1 0.020457 -0.001664 -0.003686 0.000000 -0.002498 0.000000
# 2 -0.001664 0.010090 -0.005098 0.000000 -0.004087 0.000000
# 3 -0.003686 -0.005098 0.011038 0.000000 0.001986 0.000000
# 4 0.000000 0.000000 0.000000 0.035424 0.000000 0.006009
# 5 -0.002498 -0.004087 0.001986 0.000000 0.029159 0.000000
# 6 0.000000 0.000000 0.000000 0.006009 0.000000 0.051205
#
#
# Mechanical properties :
#
#
# Convention : Reuss Voigt Hill
#
# Bulk Modulus (GPa) = 48.33338 67.52849 57.93094
# Shear Modulus (GPa) = 27.00295 31.01980 29.01137
#
# Velocity S-wave (km/s) = 3.60412 3.86290 3.73575
# Velocity P-wave (km/s) = 6.36948 7.23743 6.81728
#
# Compressibility (1/GPa) = 0.02068964
#
# Stress axis : x y z
#
# Youngs Moduli (GPa) = 48.88223 99.11220 90.59508
#
# Poissons Ratio (x) = 0.16490 0.33390
# Poissons Ratio (y) = 0.08133 0.46188
# Poissons Ratio (z) = 0.18016 0.50530
#
# Static dielectric constant tensor:
#      x y z
#    x 1.761930 0.000000 0.017960 
#    y 0.000000 1.800690 0.000000 
#    z 0.017960 0.000000 1.821870 
# 
# From -- ./inp_files/310844.got.cif
#   From: 2010.05.17/outbox.cif.g08.bks.cpg/sg12_156_cif.got.tgz:310844.got - 2010.06.03 13:09:07.
