data_PCOD9199636
_publ_section_title
;
Structure prediction by ZEFSAII (Michael W. Deem and Ramdas Pophale) SiO2 
 PCOD9199636
Probable space group: C 2/M
;
_chemical_formula_sum "Si O2"
_cell_formula_units_Z 56
_cell_length_a 17.046194
_cell_length_b 25.109977
_cell_length_c 11.699043
_cell_angle_alpha 90.000000
_cell_angle_beta 29.131712
_cell_angle_gamma 90.000000
_cell_volume 2437.763262
_symmetry_space_group_name_H-M "C 2/M"
_symmetry_group_IT_number 12
_symmetry_cell_setting 'monoclinic'
loop_
_space_group_symop_operation_xyz
x,y,z
-x,y,-z
-x,-y,-z
x,-y,z
1/2+x,1/2+y,z
1/2-x,1/2+y,-z
1/2-x,1/2-y,-z
1/2+x,1/2-y,z
loop_
_atom_site_type_symbol
_atom_site_label
_atom_site_fract_x
_atom_site_fract_y
_atom_site_fract_z
Si Si1 0.369150 0.059699 0.765572
Si Si2 0.647892 0.655562 0.393142
Si Si3 0.864079 0.198566 0.337131
Si Si4 0.540368 0.561882 0.075751
Si Si5 0.344061 0.763872 0.999294
Si Si6 0.268756 0.938154 0.359529
Si Si7 0.928539 0.364355 0.332173
O O1 0.500000 0.052968 0.500000
O O2 0.462408 0.100364 0.725968
O O3 0.339981 0.000000 0.852495
O O4 0.201024 0.083435 0.932315
O O5 0.500000 0.645501 0.500000
O O6 0.614265 0.671317 0.566297
O O7 0.736086 0.598589 0.291060
O O8 0.729629 0.708043 0.236385
O O9 0.750000 0.250000 0.500000
O O10 0.750831 0.158285 0.409102
O O11 0.045793 0.218164 0.081890
O O12 0.586501 0.500000 0.996356
O O13 0.389723 0.561517 0.354637
O O14 0.500000 0.582807 0.000000
O O15 0.468984 0.811423 0.816543
O O16 0.250000 0.750000 0.000000
O O17 0.397983 0.903244 0.264037
O O18 0.308550 0.000000 0.288059
#
# Coordination Sequence:
#
# PCOD9199636 Si02
#       7
#     8   8   8   8   8   8   8
#     4  10  20  36  60  92 136 177 217 267 322 388
#     4  11  23  41  73  98 130 178 227 283 347 411
#     4   9  21  42  64  94 129 162 220 281 342 398
#     4   9  18  34  62  94 132 187 225 261 324 385
#     4  11  23  44  70  93 125 171 224 293 349 395
#     4  10  22  41  66 100 146 181 221 274 334 417
#     4  10  22  38  65  95 134 171 220 272 333 416
#
# _framework density 22.971878
#
# number of rings (size 3 to 8) (size 9 to 14) (size 15 to 20)
#    0.000    2.000    1.429    1.286    2.000    7.714 
#    5.143    2.143   28.286    0.000    0.000    0.000 
#    0.000    0.000    0.000    0.000    0.000    0.000 
#
# Total GULP energy -156059.461500 kJ/mol
# GULP energy per Si atom -5573.552196 kJ/mol
# Density = 2.291959 g / cm^3
# Si number density = 22.971878 Si / 1000 Ang^3
#
#
#
# Elastic Constant Matrix: (Units=GPa)
#
#
# Indices 1 2 3 4 5 6 
#
# 1 130.4740 54.1727 49.1463 -0.0023 -50.8979 0.0020
# 2 54.1727 129.0653 25.7705 -0.0043 -24.2758 0.0003
# 3 49.1463 25.7705 73.5752 -0.0025 -27.2513 0.0074
# 4 -0.0023 -0.0043 -0.0025 28.3488 -0.0019 -21.5295
# 5 -50.8979 -24.2758 -27.2513 -0.0019 37.6481 -0.0058
# 6 0.0020 0.0003 0.0074 -21.5295 -0.0058 40.1354
#
#
#
# Elastic Compliance Matrix: (Units=1/GPa)
#
#
# Indices 1 2 3 4 5 6 
#
# 1 0.018028 -0.003131 -0.003643 0.000007 0.019717 0.000006
# 2 -0.003131 0.009459 -0.000725 0.000003 0.001342 0.000002
# 3 -0.003643 -0.000725 0.019513 0.000000 0.008732 -0.000002
# 4 0.000007 0.000003 0.000000 0.059524 0.000019 0.031930
# 5 0.019717 0.001342 0.008732 0.000019 0.060405 0.000016
# 6 0.000006 0.000002 -0.000002 0.031930 0.000016 0.042044
#
#
# Mechanical properties :
#
#
# Convention : Reuss Voigt Hill
#
# Bulk Modulus (GPa) = 31.24649 65.69929 48.47289
# Shear Modulus (GPa) = 21.30947 34.82812 28.06879
#
# Velocity S-wave (km/s) = 3.04901 3.89796 3.49933
# Velocity P-wave (km/s) = 5.10165 6.99434 6.12159
#
# Compressibility (1/GPa) = 0.03200359
#
# Stress axis : x y z
#
# Youngs Moduli (GPa) = 55.46863 105.71597 51.24814
#
# Poissons Ratio (x) = 0.33100 0.18668
# Poissons Ratio (y) = 0.17367 0.03714
# Poissons Ratio (z) = 0.20205 0.07662
#
# Static dielectric constant tensor:
#      x y z
#    x 1.419270 0.000040 -0.282790 
#    y 0.000040 1.997090 0.000050 
#    z -0.282790 0.000050 1.764100 
# 
# From -- ./inp_files/150405.got.cif
#   From: 2010.05.17/outbox.cif.g08.bks.cpg/sg12_76_cif.got.tgz:150405.got - 2010.06.03 13:09:07.
