data_PCOD9199977
_publ_section_title
;
Structure prediction by ZEFSAII (Michael W. Deem and Ramdas Pophale) SiO2 
 PCOD9199977
Probable space group: C 2/M
;
_chemical_formula_sum "Si O2"
_cell_formula_units_Z 64
_cell_length_a 19.619457
_cell_length_b 21.792888
_cell_length_c 18.089996
_cell_angle_alpha 90.000000
_cell_angle_beta 157.878506
_cell_angle_gamma 90.000000
_cell_volume 2912.648342
_symmetry_space_group_name_H-M "C 2/M"
_symmetry_group_IT_number 12
_symmetry_cell_setting 'monoclinic'
loop_
_space_group_symop_operation_xyz
x,y,z
-x,y,-z
-x,-y,-z
x,-y,z
1/2+x,1/2+y,z
1/2-x,1/2+y,-z
1/2-x,1/2-y,-z
1/2+x,1/2-y,z
loop_
_atom_site_type_symbol
_atom_site_label
_atom_site_fract_x
_atom_site_fract_y
_atom_site_fract_z
Si Si1 0.473645 0.071343 0.109154
Si Si2 0.542198 0.171060 0.629046
Si Si3 0.470869 0.431590 0.799940
Si Si4 0.966420 0.192381 0.053118
Si Si5 0.232942 0.763304 0.569384
Si Si6 0.147865 0.929821 0.701682
Si Si7 0.600216 0.070219 0.802399
Si Si8 0.138832 0.095903 0.471863
O O1 0.444337 0.098288 0.161785
O O2 0.685979 0.071665 0.308785
O O3 0.416574 0.000000 0.057411
O O4 0.342816 0.098517 0.915283
O O5 0.500000 0.162697 0.500000
O O6 0.407455 0.219861 0.529378
O O7 0.521172 0.109290 0.655905
O O8 0.750933 0.191819 0.849064
O O9 0.433230 0.500000 0.793097
O O10 0.452842 0.372214 0.834048
O O11 0.359197 0.422433 0.612107
O O12 0.682857 0.430616 0.989630
O O13 0.072602 0.247702 0.199323
O O14 0.000000 0.195053 0.000000
O O15 0.250000 0.750000 0.500000
O O16 0.158349 0.831705 0.500004
O O17 0.000000 0.898644 0.500000
O O18 0.043166 0.929044 0.674676
O O19 0.172370 0.000000 0.699443
O O20 0.534905 0.000000 0.734555
#
# Coordination Sequence:
#
# PCOD9199977 Si02
#       8
#     8   8   8   8   8   8   8   8
#     4  10  20  36  62  93 124 162 209 266 331 395
#     4  11  24  44  69  94 134 178 217 272 336 388
#     4  10  20  39  68 100 131 168 211 264 334 398
#     4  11  24  46  69  97 140 174 215 278 330 389
#     4  12  26  45  66  95 129 177 233 269 318 389
#     4  10  22  41  60  85 124 160 204 273 340 391
#     4   9  19  37  64  98 132 165 210 264 324 397
#     4  12  23  39  64  90 126 165 219 270 316 390
#
# _framework density 21.973130000000001
#
# number of rings (size 3 to 8) (size 9 to 14) (size 15 to 20)
#    0.000    1.375    3.750    1.875    0.000    3.000 
#    2.250    1.875    0.000    0.000    0.000    0.000 
#    0.000    0.000    0.000    0.000    0.000    0.000 
#
# Total GULP energy -178831.744801 kJ/mol
# GULP energy per Si atom -5588.492025 kJ/mol
# Density = 2.192312 g / cm^3
# Si number density = 21.973130 Si / 1000 Ang^3
#
#
#
# Elastic Constant Matrix: (Units=GPa)
#
#
# Indices 1 2 3 4 5 6 
#
# 1 65.2827 10.6888 18.9909 -0.0003 -17.9875 -0.0001
# 2 10.6888 83.3382 19.0452 -0.0001 -7.7148 0.0000
# 3 18.9909 19.0452 137.1006 -0.0006 -9.3403 -0.0002
# 4 -0.0003 -0.0001 -0.0006 -0.0208 -0.0002 -1.5550
# 5 -17.9875 -7.7148 -9.3403 -0.0002 38.5878 -0.0001
# 6 -0.0001 0.0000 -0.0002 -1.5550 -0.0001 27.3489
#
#
#
# Elastic Compliance Matrix: (Units=1/GPa)
#
#
# Indices 1 2 3 4 5 6 
#
# 1 0.018193 -0.001195 -0.001823 -0.000056 0.007801 -0.000003
# 2 -0.001195 0.012640 -0.001481 0.000000 0.001612 0.000000
# 3 -0.001823 -0.001481 0.007803 -0.000041 0.000743 -0.000002
# 4 -0.000056 0.000000 -0.000041 -9.159713 -0.000080 -0.520799
# 5 0.007801 0.001612 0.000743 -0.000080 0.030053 -0.000004
# 6 -0.000003 0.000000 -0.000002 -0.520799 -0.000004 0.006953
#
#
# Mechanical properties :
#
#
# Convention : Reuss Voigt Hill
#
# Bulk Modulus (GPa) = 33.73832 42.57455 38.15644
# Shear Modulus (GPa) = -0.55156 28.98297 14.21571
#
# Velocity S-wave (km/s) = -0.50156 3.63577 2.54630
# Velocity P-wave (km/s) = 3.87973 6.08629 5.10368
#
# Compressibility (1/GPa) = 0.02963988
#
# Stress axis : x y z
#
# Youngs Moduli (GPa) = 54.96583 79.11327 128.16106
#
# Poissons Ratio (x) = 0.09452 0.23360
# Poissons Ratio (y) = 0.06567 0.18975
# Poissons Ratio (z) = 0.10018 0.11713
#
# Static dielectric constant tensor:
#      x y z
#    x 1.791500 0.000000 0.003880 
#    y 0.000000 1.806680 0.000000 
#    z 0.003880 0.000000 1.856010 
# 
# From -- ./inp_files/286443.got.cif
#   From: 2010.05.17/outbox.cif.g08.bks.cpg/sg12_144_cif.got.tgz:286443.got - 2010.06.03 13:09:07.
