data_PCOD9199200
_publ_section_title
;
Structure prediction by ZEFSAII (Michael W. Deem and Ramdas Pophale) SiO2 
 PCOD9199200
Probable space group: C 2/M
;
_chemical_formula_sum "Si O2"
_cell_formula_units_Z 48
_cell_length_a 16.461470
_cell_length_b 19.618649
_cell_length_c 19.984174
_cell_angle_alpha 90.000000
_cell_angle_beta 19.768902
_cell_angle_gamma 90.000000
_cell_volume 2182.892955
_symmetry_space_group_name_H-M "C 2/M"
_symmetry_group_IT_number 12
_symmetry_cell_setting 'monoclinic'
loop_
_space_group_symop_operation_xyz
x,y,z
-x,y,-z
-x,-y,-z
x,-y,z
1/2+x,1/2+y,z
1/2-x,1/2+y,-z
1/2-x,1/2-y,-z
1/2+x,1/2-y,z
loop_
_atom_site_type_symbol
_atom_site_label
_atom_site_fract_x
_atom_site_fract_y
_atom_site_fract_z
Si Si1 0.993393 0.236019 0.270210
Si Si2 0.057210 0.892799 0.778693
Si Si3 0.227696 0.673201 0.273444
Si Si4 0.496648 0.817834 0.931335
Si Si5 0.498716 0.073820 0.651542
Si Si6 0.531490 0.882000 0.181377
O O1 0.750000 0.250000 0.500000
O O2 0.925924 0.183138 0.265061
O O3 0.078632 0.305492 0.171121
O O4 0.219362 0.203563 0.133030
O O5 0.104280 0.882749 0.820425
O O6 0.269270 0.929626 0.576030
O O7 0.789361 0.917437 0.972345
O O8 0.350788 0.747541 0.177816
O O9 0.145517 0.638988 0.267140
O O10 0.000000 0.677802 0.500000
O O11 0.580931 0.865307 0.803931
O O12 0.500000 0.854512 0.000000
O O13 0.581219 0.084997 0.664724
O O14 0.373346 0.000000 0.744682
#
# Coordination Sequence:
#
# PCOD9199200 Si02
#       6
#     8   8   8   8   8   8
#     4  11  19  35  62  90 122 164 208 262 322 383
#     4  10  20  36  59  87 122 166 210 264 308 370
#     4  10  21  35  56  88 130 168 202 256 317 374
#     4  11  22  34  59  95 128 155 204 269 333 385
#     4  11  25  41  61  88 128 180 224 251 298 377
#     4  11  21  39  61  85 119 163 215 259 321 368
#
# _framework density 21.989167999999999
#
# number of rings (size 3 to 8) (size 9 to 14) (size 15 to 20)
#    0.000    1.333    5.000    2.000    2.333    3.667 
#    0.000    0.833    0.000    0.500    0.000    4.667 
#    0.000    0.000    0.000    0.000    0.000    0.000 
#
# Total GULP energy -133837.926956 kJ/mol
# GULP energy per Si atom -5576.580290 kJ/mol
# Density = 2.193912 g / cm^3
# Si number density = 21.989168 Si / 1000 Ang^3
#
#
#
# Elastic Constant Matrix: (Units=GPa)
#
#
# Indices 1 2 3 4 5 6 
#
# 1 139.5198 25.9002 19.6968 -0.0810 24.7704 -0.0351
# 2 25.9002 65.6227 12.3091 -0.1164 -0.8680 0.0008
# 3 19.6968 12.3091 85.6699 -0.1602 15.9436 -0.0113
# 4 -0.0810 -0.1164 -0.1602 3.8419 0.0356 -3.5290
# 5 24.7704 -0.8680 15.9436 0.0356 35.5090 0.0081
# 6 -0.0351 0.0008 -0.0113 -3.5290 0.0081 -11.0145
#
#
#
# Elastic Compliance Matrix: (Units=1/GPa)
#
#
# Indices 1 2 3 4 5 6 
#
# 1 0.008979 -0.003549 -0.000406 0.000071 -0.006168 -0.000056
# 2 -0.003549 0.017139 -0.002384 0.000251 0.003965 -0.000062
# 3 -0.000406 -0.002384 0.013168 0.000391 -0.005687 -0.000142
# 4 0.000071 0.000251 0.000391 0.201127 -0.000406 -0.064441
# 5 -0.006168 0.003965 -0.005687 -0.000406 0.035115 0.000182
# 6 -0.000056 -0.000062 -0.000142 -0.064441 0.000182 -0.070142
#
#
# Mechanical properties :
#
#
# Convention : Reuss Voigt Hill
#
# Bulk Modulus (GPa) = 37.58404 45.18050 41.38227
# Shear Modulus (GPa) = 22.03288 21.19436 21.61362
#
# Velocity S-wave (km/s) = 3.16885 3.10797 3.13856
# Velocity P-wave (km/s) = 5.52431 5.78538 5.65635
#
# Compressibility (1/GPa) = 0.02660704
#
# Stress axis : x y z
#
# Youngs Moduli (GPa) = 111.37504 58.34503 75.94231
#
# Poissons Ratio (x) = 0.20706 0.03087
# Poissons Ratio (y) = 0.39526 0.18105
# Poissons Ratio (z) = 0.04527 0.13910
#
# Static dielectric constant tensor:
#      x y z
#    x 1.914210 -0.000150 0.020230 
#    y -0.000150 1.888230 0.000130 
#    z 0.020230 0.000130 1.892460 
# 
# From -- ./inp_files/317890.got.cif
#   From: 2010.05.17/outbox.cif.g08.bks.cpg/sg12_159_cif.got.tgz:317890.got - 2010.06.03 13:09:07.
