data_PCOD9199290
_publ_section_title
;
Structure prediction by ZEFSAII (Michael W. Deem and Ramdas Pophale) SiO2 
 PCOD9199290
Probable space group: C 2/M
;
_chemical_formula_sum "Si O2"
_cell_formula_units_Z 58
_cell_length_a 13.670343
_cell_length_b 14.888257
_cell_length_c 14.601705
_cell_angle_alpha 90.000000
_cell_angle_beta 115.164453
_cell_angle_gamma 90.000000
_cell_volume 2689.794509
_symmetry_space_group_name_H-M "C 2/M"
_symmetry_group_IT_number 12
_symmetry_cell_setting 'monoclinic'
loop_
_space_group_symop_operation_xyz
x,y,z
-x,y,-z
-x,-y,-z
x,-y,z
1/2+x,1/2+y,z
1/2-x,1/2+y,-z
1/2-x,1/2-y,-z
1/2+x,1/2-y,z
loop_
_atom_site_type_symbol
_atom_site_label
_atom_site_fract_x
_atom_site_fract_y
_atom_site_fract_z
Si Si1 0.003984 0.322950 0.762282
Si Si2 0.233599 0.895140 0.297473
Si Si3 0.222569 0.392522 0.284297
Si Si4 0.098358 0.748972 0.608075
Si Si5 0.500933 0.365665 0.173979
Si Si6 0.238064 0.897101 0.896991
Si Si7 0.500000 0.500000 0.000000
Si Si8 0.724171 0.898337 0.889332
O O1 0.886164 0.365071 0.706493
O O2 0.046461 0.278234 0.685288
O O3 0.002988 0.241740 0.834666
O O4 0.095052 0.394318 0.827958
O O5 0.318838 0.832833 0.382443
O O6 0.234713 0.861451 0.191135
O O7 0.108893 0.886492 0.274967
O O8 0.265486 0.000000 0.310591
O O9 0.238529 0.500000 0.292890
O O10 0.325903 0.336541 0.358134
O O11 0.204135 0.362984 0.170448
O O12 0.000000 0.757950 0.500000
O O13 0.388882 0.394571 0.175803
O O14 0.504568 0.421871 0.082395
O O15 0.275215 0.000000 0.923746
O O16 0.248641 0.855354 0.002304
O O17 0.772204 0.000000 0.910905
#
# Coordination Sequence:
#
# PCOD9199290 Si02
#       8
#     8   8   8   8   8   8   2   8
#     4  11  24  43  65  96 132 175 225 281 337 403
#     4  10  20  39  63  95 134 173 216 277 347 400
#     4  11  24  44  70  98 136 179 224 279 346 411
#     4  11  25  47  73  97 128 168 229 292 355 413
#     4  12  21  35  60  93 138 175 217 268 322 392
#     4  10  20  36  59  91 130 178 219 261 318 397
#     4  12  24  32  60 104 138 186 220 268 322 384
#     4   9  20  37  60  89 131 176 219 267 321 392
#
# _framework density 21.562985000000001
#
# number of rings (size 3 to 8) (size 9 to 14) (size 15 to 20)
#    0.000    1.379    4.138    1.241    1.931    3.862 
#    0.000    2.069    0.000    0.000    0.000    0.000 
#    0.000    0.000    0.000    0.000    0.000    0.000 
#
# Total GULP energy -161560.717434 kJ/mol
# GULP energy per Si atom -5571.059222 kJ/mol
# Density = 2.151391 g / cm^3
# Si number density = 21.562985 Si / 1000 Ang^3
#
#
#
# Elastic Constant Matrix: (Units=GPa)
#
#
# Indices 1 2 3 4 5 6 
#
# 1 103.7424 16.5622 23.0639 0.0000 19.6215 0.0000
# 2 16.5622 104.6587 12.0395 0.0000 -0.2113 0.0000
# 3 23.0639 12.0395 53.9707 0.0000 20.7371 0.0000
# 4 0.0000 0.0000 0.0000 27.9440 0.0000 1.7286
# 5 19.6215 -0.2113 20.7371 0.0000 17.2917 0.0000
# 6 0.0000 0.0000 0.0000 1.7286 0.0000 36.0371
#
#
#
# Elastic Compliance Matrix: (Units=1/GPa)
#
#
# Indices 1 2 3 4 5 6 
#
# 1 0.012728 -0.002175 0.001123 0.000000 -0.015817 0.000000
# 2 -0.002175 0.010426 -0.004439 0.000000 0.007919 0.000000
# 3 0.001123 -0.004439 0.036255 0.000000 -0.044808 0.000000
# 4 0.000000 0.000000 0.000000 0.035892 0.000000 -0.001722
# 5 -0.015817 0.007919 -0.044808 0.000000 0.129612 0.000000
# 6 0.000000 0.000000 0.000000 -0.001722 0.000000 0.027832
#
#
# Mechanical properties :
#
#
# Convention : Reuss Voigt Hill
#
# Bulk Modulus (GPa) = 20.64951 40.63365 30.64158
# Shear Modulus (GPa) = 17.86546 30.30165 24.08355
#
# Velocity S-wave (km/s) = 2.88153 3.75275 3.34562
# Velocity P-wave (km/s) = 4.54622 6.13698 5.40050
#
# Compressibility (1/GPa) = 0.04842729
#
# Stress axis : x y z
#
# Youngs Moduli (GPa) = 78.56442 95.91646 27.58226
#
# Poissons Ratio (x) = 0.20866 -0.03098
# Poissons Ratio (y) = 0.17091 0.12243
# Poissons Ratio (z) = -0.08825 0.42576
#
# Static dielectric constant tensor:
#      x y z
#    x 1.876220 0.000000 0.014350 
#    y 0.000000 1.817980 0.000000 
#    z 0.014350 0.000000 1.788850 
# 
# From -- ./inp_files/215244.got.cif
#   From: 2010.05.17/outbox.cif.g08.bks.cpg/sg12_108_cif.got.tgz:215244.got - 2010.06.03 13:09:07.
