data_PCOD9199281
_publ_section_title
;
Structure prediction by ZEFSAII (Michael W. Deem and Ramdas Pophale) SiO2 
 PCOD9199281
Probable space group: C 2/M
;
_chemical_formula_sum "Si O2"
_cell_formula_units_Z 64
_cell_length_a 17.294032
_cell_length_b 15.210442
_cell_length_c 19.514751
_cell_angle_alpha 90.000000
_cell_angle_beta 36.539490
_cell_angle_gamma 90.000000
_cell_volume 3056.278545
_symmetry_space_group_name_H-M "C 2/M"
_symmetry_group_IT_number 12
_symmetry_cell_setting 'monoclinic'
loop_
_space_group_symop_operation_xyz
x,y,z
-x,y,-z
-x,-y,-z
x,-y,z
1/2+x,1/2+y,z
1/2-x,1/2+y,-z
1/2-x,1/2-y,-z
1/2+x,1/2-y,z
loop_
_atom_site_type_symbol
_atom_site_label
_atom_site_fract_x
_atom_site_fract_y
_atom_site_fract_z
Si Si1 0.404306 0.238528 0.504576
Si Si2 0.426957 0.398812 0.664158
Si Si3 0.205768 0.677911 0.739070
Si Si4 0.537840 0.601710 0.077913
Si Si5 0.018270 0.395853 0.325270
Si Si6 0.553099 0.106107 0.141229
Si Si7 0.327647 0.606726 0.884478
Si Si8 0.803039 0.160419 0.162184
O O1 0.500000 0.214039 0.500000
O O2 0.463076 0.328954 0.432855
O O3 0.266557 0.262172 0.635471
O O4 0.415333 0.163166 0.439867
O O5 0.470786 0.500000 0.637270
O O6 0.315928 0.390405 0.684887
O O7 0.367372 0.369625 0.779653
O O8 0.191822 0.741450 0.813807
O O9 0.070642 0.637574 0.813170
O O10 0.579634 0.500000 0.043511
O O11 0.565038 0.632566 0.135341
O O12 0.392944 0.608724 0.152481
O O13 0.628409 0.652262 0.959914
O O14 0.990440 0.500000 0.348531
O O15 0.034391 0.369152 0.234192
O O16 0.158234 0.375785 0.259777
O O17 0.557649 0.000000 0.136942
O O18 0.688196 0.138160 0.011742
O O19 0.321699 0.500000 0.887518
#
# Coordination Sequence:
#
# PCOD9199281 Si02
#       8
#     8   8   8   8   8   8   8   8
#     4  10  22  42  60  88 124 157 214 264 308 362
#     4  10  21  39  65  88 119 165 207 257 314 372
#     4  11  24  41  57  87 128 159 214 264 304 359
#     4  10  20  36  59  90 128 163 202 254 310 378
#     4  11  21  40  66  92 123 166 211 252 310 374
#     4  10  22  40  65  92 123 167 207 251 314 374
#     4   9  19  36  59  92 125 157 201 255 317 374
#     4  11  20  36  58  92 121 162 204 247 308 371
#
# _framework density 20.9405
#
# number of rings (size 3 to 8) (size 9 to 14) (size 15 to 20)
#    0.000    1.750    3.750    1.875    0.000    7.000 
#    0.000    3.750    0.000    3.000    0.000    0.000 
#    0.000    0.000    0.000    0.000    0.000    0.000 
#
# Total GULP energy -178790.376222 kJ/mol
# GULP energy per Si atom -5587.199257 kJ/mol
# Density = 2.089284 g / cm^3
# Si number density = 20.940500 Si / 1000 Ang^3
#
#
#
# Elastic Constant Matrix: (Units=GPa)
#
#
# Indices 1 2 3 4 5 6 
#
# 1 76.1858 11.6293 27.2257 0.0000 13.0339 0.0000
# 2 11.6293 52.1002 17.4376 0.0000 18.8698 0.0000
# 3 27.2257 17.4376 53.6383 0.0001 25.5166 0.0000
# 4 0.0000 0.0000 0.0001 21.4975 0.0000 21.3736
# 5 13.0339 18.8698 25.5166 0.0000 25.3134 -0.0001
# 6 0.0000 0.0000 0.0000 21.3736 -0.0001 -5.7754
#
#
#
# Elastic Compliance Matrix: (Units=1/GPa)
#
#
# Indices 1 2 3 4 5 6 
#
# 1 0.016084 -0.001150 -0.008182 0.000000 0.000822 0.000000
# 2 -0.001150 0.026437 0.002080 0.000000 -0.021212 0.000000
# 3 -0.008182 0.002080 0.040067 0.000000 -0.037727 0.000000
# 4 0.000000 0.000000 0.000000 0.009941 0.000000 0.036788
# 5 0.000822 -0.021212 -0.037727 0.000000 0.092923 0.000000
# 6 0.000000 0.000000 0.000000 0.036788 0.000000 -0.037002
#
#
# Mechanical properties :
#
#
# Convention : Reuss Voigt Hill
#
# Bulk Modulus (GPa) = 14.68745 32.72329 23.70537
# Shear Modulus (GPa) = 26.93272 16.58258 21.75765
#
# Velocity S-wave (km/s) = 3.59019 2.81711 3.22688
# Velocity P-wave (km/s) = 4.92088 5.12271 5.02281
#
# Compressibility (1/GPa) = 0.06808534
#
# Stress axis : x y z
#
# Youngs Moduli (GPa) = 62.17224 37.82608 24.95809
#
# Poissons Ratio (x) = 0.04349 0.20420
# Poissons Ratio (y) = 0.07148 -0.05191
# Poissons Ratio (z) = 0.50867 -0.07867
#
# Static dielectric constant tensor:
#      x y z
#    x 1.748240 0.000000 0.005080 
#    y 0.000000 1.783470 0.000000 
#    z 0.005080 0.000000 1.738640 
# 
# From -- ./inp_files/278137.got.cif
#   From: 2010.05.17/outbox.cif.g08.bks.cpg/sg12_140_cif.got.tgz:278137.got - 2010.06.03 13:09:07.
