data_PCOD9199875
_publ_section_title
;
Structure prediction by ZEFSAII (Michael W. Deem and Ramdas Pophale) SiO2 
 PCOD9199875
Probable space group: C 2/M
;
_chemical_formula_sum "Si O2"
_cell_formula_units_Z 48
_cell_length_a 17.689397
_cell_length_b 14.676576
_cell_length_c 10.271904
_cell_angle_alpha 90.000000
_cell_angle_beta 58.396172
_cell_angle_gamma 90.000000
_cell_volume 2271.283039
_symmetry_space_group_name_H-M "C 2/M"
_symmetry_group_IT_number 12
_symmetry_cell_setting 'monoclinic'
loop_
_space_group_symop_operation_xyz
x,y,z
-x,y,-z
-x,-y,-z
x,-y,z
1/2+x,1/2+y,z
1/2-x,1/2+y,-z
1/2-x,1/2-y,-z
1/2+x,1/2-y,z
loop_
_atom_site_type_symbol
_atom_site_label
_atom_site_fract_x
_atom_site_fract_y
_atom_site_fract_z
Si Si1 0.494499 0.342363 0.358776
Si Si2 0.572136 0.000000 0.550670
Si Si3 0.288561 0.688024 0.297399
Si Si4 0.242910 0.000000 0.773610
Si Si5 0.790220 0.000000 0.917120
Si Si6 0.507309 0.500000 0.152024
Si Si7 0.876156 0.315943 0.386576
Si Si8 0.804201 0.200797 0.837195
O O1 0.500000 0.384236 0.500000
O O2 0.469454 0.412965 0.266849
O O3 0.425720 0.259858 0.427943
O O4 0.590499 0.301128 0.236670
O O5 0.500000 0.000000 0.500000
O O6 0.571803 0.090442 0.639925
O O7 0.666963 0.000000 0.390611
O O8 0.310431 0.591815 0.212071
O O9 0.225961 0.665434 0.478038
O O10 0.365263 0.759783 0.262469
O O11 0.223131 0.741188 0.261328
O O12 0.269797 0.000000 0.900148
O O13 0.779072 0.093814 0.850603
O O14 0.889103 0.000000 0.893060
O O15 0.500000 0.500000 0.000000
O O16 0.750000 0.250000 0.000000
#
# Coordination Sequence:
#
# PCOD9199875 Si02
#       8
#     8   4   8   4   4   4   8   8
#     4  11  22  40  63  91 124 167 214 263 323 382
#     4  10  22  37  61  92 121 156 207 259 305 374
#     4  10  21  38  59  90 123 158 209 260 321 371
#     4  10  20  36  62  85 118 159 209 245 312 374
#     4  10  22  36  55  85 116 161 206 247 312 379
#     4  10  25  39  58  90 127 159 206 261 320 380
#     4  10  22  37  61  90 122 159 205 265 317 372
#     4  11  22  38  60  87 125 165 211 267 317 386
#
# _framework density 21.133430000000001
#
# number of rings (size 3 to 8) (size 9 to 14) (size 15 to 20)
#    0.000    1.667    3.333    0.750    4.667    0.667 
#    0.000    0.833    0.000    0.000    0.000    4.083 
#    0.000    0.000    0.000    0.000    0.000    0.000 
#
# Total GULP energy -133739.891298 kJ/mol
# GULP energy per Si atom -5572.495471 kJ/mol
# Density = 2.108533 g / cm^3
# Si number density = 21.133430 Si / 1000 Ang^3
#
#
#
# Elastic Constant Matrix: (Units=GPa)
#
#
# Indices 1 2 3 4 5 6 
#
# 1 70.2531 43.2825 6.5796 0.0000 8.9731 0.0000
# 2 43.2825 179.5457 21.3725 0.0000 13.5687 0.0000
# 3 6.5796 21.3725 62.7699 0.0000 -3.1684 0.0000
# 4 0.0000 0.0000 0.0000 21.0596 0.0000 3.1020
# 5 8.9731 13.5687 -3.1684 0.0000 23.9848 0.0000
# 6 0.0000 0.0000 0.0000 3.1020 0.0000 15.6823
#
#
#
# Elastic Compliance Matrix: (Units=1/GPa)
#
#
# Indices 1 2 3 4 5 6 
#
# 1 0.017156 -0.003712 -0.000758 0.000000 -0.004419 0.000000
# 2 -0.003712 0.006928 -0.002112 0.000000 -0.002810 0.000000
# 3 -0.000758 -0.002112 0.016917 0.000000 0.003713 0.000000
# 4 0.000000 0.000000 0.000000 0.048909 0.000000 -0.009674
# 5 -0.004419 -0.002810 0.003713 0.000000 0.045426 0.000000
# 6 0.000000 0.000000 0.000000 -0.009674 0.000000 0.065680
#
#
# Mechanical properties :
#
#
# Convention : Reuss Voigt Hill
#
# Bulk Modulus (GPa) = 35.92021 50.55977 43.23999
# Shear Modulus (GPa) = 22.37550 28.23426 25.30488
#
# Velocity S-wave (km/s) = 3.25741 3.65910 3.46408
# Velocity P-wave (km/s) = 5.58403 6.46746 6.04191
#
# Compressibility (1/GPa) = 0.02783948
#
# Stress axis : x y z
#
# Youngs Moduli (GPa) = 58.28743 144.33993 59.11200
#
# Poissons Ratio (x) = 0.53575 0.04478
# Poissons Ratio (y) = 0.21635 0.12483
# Poissons Ratio (z) = 0.04416 0.30480
#
# Static dielectric constant tensor:
#      x y z
#    x 1.792310 0.000000 -0.004450 
#    y 0.000000 1.554140 0.000000 
#    z -0.004450 0.000000 1.850480 
# 
# From -- ./inp_files/164744.got.cif
#   From: 2010.05.17/outbox.cif.g08.bks.cpg/sg12_83_cif.got.tgz:164744.got - 2010.06.03 13:09:07.
