data_PCOD9199130
_publ_section_title
;
Structure prediction by ZEFSAII (Michael W. Deem and Ramdas Pophale) SiO2 
 PCOD9199130
Probable space group: C 2/M
;
_chemical_formula_sum "Si O2"
_cell_formula_units_Z 64
_cell_length_a 14.761691
_cell_length_b 8.649404
_cell_length_c 26.418030
_cell_angle_alpha 90.000000
_cell_angle_beta 101.238427
_cell_angle_gamma 90.000000
_cell_volume 3308.370206
_symmetry_space_group_name_H-M "C 2/M"
_symmetry_group_IT_number 12
_symmetry_cell_setting 'monoclinic'
loop_
_space_group_symop_operation_xyz
x,y,z
-x,y,-z
-x,-y,-z
x,-y,z
1/2+x,1/2+y,z
1/2-x,1/2+y,-z
1/2-x,1/2-y,-z
1/2+x,1/2-y,z
loop_
_atom_site_type_symbol
_atom_site_label
_atom_site_fract_x
_atom_site_fract_y
_atom_site_fract_z
Si Si1 0.847827 0.816693 0.492263
Si Si2 0.572616 0.819005 0.403340
Si Si3 0.908541 0.185684 0.143325
Si Si4 0.365483 0.182825 0.383316
Si Si5 0.204226 0.814192 0.139539
Si Si6 0.026209 0.187918 0.058630
Si Si7 0.675396 0.681700 0.323195
Si Si8 0.417074 0.817170 0.783176
O O1 0.750000 0.750000 0.500000
O O2 0.919999 0.736105 0.537991
O O3 0.858955 0.774228 0.435008
O O4 0.851903 0.000000 0.499403
O O5 0.468001 0.798165 0.373416
O O6 0.638873 0.719018 0.375351
O O7 0.597741 0.000000 0.403076
O O8 0.806168 0.249783 0.140926
O O9 0.952665 0.234166 0.093850
O O10 0.983624 0.245113 0.192076
O O11 0.906129 0.000000 0.144573
O O12 0.283393 0.225897 0.336487
O O13 0.353202 0.000000 0.393894
O O14 0.128647 0.767264 0.088610
O O15 0.158281 0.754010 0.186399
O O16 0.207920 0.000000 0.141593
O O17 0.025170 0.000000 0.057483
O O18 0.000000 0.244209 0.000000
O O19 0.666791 0.500000 0.311183
O O20 0.616539 0.775920 0.276503
O O21 0.421612 0.000000 0.790883
#
# Coordination Sequence:
#
# PCOD9199130 Si02
#       8
#     8   8   8   8   8   8   8   8
#     4  12  23  37  60  86 115 151 190 233 283 339
#     4  11  23  40  61  87 117 151 190 231 282 342
#     4  10  20  36  59  86 117 155 200 245 293 349
#     4  10  23  41  61  85 116 150 184 228 283 341
#     4  10  20  36  59  86 118 156 199 244 294 348
#     4   8  16  32  54  83 121 161 199 242 290 343
#     4  11  23  41  62  85 116 151 189 235 290 346
#     4  11  23  40  61  84 114 151 195 245 297 348
#
# _framework density 19.344871999999999
#
# number of rings (size 3 to 8) (size 9 to 14) (size 15 to 20)
#    0.000    1.625    1.250    4.875    0.000    4.500 
#    0.000    3.750    0.000   12.750    0.000    0.000 
#    0.000    0.000    0.000    0.000    0.000    0.000 
#
# Total GULP energy -178760.131578 kJ/mol
# GULP energy per Si atom -5586.254112 kJ/mol
# Density = 1.930084 g / cm^3
# Si number density = 19.344872 Si / 1000 Ang^3
#
#
#
# Elastic Constant Matrix: (Units=GPa)
#
#
# Indices 1 2 3 4 5 6 
#
# 1 115.1156 32.8892 23.6842 0.0000 22.3260 0.0000
# 2 32.8892 65.8532 12.0365 0.0000 9.3083 0.0000
# 3 23.6842 12.0365 81.3850 0.0000 15.0212 0.0000
# 4 0.0000 0.0000 0.0000 21.1793 0.0000 0.5372
# 5 22.3260 9.3083 15.0212 0.0000 14.9083 0.0000
# 6 0.0000 0.0000 0.0000 0.5372 0.0000 26.7210
#
#
#
# Elastic Compliance Matrix: (Units=1/GPa)
#
#
# Indices 1 2 3 4 5 6 
#
# 1 0.013210 -0.004166 -0.000070 0.000000 -0.017111 0.000000
# 2 -0.004166 0.017999 -0.000647 0.000000 -0.004347 0.000000
# 3 -0.000070 -0.000647 0.015122 0.000000 -0.014727 0.000000
# 4 0.000000 0.000000 0.000000 0.047240 0.000000 -0.000950
# 5 -0.017111 -0.004347 -0.014727 0.000000 0.110255 0.000000
# 6 0.000000 0.000000 0.000000 -0.000950 0.000000 0.037443
#
#
# Mechanical properties :
#
#
# Convention : Reuss Voigt Hill
#
# Bulk Modulus (GPa) = 27.34952 44.39707 35.87329
# Shear Modulus (GPa) = 18.99533 25.47798 22.23665
#
# Velocity S-wave (km/s) = 3.13698 3.63304 3.39408
# Velocity P-wave (km/s) = 5.22392 6.37172 5.82616
#
# Compressibility (1/GPa) = 0.03656372
#
# Stress axis : x y z
#
# Youngs Moduli (GPa) = 75.69870 55.55955 66.13081
#
# Poissons Ratio (x) = 0.23147 0.00463
# Poissons Ratio (y) = 0.31537 0.04280
# Poissons Ratio (z) = 0.00530 0.03596
#
# Static dielectric constant tensor:
#      x y z
#    x 1.671150 0.000000 0.013980 
#    y 0.000000 1.650980 0.000000 
#    z 0.013980 0.000000 1.684200 
# 
# From -- ./inp_files/359976.got.cif
#   From: 2010.05.17/outbox.cif.g08.bks.cpg/sg12_180_cif.got.tgz:359976.got - 2010.06.03 13:09:07.
