data_PCOD9199759
_publ_section_title
;
Structure prediction by ZEFSAII (Michael W. Deem and Ramdas Pophale) SiO2 
 PCOD9199759
Probable space group: C 2/M
;
_chemical_formula_sum "Si O2"
_cell_formula_units_Z 48
_cell_length_a 20.425636
_cell_length_b 19.706760
_cell_length_c 18.457399
_cell_angle_alpha 90.000000
_cell_angle_beta 159.007828
_cell_angle_gamma 90.000000
_cell_volume 2661.557623
_symmetry_space_group_name_H-M "C 2/M"
_symmetry_group_IT_number 12
_symmetry_cell_setting 'monoclinic'
loop_
_space_group_symop_operation_xyz
x,y,z
-x,y,-z
-x,-y,-z
x,-y,z
1/2+x,1/2+y,z
1/2-x,1/2+y,-z
1/2-x,1/2-y,-z
1/2+x,1/2-y,z
loop_
_atom_site_type_symbol
_atom_site_label
_atom_site_fract_x
_atom_site_fract_y
_atom_site_fract_z
Si Si1 0.432970 0.201562 0.011503
Si Si2 0.408981 0.799584 0.328134
Si Si3 0.723541 0.078030 0.906833
Si Si4 0.489081 0.922714 0.809837
Si Si5 0.852336 0.922306 0.630073
Si Si6 0.248888 0.718081 0.579606
O O1 0.430321 0.131873 0.052958
O O2 0.585260 0.247921 0.207034
O O3 0.500000 0.188593 0.000000
O O4 0.244733 0.242649 0.819224
O O5 0.500000 0.815060 0.500000
O O6 0.561534 0.772384 0.429558
O O7 0.320333 0.866225 0.199196
O O8 0.929959 0.085947 0.150690
O O9 0.706785 0.000000 0.863213
O O10 0.585421 0.086609 0.831277
O O11 0.271878 0.913511 0.570167
O O12 0.521074 0.000000 0.866162
O O13 0.784767 0.862503 0.611995
O O14 0.816698 0.000000 0.617945
O O15 0.250000 0.750000 0.500000
#
# Coordination Sequence:
#
# PCOD9199759 Si02
#       6
#     8   8   8   8   8   8
#     4  12  25  41  61  88 127 163 204 257 311 365
#     4  12  25  39  60  88 128 166 202 251 307 367
#     4  10  21  38  62  92 122 158 204 252 299 363
#     4  10  22  40  64  90 117 156 205 254 306 366
#     4  10  20  36  61  90 121 152 197 253 303 355
#     4  12  23  39  64  92 118 165 213 257 304 364
#
# _framework density 18.034552000000001
#
# number of rings (size 3 to 8) (size 9 to 14) (size 15 to 20)
#    0.000    1.000    6.667    0.000    2.333    2.000 
#    0.000    0.000    0.000    3.500    0.000    0.000 
#    0.000    0.000    0.000    0.000    0.000    0.000 
#
# Total GULP energy -133958.965511 kJ/mol
# GULP energy per Si atom -5581.623563 kJ/mol
# Density = 1.799350 g / cm^3
# Si number density = 18.034552 Si / 1000 Ang^3
#
#
#
# Elastic Constant Matrix: (Units=GPa)
#
#
# Indices 1 2 3 4 5 6 
#
# 1 87.1214 58.8086 50.2071 0.0041 0.3587 0.0012
# 2 58.8086 118.9879 52.1537 0.0283 -12.5768 0.0124
# 3 50.2071 52.1537 112.4748 0.0116 2.8028 0.0044
# 4 0.0041 0.0283 0.0116 17.8876 0.0122 6.4899
# 5 0.3587 -12.5768 2.8028 0.0122 32.6896 0.0051
# 6 0.0012 0.0124 0.0044 6.4899 0.0051 14.1168
#
#
#
# Elastic Compliance Matrix: (Units=1/GPa)
#
#
# Indices 1 2 3 4 5 6 
#
# 1 0.019689 -0.007784 -0.005110 0.000012 -0.002773 0.000002
# 2 -0.007784 0.014326 -0.003315 -0.000022 0.005881 -0.000003
# 3 -0.005110 -0.003315 0.012767 0.000000 -0.002314 0.000000
# 4 0.000012 -0.000022 0.000000 0.067096 -0.000029 -0.030846
# 5 -0.002773 0.005881 -0.002314 -0.000029 0.033082 -0.000003
# 6 0.000002 -0.000003 0.000000 -0.030846 -0.000003 0.085019
#
#
# Mechanical properties :
#
#
# Convention : Reuss Voigt Hill
#
# Bulk Modulus (GPa) = 69.62172 71.21365 70.41769
# Shear Modulus (GPa) = 18.57455 23.43312 21.00384
#
# Velocity S-wave (km/s) = 3.21275 3.60855 3.41639
# Velocity P-wave (km/s) = 7.24229 7.54555 7.39548
#
# Compressibility (1/GPa) = 0.01436333
#
# Stress axis : x y z
#
# Youngs Moduli (GPa) = 50.78899 69.80287 78.32889
#
# Poissons Ratio (x) = 0.54337 0.40029
# Poissons Ratio (y) = 0.39536 0.25963
# Poissons Ratio (z) = 0.25955 0.23137
#
# Static dielectric constant tensor:
#      x y z
#    x 1.604120 0.000000 0.008760 
#    y 0.000000 1.633780 0.000000 
#    z 0.008760 0.000000 1.643280 
# 
# From -- ./inp_files/285339.got.cif
#   From: 2010.05.17/outbox.cif.g08.bks.cpg/sg12_143_cif.got.tgz:285339.got - 2010.06.03 13:09:07.
