data_PCOD9199851
_publ_section_title
;
Structure prediction by ZEFSAII (Michael W. Deem and Ramdas Pophale) SiO2 
 PCOD9199851
Probable space group: C 2/M
;
_chemical_formula_sum "Si O2"
_cell_formula_units_Z 48
_cell_length_a 21.339850
_cell_length_b 14.558523
_cell_length_c 23.056490
_cell_angle_alpha 90.000000
_cell_angle_beta 19.164066
_cell_angle_gamma 90.000000
_cell_volume 2351.466292
_symmetry_space_group_name_H-M "C 2/M"
_symmetry_group_IT_number 12
_symmetry_cell_setting 'monoclinic'
loop_
_space_group_symop_operation_xyz
x,y,z
-x,y,-z
-x,-y,-z
x,-y,z
1/2+x,1/2+y,z
1/2-x,1/2+y,-z
1/2-x,1/2-y,-z
1/2+x,1/2-y,z
loop_
_atom_site_type_symbol
_atom_site_label
_atom_site_fract_x
_atom_site_fract_y
_atom_site_fract_z
Si Si1 0.631401 0.893199 0.940464
Si Si2 0.707154 0.258731 0.969234
Si Si3 0.043127 0.790359 0.395942
Si Si4 0.360946 0.398639 0.269029
Si Si5 0.725542 0.604126 0.786682
Si Si6 0.371698 0.790271 0.445843
O O1 0.635285 0.829780 0.994672
O O2 0.839833 0.874579 0.732205
O O3 0.592203 0.000000 0.986991
O O4 0.500000 0.863480 0.000000
O O5 0.909379 0.292002 0.765930
O O6 0.750000 0.250000 0.000000
O O7 0.536677 0.330144 0.112774
O O8 0.164241 0.694101 0.287445
O O9 0.000000 0.806692 0.500000
O O10 0.866447 0.774581 0.507656
O O11 0.442244 0.500000 0.201546
O O12 0.252709 0.392224 0.302114
O O13 0.224776 0.380121 0.442825
O O14 0.785569 0.500000 0.752979
O O15 0.500000 0.611952 0.000000
O O16 0.250000 0.750000 0.500000
#
# Coordination Sequence:
#
# PCOD9199851 Si02
#       6
#     8   8   8   8   8   8
#     4  10  23  42  66  95 126 166 220 276 329 388
#     4  11  23  42  70  92 133 177 223 270 330 397
#     4  11  21  36  64  91 127 168 206 264 325 386
#     4  11  23  40  66  99 134 169 213 267 324 395
#     4  10  20  36  61  95 130 165 208 257 320 393
#     4  11  23  41  61  91 129 175 216 264 321 387
#
# _framework density 20.412794999999999
#
# number of rings (size 3 to 8) (size 9 to 14) (size 15 to 20)
#    0.000    1.333    3.333    3.500    0.000    2.667 
#    0.000    0.000    0.000    0.000    0.000    0.000 
#    0.000    0.000    0.000    0.000    0.000    0.000 
#
# Total GULP energy -133866.745910 kJ/mol
# GULP energy per Si atom -5577.781080 kJ/mol
# Density = 2.036633 g / cm^3
# Si number density = 20.412795 Si / 1000 Ang^3
#
#
#
# Elastic Constant Matrix: (Units=GPa)
#
#
# Indices 1 2 3 4 5 6 
#
# 1 162.2753 51.5570 25.5706 0.0028 10.2033 -0.0037
# 2 51.5570 95.3754 33.0022 -0.0022 0.4710 -0.0078
# 3 25.5706 33.0022 68.3364 -0.0314 8.1273 -0.0019
# 4 0.0028 -0.0022 -0.0314 21.6353 0.0021 9.9774
# 5 10.2033 0.4710 8.1273 0.0021 37.5842 0.0042
# 6 -0.0037 -0.0078 -0.0019 9.9774 0.0042 20.6290
#
#
#
# Elastic Compliance Matrix: (Units=1/GPa)
#
#
# Indices 1 2 3 4 5 6 
#
# 1 0.007622 -0.003843 -0.000776 -0.000003 -0.001853 0.000002
# 2 -0.003843 0.014578 -0.005855 -0.000011 0.002127 0.000009
# 3 -0.000776 -0.005855 0.018185 0.000034 -0.003648 -0.000016
# 4 -0.000003 -0.000011 0.000034 0.059489 -0.000006 -0.028772
# 5 -0.001853 0.002127 -0.003648 -0.000006 0.027872 -0.000002
# 6 0.000002 0.000009 -0.000016 -0.028772 -0.000002 0.062391
#
#
# Mechanical properties :
#
#
# Convention : Reuss Voigt Hill
#
# Bulk Modulus (GPa) = 51.44635 60.69406 56.07020
# Shear Modulus (GPa) = 22.98167 30.36020 26.67093
#
# Velocity S-wave (km/s) = 3.35900 3.86075 3.61858
# Velocity P-wave (km/s) = 6.34835 7.04782 6.70721
#
# Compressibility (1/GPa) = 0.01943773
#
# Stress axis : x y z
#
# Youngs Moduli (GPa) = 131.19927 68.59856 54.98916
#
# Poissons Ratio (x) = 0.26359 0.04267
# Poissons Ratio (y) = 0.50414 0.32197
# Poissons Ratio (z) = 0.10180 0.40165
#
# Static dielectric constant tensor:
#      x y z
#    x 1.807920 -0.000350 -0.008580 
#    y -0.000350 1.830410 0.000100 
#    z -0.008580 0.000100 1.793090 
# 
# From -- ./inp_files/347475.got.cif
#   From: 2010.05.17/outbox.cif.g08.bks.cpg/sg12_174_cif.got.tgz:347475.got - 2010.06.03 13:09:07.
