data_PCOD9199785
_publ_section_title
;
Structure prediction by ZEFSAII (Michael W. Deem and Ramdas Pophale) SiO2 
 PCOD9199785
Probable space group: C 2/M
;
_chemical_formula_sum "Si O2"
_cell_formula_units_Z 56
_cell_length_a 22.705777
_cell_length_b 16.641588
_cell_length_c 12.686526
_cell_angle_alpha 90.000000
_cell_angle_beta 28.461886
_cell_angle_gamma 90.000000
_cell_volume 2284.568798
_symmetry_space_group_name_H-M "C 2/M"
_symmetry_group_IT_number 12
_symmetry_cell_setting 'monoclinic'
loop_
_space_group_symop_operation_xyz
x,y,z
-x,y,-z
-x,-y,-z
x,-y,z
1/2+x,1/2+y,z
1/2-x,1/2+y,-z
1/2-x,1/2-y,-z
1/2+x,1/2-y,z
loop_
_atom_site_type_symbol
_atom_site_label
_atom_site_fract_x
_atom_site_fract_y
_atom_site_fract_z
Si Si1 0.222411 0.660661 0.504301
Si Si2 0.779125 0.092219 0.959892
Si Si3 0.996032 0.375569 0.626164
Si Si4 0.768558 0.906555 0.648848
Si Si5 0.508275 0.305059 0.318685
Si Si6 0.956463 0.715325 0.952562
Si Si7 0.258066 0.585193 0.245755
O O1 0.250000 0.750000 0.500000
O O2 0.267897 0.600171 0.522348
O O3 0.288121 0.648500 0.288752
O O4 0.073708 0.659770 0.735548
O O5 0.646435 0.112185 0.117720
O O6 0.770125 0.098048 0.102198
O O7 0.811902 0.000000 0.882728
O O8 0.884660 0.157726 0.776371
O O9 0.029398 0.281349 0.577170
O O10 0.000000 0.403983 0.500000
O O11 0.110531 0.420062 0.496103
O O12 0.897750 0.868722 0.484299
O O13 0.751522 0.000000 0.706863
O O14 0.661588 0.843438 0.851820
O O15 0.549715 0.279937 0.133167
O O16 0.000000 0.744227 0.000000
O O17 0.319650 0.500000 0.172595
#
# Coordination Sequence:
#
# PCOD9199785 Si02
#       7
#     8   8   8   8   8   8   8
#     4  11  20  39  62  94 128 169 212 258 308 382
#     4  10  23  39  61  91 126 161 207 271 325 372
#     4  10  21  39  64  90 119 158 216 265 313 373
#     4  11  25  42  63  95 136 168 206 265 320 376
#     4  12  23  41  67  91 125 172 212 253 323 388
#     4  10  24  38  65  92 128 168 217 252 308 382
#     4  10  20  36  61  91 123 157 207 266 318 369
#
# _framework density 24.512284000000001
#
# number of rings (size 3 to 8) (size 9 to 14) (size 15 to 20)
#    0.000    1.429    2.857    1.714    8.000    4.857 
#    0.000    0.000    0.000    4.286    0.000    0.000 
#    0.000    0.000    0.000    0.000    0.000    0.000 
#
# Total GULP energy -156320.475868 kJ/mol
# GULP energy per Si atom -5582.874138 kJ/mol
# Density = 2.445649 g / cm^3
# Si number density = 24.512284 Si / 1000 Ang^3
#
#
#
# Elastic Constant Matrix: (Units=GPa)
#
#
# Indices 1 2 3 4 5 6 
#
# 1 43.7563 6.3983 -6.2228 0.0000 23.7969 0.0000
# 2 6.3983 132.2815 20.6437 0.0000 -19.8735 0.0000
# 3 -6.2228 20.6437 52.9155 0.0000 -7.1915 0.0000
# 4 0.0000 0.0000 0.0000 17.5519 0.0000 -9.0781
# 5 23.7969 -19.8735 -7.1915 0.0000 34.0463 0.0000
# 6 0.0000 0.0000 0.0000 -9.0781 0.0000 16.0160
#
#
#
# Elastic Compliance Matrix: (Units=1/GPa)
#
#
# Indices 1 2 3 4 5 6 
#
# 1 0.042748 -0.007656 0.003445 0.000000 -0.033620 0.000000
# 2 -0.007656 0.010035 -0.003389 0.000000 0.010493 0.000000
# 3 0.003445 -0.003389 0.020621 0.000000 -0.000030 0.000000
# 4 0.000000 0.000000 0.000000 0.080604 0.000000 0.045687
# 5 -0.033620 0.010493 -0.000030 0.000000 0.058990 0.000000
# 6 0.000000 0.000000 0.000000 0.045687 0.000000 0.088334
#
#
# Mechanical properties :
#
#
# Convention : Reuss Voigt Hill
#
# Bulk Modulus (GPa) = 17.18131 30.06575 23.62353
# Shear Modulus (GPa) = 14.88386 27.39845 21.14115
#
# Velocity S-wave (km/s) = 2.46682 3.34689 2.93997
# Velocity P-wave (km/s) = 3.89077 5.21803 4.60249
#
# Compressibility (1/GPa) = 0.05820279
#
# Stress axis : x y z
#
# Youngs Moduli (GPa) = 23.39306 99.64751 48.49358
#
# Poissons Ratio (x) = 0.76293 -0.16705
# Poissons Ratio (y) = 0.17910 0.16436
# Poissons Ratio (z) = -0.08058 0.33774
#
# Static dielectric constant tensor:
#      x y z
#    x 2.005500 0.000000 0.039780 
#    y 0.000000 1.928040 0.000000 
#    z 0.039780 0.000000 2.010050 
# 
# From -- ./inp_files/240884.got.cif
#   From: 2010.05.17/outbox.cif.g08.bks.cpg/sg12_121_cif.got.tgz:240884.got - 2010.06.03 13:09:07.
