data_PCOD9199142
_publ_section_title
;
Structure prediction by ZEFSAII (Michael W. Deem and Ramdas Pophale) SiO2 
 PCOD9199142
Probable space group: C 2/M
;
_chemical_formula_sum "Si O2"
_cell_formula_units_Z 48
_cell_length_a 9.530481
_cell_length_b 16.829611
_cell_length_c 16.930793
_cell_angle_alpha 90.000000
_cell_angle_beta 121.403154
_cell_angle_gamma 90.000000
_cell_volume 2317.826779
_symmetry_space_group_name_H-M "C 2/M"
_symmetry_group_IT_number 12
_symmetry_cell_setting 'monoclinic'
loop_
_space_group_symop_operation_xyz
x,y,z
-x,y,-z
-x,-y,-z
x,-y,z
1/2+x,1/2+y,z
1/2-x,1/2+y,-z
1/2-x,1/2-y,-z
1/2+x,1/2-y,z
loop_
_atom_site_type_symbol
_atom_site_label
_atom_site_fract_x
_atom_site_fract_y
_atom_site_fract_z
Si Si1 0.559262 0.249966 0.928834
Si Si2 0.662714 0.354996 0.511397
Si Si3 0.016641 0.714311 0.362867
Si Si4 0.578511 0.087096 0.111361
Si Si5 0.945542 0.849027 0.219132
Si Si6 0.780382 0.411620 0.379799
O O1 0.503130 0.165492 0.876499
O O2 0.511796 0.318857 0.855528
O O3 0.500000 0.260396 0.000000
O O4 0.750000 0.250000 0.000000
O O5 0.500000 0.396548 0.500000
O O6 0.812130 0.329102 0.612913
O O7 0.581189 0.277263 0.446918
O O8 0.757785 0.397536 0.467074
O O9 0.938275 0.769763 0.272207
O O10 0.891388 0.653932 0.368151
O O11 0.772221 0.106074 0.166218
O O12 0.549330 0.000000 0.138678
O O13 0.500000 0.084901 0.000000
O O14 0.094576 0.901190 0.294486
O O15 0.843429 0.500000 0.383257
#
# Coordination Sequence:
#
# PCOD9199142 Si02
#       6
#     8   8   8   8   8   8
#     4  11  21  39  64  93 119 160 213 259 306 368
#     4  10  20  38  62  92 122 163 211 248 302 372
#     4  10  21  38  63  90 123 161 210 259 303 364
#     4  10  20  36  59  86 119 159 200 255 316 364
#     4  11  21  39  65  89 122 163 217 257 300 375
#     4  11  24  39  62  95 129 164 201 257 318 362
#
# _framework density 20.709053999999998
#
# number of rings (size 3 to 8) (size 9 to 14) (size 15 to 20)
#    0.000    1.500    3.333    5.000    0.000    3.000 
#    0.000    0.833    0.000    2.500    0.000    0.000 
#    0.000    0.000    0.000    0.000    0.000    0.000 
#
# Total GULP energy -133875.797314 kJ/mol
# GULP energy per Si atom -5578.158221 kJ/mol
# Density = 2.066192 g / cm^3
# Si number density = 20.709054 Si / 1000 Ang^3
#
#
#
# Elastic Constant Matrix: (Units=GPa)
#
#
# Indices 1 2 3 4 5 6 
#
# 1 98.9032 13.0579 19.6522 0.0000 12.9776 0.0000
# 2 13.0579 74.4437 12.4646 0.0000 -0.4890 0.0000
# 3 19.6522 12.4646 78.4398 0.0000 17.2495 0.0000
# 4 0.0000 0.0000 0.0000 4.8532 0.0000 -4.4858
# 5 12.9776 -0.4890 17.2495 0.0000 40.3609 0.0000
# 6 0.0000 0.0000 0.0000 -4.4858 0.0000 18.0302
#
#
#
# Elastic Compliance Matrix: (Units=1/GPa)
#
#
# Indices 1 2 3 4 5 6 
#
# 1 0.011069 -0.001641 -0.001904 0.000000 -0.002765 0.000000
# 2 -0.001641 0.014098 -0.002188 0.000000 0.001634 0.000000
# 3 -0.001904 -0.002188 0.014839 0.000000 -0.005756 0.000000
# 4 0.000000 0.000000 0.000000 0.267584 0.000000 0.066574
# 5 -0.002765 0.001634 -0.005756 0.000000 0.028145 0.000000
# 6 0.000000 0.000000 0.000000 0.066574 0.000000 0.072026
#
#
# Mechanical properties :
#
#
# Convention : Reuss Voigt Hill
#
# Bulk Modulus (GPa) = 35.04001 38.01511 36.52756
# Shear Modulus (GPa) = 11.66204 26.42299 19.04251
#
# Velocity S-wave (km/s) = 2.37563 3.57587 3.03566
# Velocity P-wave (km/s) = 4.94790 5.95363 5.47391
#
# Compressibility (1/GPa) = 0.02853880
#
# Stress axis : x y z
#
# Youngs Moduli (GPa) = 90.34453 70.93238 67.38840
#
# Poissons Ratio (x) = 0.11639 0.12833
# Poissons Ratio (y) = 0.14824 0.14747
# Poissons Ratio (z) = 0.17205 0.15523
#
# Static dielectric constant tensor:
#      x y z
#    x 1.760290 0.000000 0.000520 
#    y 0.000000 1.781720 0.000000 
#    z 0.000520 0.000000 1.729280 
# 
# From -- ./inp_files/256717.got.cif
#   From: 2010.05.17/outbox.cif.g08.bks.cpg/sg12_129_cif.got.tgz:256717.got - 2010.06.03 13:09:07.
