data_PCOD9199235
_publ_section_title
;
Structure prediction by ZEFSAII (Michael W. Deem and Ramdas Pophale) SiO2 
 PCOD9199235
Probable space group: C 2/M
;
_chemical_formula_sum "Si O2"
_cell_formula_units_Z 64
_cell_length_a 9.799070
_cell_length_b 25.079419
_cell_length_c 14.848421
_cell_angle_alpha 90.000000
_cell_angle_beta 64.683721
_cell_angle_gamma 90.000000
_cell_volume 3298.620410
_symmetry_space_group_name_H-M "C 2/M"
_symmetry_group_IT_number 12
_symmetry_cell_setting 'monoclinic'
loop_
_space_group_symop_operation_xyz
x,y,z
-x,y,-z
-x,-y,-z
x,-y,z
1/2+x,1/2+y,z
1/2-x,1/2+y,-z
1/2-x,1/2-y,-z
1/2+x,1/2-y,z
loop_
_atom_site_type_symbol
_atom_site_label
_atom_site_fract_x
_atom_site_fract_y
_atom_site_fract_z
Si Si1 0.027417 0.562199 0.252261
Si Si2 0.706276 0.357710 0.859481
Si Si3 0.686461 0.231423 0.663590
Si Si4 0.343967 0.257639 0.798182
Si Si5 0.367165 0.937285 0.108041
Si Si6 0.676885 0.170923 0.478362
Si Si7 0.863469 0.859597 0.910728
Si Si8 0.847077 0.557749 0.485097
O O1 0.080517 0.500000 0.237129
O O2 0.164924 0.603857 0.217287
O O3 0.936302 0.572084 0.186545
O O4 0.911323 0.567657 0.367153
O O5 0.745416 0.295505 0.837098
O O6 0.543262 0.367750 0.861898
O O7 0.692649 0.366803 0.970791
O O8 0.515341 0.237366 0.743943
O O9 0.792645 0.216692 0.717444
O O10 0.693354 0.192908 0.575295
O O11 0.739871 0.288851 0.611428
O O12 0.328766 0.300820 0.881341
O O13 0.224192 0.901621 0.125747
O O14 0.332088 0.000000 0.108401
O O15 0.500000 0.924156 0.000000
O O16 0.500000 0.171358 0.500000
O O17 0.736076 0.110524 0.458265
O O18 0.769925 0.500000 0.512021
O O19 0.000000 0.554298 0.500000
#
# Coordination Sequence:
#
# PCOD9199235 Si02
#       8
#     8   8   8   8   8   8   8   8
#     4  10  21  38  64  92 121 162 207 249 302 365
#     4  11  24  41  58  87 125 161 203 255 305 363
#     4  11  23  38  61  85 115 164 200 250 306 361
#     4  12  24  41  58  86 122 159 208 250 307 365
#     4  10  21  40  63  91 121 156 204 252 298 359
#     4  10  20  36  59  88 122 149 198 253 300 364
#     4  11  25  39  59  88 122 162 204 251 313 357
#     4   9  19  34  57  91 122 151 191 247 307 360
#
# _framework density 19.402052000000001
#
# number of rings (size 3 to 8) (size 9 to 14) (size 15 to 20)
#    0.000    1.500    3.750    1.125    5.250    0.500 
#    2.250    1.250    0.000    0.750    0.000    0.875 
#    0.000    0.500    0.000    0.000    0.000    0.000 
#
# Total GULP energy -178741.542725 kJ/mol
# GULP energy per Si atom -5585.673210 kJ/mol
# Density = 1.935789 g / cm^3
# Si number density = 19.402052 Si / 1000 Ang^3
#
#
#
# Elastic Constant Matrix: (Units=GPa)
#
#
# Indices 1 2 3 4 5 6 
#
# 1 57.5466 38.0200 0.1599 0.0000 4.8118 0.0000
# 2 38.0200 101.7405 -0.5086 0.0000 -2.1973 0.0000
# 3 0.1599 -0.5086 26.6177 0.0000 16.2981 0.0000
# 4 0.0000 0.0000 0.0000 23.6603 0.0000 1.4223
# 5 4.8118 -2.1973 16.2981 0.0000 27.5763 0.0000
# 6 0.0000 0.0000 0.0000 1.4223 0.0000 24.6969
#
#
#
# Elastic Compliance Matrix: (Units=1/GPa)
#
#
# Indices 1 2 3 4 5 6 
#
# 1 0.024003 -0.009109 0.004216 0.000000 -0.007406 0.000000
# 2 -0.009109 0.013306 -0.002058 0.000000 0.003866 0.000000
# 3 0.004216 -0.002058 0.059637 0.000000 -0.036146 0.000000
# 4 0.000000 0.000000 0.000000 0.042412 0.000000 -0.002442
# 5 -0.007406 0.003866 -0.036146 0.000000 0.059226 0.000000
# 6 0.000000 0.000000 0.000000 -0.002442 0.000000 0.040632
#
#
# Mechanical properties :
#
#
# Convention : Reuss Voigt Hill
#
# Bulk Modulus (GPa) = 12.04172 29.02749 20.53461
# Shear Modulus (GPa) = 17.80646 25.06892 21.43769
#
# Velocity S-wave (km/s) = 3.03274 3.59844 3.32764
# Velocity P-wave (km/s) = 4.29922 5.67966 5.03696
#
# Compressibility (1/GPa) = 0.08304459
#
# Stress axis : x y z
#
# Youngs Moduli (GPa) = 41.66216 75.15431 16.76822
#
# Poissons Ratio (x) = 0.68455 -0.07070
# Poissons Ratio (y) = 0.37948 0.03451
# Poissons Ratio (z) = -0.17567 0.15468
#
# Static dielectric constant tensor:
#      x y z
#    x 1.647120 0.000000 0.014990 
#    y 0.000000 1.703830 0.000000 
#    z 0.014990 0.000000 1.661780 
# 
# From -- ./inp_files/199773.got.cif
#   From: 2010.05.17/outbox.cif.g08.bks.cpg/sg12_100_cif.got.tgz:199773.got - 2010.06.03 13:09:07.
