data_PCOD9199293
_publ_section_title
;
Structure prediction by ZEFSAII (Michael W. Deem and Ramdas Pophale) SiO2 
 PCOD9199293
Probable space group: C 2/M
;
_chemical_formula_sum "Si O2"
_cell_formula_units_Z 58
_cell_length_a 28.950322
_cell_length_b 7.935265
_cell_length_c 27.017860
_cell_angle_alpha 90.000000
_cell_angle_beta 154.630137
_cell_angle_gamma 90.000000
_cell_volume 2659.353016
_symmetry_space_group_name_H-M "C 2/M"
_symmetry_group_IT_number 12
_symmetry_cell_setting 'monoclinic'
loop_
_space_group_symop_operation_xyz
x,y,z
-x,y,-z
-x,-y,-z
x,-y,z
1/2+x,1/2+y,z
1/2-x,1/2+y,-z
1/2-x,1/2-y,-z
1/2+x,1/2-y,z
loop_
_atom_site_type_symbol
_atom_site_label
_atom_site_fract_x
_atom_site_fract_y
_atom_site_fract_z
Si Si1 0.500000 0.500000 0.000000
Si Si2 0.647434 0.186949 0.174677
Si Si3 0.651793 0.298733 0.870651
Si Si4 0.360747 0.312541 0.729142
Si Si5 0.861116 0.805700 0.515151
Si Si6 0.895460 0.798471 0.282574
Si Si7 0.878349 0.693726 0.373919
Si Si8 0.081004 0.307412 0.323320
O O1 0.592774 0.347408 0.095278
O O2 0.610287 0.198813 0.196085
O O3 0.777313 0.211350 0.299634
O O4 0.623800 0.000000 0.131537
O O5 0.630835 0.500000 0.852146
O O6 0.669014 0.255429 0.829706
O O7 0.545103 0.207309 0.786293
O O8 0.750000 0.250000 0.000000
O O9 0.398571 0.500000 0.778226
O O10 0.232002 0.306026 0.597731
O O11 0.402235 0.261486 0.715350
O O12 0.862813 0.786916 0.576405
O O13 0.979376 0.762213 0.609446
O O14 0.838387 0.000000 0.480956
O O15 0.861301 0.704140 0.298456
O O16 0.886720 0.000000 0.282672
O O17 0.878282 0.500000 0.391151
O O18 0.000000 0.763145 0.500000
O O19 0.117204 0.500000 0.359776
#
# Coordination Sequence:
#
# PCOD9199293 Si02
#       8
#     2   8   8   8   8   8   8   8
#     4  12  26  56  70  98 132 176 234 294 340 398
#     4  12  26  48  75  99 134 180 227 286 347 406
#     4  10  21  40  60  85 119 158 205 261 313 373
#     4  12  23  40  62  93 128 165 214 265 322 391
#     4  10  20  36  59  91 132 171 206 257 322 391
#     4   9  20  37  59  89 124 163 208 255 322 398
#     4  11  23  41  67 103 140 173 219 281 345 413
#     4  11  22  37  58  88 124 166 213 257 316 382
#
# _framework density 21.809816999999999
#
# number of rings (size 3 to 8) (size 9 to 14) (size 15 to 20)
#    0.000    1.241    1.379    6.000    0.000    6.621 
#    2.483    0.000    0.000    0.000    0.000    0.000 
#    0.000    0.000    0.000    0.000    0.000    0.000 
#
# Total GULP energy -161869.937232 kJ/mol
# GULP energy per Si atom -5581.721974 kJ/mol
# Density = 2.176018 g / cm^3
# Si number density = 21.809817 Si / 1000 Ang^3
#
#
#
# Elastic Constant Matrix: (Units=GPa)
#
#
# Indices 1 2 3 4 5 6 
#
# 1 92.3684 15.6423 0.9370 0.0000 -13.5196 0.0000
# 2 15.6423 111.5298 12.5198 0.0000 6.1493 0.0000
# 3 0.9370 12.5198 69.5838 0.0000 3.4609 0.0000
# 4 0.0000 0.0000 0.0000 17.7776 0.0000 2.8869
# 5 -13.5196 6.1493 3.4609 0.0000 17.3944 0.0000
# 6 0.0000 0.0000 0.0000 2.8869 0.0000 26.1282
#
#
#
# Elastic Compliance Matrix: (Units=1/GPa)
#
#
# Indices 1 2 3 4 5 6 
#
# 1 0.012818 -0.002364 -0.000287 0.000000 0.010856 0.000000
# 2 -0.002364 0.009738 -0.001472 0.000000 -0.004987 0.000000
# 3 -0.000287 -0.001472 0.014771 0.000000 -0.002642 0.000000
# 4 0.000000 0.000000 0.000000 0.057278 0.000000 -0.006329
# 5 0.010856 -0.004987 -0.002642 0.000000 0.068216 0.000000
# 6 0.000000 0.000000 0.000000 -0.006329 0.000000 0.038972
#
#
# Mechanical properties :
#
#
# Convention : Reuss Voigt Hill
#
# Bulk Modulus (GPa) = 34.38709 36.85335 35.62022
# Shear Modulus (GPa) = 22.75470 28.55223 25.65347
#
# Velocity S-wave (km/s) = 3.23356 3.62214 3.43335
# Velocity P-wave (km/s) = 5.45364 5.86749 5.66435
#
# Compressibility (1/GPa) = 0.02908068
#
# Stress axis : x y z
#
# Youngs Moduli (GPa) = 78.01272 102.69021 67.69884
#
# Poissons Ratio (x) = 0.24277 0.01944
# Poissons Ratio (y) = 0.18443 0.09967
# Poissons Ratio (z) = 0.02240 0.15118
#
# Static dielectric constant tensor:
#      x y z
#    x 1.797210 0.000000 -0.016570 
#    y 0.000000 1.797860 0.000000 
#    z -0.016570 0.000000 1.803300 
# 
# From -- ./inp_files/351462.got.cif
#   From: 2010.05.17/outbox.cif.g08.bks.cpg/sg12_176_cif.got.tgz:351462.got - 2010.06.03 13:09:07.
