data_PCOD9199826
_publ_section_title
;
Structure prediction by ZEFSAII (Michael W. Deem and Ramdas Pophale) SiO2 
 PCOD9199826
Probable space group: C 2/M
;
_chemical_formula_sum "Si O2"
_cell_formula_units_Z 44
_cell_length_a 14.219538
_cell_length_b 11.400322
_cell_length_c 15.011616
_cell_angle_alpha 90.000000
_cell_angle_beta 128.252571
_cell_angle_gamma 90.000000
_cell_volume 1910.995427
_symmetry_space_group_name_H-M "C 2/M"
_symmetry_group_IT_number 12
_symmetry_cell_setting 'monoclinic'
loop_
_space_group_symop_operation_xyz
x,y,z
-x,y,-z
-x,-y,-z
x,-y,z
1/2+x,1/2+y,z
1/2-x,1/2+y,-z
1/2-x,1/2-y,-z
1/2+x,1/2-y,z
loop_
_atom_site_type_symbol
_atom_site_label
_atom_site_fract_x
_atom_site_fract_y
_atom_site_fract_z
Si Si1 0.500000 0.801897 0.500000
Si Si2 0.023832 0.500000 0.641911
Si Si3 0.365931 0.500000 0.983749
Si Si4 0.910900 0.500000 0.114802
Si Si5 0.099193 0.800253 0.327175
Si Si6 0.311150 0.366729 0.427480
Si Si7 0.606066 0.256934 0.915234
Si Si8 0.799485 0.000000 0.741485
O O1 0.611057 0.718958 0.588452
O O2 0.466099 0.885757 0.562540
O O3 0.032031 0.500000 0.752385
O O4 0.157735 0.500000 0.678204
O O5 0.421176 0.375626 0.046520
O O6 0.646184 0.500000 0.128602
O O7 0.231965 0.500000 0.948098
O O8 0.937497 0.625238 0.083689
O O9 0.179324 0.684123 0.362642
O O10 0.123065 0.853963 0.438114
O O11 0.961994 0.778814 0.218626
O O12 0.157645 0.889665 0.290621
O O13 0.311690 0.500000 0.398017
O O14 0.750000 0.250000 0.000000
#
# Coordination Sequence:
#
# PCOD9199826 Si02
#       8
#     4   4   4   4   8   8   8   4
#     4  11  21  38  62  88 127 165 218 258 310 379
#     4  10  20  36  61  93 119 166 211 256 314 382
#     4   9  21  37  68  91 123 158 221 257 321 368
#     4   9  19  37  63  88 127 159 208 257 320 377
#     4  11  23  39  65  93 129 167 217 258 322 380
#     4  11  24  40  61  94 131 172 208 265 322 383
#     4  10  21  40  62  96 126 167 210 266 314 385
#     4  11  20  42  66  93 123 166 210 275 304 388
#
# _framework density 23.024650999999999
#
# number of rings (size 3 to 8) (size 9 to 14) (size 15 to 20)
#    0.000    1.636    2.727    1.909    1.273    1.455 
#    1.636    0.000    2.000    1.091    0.000    0.000 
#    0.000    0.000    0.000    0.000    0.000    0.000 
#
# Total GULP energy -122893.494958 kJ/mol
# GULP energy per Si atom -5586.067953 kJ/mol
# Density = 2.297225 g / cm^3
# Si number density = 23.024651 Si / 1000 Ang^3
#
#
#
# Elastic Constant Matrix: (Units=GPa)
#
#
# Indices 1 2 3 4 5 6 
#
# 1 59.4117 23.3305 14.7314 0.0000 10.0042 0.0000
# 2 23.3305 217.2042 32.1236 0.0000 -9.9306 0.0000
# 3 14.7314 32.1236 115.8069 0.0000 11.5735 0.0000
# 4 0.0000 0.0000 0.0000 24.8534 0.0000 2.4537
# 5 10.0042 -9.9306 11.5735 0.0000 35.5571 0.0000
# 6 0.0000 0.0000 0.0000 2.4537 0.0000 16.1896
#
#
#
# Elastic Compliance Matrix: (Units=1/GPa)
#
#
# Indices 1 2 3 4 5 6 
#
# 1 0.018893 -0.002092 -0.001275 0.000000 -0.005485 0.000000
# 2 -0.002092 0.005151 -0.001411 0.000000 0.002486 0.000000
# 3 -0.001275 -0.001411 0.009501 0.000000 -0.003128 0.000000
# 4 0.000000 0.000000 0.000000 0.040847 0.000000 -0.006191
# 5 -0.005485 0.002486 -0.003128 0.000000 0.031379 0.000000
# 6 0.000000 0.000000 0.000000 -0.006191 0.000000 0.062706
#
#
# Mechanical properties :
#
#
# Convention : Reuss Voigt Hill
#
# Bulk Modulus (GPa) = 41.68487 59.19933 50.44210
# Shear Modulus (GPa) = 26.87739 36.80252 31.83995
#
# Velocity S-wave (km/s) = 3.42033 4.00233 3.72272
# Velocity P-wave (km/s) = 5.80878 6.86479 6.35874
#
# Compressibility (1/GPa) = 0.02398952
#
# Stress axis : x y z
#
# Youngs Moduli (GPa) = 52.93045 194.13640 105.24844
#
# Poissons Ratio (x) = 0.40604 0.13419
# Poissons Ratio (y) = 0.11070 0.14853
# Poissons Ratio (z) = 0.06749 0.27398
#
# Static dielectric constant tensor:
#      x y z
#    x 1.850570 0.000000 0.033820 
#    y 0.000000 1.910650 0.000000 
#    z 0.033820 0.000000 1.879320 
# 
# From -- ./inp_files/269037.got.cif
#   From: 2010.05.17/outbox.cif.g08.bks.cpg/sg12_135_cif.got.tgz:269037.got - 2010.06.03 13:09:07.
