data_PCOD9199962
_publ_section_title
;
Structure prediction by ZEFSAII (Michael W. Deem and Ramdas Pophale) SiO2 
 PCOD9199962
Probable space group: C 2/M
;
_chemical_formula_sum "Si O2"
_cell_formula_units_Z 48
_cell_length_a 12.269822
_cell_length_b 12.231930
_cell_length_c 20.732765
_cell_angle_alpha 90.000000
_cell_angle_beta 48.285522
_cell_angle_gamma 90.000000
_cell_volume 2322.752142
_symmetry_space_group_name_H-M "C 2/M"
_symmetry_group_IT_number 12
_symmetry_cell_setting 'monoclinic'
loop_
_space_group_symop_operation_xyz
x,y,z
-x,y,-z
-x,-y,-z
x,-y,z
1/2+x,1/2+y,z
1/2-x,1/2+y,-z
1/2-x,1/2-y,-z
1/2+x,1/2-y,z
loop_
_atom_site_type_symbol
_atom_site_label
_atom_site_fract_x
_atom_site_fract_y
_atom_site_fract_z
Si Si1 0.300615 0.500000 0.814508
Si Si2 0.660524 0.624219 0.966244
Si Si3 0.298159 0.190497 0.235999
Si Si4 0.566546 0.123414 0.335157
Si Si5 0.246318 0.123865 0.402052
Si Si6 0.500000 0.206018 0.500000
Si Si7 0.893700 0.192123 0.866715
O O1 0.205230 0.596276 0.815426
O O2 0.394798 0.596703 0.814141
O O3 0.705751 0.500000 0.932668
O O4 0.773403 0.715407 0.898877
O O5 0.500000 0.642734 0.000000
O O6 0.650438 0.637960 0.047472
O O7 0.180127 0.285113 0.269056
O O8 0.252934 0.136545 0.322217
O O9 0.453353 0.247547 0.183982
O O10 0.407813 0.141983 0.366328
O O11 0.549499 0.136620 0.419150
O O12 0.613613 0.000000 0.300777
O O13 0.130981 0.213777 0.470544
O O14 0.201277 0.000000 0.437070
#
# Coordination Sequence:
#
# PCOD9199962 Si02
#       7
#     4   8   8   8   8   4   8
#     4  12  24  44  66  97 133 168 224 271 317 407
#     4  10  22  43  66  94 132 168 215 269 330 394
#     4  11  24  41  64  94 131 171 222 268 333 391
#     4  10  22  39  63  91 128 170 214 273 330 395
#     4  10  20  38  59  88 128 166 211 266 326 394
#     4  10  20  36  62  92 124 165 219 266 330 396
#     4  11  24  42  66 100 127 174 219 273 330 392
#
# _framework density 20.665140000000001
#
# number of rings (size 3 to 8) (size 9 to 14) (size 15 to 20)
#    0.000    1.500    1.667    3.000    2.333    0.000 
#    0.000    6.250    9.167    0.000    0.000    0.000 
#    0.000    0.000    0.000    0.000    0.000    0.000 
#
# Total GULP energy -133638.677621 kJ/mol
# GULP energy per Si atom -5568.278234 kJ/mol
# Density = 2.061811 g / cm^3
# Si number density = 20.665140 Si / 1000 Ang^3
#
#
#
# Elastic Constant Matrix: (Units=GPa)
#
#
# Indices 1 2 3 4 5 6 
#
# 1 101.0060 77.4971 1.9981 0.0000 -15.5001 0.0000
# 2 77.4971 188.7345 28.7797 0.0000 -34.5184 0.0000
# 3 1.9981 28.7797 26.2848 0.0000 -8.5420 0.0000
# 4 0.0000 0.0000 0.0000 1.4161 0.0000 9.6184
# 5 -15.5001 -34.5184 -8.5420 0.0000 26.1985 0.0000
# 6 0.0000 0.0000 0.0000 9.6184 0.0000 54.3176
#
#
#
# Elastic Compliance Matrix: (Units=1/GPa)
#
#
# Indices 1 2 3 4 5 6 
#
# 1 0.015533 -0.007082 0.007301 0.000000 0.002240 0.000000
# 2 -0.007082 0.010910 -0.009057 0.000000 0.007232 0.000000
# 3 0.007301 -0.009057 0.050258 -0.000001 0.008773 0.000000
# 4 0.000000 0.000000 -0.000001 -3.483153 0.000000 0.616786
# 5 0.002240 0.007232 0.008773 0.000000 0.051884 0.000000
# 6 0.000000 0.000000 0.000000 0.616786 0.000000 -0.090808
#
#
# Mechanical properties :
#
#
# Convention : Reuss Voigt Hill
#
# Bulk Modulus (GPa) = 16.94186 59.17500 38.05843
# Shear Modulus (GPa) = -1.46713 30.23646 14.38467
#
# Velocity S-wave (km/s) = -0.84350 3.82928 2.64120
# Velocity P-wave (km/s) = 2.69582 6.94612 5.26858
#
# Compressibility (1/GPa) = 0.05902539
#
# Stress axis : x y z
#
# Youngs Moduli (GPa) = 64.37792 91.65789 19.89747
#
# Poissons Ratio (x) = 0.64911 -0.14528
# Poissons Ratio (y) = 0.45592 0.18021
# Poissons Ratio (z) = -0.47004 0.83016
#
# Static dielectric constant tensor:
#      x y z
#    x 1.727610 0.000000 0.046850 
#    y 0.000000 1.691920 0.000000 
#    z 0.046850 0.000000 1.761260 
# 
# From -- ./inp_files/335094.got.cif
#   From: 2010.05.17/outbox.cif.g08.bks.cpg/sg12_168_cif.got.tgz:335094.got - 2010.06.03 13:09:07.
