data_PCOD9199060
_publ_section_title
;
Structure prediction by ZEFSAII (Michael W. Deem and Ramdas Pophale) SiO2 
 PCOD9199060
Probable space group: C 2/M
;
_chemical_formula_sum "Si O2"
_cell_formula_units_Z 56
_cell_length_a 19.087602
_cell_length_b 8.412712
_cell_length_c 30.001789
_cell_angle_alpha 90.000000
_cell_angle_beta 142.301499
_cell_angle_gamma 90.000000
_cell_volume 2946.018764
_symmetry_space_group_name_H-M "C 2/M"
_symmetry_group_IT_number 12
_symmetry_cell_setting 'monoclinic'
loop_
_space_group_symop_operation_xyz
x,y,z
-x,y,-z
-x,-y,-z
x,-y,z
1/2+x,1/2+y,z
1/2-x,1/2+y,-z
1/2-x,1/2-y,-z
1/2+x,1/2-y,z
loop_
_atom_site_type_symbol
_atom_site_label
_atom_site_fract_x
_atom_site_fract_y
_atom_site_fract_z
Si Si1 0.302611 0.193276 0.206639
Si Si2 0.958078 0.194353 0.929995
Si Si3 0.344056 0.686836 0.633898
Si Si4 0.089234 0.811463 0.507098
Si Si5 0.963772 0.690851 0.206471
Si Si6 0.492293 0.811000 0.628112
Si Si7 0.379759 0.309309 0.069228
O O1 0.172205 0.247932 0.144063
O O2 0.363327 0.239267 0.190727
O O3 0.387842 0.242776 0.289195
O O4 0.301461 0.000000 0.206678
O O5 0.044485 0.245562 0.934750
O O6 0.957354 0.000000 0.929542
O O7 0.000000 0.244222 0.000000
O O8 0.359089 0.500000 0.634181
O O9 0.211579 0.727556 0.573014
O O10 0.419622 0.740494 0.714159
O O11 0.396468 0.776584 0.617396
O O12 0.038165 0.774493 0.432845
O O13 0.000000 0.758457 0.500000
O O14 0.107107 0.000000 0.520906
O O15 0.970145 0.500000 0.210115
O O16 0.934737 0.749983 0.142859
O O17 0.497190 0.000000 0.622773
O O18 0.379163 0.500000 0.068755
O O19 0.250000 0.250000 0.000000
#
# Coordination Sequence:
#
# PCOD9199060 Si02
#       7
#     8   8   8   8   8   8   8
#     4   8  16  32  55  81 106 137 180 228 273 322
#     4   9  17  31  53  80 107 140 185 230 270 319
#     4  11  22  38  61  86 114 149 190 232 279 342
#     4  11  24  40  57  81 115 151 190 240 292 336
#     4  10  20  37  60  84 112 144 181 229 282 335
#     4  10  20  36  59  85 114 149 190 234 284 344
#     4  11  22  35  55  82 112 147 186 231 281 335
#
# _framework density 19.008706
#
# number of rings (size 3 to 8) (size 9 to 14) (size 15 to 20)
#    0.000    2.000    0.000    5.143    0.000    4.571 
#    0.000    1.429    0.000   15.429    0.000    0.000 
#    0.000    0.000    0.000    0.000    0.000    0.000 
#
# Total GULP energy -156418.181886 kJ/mol
# GULP energy per Si atom -5586.363639 kJ/mol
# Density = 1.896544 g / cm^3
# Si number density = 19.008706 Si / 1000 Ang^3
#
#
#
# Elastic Constant Matrix: (Units=GPa)
#
#
# Indices 1 2 3 4 5 6 
#
# 1 114.9173 -2.5633 96.3497 0.0000 8.3066 0.0001
# 2 -2.5633 23.2348 0.9556 0.0000 3.1131 0.0002
# 3 96.3497 0.9556 136.8439 0.0000 2.8276 0.0000
# 4 0.0000 0.0000 0.0000 29.7786 0.0000 -4.6914
# 5 8.3066 3.1131 2.8276 0.0000 36.2627 0.0000
# 6 0.0001 0.0002 0.0000 -4.6914 0.0000 20.4631
#
#
#
# Elastic Compliance Matrix: (Units=1/GPa)
#
#
# Indices 1 2 3 4 5 6 
#
# 1 0.022048 0.003625 -0.015463 0.000000 -0.004156 0.000000
# 2 0.003625 0.044143 -0.002770 0.000000 -0.004404 -0.000001
# 3 -0.015463 -0.002770 0.018165 0.000000 0.002363 0.000000
# 4 0.000000 0.000000 0.000000 0.034840 0.000000 0.007987
# 5 -0.004156 -0.004404 0.002363 0.000000 0.028722 0.000000
# 6 0.000000 -0.000001 0.000000 0.007987 0.000000 0.050700
#
#
# Mechanical properties :
#
#
# Convention : Reuss Voigt Hill
#
# Bulk Modulus (GPa) = 18.13534 51.60887 34.87211
# Shear Modulus (GPa) = 20.30770 29.31782 24.81276
#
# Velocity S-wave (km/s) = 3.27209 3.93152 3.61686
# Velocity P-wave (km/s) = 4.88228 6.91507 5.98560
#
# Compressibility (1/GPa) = 0.05514096
#
# Stress axis : x y z
#
# Youngs Moduli (GPa) = 45.35642 22.65376 55.05024
#
# Poissons Ratio (x) = -0.08212 0.85123
# Poissons Ratio (y) = -0.16442 0.15247
# Poissons Ratio (z) = 0.70134 0.06274
#
# Static dielectric constant tensor:
#      x y z
#    x 1.625660 0.000000 0.007700 
#    y 0.000000 1.650830 0.000000 
#    z 0.007700 0.000000 1.636480 
# 
# From -- ./inp_files/363222.got.cif
#   From: 2010.05.17/outbox.cif.g08.bks.cpg/sg12_182_cif.got.tgz:363222.got - 2010.06.03 13:09:07.
