data_PCOD9199950
_publ_section_title
;
Structure prediction by ZEFSAII (Michael W. Deem and Ramdas Pophale) SiO2 
 PCOD9199950
Probable space group: C 2/M
;
_chemical_formula_sum "Si O2"
_cell_formula_units_Z 42
_cell_length_a 7.490756
_cell_length_b 18.536145
_cell_length_c 17.007380
_cell_angle_alpha 90.000000
_cell_angle_beta 124.608395
_cell_angle_gamma 90.000000
_cell_volume 1943.615574
_symmetry_space_group_name_H-M "C 2/M"
_symmetry_group_IT_number 12
_symmetry_cell_setting 'monoclinic'
loop_
_space_group_symop_operation_xyz
x,y,z
-x,y,-z
-x,-y,-z
x,-y,z
1/2+x,1/2+y,z
1/2-x,1/2+y,-z
1/2-x,1/2-y,-z
1/2+x,1/2-y,z
loop_
_atom_site_type_symbol
_atom_site_label
_atom_site_fract_x
_atom_site_fract_y
_atom_site_fract_z
Si Si1 0.357114 0.681683 0.807740
Si Si2 0.672412 0.417515 0.969556
Si Si3 0.013805 0.345125 0.158216
Si Si4 0.653913 0.363126 0.633033
Si Si5 0.768667 0.708031 0.401430
Si Si6 0.000000 0.000000 0.500000
O O1 0.564084 0.631504 0.875609
O O2 0.167293 0.658629 0.818603
O O3 0.424125 0.763155 0.846587
O O4 0.268030 0.680998 0.696889
O O5 0.693122 0.500000 0.950099
O O6 0.500000 0.415085 0.000000
O O7 0.897786 0.386744 0.059072
O O8 0.220905 0.377326 0.254210
O O9 0.418964 0.330326 0.596089
O O10 0.761967 0.294791 0.614972
O O11 0.635205 0.435579 0.579694
O O12 0.000000 0.694064 0.500000
#
# Coordination Sequence:
#
# PCOD9199950 Si02
#       6
#     8   8   8   8   8   2
#     4  10  20  36  62  92 116 155 211 255 292 358
#     4   9  19  36  56  85 121 159 197 248 311 365
#     4  10  20  36  65  87 118 159 205 252 301 366
#     4  11  24  42  66  93 127 160 215 252 314 363
#     4  11  22  41  69  88 120 168 212 250 300 378
#     4  12  28  40  62  96 136 158 200 270 310 364
#
# _framework density 21.609210999999998
#
# number of rings (size 3 to 8) (size 9 to 14) (size 15 to 20)
#    0.000    1.714    0.952    5.714    4.000    0.000 
#    1.714    3.333    0.000    4.571    0.000    0.000 
#    0.000    0.000    0.000    0.000    0.000    0.000 
#
# Total GULP energy -117162.935640 kJ/mol
# GULP energy per Si atom -5579.187411 kJ/mol
# Density = 2.156003 g / cm^3
# Si number density = 21.609211 Si / 1000 Ang^3
#
#
#
# Elastic Constant Matrix: (Units=GPa)
#
#
# Indices 1 2 3 4 5 6 
#
# 1 32.5042 -6.8173 20.4613 0.0000 9.1355 0.0000
# 2 -6.8173 105.0893 88.1630 0.0000 8.4294 0.0000
# 3 20.4613 88.1630 197.0465 0.0000 33.4882 0.0000
# 4 0.0000 0.0000 0.0000 45.7767 0.0000 24.2575
# 5 9.1355 8.4294 33.4882 0.0000 41.8328 0.0000
# 6 0.0000 0.0000 0.0000 24.2575 0.0000 79.8394
#
#
#
# Elastic Compliance Matrix: (Units=1/GPa)
#
#
# Indices 1 2 3 4 5 6 
#
# 1 0.038420 0.008909 -0.007228 0.000000 -0.004399 0.000000
# 2 0.008909 0.017581 -0.009096 0.000000 0.001793 0.000000
# 3 -0.007228 -0.009096 0.010782 0.000000 -0.005220 0.000000
# 4 0.000000 0.000000 0.000000 0.026037 0.000000 -0.007911
# 5 -0.004399 0.001793 -0.005220 0.000000 0.028683 0.000000
# 6 0.000000 0.000000 0.000000 -0.007911 0.000000 0.014929
#
#
# Mechanical properties :
#
#
# Convention : Reuss Voigt Hill
#
# Bulk Modulus (GPa) = 19.24790 59.80600 39.52695
# Shear Modulus (GPa) = 29.65956 49.01200 39.33578
#
# Velocity S-wave (km/s) = 3.70880 4.76763 4.27115
# Velocity P-wave (km/s) = 5.22177 7.61862 6.53109
#
# Compressibility (1/GPa) = 0.05195371
#
# Stress axis : x y z
#
# Youngs Moduli (GPa) = 26.02792 56.88063 92.74377
#
# Poissons Ratio (x) = -0.50676 0.67036
# Poissons Ratio (y) = -0.23189 0.84359
# Poissons Ratio (z) = 0.18813 0.51738
#
# Static dielectric constant tensor:
#      x y z
#    x 1.860950 0.000000 -0.007150 
#    y 0.000000 1.746350 0.000000 
#    z -0.007150 0.000000 1.804770 
# 
# From -- ./inp_files/257780.got.cif
#   From: 2010.05.17/outbox.cif.g08.bks.cpg/sg12_129_cif.got.tgz:257780.got - 2010.06.03 13:09:07.
