data_PCOD9199503
_publ_section_title
;
Structure prediction by ZEFSAII (Michael W. Deem and Ramdas Pophale) SiO2 
 PCOD9199503
Probable space group: C 2/M
;
_chemical_formula_sum "Si O2"
_cell_formula_units_Z 48
_cell_length_a 32.123409
_cell_length_b 13.740994
_cell_length_c 16.041603
_cell_angle_alpha 90.000000
_cell_angle_beta 19.798118
_cell_angle_gamma 90.000000
_cell_volume 2398.345422
_symmetry_space_group_name_H-M "C 2/M"
_symmetry_group_IT_number 12
_symmetry_cell_setting 'monoclinic'
loop_
_space_group_symop_operation_xyz
x,y,z
-x,y,-z
-x,-y,-z
x,-y,z
1/2+x,1/2+y,z
1/2-x,1/2+y,-z
1/2-x,1/2-y,-z
1/2+x,1/2-y,z
loop_
_atom_site_type_symbol
_atom_site_label
_atom_site_fract_x
_atom_site_fract_y
_atom_site_fract_z
Si Si1 0.145816 0.111468 0.216851
Si Si2 0.706861 0.252297 0.945223
Si Si3 0.858780 0.882570 0.255311
Si Si4 0.227523 0.613180 0.332315
Si Si5 0.629221 0.882813 0.799456
Si Si6 0.058537 0.612750 0.116723
O O1 0.200889 0.172885 0.189692
O O2 0.000000 0.107410 0.500000
O O3 0.193121 0.000000 0.124675
O O4 0.175628 0.172458 0.077579
O O5 0.756892 0.316002 0.774748
O O6 0.595086 0.187971 0.119606
O O7 0.812527 0.858818 0.249821
O O8 0.754181 0.850125 0.518232
O O9 0.859217 0.000000 0.260141
O O10 0.000000 0.851757 0.000000
O O11 0.254656 0.500000 0.258425
O O12 0.086479 0.616155 0.627383
O O13 0.629024 0.000000 0.794023
O O14 0.500000 0.852993 0.000000
O O15 0.626240 0.860863 0.903160
O O16 0.088512 0.500000 0.082318
#
# Coordination Sequence:
#
# PCOD9199503 Si02
#       6
#     8   8   8   8   8   8
#     4  10  22  42  64  85 117 154 186 231 300 374
#     4  11  22  38  61  91 118 147 194 246 296 359
#     4   9  17  32  54  83 120 163 209 250 294 347
#     4  10  20  37  60  86 121 160 200 251 301 345
#     4   9  15  30  56  81 113 164 210 243 290 349
#     4  10  20  36  60  88 119 158 206 251 292 345
#
# _framework density 20.013798000000001
#
# number of rings (size 3 to 8) (size 9 to 14) (size 15 to 20)
#    0.000    2.167    1.667    2.000    0.000    0.000 
#    6.000    1.667    0.000    8.000    0.000    0.000 
#    0.000    0.000    0.000    0.000    0.000    0.000 
#
# Total GULP energy -133981.223881 kJ/mol
# GULP energy per Si atom -5582.550995 kJ/mol
# Density = 1.996825 g / cm^3
# Si number density = 20.013798 Si / 1000 Ang^3
#
#
#
# Elastic Constant Matrix: (Units=GPa)
#
#
# Indices 1 2 3 4 5 6 
#
# 1 127.1064 53.4876 56.3890 0.0000 -7.3867 0.0000
# 2 53.4876 149.6691 37.7518 0.0000 0.0035 0.0000
# 3 56.3890 37.7518 101.0199 0.0000 -8.5085 0.0000
# 4 0.0000 0.0000 0.0000 -0.4117 0.0000 18.0631
# 5 -7.3867 0.0035 -8.5085 0.0000 26.8433 0.0000
# 6 0.0000 0.0000 0.0000 18.0631 0.0000 -2.9159
#
#
#
# Elastic Compliance Matrix: (Units=1/GPa)
#
#
# Indices 1 2 3 4 5 6 
#
# 1 0.011437 -0.002770 -0.005223 0.000000 0.001492 0.000000
# 2 -0.002770 0.008069 -0.001576 0.000000 -0.001263 0.000000
# 3 -0.005223 -0.001576 0.013647 0.000000 0.002888 0.000000
# 4 0.000000 0.000000 0.000000 0.008970 0.000000 0.055566
# 5 0.001492 -0.001263 0.002888 0.000000 0.038579 0.000000
# 6 0.000000 0.000000 0.000000 0.055566 0.000000 0.001266
#
#
# Mechanical properties :
#
#
# Convention : Reuss Voigt Hill
#
# Bulk Modulus (GPa) = 71.35198 74.78358 73.06778
# Shear Modulus (GPa) = 47.26904 20.04760 33.65832
#
# Velocity S-wave (km/s) = 4.86513 3.16838 4.10537
# Velocity P-wave (km/s) = 8.20293 7.12965 7.68505
#
# Compressibility (1/GPa) = 0.01401503
#
# Stress axis : x y z
#
# Youngs Moduli (GPa) = 87.43611 123.93578 73.27745
#
# Poissons Ratio (x) = 0.34327 0.38275
# Poissons Ratio (y) = 0.24218 0.11546
# Poissons Ratio (z) = 0.45671 0.19527
#
# Static dielectric constant tensor:
#      x y z
#    x 1.676870 0.000000 -0.003330 
#    y 0.000000 1.739020 0.000000 
#    z -0.003330 0.000000 1.685020 
# 
# From -- ./inp_files/251422.got.cif
#   From: 2010.05.17/outbox.cif.g08.bks.cpg/sg12_126_cif.got.tgz:251422.got - 2010.06.03 13:09:07.
