data_PCOD9199687
_publ_section_title
;
Structure prediction by ZEFSAII (Michael W. Deem and Ramdas Pophale) SiO2 
 PCOD9199687
Probable space group: C 2/M
;
_chemical_formula_sum "Si O2"
_cell_formula_units_Z 56
_cell_length_a 16.256347
_cell_length_b 14.505635
_cell_length_c 13.329866
_cell_angle_alpha 90.000000
_cell_angle_beta 120.303282
_cell_angle_gamma 90.000000
_cell_volume 2713.818246
_symmetry_space_group_name_H-M "C 2/M"
_symmetry_group_IT_number 12
_symmetry_cell_setting 'monoclinic'
loop_
_space_group_symop_operation_xyz
x,y,z
-x,y,-z
-x,-y,-z
x,-y,z
1/2+x,1/2+y,z
1/2-x,1/2+y,-z
1/2-x,1/2-y,-z
1/2+x,1/2-y,z
loop_
_atom_site_type_symbol
_atom_site_label
_atom_site_fract_x
_atom_site_fract_y
_atom_site_fract_z
Si Si1 0.404761 0.395775 0.377345
Si Si2 0.744713 0.259815 0.618858
Si Si3 0.088514 0.796073 0.132594
Si Si4 0.602148 0.103776 0.593441
Si Si5 0.551094 0.696392 0.802184
Si Si6 0.801853 0.893771 0.976978
Si Si7 0.918168 0.599047 0.181190
O O1 0.500000 0.403127 0.500000
O O2 0.376511 0.500000 0.328227
O O3 0.321574 0.345431 0.388260
O O4 0.437559 0.333420 0.304028
O O5 0.750000 0.250000 0.500000
O O6 0.838827 0.261656 0.749246
O O7 0.687206 0.168042 0.613913
O O8 0.159107 0.853077 0.103796
O O9 0.028747 0.853013 0.179330
O O10 0.000000 0.763691 0.000000
O O11 0.500000 0.144229 0.500000
O O12 0.597160 0.096079 0.709262
O O13 0.609696 0.000000 0.554994
O O14 0.530592 0.804706 0.806429
O O15 0.651355 0.670100 0.911310
O O16 0.689203 0.893163 0.923954
O O17 0.833290 0.000000 0.004416
O O18 0.960517 0.500000 0.175126
#
# Coordination Sequence:
#
# PCOD9199687 Si02
#       7
#     8   8   8   8   8   8   8
#     4  11  24  42  62  89 123 160 205 256 317 383
#     4  12  24  40  65  91 125 166 208 257 315 377
#     4  10  23  39  60  91 127 166 206 255 311 370
#     4  10  21  38  63  90 117 154 205 260 310 363
#     4  11  21  37  62  88 123 161 203 254 311 373
#     4  10  20  37  61  91 121 159 209 257 307 368
#     4  10  20  36  61  87 115 154 206 260 304 358
#
# _framework density 20.635134000000001
#
# number of rings (size 3 to 8) (size 9 to 14) (size 15 to 20)
#    0.000    1.429    2.857    2.143    2.000    4.857 
#    0.000    0.714    0.000    4.286    0.000    0.000 
#    0.000    0.000    0.000    0.000    0.000    0.000 
#
# Total GULP energy -155877.229821 kJ/mol
# GULP energy per Si atom -5567.043922 kJ/mol
# Density = 2.058817 g / cm^3
# Si number density = 20.635134 Si / 1000 Ang^3
#
#
#
# Elastic Constant Matrix: (Units=GPa)
#
#
# Indices 1 2 3 4 5 6 
#
# 1 66.0656 24.4203 33.9555 0.0000 7.8454 0.0000
# 2 24.4203 105.0644 38.5239 0.0000 7.5244 0.0000
# 3 33.9555 38.5239 99.5256 0.0000 2.7341 0.0000
# 4 0.0000 0.0000 0.0000 17.9031 0.0000 -0.1608
# 5 7.8454 7.5244 2.7341 0.0000 34.6770 0.0000
# 6 0.0000 0.0000 0.0000 -0.1608 0.0000 13.7717
#
#
#
# Elastic Compliance Matrix: (Units=1/GPa)
#
#
# Indices 1 2 3 4 5 6 
#
# 1 0.019239 -0.002160 -0.005633 0.000000 -0.003440 0.000000
# 2 -0.002160 0.011485 -0.003662 0.000000 -0.001715 0.000000
# 3 -0.005633 -0.003662 0.013359 0.000000 0.001016 0.000000
# 4 0.000000 0.000000 0.000000 0.055862 0.000000 0.000652
# 5 -0.003440 -0.001715 0.001016 0.000000 0.029908 0.000000
# 6 0.000000 0.000000 0.000000 0.000652 0.000000 0.072620
#
#
# Mechanical properties :
#
#
# Convention : Reuss Voigt Hill
#
# Bulk Modulus (GPa) = 47.22868 51.60609 49.41738
# Shear Modulus (GPa) = 21.51090 24.85410 23.18250
#
# Velocity S-wave (km/s) = 3.23219 3.47429 3.35542
# Velocity P-wave (km/s) = 6.07179 6.41540 6.24596
#
# Compressibility (1/GPa) = 0.02117357
#
# Stress axis : x y z
#
# Youngs Moduli (GPa) = 51.97894 87.06685 74.85572
#
# Poissons Ratio (x) = 0.18805 0.42168
# Poissons Ratio (y) = 0.11226 0.27410
# Poissons Ratio (z) = 0.29281 0.31882
#
# Static dielectric constant tensor:
#      x y z
#    x 1.755410 0.000000 0.068090 
#    y 0.000000 1.804000 0.000000 
#    z 0.068090 0.000000 1.868760 
# 
# From -- ./inp_files/224869.got.cif
#   From: 2010.05.17/outbox.cif.g08.bks.cpg/sg12_113_cif.got.tgz:224869.got - 2010.06.03 13:09:07.
