data_PCOD9199110
_publ_section_title
;
Structure prediction by ZEFSAII (Michael W. Deem and Ramdas Pophale) SiO2 
 PCOD9199110
Probable space group: C 2/M
;
_chemical_formula_sum "Si O2"
_cell_formula_units_Z 64
_cell_length_a 16.657473
_cell_length_b 17.575355
_cell_length_c 18.381606
_cell_angle_alpha 90.000000
_cell_angle_beta 147.632725
_cell_angle_gamma 90.000000
_cell_volume 2880.911992
_symmetry_space_group_name_H-M "C 2/M"
_symmetry_group_IT_number 12
_symmetry_cell_setting 'monoclinic'
loop_
_space_group_symop_operation_xyz
x,y,z
-x,y,-z
-x,-y,-z
x,-y,z
1/2+x,1/2+y,z
1/2-x,1/2+y,-z
1/2-x,1/2-y,-z
1/2+x,1/2-y,z
loop_
_atom_site_type_symbol
_atom_site_label
_atom_site_fract_x
_atom_site_fract_y
_atom_site_fract_z
Si Si1 0.237994 0.661090 0.678638
Si Si2 0.848166 0.322199 0.549842
Si Si3 0.927775 0.219530 0.355882
Si Si4 0.820397 0.080966 0.876713
Si Si5 0.643922 0.145900 0.060128
Si Si6 0.887259 0.919271 0.160702
Si Si7 0.362276 0.586899 0.521653
Si Si8 0.415009 0.299816 0.059484
O O1 0.201539 0.645082 0.567085
O O2 0.135661 0.729861 0.627068
O O3 0.230499 0.595263 0.733283
O O4 0.409245 0.686343 0.817877
O O5 0.750000 0.250000 0.500000
O O6 0.800385 0.384062 0.574006
O O7 0.004714 0.280505 0.651136
O O8 0.778169 0.179344 0.211976
O O9 0.054150 0.152798 0.461230
O O10 0.771531 0.000000 0.870818
O O11 0.814899 0.152558 0.925719
O O12 0.000000 0.075879 0.000000
O O13 0.730208 0.080595 0.083036
O O14 0.500000 0.128792 0.000000
O O15 0.605268 0.211713 0.972170
O O16 0.887684 0.842761 0.113978
O O17 0.026027 0.915079 0.322853
O O18 0.906035 0.000000 0.133940
O O19 0.356828 0.500000 0.488313
#
# Coordination Sequence:
#
# PCOD9199110 Si02
#       8
#     8   8   8   8   8   8   8   8
#     4  11  19  34  57  84 116 151 196 243 292 355
#     4  10  21  37  59  84 112 148 199 249 298 348
#     4  10  20  36  59  86 114 154 197 239 300 348
#     4   9  18  30  50  82 119 156 191 232 289 354
#     4  11  20  36  58  87 119 155 199 249 291 355
#     4  10  21  34  55  87 120 160 197 236 297 356
#     4   9  19  37  60  86 116 151 196 243 292 352
#     4  11  18  34  57  84 120 158 197 243 293 356
#
# _framework density 22.215188000000001
#
# number of rings (size 3 to 8) (size 9 to 14) (size 15 to 20)
#    0.000    1.875    3.750    1.500    0.000    1.250 
#    0.000    0.625    0.000    7.500    0.000    0.000 
#    0.000    0.000    0.000    0.000    0.000    0.000 
#
# Total GULP energy -178226.718030 kJ/mol
# GULP energy per Si atom -5569.584938 kJ/mol
# Density = 2.216463 g / cm^3
# Si number density = 22.215188 Si / 1000 Ang^3
#
#
#
# Elastic Constant Matrix: (Units=GPa)
#
#
# Indices 1 2 3 4 5 6 
#
# 1 89.2165 31.8451 18.6155 0.0007 25.1979 0.0000
# 2 31.8451 86.6171 3.6772 0.0004 12.8202 0.0005
# 3 18.6155 3.6772 45.4337 0.0010 13.7954 0.0007
# 4 0.0007 0.0004 0.0010 36.8370 0.0011 -25.2337
# 5 25.1979 12.8202 13.7954 0.0011 38.5416 0.0007
# 6 0.0000 0.0005 0.0007 -25.2337 0.0007 29.9401
#
#
#
# Elastic Compliance Matrix: (Units=1/GPa)
#
#
# Indices 1 2 3 4 5 6 
#
# 1 0.015709 -0.004518 -0.003824 0.000001 -0.007399 0.000001
# 2 -0.004518 0.013445 0.001373 0.000000 -0.002010 -0.000001
# 3 -0.003824 0.001373 0.025631 -0.000002 -0.007131 -0.000002
# 4 0.000001 0.000000 -0.000002 0.064226 -0.000003 0.054130
# 5 -0.007399 -0.002010 -0.007131 -0.000003 0.034004 -0.000003
# 6 0.000001 -0.000001 -0.000002 0.054130 -0.000003 0.079021
#
#
# Mechanical properties :
#
#
# Convention : Reuss Voigt Hill
#
# Bulk Modulus (GPa) = 24.48138 36.61586 30.54862
# Shear Modulus (GPa) = 19.26110 32.20572 25.73341
#
# Velocity S-wave (km/s) = 2.94772 3.81164 3.40718
# Velocity P-wave (km/s) = 4.75704 5.99080 5.40921
#
# Compressibility (1/GPa) = 0.04084736
#
# Stress axis : x y z
#
# Youngs Moduli (GPa) = 63.65805 74.37521 39.01521
#
# Poissons Ratio (x) = 0.33603 0.14920
# Poissons Ratio (y) = 0.28761 -0.05358
# Poissons Ratio (z) = 0.24344 -0.10214
#
# Static dielectric constant tensor:
#      x y z
#    x 1.896930 0.000000 -0.033200 
#    y 0.000000 1.831550 0.000000 
#    z -0.033200 0.000000 1.842530 
# 
# From -- ./inp_files/317401.got.cif
#   From: 2010.05.17/outbox.cif.g08.bks.cpg/sg12_159_cif.got.tgz:317401.got - 2010.06.03 13:09:07.
