data_PCOD9199563
_publ_section_title
;
Structure prediction by ZEFSAII (Michael W. Deem and Ramdas Pophale) SiO2 
 PCOD9199563
Probable space group: C 2/M
;
_chemical_formula_sum "Si O2"
_cell_formula_units_Z 56
_cell_length_a 10.033952
_cell_length_b 29.425750
_cell_length_c 8.108833
_cell_angle_alpha 90.000000
_cell_angle_beta 67.741478
_cell_angle_gamma 90.000000
_cell_volume 2215.781404
_symmetry_space_group_name_H-M "C 2/M"
_symmetry_group_IT_number 12
_symmetry_cell_setting 'monoclinic'
loop_
_space_group_symop_operation_xyz
x,y,z
-x,y,-z
-x,-y,-z
x,-y,z
1/2+x,1/2+y,z
1/2-x,1/2+y,-z
1/2-x,1/2-y,-z
1/2+x,1/2-y,z
loop_
_atom_site_type_symbol
_atom_site_label
_atom_site_fract_x
_atom_site_fract_y
_atom_site_fract_z
Si Si1 0.916180 0.901188 0.875861
Si Si2 0.189457 0.585915 0.732594
Si Si3 0.729353 0.685281 0.442427
Si Si4 0.593103 0.889293 0.288464
Si Si5 0.673687 0.448641 0.638815
Si Si6 0.534034 0.200406 0.167041
Si Si7 0.036895 0.200657 0.223344
O O1 0.761747 0.916846 0.878453
O O2 0.026989 0.920488 0.688365
O O3 0.916161 0.846577 0.880160
O O4 0.000000 0.917657 0.000000
O O5 0.248674 0.633010 0.621935
O O6 0.246593 0.549876 0.574310
O O7 0.018392 0.589275 0.790023
O O8 0.890501 0.704245 0.349364
O O9 0.631727 0.705151 0.343534
O O10 0.631375 0.693194 0.648568
O O11 0.500000 0.884124 0.500000
O O12 0.724582 0.920671 0.281720
O O13 0.628503 0.838443 0.209477
O O14 0.647013 0.500000 0.708163
O O15 0.576952 0.252354 0.117945
O O16 0.500000 0.182047 0.000000
#
# Coordination Sequence:
#
# PCOD9199563 Si02
#       7
#     8   8   8   8   8   8   8
#     4  11  23  39  64  95 134 170 212 269 323 384
#     4   9  19  41  63  90 124 164 212 259 323 383
#     4   9  19  36  58  84 123 169 217 264 315 376
#     4   9  22  40  63  90 125 168 213 267 321 385
#     4  11  23  41  67  96 123 163 218 273 328 389
#     4  11  23  36  58  92 131 171 216 263 321 384
#     4  10  20  36  60  89 125 176 219 262 314 379
#
# _framework density 25.273253
#
# number of rings (size 3 to 8) (size 9 to 14) (size 15 to 20)
#    0.000    2.000    1.429    1.286    2.000    9.143 
#    0.000    0.000    0.000    3.000    0.000    0.000 
#    0.000    0.000    0.000    0.000    0.000    0.000 
#
# Total GULP energy -156408.122319 kJ/mol
# GULP energy per Si atom -5586.004369 kJ/mol
# Density = 2.521573 g / cm^3
# Si number density = 25.273253 Si / 1000 Ang^3
#
#
#
# Elastic Constant Matrix: (Units=GPa)
#
#
# Indices 1 2 3 4 5 6 
#
# 1 154.7588 33.0267 57.3932 0.0000 11.7811 0.0000
# 2 33.0267 123.4922 0.6257 0.0000 -3.8621 0.0000
# 3 57.3932 0.6257 67.4434 0.0000 -0.5144 0.0000
# 4 0.0000 0.0000 0.0000 -37.9308 0.0000 -3.1141
# 5 11.7811 -3.8621 -0.5144 0.0000 56.9657 0.0000
# 6 0.0000 0.0000 0.0000 -3.1141 0.0000 -3.7081
#
#
#
# Elastic Compliance Matrix: (Units=1/GPa)
#
#
# Indices 1 2 3 4 5 6 
#
# 1 0.010606 -0.002868 -0.009018 0.000000 -0.002469 0.000000
# 2 -0.002868 0.008891 0.002367 0.000000 0.001217 0.000000
# 3 -0.009018 0.002367 0.022496 0.000000 0.002229 0.000000
# 4 0.000000 0.000000 0.000000 -0.028316 0.000000 0.023780
# 5 -0.002469 0.001217 0.002229 0.000000 0.018168 0.000000
# 6 0.000000 0.000000 0.000000 0.023780 0.000000 -0.289649
#
#
# Mechanical properties :
#
#
# Convention : Reuss Voigt Hill
#
# Bulk Modulus (GPa) = 43.56097 58.64287 51.10192
# Shear Modulus (GPa) = -21.63422 20.04195 -0.79613
#
# Velocity S-wave (km/s) = -2.92894 2.81910 -0.56187
# Velocity P-wave (km/s) = 2.41560 5.81810 4.45452
#
# Compressibility (1/GPa) = 0.02295633
#
# Stress axis : x y z
#
# Youngs Moduli (GPa) = 94.28642 112.47629 44.45188
#
# Poissons Ratio (x) = 0.32258 0.40086
# Poissons Ratio (y) = 0.27041 -0.10524
# Poissons Ratio (z) = 0.85025 -0.26628
#
# Static dielectric constant tensor:
#      x y z
#    x 2.016560 0.000000 -0.020450 
#    y 0.000000 1.959060 0.000000 
#    z -0.020450 0.000000 2.094600 
# 
# From -- ./inp_files/53175.got.cif
#   From: 2010.05.17/outbox.cif.g08.bks.cpg/sg12_27_cif.got.tgz:53175.got - 2010.06.03 13:09:07.
