data_PCOD9199738
_publ_section_title
;
Structure prediction by ZEFSAII (Michael W. Deem and Ramdas Pophale) SiO2 
 PCOD9199738
Probable space group: C 2/M
;
_chemical_formula_sum "Si O2"
_cell_formula_units_Z 40
_cell_length_a 16.284123
_cell_length_b 12.279863
_cell_length_c 19.100579
_cell_angle_alpha 90.000000
_cell_angle_beta 147.381336
_cell_angle_gamma 90.000000
_cell_volume 2058.873189
_symmetry_space_group_name_H-M "C 2/M"
_symmetry_group_IT_number 12
_symmetry_cell_setting 'monoclinic'
loop_
_space_group_symop_operation_xyz
x,y,z
-x,y,-z
-x,-y,-z
x,-y,z
1/2+x,1/2+y,z
1/2-x,1/2+y,-z
1/2-x,1/2-y,-z
1/2+x,1/2-y,z
loop_
_atom_site_type_symbol
_atom_site_label
_atom_site_fract_x
_atom_site_fract_y
_atom_site_fract_z
Si Si1 0.891279 0.375483 0.745279
Si Si2 0.174564 0.500000 0.599534
Si Si3 0.577613 0.276554 0.979698
Si Si4 0.458339 0.500000 0.887781
Si Si5 0.829225 0.280183 0.482882
Si Si6 0.597036 0.869941 0.753990
O O1 0.858951 0.500000 0.741236
O O2 0.735502 0.308657 0.618219
O O3 0.005637 0.319175 0.882442
O O4 0.984615 0.373237 0.739602
O O5 0.282046 0.500000 0.743978
O O6 0.215654 0.395906 0.582214
O O7 0.000000 0.500000 0.500000
O O8 0.525792 0.389487 0.906258
O O9 0.500000 0.269141 0.000000
O O10 0.755348 0.299076 0.120250
O O11 0.500000 0.500000 0.000000
O O12 0.750000 0.250000 0.500000
O O13 0.006492 0.305032 0.627975
O O14 0.627961 0.000000 0.762564
#
# Coordination Sequence:
#
# PCOD9199738 Si02
#       6
#     8   4   8   4   8   8
#     4  10  22  41  59  83 119 169 209 246 303 383
#     4  12  24  38  70 100 127 167 221 272 330 378
#     4  11  22  36  60  88 123 154 198 257 320 369
#     4  10  22  36  56  96 128 153 194 272 329 375
#     4  10  22  38  60  93 126 164 207 262 319 379
#     4  10  20  36  61  89 120 153 197 254 313 371
#
# _framework density 19.428103
#
# number of rings (size 3 to 8) (size 9 to 14) (size 15 to 20)
#    0.000    1.600    4.000    0.600    7.000    0.400 
#    0.000    1.000    0.000    4.200    0.000    0.000 
#    0.000    0.000    0.000    0.000    0.000    0.000 
#
# Total GULP energy -111389.443102 kJ/mol
# GULP energy per Si atom -5569.472155 kJ/mol
# Density = 1.938388 g / cm^3
# Si number density = 19.428103 Si / 1000 Ang^3
#
#
#
# Elastic Constant Matrix: (Units=GPa)
#
#
# Indices 1 2 3 4 5 6 
#
# 1 34.2521 22.0760 6.9721 0.0002 -9.7803 0.0002
# 2 22.0760 175.8516 84.3009 0.0002 -9.3430 0.0002
# 3 6.9721 84.3009 194.5938 0.0006 -4.5466 0.0006
# 4 0.0002 0.0002 0.0006 18.8973 0.0004 -8.2468
# 5 -9.7803 -9.3430 -4.5466 0.0004 14.8424 0.0003
# 6 0.0002 0.0002 0.0006 -8.2468 0.0003 2.2977
#
#
#
# Elastic Compliance Matrix: (Units=1/GPa)
#
#
# Indices 1 2 3 4 5 6 
#
# 1 0.038124 -0.004003 0.000903 0.000006 0.022878 0.000017
# 2 -0.004003 0.007793 -0.003202 0.000000 0.001286 -0.000001
# 3 0.000903 -0.003202 0.006507 0.000001 0.000572 0.000004
# 4 0.000006 0.000000 0.000001 -0.093438 0.000014 -0.335368
# 5 0.022878 0.001286 0.000572 0.000014 0.083436 0.000038
# 6 0.000017 -0.000001 0.000004 -0.335368 0.000038 -0.768481
#
#
# Mechanical properties :
#
#
# Convention : Reuss Voigt Hill
#
# Bulk Modulus (GPa) = 25.11387 70.15506 47.63447
# Shear Modulus (GPa) = -7.14102 26.63070 9.74484
#
# Velocity S-wave (km/s) = -1.91927 3.70635 2.24204
# Velocity P-wave (km/s) = 2.83605 7.38272 5.59231
#
# Compressibility (1/GPa) = 0.03981863
#
# Stress axis : x y z
#
# Youngs Moduli (GPa) = 26.22993 128.32469 153.67418
#
# Poissons Ratio (x) = 0.51373 -0.13875
# Poissons Ratio (y) = 0.10501 0.49213
# Poissons Ratio (z) = -0.02368 0.41095
#
# Static dielectric constant tensor:
#      x y z
#    x 1.675790 0.000000 -0.027820 
#    y 0.000000 1.714960 0.000000 
#    z -0.027820 0.000000 1.697400 
# 
# From -- ./inp_files/83594.got.cif
#   From: 2010.05.17/outbox.cif.g08.bks.cpg/sg12_42_cif.got.tgz:83594.got - 2010.06.03 13:09:07.
