data_PCOD9199693
_publ_section_title
;
Structure prediction by ZEFSAII (Michael W. Deem and Ramdas Pophale) SiO2 
 PCOD9199693
Probable space group: C 2/M
;
_chemical_formula_sum "Si O2"
_cell_formula_units_Z 64
_cell_length_a 19.966846
_cell_length_b 7.793533
_cell_length_c 30.979063
_cell_angle_alpha 90.000000
_cell_angle_beta 38.215212
_cell_angle_gamma 90.000000
_cell_volume 2982.180926
_symmetry_space_group_name_H-M "C 2/M"
_symmetry_group_IT_number 12
_symmetry_cell_setting 'monoclinic'
loop_
_space_group_symop_operation_xyz
x,y,z
-x,y,-z
-x,-y,-z
x,-y,z
1/2+x,1/2+y,z
1/2-x,1/2+y,-z
1/2-x,1/2-y,-z
1/2+x,1/2-y,z
loop_
_atom_site_type_symbol
_atom_site_label
_atom_site_fract_x
_atom_site_fract_y
_atom_site_fract_z
Si Si1 0.172173 0.204495 0.127242
Si Si2 0.764624 0.699171 0.384651
Si Si3 0.584141 0.210337 0.994018
Si Si4 0.538993 0.207301 0.114511
Si Si5 0.540172 0.800022 0.525340
Si Si6 0.092959 0.296568 0.325931
Si Si7 0.194092 0.292165 0.733307
Si Si8 0.499103 0.301330 0.717576
O O1 0.292544 0.268977 0.076054
O O2 0.135825 0.235783 0.096634
O O3 0.078377 0.274868 0.206041
O O4 0.175136 0.000000 0.133093
O O5 0.734544 0.500000 0.397525
O O6 0.669476 0.787574 0.459443
O O7 0.772890 0.768207 0.331357
O O8 0.884079 0.714554 0.343566
O O9 0.584232 0.000000 0.993615
O O10 0.500000 0.266238 0.000000
O O11 0.550791 0.264024 0.059164
O O12 0.425398 0.266811 0.192675
O O13 0.538347 0.000000 0.114800
O O14 0.500000 0.724070 0.500000
O O15 0.482307 0.727336 0.596882
O O16 0.507579 0.000000 0.541387
O O17 0.074582 0.500000 0.329974
O O18 0.215504 0.264950 0.278720
O O19 0.062496 0.211693 0.296373
O O20 0.192092 0.500000 0.733126
O O21 0.520573 0.500000 0.717153
#
# Coordination Sequence:
#
# PCOD9199693 Si02
#       8
#     8   8   8   8   8   8   8   8
#     4  10  21  37  60  87 115 154 198 241 288 345
#     4  11  22  38  62  89 119 153 197 245 291 351
#     4   9  19  35  58  87 118 154 196 239 286 341
#     4  10  20  36  61  87 117 157 195 241 288 339
#     4  10  21  39  61  86 117 153 195 242 296 353
#     4  11  24  40  61  87 118 155 195 243 297 353
#     4  10  21  36  58  89 119 151 197 244 291 347
#     4  11  24  40  60  86 121 157 196 246 296 349
#
# _framework density 21.460805000000001
#
# number of rings (size 3 to 8) (size 9 to 14) (size 15 to 20)
#    0.000    1.750    2.500    1.500    1.750    3.250 
#    0.000    0.000    0.000    0.750    0.000    0.000 
#    0.000    0.000    0.000    0.000    0.000    0.000 
#
# Total GULP energy -178846.718637 kJ/mol
# GULP energy per Si atom -5588.959957 kJ/mol
# Density = 2.141196 g / cm^3
# Si number density = 21.460805 Si / 1000 Ang^3
#
#
#
# Elastic Constant Matrix: (Units=GPa)
#
#
# Indices 1 2 3 4 5 6 
#
# 1 135.2129 -13.4453 38.4650 0.0067 -12.2495 0.0219
# 2 -13.4453 31.0283 0.2820 0.0089 2.6981 -0.0081
# 3 38.4650 0.2820 94.0639 0.0005 -15.9654 0.0018
# 4 0.0067 0.0089 0.0005 -2.0925 -0.0015 -0.8261
# 5 -12.2495 2.6981 -15.9654 -0.0015 36.6149 0.0011
# 6 0.0219 -0.0081 0.0018 -0.8261 0.0011 26.2720
#
#
#
# Elastic Compliance Matrix: (Units=1/GPa)
#
#
# Indices 1 2 3 4 5 6 
#
# 1 0.008853 0.003764 -0.003430 0.000044 0.001189 -0.000005
# 2 0.003764 0.034063 -0.002002 0.000153 -0.002124 0.000012
# 3 -0.003430 -0.002002 0.012819 -0.000020 0.004589 0.000001
# 4 0.000044 0.000153 -0.000020 -0.472042 -0.000024 -0.014844
# 5 0.001189 -0.002124 0.004589 -0.000024 0.029867 -0.000004
# 6 -0.000005 0.000012 0.000001 -0.014844 -0.000004 0.037597
#
#
# Mechanical properties :
#
#
# Convention : Reuss Voigt Hill
#
# Bulk Modulus (GPa) = 19.08410 34.54539 26.81475
# Shear Modulus (GPa) = -15.24191 27.82577 6.29193
#
# Velocity S-wave (km/s) = -2.66789 3.60472 1.71411
# Velocity P-wave (km/s) = 0.76048 5.78422 4.05456
#
# Compressibility (1/GPa) = 0.05239963
#
# Stress axis : x y z
#
# Youngs Moduli (GPa) = 112.94981 29.35776 78.01168
#
# Poissons Ratio (x) = -0.11051 0.26757
# Poissons Ratio (y) = -0.42517 0.15617
# Poissons Ratio (z) = 0.38740 0.05877
#
# Static dielectric constant tensor:
#      x y z
#    x 1.739510 0.000000 0.005070 
#    y 0.000000 1.782770 0.000000 
#    z 0.005070 0.000000 1.778700 
# 
# From -- ./inp_files/345944.got.cif
#   From: 2010.05.17/outbox.cif.g08.bks.cpg/sg12_173_cif.got.tgz:345944.got - 2010.06.03 13:09:07.
