data_PCOD9199533
_publ_section_title
;
Structure prediction by ZEFSAII (Michael W. Deem and Ramdas Pophale) SiO2 
 PCOD9199533
Probable space group: C 2/M
;
_chemical_formula_sum "Si O2"
_cell_formula_units_Z 56
_cell_length_a 11.283451
_cell_length_b 13.859885
_cell_length_c 16.822437
_cell_angle_alpha 90.000000
_cell_angle_beta 68.932616
_cell_angle_gamma 90.000000
_cell_volume 2454.967881
_symmetry_space_group_name_H-M "C 2/M"
_symmetry_group_IT_number 12
_symmetry_cell_setting 'monoclinic'
loop_
_space_group_symop_operation_xyz
x,y,z
-x,y,-z
-x,-y,-z
x,-y,z
1/2+x,1/2+y,z
1/2-x,1/2+y,-z
1/2-x,1/2-y,-z
1/2+x,1/2-y,z
loop_
_atom_site_type_symbol
_atom_site_label
_atom_site_fract_x
_atom_site_fract_y
_atom_site_fract_z
Si Si1 0.884070 0.259318 0.831371
Si Si2 0.594631 0.114384 0.722551
Si Si3 0.161319 0.883489 0.599281
Si Si4 0.114713 0.885942 0.313793
Si Si5 0.297027 0.609565 0.228963
Si Si6 0.559651 0.392931 0.072564
Si Si7 0.091460 0.617230 0.547624
O O1 0.015883 0.319871 0.802111
O O2 0.861122 0.199432 0.917391
O O3 0.888518 0.175422 0.764806
O O4 0.782500 0.331808 0.817017
O O5 0.746369 0.128575 0.683230
O O6 0.547900 0.144058 0.645995
O O7 0.572955 0.000000 0.741660
O O8 0.196713 0.852373 0.681363
O O9 0.266861 0.853790 0.510956
O O10 0.016705 0.859910 0.610613
O O11 0.167362 0.000000 0.601434
O O12 0.106203 0.000000 0.298151
O O13 0.245386 0.500000 0.245595
O O14 0.439164 0.604802 0.161030
O O15 0.621775 0.500000 0.060746
O O16 0.500000 0.380908 0.000000
O O17 0.089056 0.500000 0.549061
O O18 0.000000 0.650392 0.500000
#
# Coordination Sequence:
#
# PCOD9199533 Si02
#       7
#     8   8   8   8   8   8   8
#     4  12  21  36  63  87 119 153 191 239 295 349
#     4  10  22  38  57  87 121 157 201 244 293 349
#     4   9  17  33  58  82 111 156 203 247 293 342
#     4  10  21  36  56  82 115 154 198 246 297 349
#     4  10  20  36  60  89 118 152 198 241 289 352
#     4  10  22  41  64  90 119 152 193 238 287 353
#     4   9  17  32  56  84 115 155 203 250 295 340
#
# _framework density 22.810889
#
# number of rings (size 3 to 8) (size 9 to 14) (size 15 to 20)
#    0.000    2.000    1.429    2.571    0.000    3.429 
#    0.000    3.571    3.143    1.714    0.000    0.000 
#    0.000    0.000    0.000    0.000    0.000    0.000 
#
# Total GULP energy -156389.322246 kJ/mol
# GULP energy per Si atom -5585.332937 kJ/mol
# Density = 2.275897 g / cm^3
# Si number density = 22.810889 Si / 1000 Ang^3
#
#
#
# Elastic Constant Matrix: (Units=GPa)
#
#
# Indices 1 2 3 4 5 6 
#
# 1 80.9389 41.7570 -9.8502 0.0000 4.4542 0.0000
# 2 41.7570 134.3772 22.7455 0.0000 15.6946 0.0000
# 3 -9.8502 22.7455 46.8486 0.0000 15.4561 0.0000
# 4 0.0000 0.0000 0.0000 16.3885 0.0000 21.2428
# 5 4.4542 15.6946 15.4561 0.0000 23.8269 0.0000
# 6 0.0000 0.0000 0.0000 21.2428 0.0000 16.6245
#
#
#
# Elastic Compliance Matrix: (Units=1/GPa)
#
#
# Indices 1 2 3 4 5 6 
#
# 1 0.016629 -0.005995 0.007799 0.000000 -0.004219 0.000000
# 2 -0.005995 0.010512 -0.005661 0.000000 -0.002131 0.000000
# 3 0.007799 -0.005661 0.031787 0.000000 -0.018349 0.000000
# 4 0.000000 0.000000 0.000000 -0.092974 0.000000 0.118803
# 5 -0.004219 -0.002131 -0.018349 0.000000 0.056064 0.000000
# 6 0.000000 0.000000 0.000000 0.118803 0.000000 -0.091654
#
#
# Mechanical properties :
#
#
# Convention : Reuss Voigt Hill
#
# Bulk Modulus (GPa) = 19.52591 41.27438 30.40015
# Shear Modulus (GPa) = -111.47876 25.20213 -43.13831
#
# Velocity S-wave (km/s) = -6.99835 3.32750 -4.35343
# Velocity P-wave (km/s) = 7.53154 5.73554 3.45164
#
# Compressibility (1/GPa) = 0.05121399
#
# Stress axis : x y z
#
# Youngs Moduli (GPa) = 60.13613 95.13258 31.45939
#
# Poissons Ratio (x) = 0.57029 -0.24534
# Poissons Ratio (y) = 0.36050 0.17809
# Poissons Ratio (z) = -0.46898 0.53853
#
# Static dielectric constant tensor:
#      x y z
#    x 1.915590 0.000000 -0.002970 
#    y 0.000000 1.924890 0.000000 
#    z -0.002970 0.000000 1.809600 
# 
# From -- ./inp_files/262857.got.cif
#   From: 2010.05.17/outbox.cif.g08.bks.cpg/sg12_132_cif.got.tgz:262857.got - 2010.06.03 13:09:07.
