data_PCOD9199780
_publ_section_title
;
Structure prediction by ZEFSAII (Michael W. Deem and Ramdas Pophale) SiO2 
 PCOD9199780
Probable space group: C 2/M
;
_chemical_formula_sum "Si O2"
_cell_formula_units_Z 40
_cell_length_a 20.486075
_cell_length_b 19.797061
_cell_length_c 9.011756
_cell_angle_alpha 90.000000
_cell_angle_beta 144.685666
_cell_angle_gamma 90.000000
_cell_volume 2112.725931
_symmetry_space_group_name_H-M "C 2/M"
_symmetry_group_IT_number 12
_symmetry_cell_setting 'monoclinic'
loop_
_space_group_symop_operation_xyz
x,y,z
-x,y,-z
-x,-y,-z
x,-y,z
1/2+x,1/2+y,z
1/2-x,1/2+y,-z
1/2-x,1/2-y,-z
1/2+x,1/2-y,z
loop_
_atom_site_type_symbol
_atom_site_label
_atom_site_fract_x
_atom_site_fract_y
_atom_site_fract_z
Si Si1 0.631280 0.664681 0.746057
Si Si2 0.124433 0.651122 0.268747
Si Si3 0.699305 0.922509 0.120031
Si Si4 0.201838 0.701007 0.707050
Si Si5 0.561293 0.074008 0.426117
O O1 0.500000 0.648691 0.500000
O O2 0.707419 0.605499 0.818662
O O3 0.655907 0.730255 0.690079
O O4 0.678065 0.684840 0.995760
O O5 0.188749 0.627144 0.242345
O O6 0.193070 0.696902 0.512875
O O7 0.094291 0.585160 0.313798
O O8 0.000000 0.680679 0.000000
O O9 0.722582 0.000000 0.206623
O O10 0.573350 0.921812 0.817284
O O11 0.120198 0.639174 0.604884
O O12 0.598821 0.000000 0.546624
#
# Coordination Sequence:
#
# PCOD9199780 Si02
#       5
#     8   8   8   8   8
#     4  11  25  40  55  78 124 169 198 236 276 347
#     4   8  16  34  63  92 117 139 182 252 305 344
#     4  10  20  36  61  91 121 152 191 243 298 348
#     4   9  22  37  61  84 116 153 198 239 300 342
#     4   8  16  33  61  92 114 137 184 250 303 337
#
# _framework density 18.932887000000001
#
# number of rings (size 3 to 8) (size 9 to 14) (size 15 to 20)
#    1.200    1.600    0.000    0.600    5.600    4.400 
#    0.000    3.000    0.000    1.200    0.000    0.000 
#    0.000    0.000    0.000    0.000    0.000    0.000 
#
# Total GULP energy -111378.578775 kJ/mol
# GULP energy per Si atom -5568.928939 kJ/mol
# Density = 1.888979 g / cm^3
# Si number density = 18.932887 Si / 1000 Ang^3
#
#
#
# Elastic Constant Matrix: (Units=GPa)
#
#
# Indices 1 2 3 4 5 6 
#
# 1 53.0443 -2.4081 24.8463 0.0000 6.1803 0.0000
# 2 -2.4081 61.8277 23.3444 0.0000 1.8404 0.0000
# 3 24.8463 23.3444 95.4193 0.0000 6.1844 0.0000
# 4 0.0000 0.0000 0.0000 21.0654 0.0000 3.3701
# 5 6.1803 1.8404 6.1844 0.0000 34.2174 0.0000
# 6 0.0000 0.0000 0.0000 3.3701 0.0000 2.0588
#
#
#
# Elastic Compliance Matrix: (Units=1/GPa)
#
#
# Indices 1 2 3 4 5 6 
#
# 1 0.022391 0.003404 -0.006465 0.000000 -0.003059 0.000000
# 2 0.003404 0.018339 -0.005332 0.000000 -0.000638 0.000000
# 3 -0.006465 -0.005332 0.013532 0.000000 -0.000991 0.000000
# 4 0.000000 0.000000 0.000000 0.064313 0.000000 -0.105273
# 5 -0.003059 -0.000638 -0.000991 0.000000 0.029991 0.000000
# 6 0.000000 0.000000 0.000000 -0.105273 0.000000 0.658031
#
#
# Mechanical properties :
#
#
# Convention : Reuss Voigt Hill
#
# Bulk Modulus (GPa) = 26.68299 33.53963 30.11131
# Shear Modulus (GPa) = 5.98176 22.43557 14.20867
#
# Velocity S-wave (km/s) = 1.77941 3.44612 2.74245
# Velocity P-wave (km/s) = 4.28320 5.79550 5.09577
#
# Compressibility (1/GPa) = 0.03747706
#
# Stress axis : x y z
#
# Youngs Moduli (GPa) = 44.66002 54.52968 73.89807
#
# Poissons Ratio (x) = -0.18563 0.47776
# Poissons Ratio (y) = -0.15203 0.39400
# Poissons Ratio (z) = 0.28873 0.29073
#
# Static dielectric constant tensor:
#      x y z
#    x 1.681120 0.000000 -0.053810 
#    y 0.000000 1.646210 0.000000 
#    z -0.053810 0.000000 1.676130 
# 
# From -- ./inp_files/77775.got.cif
#   From: 2010.05.17/outbox.cif.g08.bks.cpg/sg12_39_cif.got.tgz:77775.got - 2010.06.03 13:09:07.
