data_PCOD9199118
_publ_section_title
;
Structure prediction by ZEFSAII (Michael W. Deem and Ramdas Pophale) SiO2 
 PCOD9199118
Probable space group: C 2/M
;
_chemical_formula_sum "Si O2"
_cell_formula_units_Z 56
_cell_length_a 28.077282
_cell_length_b 8.491090
_cell_length_c 14.030580
_cell_angle_alpha 90.000000
_cell_angle_beta 119.970481
_cell_angle_gamma 90.000000
_cell_volume 2897.702994
_symmetry_space_group_name_H-M "C 2/M"
_symmetry_group_IT_number 12
_symmetry_cell_setting 'monoclinic'
loop_
_space_group_symop_operation_xyz
x,y,z
-x,y,-z
-x,-y,-z
x,-y,z
1/2+x,1/2+y,z
1/2-x,1/2+y,-z
1/2-x,1/2-y,-z
1/2+x,1/2-y,z
loop_
_atom_site_type_symbol
_atom_site_label
_atom_site_fract_x
_atom_site_fract_y
_atom_site_fract_z
Si Si1 0.631739 0.690538 0.311778
Si Si2 0.226104 0.809340 0.257906
Si Si3 0.439331 0.690548 0.406296
Si Si4 0.585296 0.309296 0.834901
Si Si5 0.202796 0.687352 0.022896
Si Si6 0.488254 0.692263 0.880203
Si Si7 0.345415 0.811350 0.453609
O O1 0.631566 0.500000 0.313825
O O2 0.678720 0.740628 0.284358
O O3 0.571594 0.742749 0.216156
O O4 0.644391 0.750417 0.429824
O O5 0.214333 0.746088 0.141189
O O6 0.285857 0.758465 0.355316
O O7 0.225493 0.000000 0.253182
O O8 0.500000 0.741442 0.500000
O O9 0.438364 0.500000 0.407645
O O10 0.427040 0.740704 0.285721
O O11 0.393051 0.751821 0.431373
O O12 0.586609 0.500000 0.837683
O O13 0.536492 0.257928 0.856809
O O14 0.643734 0.248176 0.928799
O O15 0.203369 0.500000 0.021451
O O16 0.250000 0.750000 0.000000
O O17 0.488119 0.500000 0.880430
O O18 0.500000 0.743530 0.000000
O O19 0.345644 0.000000 0.454776
#
# Coordination Sequence:
#
# PCOD9199118 Si02
#       7
#     8   8   8   8   8   8   8
#     4  10  20  37  62  87 114 152 194 234 277 333
#     4  10  22  40  61  86 116 151 192 235 281 336
#     4  10  21  38  60  84 111 149 198 242 280 335
#     4  10  20  36  59  86 116 149 189 238 286 334
#     4  12  25  40  60  85 115 151 191 236 286 341
#     4   9  17  32  58  88 114 146 190 234 277 330
#     4  11  23  37  56  85 119 151 186 235 292 344
#
# _framework density 19.325652000000002
#
# number of rings (size 3 to 8) (size 9 to 14) (size 15 to 20)
#    0.000    1.714    0.000    4.714    0.000    9.429 
#    0.000    2.143    0.000    1.714    0.000    0.000 
#    0.000    0.000    0.000    0.000    0.000    0.000 
#
# Total GULP energy -156545.724145 kJ/mol
# GULP energy per Si atom -5590.918719 kJ/mol
# Density = 1.928167 g / cm^3
# Si number density = 19.325652 Si / 1000 Ang^3
#
#
#
# Elastic Constant Matrix: (Units=GPa)
#
#
# Indices 1 2 3 4 5 6 
#
# 1 246.4572 37.2450 153.3648 0.0000 0.0904 0.0000
# 2 37.2450 16.2863 37.1336 0.0000 -0.0048 0.0000
# 3 153.3648 37.1336 246.5447 0.0000 0.0772 0.0000
# 4 0.0000 0.0000 0.0000 23.5406 0.0000 -5.7629
# 5 0.0904 -0.0048 0.0772 0.0000 46.9428 0.0000
# 6 0.0000 0.0000 0.0000 -5.7629 0.0000 13.3860
#
#
#
# Elastic Compliance Matrix: (Units=1/GPa)
#
#
# Indices 1 2 3 4 5 6 
#
# 1 0.007556 -0.009996 -0.003195 0.000000 -0.000010 0.000000
# 2 -0.009996 0.106739 -0.009859 0.000000 0.000046 0.000000
# 3 -0.003195 -0.009859 0.007528 0.000000 -0.000007 0.000000
# 4 0.000000 0.000000 0.000000 0.047484 0.000000 0.020443
# 5 -0.000010 0.000046 -0.000007 0.000000 0.021303 0.000000
# 6 0.000000 0.000000 0.000000 0.020443 0.000000 0.083506
#
#
# Mechanical properties :
#
#
# Convention : Reuss Voigt Hill
#
# Bulk Modulus (GPa) = 13.20575 107.19724 60.20149
# Shear Modulus (GPa) = 14.47364 35.54354 25.00859
#
# Velocity S-wave (km/s) = 2.73963 4.29323 3.60121
# Velocity P-wave (km/s) = 4.10555 8.95349 6.96494
#
# Compressibility (1/GPa) = 0.07572458
#
# Stress axis : x y z
#
# Youngs Moduli (GPa) = 132.34259 9.36869 132.83203
#
# Poissons Ratio (x) = 0.09365 0.42438
# Poissons Ratio (y) = 1.32286 1.30955
# Poissons Ratio (z) = 0.42281 0.09236
#
# Static dielectric constant tensor:
#      x y z
#    x 1.645790 0.000000 0.006500 
#    y 0.000000 1.668670 0.000000 
#    z 0.006500 0.000000 1.635400 
# 
# From -- ./inp_files/181064.got.cif
#   From: 2010.05.17/outbox.cif.g08.bks.cpg/sg12_91_cif.got.tgz:181064.got - 2010.06.03 13:09:07.
