data_PCOD9199781
_publ_section_title
;
Structure prediction by ZEFSAII (Michael W. Deem and Ramdas Pophale) SiO2 
 PCOD9199781
Probable space group: C 2/M
;
_chemical_formula_sum "Si O2"
_cell_formula_units_Z 64
_cell_length_a 24.403665
_cell_length_b 14.821013
_cell_length_c 9.749638
_cell_angle_alpha 90.000000
_cell_angle_beta 109.456766
_cell_angle_gamma 90.000000
_cell_volume 3324.940620
_symmetry_space_group_name_H-M "C 2/M"
_symmetry_group_IT_number 12
_symmetry_cell_setting 'monoclinic'
loop_
_space_group_symop_operation_xyz
x,y,z
-x,y,-z
-x,-y,-z
x,-y,z
1/2+x,1/2+y,z
1/2-x,1/2+y,-z
1/2-x,1/2-y,-z
1/2+x,1/2-y,z
loop_
_atom_site_type_symbol
_atom_site_label
_atom_site_fract_x
_atom_site_fract_y
_atom_site_fract_z
Si Si1 0.169037 0.896046 0.589449
Si Si2 0.985097 0.393096 0.330858
Si Si3 0.342308 0.803871 0.815829
Si Si4 0.856003 0.394130 0.112529
Si Si5 0.781033 0.274946 0.241731
Si Si6 0.717487 0.104315 0.490688
Si Si7 0.035414 0.249167 0.170038
Si Si8 0.964204 0.106235 0.605017
O O1 0.187629 0.821907 0.716199
O O2 0.215831 0.886432 0.505531
O O3 0.103924 0.880225 0.484148
O O4 0.173614 0.000000 0.642469
O O5 0.996251 0.500000 0.324108
O O6 0.917198 0.377080 0.240331
O O7 0.000000 0.368341 0.500000
O O8 0.022110 0.335838 0.253769
O O9 0.287551 0.744115 0.817727
O O10 0.319887 0.864147 0.670607
O O11 0.396895 0.746805 0.811232
O O12 0.361526 0.865671 0.959040
O O13 0.842425 0.500000 0.112854
O O14 0.806612 0.333087 0.140206
O O15 0.793737 0.331019 0.391170
O O16 0.706227 0.000000 0.515715
O O17 0.018613 0.164382 0.249710
O O18 0.000000 0.253914 0.000000
O O19 0.000000 0.133706 0.500000
O O20 0.974197 0.000000 0.636135
#
# Coordination Sequence:
#
# PCOD9199781 Si02
#       8
#     8   8   8   8   8   8   8   8
#     4   9  19  36  58  87 119 152 198 255 303 354
#     4  10  24  43  63  92 125 164 211 259 311 378
#     4  11  23  41  59  89 126 167 203 252 305 375
#     4  11  24  42  62  91 130 164 202 254 315 375
#     4  11  22  38  63  91 121 159 208 255 302 365
#     4  10  20  36  61  91 121 158 204 249 302 364
#     4  12  24  40  64  90 125 167 206 254 317 370
#     4  10  22  39  62  89 120 160 209 259 306 360
#
# _framework density 19.248463999999998
#
# number of rings (size 3 to 8) (size 9 to 14) (size 15 to 20)
#    0.000    1.500    1.250    4.500    5.250    2.000 
#    0.000    0.625    0.000    0.750    0.000    0.000 
#    0.000    0.000    0.000    0.000    0.000    0.000 
#
# Total GULP energy -178868.468906 kJ/mol
# GULP energy per Si atom -5589.639653 kJ/mol
# Density = 1.920465 g / cm^3
# Si number density = 19.248464 Si / 1000 Ang^3
#
#
#
# Elastic Constant Matrix: (Units=GPa)
#
#
# Indices 1 2 3 4 5 6 
#
# 1 50.8588 27.6480 48.5331 0.0000 -3.9093 0.0000
# 2 27.6480 65.5072 43.8405 0.0000 -10.7779 0.0000
# 3 48.5331 43.8405 128.1781 0.0000 -3.3574 0.0000
# 4 0.0000 0.0000 0.0000 13.5559 0.0000 4.2037
# 5 -3.9093 -10.7779 -3.3574 0.0000 19.8270 0.0000
# 6 0.0000 0.0000 0.0000 4.2037 0.0000 16.5595
#
#
#
# Elastic Compliance Matrix: (Units=1/GPa)
#
#
# Indices 1 2 3 4 5 6 
#
# 1 0.033278 -0.007090 -0.010149 0.000000 0.000989 0.000000
# 2 -0.007090 0.023338 -0.005024 0.000000 0.010437 0.000000
# 3 -0.010149 -0.005024 0.013298 0.000000 -0.002480 0.000000
# 4 0.000000 0.000000 0.000000 0.080072 0.000000 -0.020327
# 5 0.000989 0.010437 -0.002480 0.000000 0.055885 0.000000
# 6 0.000000 0.000000 0.000000 -0.020327 0.000000 0.065548
#
#
# Mechanical properties :
#
#
# Convention : Reuss Voigt Hill
#
# Bulk Modulus (GPa) = 39.39145 53.84301 46.61723
# Shear Modulus (GPa) = 15.41270 18.29000 16.85135
#
# Velocity S-wave (km/s) = 2.83278 3.08588 2.96203
# Velocity P-wave (km/s) = 5.58647 6.38203 5.99745
#
# Compressibility (1/GPa) = 0.02538622
#
# Stress axis : x y z
#
# Youngs Moduli (GPa) = 30.04999 42.84923 75.19941
#
# Poissons Ratio (x) = 0.30381 0.76322
# Poissons Ratio (y) = 0.21306 0.37781
# Poissons Ratio (z) = 0.30499 0.21528
#
# Static dielectric constant tensor:
#      x y z
#    x 1.666920 0.000000 0.009640 
#    y 0.000000 1.663160 0.000000 
#    z 0.009640 0.000000 1.643480 
# 
# From -- ./inp_files/104695.got.cif
#   From: 2010.05.17/outbox.cif.g08.bks.cpg/sg12_53_cif.got.tgz:104695.got - 2010.06.03 13:09:07.
