data_PCOD9199226
_publ_section_title
;
Structure prediction by ZEFSAII (Michael W. Deem and Ramdas Pophale) SiO2 
 PCOD9199226
Probable space group: C 2/M
;
_chemical_formula_sum "Si O2"
_cell_formula_units_Z 64
_cell_length_a 16.437062
_cell_length_b 8.698509
_cell_length_c 27.886235
_cell_angle_alpha 90.000000
_cell_angle_beta 53.401235
_cell_angle_gamma 90.000000
_cell_volume 3200.977804
_symmetry_space_group_name_H-M "C 2/M"
_symmetry_group_IT_number 12
_symmetry_cell_setting 'monoclinic'
loop_
_space_group_symop_operation_xyz
x,y,z
-x,y,-z
-x,-y,-z
x,-y,z
1/2+x,1/2+y,z
1/2-x,1/2+y,-z
1/2-x,1/2-y,-z
1/2+x,1/2-y,z
loop_
_atom_site_type_symbol
_atom_site_label
_atom_site_fract_x
_atom_site_fract_y
_atom_site_fract_z
Si Si1 0.640790 0.819581 0.264641
Si Si2 0.067257 0.812624 0.930882
Si Si3 0.471655 0.685641 0.863010
Si Si4 0.801188 0.314032 0.860247
Si Si5 0.102823 0.323811 0.494242
Si Si6 0.291338 0.178417 0.376944
Si Si7 0.457242 0.321184 0.384332
Si Si8 0.668676 0.680411 0.736908
O O1 0.643329 0.766420 0.208807
O O2 0.565172 0.729809 0.325623
O O3 0.753876 0.808643 0.245979
O O4 0.611631 0.000000 0.276006
O O5 0.183965 0.763518 0.897167
O O6 0.013781 0.763068 0.900091
O O7 0.069632 0.000000 0.928335
O O8 0.000000 0.766637 0.000000
O O9 0.465842 0.500000 0.865898
O O10 0.365035 0.751583 0.882519
O O11 0.558218 0.728582 0.793872
O O12 0.801598 0.500000 0.861437
O O13 0.140130 0.500000 0.481080
O O14 0.186626 0.218401 0.439960
O O15 0.076571 0.272244 0.557000
O O16 0.000000 0.316892 0.500000
O O17 0.377093 0.281590 0.371290
O O18 0.289864 0.222110 0.321742
O O19 0.316148 0.000000 0.374612
O O20 0.457173 0.500000 0.396254
O O21 0.665763 0.500000 0.723886
#
# Coordination Sequence:
#
# PCOD9199226 Si02
#       8
#     8   8   8   8   8   8   8   8
#     4  10  20  37  60  85 117 155 197 244 299 361
#     4   9  18  36  61  87 119 162 207 246 295 363
#     4  10  20  36  59  88 120 159 203 251 302 359
#     4  10  20  36  59  88 120 159 203 251 302 359
#     4  11  24  43  64  85 113 151 192 237 296 359
#     4  12  25  40  59  85 117 152 194 244 297 354
#     4  12  25  40  59  85 117 152 194 244 297 354
#     4  10  20  37  60  85 117 155 197 244 299 361
#
# _framework density 19.993891999999999
#
# number of rings (size 3 to 8) (size 9 to 14) (size 15 to 20)
#    0.000    1.500    1.250    4.500    0.000    8.000 
#    0.000    0.625    0.000    0.750    0.000    0.000 
#    0.000    0.000    0.000    0.000    0.000    0.000 
#
# Total GULP energy -178850.731078 kJ/mol
# GULP energy per Si atom -5589.085346 kJ/mol
# Density = 1.994838 g / cm^3
# Si number density = 19.993892 Si / 1000 Ang^3
#
#
#
# Elastic Constant Matrix: (Units=GPa)
#
#
# Indices 1 2 3 4 5 6 
#
# 1 112.7908 10.4891 42.0182 0.0000 2.7273 0.0000
# 2 10.4891 14.8956 8.4819 0.0000 0.8603 0.0001
# 3 42.0182 8.4819 99.1678 0.0000 7.4324 0.0000
# 4 0.0000 0.0000 0.0000 7.3505 0.0000 -3.7691
# 5 2.7273 0.8603 7.4324 0.0000 17.1056 0.0000
# 6 0.0000 0.0001 0.0000 -3.7691 0.0000 32.9662
#
#
#
# Elastic Compliance Matrix: (Units=1/GPa)
#
#
# Indices 1 2 3 4 5 6 
#
# 1 0.010915 -0.005317 -0.004196 0.000000 0.000350 0.000000
# 2 -0.005317 0.073176 -0.003921 0.000000 -0.001129 0.000000
# 3 -0.004196 -0.003921 0.012541 0.000000 -0.004583 0.000000
# 4 0.000000 0.000000 0.000000 0.144518 0.000000 0.016523
# 5 0.000350 -0.001129 -0.004583 0.000000 0.060452 0.000000
# 6 0.000000 0.000000 0.000000 0.016523 0.000000 0.032223
#
#
# Mechanical properties :
#
#
# Convention : Reuss Voigt Hill
#
# Bulk Modulus (GPa) = 14.33431 38.75919 26.54675
# Shear Modulus (GPa) = 13.02256 22.54213 17.78234
#
# Velocity S-wave (km/s) = 2.55488 3.36140 2.98550
# Velocity P-wave (km/s) = 3.98599 5.87307 5.01902
#
# Compressibility (1/GPa) = 0.06976269
#
# Stress axis : x y z
#
# Youngs Moduli (GPa) = 91.61502 13.66568 79.73966
#
# Poissons Ratio (x) = 0.07266 0.33462
# Poissons Ratio (y) = 0.48711 0.31269
# Poissons Ratio (z) = 0.38445 0.05359
#
# Static dielectric constant tensor:
#      x y z
#    x 1.719080 0.000000 0.023790 
#    y 0.000000 1.680920 0.000000 
#    z 0.023790 0.000000 1.767220 
# 
# From -- ./inp_files/375398.got.cif
#   From: 2010.05.17/outbox.cif.g08.bks.cpg/sg12_188_cif.got.tgz:375398.got - 2010.06.03 13:09:07.
