data_PCOD9199047
_publ_section_title
;
Structure prediction by ZEFSAII (Michael W. Deem and Ramdas Pophale) SiO2 
 PCOD9199047
Probable space group: C 2/M
;
_chemical_formula_sum "Si O2"
_cell_formula_units_Z 56
_cell_length_a 9.428855
_cell_length_b 16.976526
_cell_length_c 27.819665
_cell_angle_alpha 90.000000
_cell_angle_beta 42.222827
_cell_angle_gamma 90.000000
_cell_volume 2992.533912
_symmetry_space_group_name_H-M "C 2/M"
_symmetry_group_IT_number 12
_symmetry_cell_setting 'monoclinic'
loop_
_space_group_symop_operation_xyz
x,y,z
-x,y,-z
-x,-y,-z
x,-y,z
1/2+x,1/2+y,z
1/2-x,1/2+y,-z
1/2-x,1/2-y,-z
1/2+x,1/2-y,z
loop_
_atom_site_type_symbol
_atom_site_label
_atom_site_fract_x
_atom_site_fract_y
_atom_site_fract_z
Si Si1 0.322663 0.913604 0.225696
Si Si2 0.016115 0.171243 0.919005
Si Si3 0.155041 0.336918 0.076414
Si Si4 0.450767 0.292487 0.311294
Si Si5 0.126159 0.628406 0.234077
Si Si6 0.614076 0.910030 0.348101
Si Si7 0.740331 0.701010 0.453320
O O1 0.473065 0.892332 0.142851
O O2 0.470842 0.912025 0.235340
O O3 0.145617 0.847830 0.276151
O O4 0.228407 0.000000 0.243013
O O5 0.190016 0.180746 0.917498
O O6 0.138221 0.126105 0.846427
O O7 0.946589 0.256081 0.916732
O O8 0.810111 0.132807 0.995325
O O9 0.545836 0.219262 0.257496
O O10 0.285147 0.347303 0.324675
O O11 0.339505 0.253902 0.385573
O O12 0.118107 0.594205 0.289255
O O13 0.387010 0.875838 0.420793
O O14 0.649555 0.000000 0.354976
O O15 0.500000 0.682362 0.500000
O O16 0.750000 0.750000 0.500000
#
# Coordination Sequence:
#
# PCOD9199047 Si02
#       7
#     8   8   8   8   8   8   8
#     4  11  22  36  55  86 121 152 190 243 296 339
#     4   9  17  31  54  80 107 147 201 245 278 329
#     4   9  18  32  51  82 109 147 195 246 283 333
#     4  11  22  39  64  85 116 156 195 227 280 348
#     4  10  20  36  59  85 112 157 204 238 279 343
#     4  11  24  40  60  91 123 151 187 238 290 339
#     4  11  23  44  68  90 114 151 194 232 277 343
#
# _framework density 18.713238
#
# number of rings (size 3 to 8) (size 9 to 14) (size 15 to 20)
#    0.000    1.714    2.857    2.571    4.000    0.286 
#    0.000    8.571    0.000    0.000    0.000    5.000 
#    0.000    0.000    0.000    0.000    0.000    0.000 
#
# Total GULP energy -156260.846906 kJ/mol
# GULP energy per Si atom -5580.744532 kJ/mol
# Density = 1.867065 g / cm^3
# Si number density = 18.713238 Si / 1000 Ang^3
#
#
#
# Elastic Constant Matrix: (Units=GPa)
#
#
# Indices 1 2 3 4 5 6 
#
# 1 32.4007 3.7926 13.6106 0.0003 -2.4442 0.0001
# 2 3.7926 80.8472 10.1946 0.0009 -0.6061 0.0000
# 3 13.6106 10.1946 96.0288 0.0013 1.3970 -0.0003
# 4 0.0003 0.0009 0.0013 4.2485 -0.0001 0.9298
# 5 -2.4442 -0.6061 1.3970 -0.0001 32.6782 0.0004
# 6 0.0001 0.0000 -0.0003 0.9298 0.0004 12.0672
#
#
#
# Elastic Compliance Matrix: (Units=1/GPa)
#
#
# Indices 1 2 3 4 5 6 
#
# 1 0.033121 -0.000950 -0.004632 -0.000001 0.002658 0.000000
# 2 -0.000950 0.012567 -0.001203 -0.000002 0.000213 0.000000
# 3 -0.004632 -0.001203 0.011210 -0.000003 -0.000848 0.000001
# 4 -0.000001 -0.000002 -0.000003 0.239417 0.000001 -0.018448
# 5 0.002658 0.000213 -0.000848 0.000001 0.030840 -0.000001
# 6 0.000000 0.000000 0.000001 -0.018448 -0.000001 0.084290
#
#
# Mechanical properties :
#
#
# Convention : Reuss Voigt Hill
#
# Bulk Modulus (GPa) = 23.07929 29.38581 26.23255
# Shear Modulus (GPa) = 11.37766 21.91072 16.64419
#
# Velocity S-wave (km/s) = 2.46844 3.42551 2.98557
# Velocity P-wave (km/s) = 4.52595 5.60203 5.09249
#
# Compressibility (1/GPa) = 0.04332889
#
# Stress axis : x y z
#
# Youngs Moduli (GPa) = 30.19229 79.57469 89.20530
#
# Poissons Ratio (x) = 0.07557 0.41322
# Poissons Ratio (y) = 0.02867 0.10728
# Poissons Ratio (z) = 0.13986 0.09570
#
# Static dielectric constant tensor:
#      x y z
#    x 1.635000 0.000000 -0.002090 
#    y 0.000000 1.621870 0.000000 
#    z -0.002090 0.000000 1.667560 
# 
# From -- ./inp_files/372772.got.cif
#   From: 2010.05.17/outbox.cif.g08.bks.cpg/sg12_187_cif.got.tgz:372772.got - 2010.06.03 13:09:07.
