data_PCOD9199017
_publ_section_title
;
Structure prediction by ZEFSAII (Michael W. Deem and Ramdas Pophale) SiO2 
 PCOD9199017
Probable space group: C 2/M
;
_chemical_formula_sum "Si O2"
_cell_formula_units_Z 64
_cell_length_a 19.314080
_cell_length_b 8.920184
_cell_length_c 29.684449
_cell_angle_alpha 90.000000
_cell_angle_beta 43.385758
_cell_angle_gamma 90.000000
_cell_volume 3512.972097
_symmetry_space_group_name_H-M "C 2/M"
_symmetry_group_IT_number 12
_symmetry_cell_setting 'monoclinic'
loop_
_space_group_symop_operation_xyz
x,y,z
-x,y,-z
-x,-y,-z
x,-y,z
1/2+x,1/2+y,z
1/2-x,1/2+y,-z
1/2-x,1/2-y,-z
1/2+x,1/2-y,z
loop_
_atom_site_type_symbol
_atom_site_label
_atom_site_fract_x
_atom_site_fract_y
_atom_site_fract_z
Si Si1 0.472409 0.168996 0.461007
Si Si2 0.734081 0.676200 0.459052
Si Si3 0.076676 0.822197 0.671221
Si Si4 0.248091 0.682381 0.818804
Si Si5 0.906051 0.182254 0.819310
Si Si6 0.982192 0.680906 0.061199
Si Si7 0.138952 0.819125 0.057465
Si Si8 0.086924 0.822122 0.330608
O O1 0.500000 0.163826 0.500000
O O2 0.377508 0.277282 0.501858
O O3 0.560943 0.230658 0.387359
O O4 0.445123 0.000000 0.458944
O O5 0.743927 0.500000 0.458128
O O6 0.750000 0.750000 0.500000
O O7 0.818978 0.739174 0.385502
O O8 0.007730 0.770214 0.745544
O O9 0.006259 0.802263 0.660271
O O10 0.095325 0.000000 0.666863
O O11 0.248416 0.500000 0.819701
O O12 0.310625 0.731127 0.833739
O O13 0.313929 0.725617 0.744079
O O14 0.132183 0.729386 0.873150
O O15 0.898941 0.225605 0.874548
O O16 0.905465 0.000000 0.817970
O O17 0.989840 0.500000 0.062999
O O18 0.064006 0.757404 0.054708
O O19 0.000000 0.713591 0.000000
O O20 0.143908 0.000000 0.052930
O O21 0.250000 0.750000 0.000000
O O22 0.094175 0.000000 0.336814
#
# Coordination Sequence:
#
# PCOD9199017 Si02
#       8
#     8   8   8   8   8   8   8   8
#     4  11  24  40  56  78 110 148 189 236 286 337
#     4  12  23  36  58  85 113 146 188 236 283 335
#     4   9  17  33  58  85 110 143 187 232 278 333
#     4   8  15  31  56  83 107 140 187 229 272 331
#     4   8  16  33  57  82 110 146 187 227 278 337
#     4  10  20  36  59  84 114 152 193 232 274 329
#     4  11  22  37  58  85 117 152 189 231 280 332
#     4   9  17  32  57  82 107 143 185 230 279 333
#
# _framework density 18.218191999999998
#
# number of rings (size 3 to 8) (size 9 to 14) (size 15 to 20)
#    0.000    2.250    1.250    4.125    0.000    3.250 
#    2.250    1.875    0.000    3.750    0.000    0.000 
#    0.000    0.000    0.000    0.000    0.000    0.000 
#
# Total GULP energy -178545.910011 kJ/mol
# GULP energy per Si atom -5579.559688 kJ/mol
# Density = 1.817673 g / cm^3
# Si number density = 18.218192 Si / 1000 Ang^3
#
#
#
# Elastic Constant Matrix: (Units=GPa)
#
#
# Indices 1 2 3 4 5 6 
#
# 1 100.4987 35.8131 76.5216 -0.0001 3.8823 0.0005
# 2 35.8131 53.9721 47.2494 0.0000 5.5581 0.0010
# 3 76.5216 47.2494 155.6820 0.0000 2.6943 0.0000
# 4 -0.0001 0.0000 0.0000 21.5580 0.0000 -2.4243
# 5 3.8823 5.5581 2.6943 0.0000 32.7074 -0.0001
# 6 0.0005 0.0010 0.0000 -2.4243 -0.0001 24.4765
#
#
#
# Elastic Compliance Matrix: (Units=1/GPa)
#
#
# Indices 1 2 3 4 5 6 
#
# 1 0.016991 -0.005331 -0.006724 0.000000 -0.000557 0.000000
# 2 -0.005331 0.027350 -0.005619 0.000000 -0.003552 -0.000001
# 3 -0.006724 -0.005619 0.011420 0.000000 0.000812 0.000000
# 4 0.000000 0.000000 0.000000 0.046909 0.000000 0.004646
# 5 -0.000557 -0.003552 0.000812 0.000000 0.031177 0.000000
# 6 0.000000 -0.000001 0.000000 0.004646 0.000000 0.041316
#
#
# Mechanical properties :
#
#
# Convention : Reuss Voigt Hill
#
# Bulk Modulus (GPa) = 48.98722 69.92456 59.45589
# Shear Modulus (GPa) = 23.00799 25.78628 24.39714
#
# Velocity S-wave (km/s) = 3.55760 3.76628 3.66343
# Velocity P-wave (km/s) = 6.61989 7.57484 7.11341
#
# Compressibility (1/GPa) = 0.02041349
#
# Stress axis : x y z
#
# Youngs Moduli (GPa) = 58.85314 36.56268 87.56687
#
# Poissons Ratio (x) = 0.19490 0.58882
# Poissons Ratio (y) = 0.31372 0.49205
# Poissons Ratio (z) = 0.39574 0.20545
#
# Static dielectric constant tensor:
#      x y z
#    x 1.605810 0.000000 -0.001960 
#    y 0.000000 1.616450 0.000000 
#    z -0.001960 0.000000 1.641640 
# 
# From -- ./inp_files/378166.got.cif
#   From: 2010.05.17/outbox.cif.g08.bks.cpg/sg12_190_cif.got.tgz:378166.got - 2010.06.03 13:09:07.
