data_PCOD9199868
_publ_section_title
;
Structure prediction by ZEFSAII (Michael W. Deem and Ramdas Pophale) SiO2 
 PCOD9199868
Probable space group: C 2/M
;
_chemical_formula_sum "Si O2"
_cell_formula_units_Z 36
_cell_length_a 9.366155
_cell_length_b 13.776357
_cell_length_c 14.023107
_cell_angle_alpha 90.000000
_cell_angle_beta 85.439572
_cell_angle_gamma 90.000000
_cell_volume 1803.693885
_symmetry_space_group_name_H-M "C 2/M"
_symmetry_group_IT_number 12
_symmetry_cell_setting 'monoclinic'
loop_
_space_group_symop_operation_xyz
x,y,z
-x,y,-z
-x,-y,-z
x,-y,z
1/2+x,1/2+y,z
1/2-x,1/2+y,-z
1/2-x,1/2-y,-z
1/2+x,1/2-y,z
loop_
_atom_site_type_symbol
_atom_site_label
_atom_site_fract_x
_atom_site_fract_y
_atom_site_fract_z
Si Si1 0.500000 0.750438 0.000000
Si Si2 0.630628 0.212289 0.433349
Si Si3 0.236530 0.197733 0.128691
Si Si4 0.920498 0.107511 0.697032
Si Si5 0.740271 0.390560 0.755300
O O1 0.607964 0.811044 0.927113
O O2 0.389712 0.688021 0.942123
O O3 0.500000 0.168824 0.500000
O O4 0.750000 0.250000 0.500000
O O5 0.577187 0.308200 0.380626
O O6 0.689712 0.141073 0.348963
O O7 0.204830 0.130392 0.220666
O O8 0.224219 0.308019 0.169792
O O9 0.069841 0.112195 0.746015
O O10 0.905079 0.000000 0.656519
O O11 0.781496 0.500000 0.779774
#
# Coordination Sequence:
#
# PCOD9199868 Si02
#       5
#     4   8   8   8   8
#     4  10  20  36  62  82 120 148 190 230 294 330
#     4  11  22  38  59  86 116 149 189 237 282 333
#     4  10  20  39  58  88 113 155 183 241 280 342
#     4  10  21  38  61  84 114 155 191 228 284 347
#     4  10  21  38  60  84 116 153 190 232 285 341
#
# _framework density 19.959040999999999
#
# number of rings (size 3 to 8) (size 9 to 14) (size 15 to 20)
#    0.000    1.778    4.444    0.000    0.000    1.778 
#    0.000   10.000    0.000    0.000    0.000    0.000 
#    0.000    0.000    0.000    0.000    0.000    0.000 
#
# Total GULP energy -100461.330072 kJ/mol
# GULP energy per Si atom -5581.185004 kJ/mol
# Density = 1.991361 g / cm^3
# Si number density = 19.959041 Si / 1000 Ang^3
#
#
#
# Elastic Constant Matrix: (Units=GPa)
#
#
# Indices 1 2 3 4 5 6 
#
# 1 78.6556 -2.8397 23.7685 0.0000 -22.9868 0.0000
# 2 -2.8397 83.3971 4.2685 0.0000 -0.6043 0.0000
# 3 23.7685 4.2685 77.5751 0.0000 -30.0288 0.0000
# 4 0.0000 0.0000 0.0000 4.7314 0.0000 0.5758
# 5 -22.9868 -0.6043 -30.0288 0.0000 54.2612 0.0000
# 6 0.0000 0.0000 0.0000 0.5758 0.0000 16.2053
#
#
#
# Elastic Compliance Matrix: (Units=1/GPa)
#
#
# Indices 1 2 3 4 5 6 
#
# 1 0.014983 0.000686 -0.002760 0.000000 0.004828 0.000000
# 2 0.000686 0.012060 -0.000903 0.000000 -0.000074 0.000000
# 3 -0.002760 -0.000903 0.016963 0.000000 0.008209 0.000000
# 4 0.000000 0.000000 0.000000 0.212271 0.000000 -0.007543
# 5 0.004828 -0.000074 0.008209 0.000000 0.025016 0.000000
# 6 0.000000 0.000000 0.000000 -0.007543 0.000000 0.061976
#
#
# Mechanical properties :
#
#
# Convention : Reuss Voigt Hill
#
# Bulk Modulus (GPa) = 26.27812 32.22473 29.25143
# Shear Modulus (GPa) = 13.81568 29.33495 21.57531
#
# Velocity S-wave (km/s) = 2.63383 3.83790 3.29139
# Velocity P-wave (km/s) = 4.73751 5.98496 5.39740
#
# Compressibility (1/GPa) = 0.03805447
#
# Stress axis : x y z
#
# Youngs Moduli (GPa) = 66.74102 82.91973 58.95021
#
# Poissons Ratio (x) = -0.05692 0.16269
# Poissons Ratio (y) = -0.04581 0.05322
# Poissons Ratio (z) = 0.18419 0.07485
#
# Static dielectric constant tensor:
#      x y z
#    x 1.712370 0.000000 -0.017000 
#    y 0.000000 1.671170 0.000000 
#    z -0.017000 0.000000 1.726820 
# 
# From -- ./inp_files/193954.got.cif
#   From: 2010.05.17/outbox.cif.g08.bks.cpg/sg12_97_cif.got.tgz:193954.got - 2010.06.03 13:09:07.
