data_PCOD9199791
_publ_section_title
;
Structure prediction by ZEFSAII (Michael W. Deem and Ramdas Pophale) SiO2 
 PCOD9199791
Probable space group: C 2/M
;
_chemical_formula_sum "Si O2"
_cell_formula_units_Z 64
_cell_length_a 12.636028
_cell_length_b 23.941956
_cell_length_c 10.706517
_cell_angle_alpha 90.000000
_cell_angle_beta 79.478152
_cell_angle_gamma 90.000000
_cell_volume 3184.592118
_symmetry_space_group_name_H-M "C 2/M"
_symmetry_group_IT_number 12
_symmetry_cell_setting 'monoclinic'
loop_
_space_group_symop_operation_xyz
x,y,z
-x,y,-z
-x,-y,-z
x,-y,z
1/2+x,1/2+y,z
1/2-x,1/2+y,-z
1/2-x,1/2-y,-z
1/2+x,1/2-y,z
loop_
_atom_site_type_symbol
_atom_site_label
_atom_site_fract_x
_atom_site_fract_y
_atom_site_fract_z
Si Si1 0.873391 0.769476 0.520473
Si Si2 0.574768 0.937399 0.861218
Si Si3 0.307289 0.848124 0.805119
Si Si4 0.408851 0.666221 0.269705
Si Si5 0.066679 0.436835 0.359048
Si Si6 0.242176 0.870582 0.083104
Si Si7 0.619665 0.269890 0.190313
Si Si8 0.477045 0.435294 0.856783
O O1 0.750000 0.750000 0.500000
O O2 0.897982 0.818311 0.416735
O O3 0.856563 0.782234 0.668801
O O4 0.000000 0.740571 0.500000
O O5 0.508399 0.934759 0.747825
O O6 0.662172 0.888925 0.848088
O O7 0.624084 0.000000 0.858356
O O8 0.500000 0.931960 0.000000
O O9 0.199760 0.819858 0.777999
O O10 0.350214 0.887608 0.686407
O O11 0.382919 0.796464 0.825166
O O12 0.280079 0.883157 0.934017
O O13 0.503961 0.703104 0.190466
O O14 0.438250 0.602277 0.236221
O O15 0.112879 0.500000 0.354826
O O16 0.000000 0.428005 0.500000
O O17 0.206520 0.806150 0.096445
O O18 0.138935 0.907518 0.138863
O O19 0.479796 0.500000 0.822468
O O20 0.500000 0.430122 0.000000
#
# Coordination Sequence:
#
# PCOD9199791 Si02
#       8
#     8   8   8   8   8   8   8   8
#     4  10  20  41  64  87 122 171 223 270 330 396
#     4  10  20  39  63  89 124 165 212 268 325 388
#     4  12  22  39  63  91 124 171 210 262 327 384
#     4  10  22  39  59  90 127 154 215 269 315 386
#     4  10  24  43  64  95 130 164 214 272 327 391
#     4  11  22  38  59  94 125 165 215 258 322 387
#     4  10  24  39  59  88 130 168 211 265 324 392
#     4  10  20  36  61  91 124 165 207 262 323 383
#
# _framework density 20.096765000000001
#
# number of rings (size 3 to 8) (size 9 to 14) (size 15 to 20)
#    0.000    1.625    3.750    0.750    0.000    4.500 
#    0.000    0.000    0.000   10.125    0.000    0.000 
#    0.000    0.000    0.000    0.000    0.000    0.000 
#
# Total GULP energy -178249.624102 kJ/mol
# GULP energy per Si atom -5570.300753 kJ/mol
# Density = 2.005102 g / cm^3
# Si number density = 20.096765 Si / 1000 Ang^3
#
#
#
# Elastic Constant Matrix: (Units=GPa)
#
#
# Indices 1 2 3 4 5 6 
#
# 1 81.8537 31.1367 5.2786 0.0000 1.2268 0.0000
# 2 31.1367 85.7817 8.2654 0.0000 -23.9314 0.0000
# 3 5.2786 8.2654 76.7877 0.0000 -9.6976 0.0000
# 4 0.0000 0.0000 0.0000 27.4598 0.0000 -7.1113
# 5 1.2268 -23.9314 -9.6976 0.0000 24.9335 0.0000
# 6 0.0000 0.0000 0.0000 -7.1113 0.0000 12.9186
#
#
#
# Elastic Compliance Matrix: (Units=1/GPa)
#
#
# Indices 1 2 3 4 5 6 
#
# 1 0.015473 -0.007983 -0.001334 0.000000 -0.008942 0.000000
# 2 -0.007983 0.020042 0.000915 0.000000 0.019986 0.000000
# 3 -0.001334 0.000915 0.013814 0.000000 0.006317 0.000000
# 4 0.000000 0.000000 0.000000 0.042471 0.000000 0.023379
# 5 -0.008942 0.019986 0.006317 0.000000 0.062186 0.000000
# 6 0.000000 0.000000 0.000000 0.023379 0.000000 0.090277
#
#
# Mechanical properties :
#
#
# Convention : Reuss Voigt Hill
#
# Bulk Modulus (GPa) = 30.74282 37.08717 33.91499
# Shear Modulus (GPa) = 18.38851 26.37854 22.38353
#
# Velocity S-wave (km/s) = 3.02818 3.62688 3.34097
# Velocity P-wave (km/s) = 5.24948 6.00278 5.63873
#
# Compressibility (1/GPa) = 0.03252792
#
# Stress axis : x y z
#
# Youngs Moduli (GPa) = 64.62677 49.89424 72.39112
#
# Poissons Ratio (x) = 0.39828 0.09655
# Poissons Ratio (y) = 0.51589 -0.06627
# Poissons Ratio (z) = 0.08620 -0.04567
#
# Static dielectric constant tensor:
#      x y z
#    x 1.788090 0.000000 -0.005910 
#    y 0.000000 1.754400 0.000000 
#    z -0.005910 0.000000 1.687880 
# 
# From -- ./inp_files/135361.got.cif
#   From: 2010.05.17/outbox.cif.g08.bks.cpg/sg12_68_cif.got.tgz:135361.got - 2010.06.03 13:09:07.
