data_PCOD9199966
_publ_section_title
;
Structure prediction by ZEFSAII (Michael W. Deem and Ramdas Pophale) SiO2 
 PCOD9199966
Probable space group: C 2/M
;
_chemical_formula_sum "Si O2"
_cell_formula_units_Z 42
_cell_length_a 19.398267
_cell_length_b 22.380514
_cell_length_c 4.942211
_cell_angle_alpha 90.000000
_cell_angle_beta 111.686239
_cell_angle_gamma 90.000000
_cell_volume 1993.762628
_symmetry_space_group_name_H-M "C 2/M"
_symmetry_group_IT_number 12
_symmetry_cell_setting 'monoclinic'
loop_
_space_group_symop_operation_xyz
x,y,z
-x,y,-z
-x,-y,-z
x,-y,z
1/2+x,1/2+y,z
1/2-x,1/2+y,-z
1/2-x,1/2-y,-z
1/2+x,1/2-y,z
loop_
_atom_site_type_symbol
_atom_site_label
_atom_site_fract_x
_atom_site_fract_y
_atom_site_fract_z
Si Si1 0.187518 0.000000 0.852061
Si Si2 0.879387 0.097818 0.878259
Si Si3 0.718436 0.874179 0.395399
Si Si4 0.449949 0.277931 0.170400
Si Si5 0.500000 0.500000 0.000000
Si Si6 0.789309 0.500000 0.495976
Si Si7 0.187849 0.700724 0.851589
O O1 0.142951 0.942077 0.890359
O O2 0.260428 0.000000 0.148641
O O3 0.217171 0.000000 0.593109
O O4 0.804076 0.114624 0.608238
O O5 0.939249 0.053358 0.828118
O O6 0.913621 0.160749 0.012604
O O7 0.675690 0.936172 0.390960
O O8 0.689668 0.821459 0.546794
O O9 0.709098 0.854796 0.074170
O O10 0.500000 0.292896 0.500000
O O11 0.388787 0.230575 0.174296
O O12 0.500000 0.253517 0.000000
O O13 0.250000 0.750000 0.000000
#
# Coordination Sequence:
#
# PCOD9199966 Si02
#       7
#     4   8   8   8   2   4   8
#     4   9  20  35  53  86 126 171 211 254 301 368
#     4  10  21  38  61  88 133 182 230 254 312 378
#     4  11  23  41  66  96 128 169 226 281 324 383
#     4  12  27  43  63  92 133 178 224 278 335 400
#     4  10  20  40  58  96 142 196 208 254 310 404
#     4  10  20  36  62  92 126 151 198 276 337 378
#     4  12  25  41  68  95 128 177 234 281 332 385
#
# _framework density 21.065695000000002
#
# number of rings (size 3 to 8) (size 9 to 14) (size 15 to 20)
#    0.000    1.143    2.857    4.571    2.667    1.524 
#    3.429    0.952    0.000    0.000    0.000   13.333 
#    0.000    0.000    0.000    0.000    0.000    0.000 
#
# Total GULP energy -117131.763402 kJ/mol
# GULP energy per Si atom -5577.703019 kJ/mol
# Density = 2.101775 g / cm^3
# Si number density = 21.065695 Si / 1000 Ang^3
#
#
#
# Elastic Constant Matrix: (Units=GPa)
#
#
# Indices 1 2 3 4 5 6 
#
# 1 52.9703 3.3370 -5.9246 0.0000 8.4355 0.0000
# 2 3.3370 75.8331 -11.2314 0.0000 15.9531 0.0000
# 3 -5.9246 -11.2314 53.3498 0.0000 8.3798 0.0000
# 4 0.0000 0.0000 0.0000 13.6813 0.0000 -25.9621
# 5 8.4355 15.9531 8.3798 0.0000 19.5228 0.0000
# 6 0.0000 0.0000 0.0000 -25.9621 0.0000 -11.1857
#
#
#
# Elastic Compliance Matrix: (Units=1/GPa)
#
#
# Indices 1 2 3 4 5 6 
#
# 1 0.021452 0.002680 0.005089 0.000000 -0.013643 0.000000
# 2 0.002680 0.018120 0.007098 0.000000 -0.019011 0.000000
# 3 0.005089 0.007098 0.023655 0.000000 -0.018153 0.000000
# 4 0.000000 0.000000 0.000000 0.013525 0.000000 -0.031391
# 5 -0.013643 -0.019011 -0.018153 0.000000 0.080445 0.000000
# 6 0.000000 0.000000 0.000000 -0.031391 0.000000 -0.016542
#
#
# Mechanical properties :
#
#
# Convention : Reuss Voigt Hill
#
# Bulk Modulus (GPa) = 10.75705 17.16838 13.96271
# Shear Modulus (GPa) = 35.23476 17.46849 26.35162
#
# Velocity S-wave (km/s) = 4.09420 2.88277 3.54068
# Velocity P-wave (km/s) = 5.24094 4.38727 4.83299
#
# Compressibility (1/GPa) = 0.09296228
#
# Stress axis : x y z
#
# Youngs Moduli (GPa) = 46.61651 55.18854 42.27408
#
# Poissons Ratio (x) = -0.14791 -0.21515
# Poissons Ratio (y) = -0.12493 -0.30008
# Poissons Ratio (z) = -0.23725 -0.39175
#
# Static dielectric constant tensor:
#      x y z
#    x 1.788360 0.000000 -0.013680 
#    y 0.000000 1.813860 0.000000 
#    z -0.013680 0.000000 1.769790 
# 
# From -- ./inp_files/16231.got.cif
#   From: 2010.05.17/outbox.cif.g08.bks.cpg/sg12_9_cif.got.tgz:16231.got - 2010.06.03 13:09:07.
