data_PCOD9199795
_publ_section_title
;
Structure prediction by ZEFSAII (Michael W. Deem and Ramdas Pophale) SiO2 
 PCOD9199795
Probable space group: C 2/M
;
_chemical_formula_sum "Si O2"
_cell_formula_units_Z 40
_cell_length_a 14.045464
_cell_length_b 10.732062
_cell_length_c 13.090622
_cell_angle_alpha 90.000000
_cell_angle_beta 61.838265
_cell_angle_gamma 90.000000
_cell_volume 1739.644118
_symmetry_space_group_name_H-M "C 2/M"
_symmetry_group_IT_number 12
_symmetry_cell_setting 'monoclinic'
loop_
_space_group_symop_operation_xyz
x,y,z
-x,y,-z
-x,-y,-z
x,-y,z
1/2+x,1/2+y,z
1/2-x,1/2+y,-z
1/2-x,1/2-y,-z
1/2+x,1/2-y,z
loop_
_atom_site_type_symbol
_atom_site_label
_atom_site_fract_x
_atom_site_fract_y
_atom_site_fract_z
Si Si1 0.619135 0.137368 0.543224
Si Si2 0.925826 0.210019 0.718866
Si Si3 0.481105 0.704995 0.117463
Si Si4 0.741719 0.216486 0.679489
Si Si5 0.168810 0.360567 0.071668
O O1 0.527949 0.242547 0.603793
O O2 0.688292 0.142393 0.612827
O O3 0.695542 0.172517 0.410591
O O4 0.572763 0.000000 0.556643
O O5 0.833285 0.147494 0.699086
O O6 0.864991 0.333261 0.794486
O O7 0.970711 0.148412 0.800880
O O8 0.357434 0.736961 0.201390
O O9 0.556214 0.829229 0.072322
O O10 0.500000 0.639362 0.000000
O O11 0.207542 0.500000 0.034533
O O12 0.250000 0.250000 0.000000
#
# Coordination Sequence:
#
# PCOD9199795 Si02
#       5
#     8   8   8   8   8
#     4  10  21  38  62  92 123 163 216 267 317 388
#     4   9  20  35  61  91 126 163 210 264 324 385
#     4   9  20  36  60  90 125 165 213 265 316 387
#     4  10  20  36  61  91 125 162 208 267 321 377
#     4  10  21  38  61  90 125 167 213 263 319 383
#
# _framework density 22.993207000000002
#
# number of rings (size 3 to 8) (size 9 to 14) (size 15 to 20)
#    1.200    1.200    0.000    2.400    0.000    2.800 
#    0.000    6.000    0.000   18.000    0.000    0.000 
#    0.000    0.000    0.000    0.000    0.000    0.000 
#
# Total GULP energy -111391.939264 kJ/mol
# GULP energy per Si atom -5569.596963 kJ/mol
# Density = 2.294087 g / cm^3
# Si number density = 22.993207 Si / 1000 Ang^3
#
#
#
# Elastic Constant Matrix: (Units=GPa)
#
#
# Indices 1 2 3 4 5 6 
#
# 1 182.5883 18.6729 57.5910 0.0000 9.5131 0.0000
# 2 18.6729 96.0461 31.8516 0.0000 -8.4906 0.0000
# 3 57.5910 31.8516 162.4231 0.0000 -11.1696 0.0000
# 4 0.0000 0.0000 0.0000 0.0850 0.0000 -8.8759
# 5 9.5131 -8.4906 -11.1696 0.0000 50.5772 0.0000
# 6 0.0000 0.0000 0.0000 -8.8759 0.0000 -1.1518
#
#
#
# Elastic Compliance Matrix: (Units=1/GPa)
#
#
# Indices 1 2 3 4 5 6 
#
# 1 0.006345 -0.000648 -0.002247 0.000000 -0.001798 0.000000
# 2 -0.000648 0.011302 -0.001876 0.000000 0.001605 0.000000
# 3 -0.002247 -0.001876 0.007442 0.000000 0.001751 0.000000
# 4 0.000000 0.000000 0.000000 0.014603 0.000000 -0.112525
# 5 -0.001798 0.001605 0.001751 0.000000 0.020766 0.000000
# 6 0.000000 0.000000 0.000000 -0.112525 0.000000 -0.001077
#
#
# Mechanical properties :
#
#
# Convention : Reuss Voigt Hill
#
# Bulk Modulus (GPa) = 64.31795 73.03203 68.67499
# Shear Modulus (GPa) = 67.47318 32.09819 49.78568
#
# Velocity S-wave (km/s) = 5.42296 3.74034 4.65826
# Velocity P-wave (km/s) = 8.20029 7.10528 7.67234
#
# Compressibility (1/GPa) = 0.01554776
#
# Stress axis : x y z
#
# Youngs Moduli (GPa) = 157.59636 88.48254 134.37796
#
# Poissons Ratio (x) = 0.05730 0.30189
# Poissons Ratio (y) = 0.10206 0.25214
# Poissons Ratio (z) = 0.35405 0.16602
#
# Static dielectric constant tensor:
#      x y z
#    x 1.960190 0.000000 0.067280 
#    y 0.000000 1.848680 0.000000 
#    z 0.067280 0.000000 1.884520 
# 
# From -- ./inp_files/211832.got.cif
#   From: 2010.05.17/outbox.cif.g08.bks.cpg/sg12_106_cif.got.tgz:211832.got - 2010.06.03 13:09:07.
