data_PCOD9199025
_publ_section_title
;
Structure prediction by ZEFSAII (Michael W. Deem and Ramdas Pophale) SiO2 
 PCOD9199025
Probable space group: C 2/M
;
_chemical_formula_sum "Si O2"
_cell_formula_units_Z 56
_cell_length_a 17.793007
_cell_length_b 18.216368
_cell_length_c 9.628043
_cell_angle_alpha 90.000000
_cell_angle_beta 77.153019
_cell_angle_gamma 90.000000
_cell_volume 3042.560619
_symmetry_space_group_name_H-M "C 2/M"
_symmetry_group_IT_number 12
_symmetry_cell_setting 'monoclinic'
loop_
_space_group_symop_operation_xyz
x,y,z
-x,y,-z
-x,-y,-z
x,-y,z
1/2+x,1/2+y,z
1/2-x,1/2+y,-z
1/2-x,1/2-y,-z
1/2+x,1/2-y,z
loop_
_atom_site_type_symbol
_atom_site_label
_atom_site_fract_x
_atom_site_fract_y
_atom_site_fract_z
Si Si1 0.460849 0.791656 0.665341
Si Si2 0.275645 0.087189 0.062821
Si Si3 0.676039 0.586791 0.839066
Si Si4 0.812067 0.311808 0.300224
Si Si5 0.448677 0.084094 0.883043
Si Si6 0.202972 0.671569 0.381031
Si Si7 0.550140 0.709947 0.841118
O O1 0.500000 0.793514 0.500000
O O2 0.479111 0.861160 0.754753
O O3 0.370698 0.801919 0.674603
O O4 0.491539 0.720595 0.736198
O O5 0.275234 0.133242 0.204303
O O6 0.270230 0.000000 0.092521
O O7 0.209345 0.106911 0.978645
O O8 0.359687 0.099866 0.958683
O O9 0.659699 0.500000 0.842432
O O10 0.747214 0.606562 0.707488
O O11 0.602261 0.636469 0.829514
O O12 0.821929 0.345137 0.450257
O O13 0.758776 0.241475 0.349271
O O14 0.888722 0.275925 0.204050
O O15 0.452766 0.000000 0.832876
O O16 0.500000 0.090425 0.000000
O O17 0.500000 0.717558 0.000000
#
# Coordination Sequence:
#
# PCOD9199025 Si02
#       7
#     8   8   8   8   8   8   8
#     4  12  22  36  58  88 122 157 199 249 300 361
#     4  10  20  36  59  84 116 154 196 242 293 358
#     4  10  23  43  64  88 119 161 208 254 302 357
#     4  10  21  39  57  89 118 154 202 243 300 357
#     4  10  21  37  55  81 120 157 190 237 294 357
#     4  10  22  37  61  85 119 157 196 252 296 358
#     4  11  24  38  62  91 120 160 199 253 307 357
#
# _framework density 18.405550000000002
#
# number of rings (size 3 to 8) (size 9 to 14) (size 15 to 20)
#    0.000    1.571    2.857    2.143    2.000    2.286 
#    0.000    0.000    0.000    0.429    0.000    0.000 
#    0.000    0.000    0.000    0.000    0.000    0.000 
#
# Total GULP energy -156176.168122 kJ/mol
# GULP energy per Si atom -5577.720290 kJ/mol
# Density = 1.836366 g / cm^3
# Si number density = 18.405550 Si / 1000 Ang^3
#
#
#
# Elastic Constant Matrix: (Units=GPa)
#
#
# Indices 1 2 3 4 5 6 
#
# 1 90.7886 35.2288 51.2490 0.0000 3.7268 0.0000
# 2 35.2288 60.5350 54.2666 0.0000 10.7088 0.0000
# 3 51.2490 54.2666 114.1713 0.0000 7.2601 0.0000
# 4 0.0000 0.0000 0.0000 17.8410 0.0000 0.9208
# 5 3.7268 10.7088 7.2601 0.0000 31.1781 0.0000
# 6 0.0000 0.0000 0.0000 0.9208 0.0000 13.2386
#
#
#
# Elastic Compliance Matrix: (Units=1/GPa)
#
#
# Indices 1 2 3 4 5 6 
#
# 1 0.015559 -0.005069 -0.004636 0.000000 0.000961 0.000000
# 2 -0.005069 0.031930 -0.012426 0.000000 -0.007467 0.000000
# 3 -0.004636 -0.012426 0.016687 0.000000 0.000937 0.000000
# 4 0.000000 0.000000 0.000000 0.056252 0.000000 -0.003913
# 5 0.000961 -0.007467 0.000937 0.000000 0.034306 0.000000
# 6 0.000000 0.000000 0.000000 -0.003913 0.000000 0.075809
#
#
# Mechanical properties :
#
#
# Convention : Reuss Voigt Hill
#
# Bulk Modulus (GPa) = 50.21803 60.77596 55.49699
# Shear Modulus (GPa) = 17.76565 20.76826 19.26696
#
# Velocity S-wave (km/s) = 3.11019 3.36277 3.23894
# Velocity P-wave (km/s) = 6.34359 6.94044 6.64872
#
# Compressibility (1/GPa) = 0.01991317
#
# Stress axis : x y z
#
# Youngs Moduli (GPa) = 64.27190 31.31870 59.92836
#
# Poissons Ratio (x) = 0.15874 0.27783
# Poissons Ratio (y) = 0.32577 0.74470
# Poissons Ratio (z) = 0.29796 0.38918
#
# Static dielectric constant tensor:
#      x y z
#    x 1.685180 0.000000 0.013760 
#    y 0.000000 1.619690 0.000000 
#    z 0.013760 0.000000 1.637520 
# 
# From -- ./inp_files/75861.got.cif
#   From: 2010.05.17/outbox.cif.g08.bks.cpg/sg12_38_cif.got.tgz:75861.got - 2010.06.03 13:09:07.
