data_PCOD9199903
_publ_section_title
;
Structure prediction by ZEFSAII (Michael W. Deem and Ramdas Pophale) SiO2 
 PCOD9199903
Probable space group: C 2/M
;
_chemical_formula_sum "Si O2"
_cell_formula_units_Z 56
_cell_length_a 8.594766
_cell_length_b 17.497782
_cell_length_c 21.481248
_cell_angle_alpha 90.000000
_cell_angle_beta 137.473289
_cell_angle_gamma 90.000000
_cell_volume 2183.638602
_symmetry_space_group_name_H-M "C 2/M"
_symmetry_group_IT_number 12
_symmetry_cell_setting 'monoclinic'
loop_
_space_group_symop_operation_xyz
x,y,z
-x,y,-z
-x,-y,-z
x,-y,z
1/2+x,1/2+y,z
1/2-x,1/2+y,-z
1/2-x,1/2-y,-z
1/2+x,1/2-y,z
loop_
_atom_site_type_symbol
_atom_site_label
_atom_site_fract_x
_atom_site_fract_y
_atom_site_fract_z
Si Si1 0.098850 0.327275 0.459536
Si Si2 0.296093 0.000000 0.157889
Si Si3 0.881956 0.266321 0.850118
Si Si4 0.515914 0.158716 0.249948
Si Si5 0.209492 0.861195 0.909811
Si Si6 0.660430 0.412044 0.300470
Si Si7 0.022606 0.912342 0.612205
Si Si8 0.757344 0.500000 0.006400
O O1 0.250000 0.250000 0.500000
O O2 0.287597 0.393830 0.507821
O O3 0.000000 0.328722 0.500000
O O4 0.870679 0.352245 0.354554
O O5 0.386466 0.922328 0.215203
O O6 0.020960 0.000000 0.073152
O O7 0.371390 0.000000 0.107561
O O8 0.631269 0.227743 0.765475
O O9 0.957666 0.317952 0.814870
O O10 0.060749 0.197110 0.907534
O O11 0.860971 0.311683 0.907356
O O12 0.774732 0.144457 0.348876
O O13 0.027445 0.900630 0.808406
O O14 0.312980 0.925097 0.984321
O O15 0.745000 0.500000 0.324813
O O16 0.537552 0.401208 0.331836
O O17 0.095153 0.000000 0.625744
#
# Coordination Sequence:
#
# PCOD9199903 Si02
#       8
#     8   4   8   8   8   8   8   4
#     4  10  23  37  57  87 123 166 206 261 315 363
#     4  11  24  45  69  96 125 162 210 261 315 379
#     4  10  24  36  63  95 134 158 212 252 320 375
#     4  11  21  41  64  95 124 171 207 260 311 377
#     4  11  21  41  64  95 124 171 207 260 311 377
#     4  10  20  36  62  89 124 161 217 260 309 366
#     4  10  20  36  62  89 124 161 217 260 309 366
#     4  11  24  45  69  96 125 162 210 261 315 379
#
# _framework density 25.645268000000002
#
# number of rings (size 3 to 8) (size 9 to 14) (size 15 to 20)
#    0.000    1.571    4.286    0.429    4.000    2.286 
#    0.000    5.714    0.000    0.857    0.000    0.000 
#    0.000    0.000    0.000    0.000    0.000    0.000 
#
# Total GULP energy -156941.647307 kJ/mol
# GULP energy per Si atom -5605.058832 kJ/mol
# Density = 2.558690 g / cm^3
# Si number density = 25.645268 Si / 1000 Ang^3
#
#
#
# Elastic Constant Matrix: (Units=GPa)
#
#
# Indices 1 2 3 4 5 6 
#
# 1 83.0739 37.1656 8.6957 0.0000 7.7997 0.0000
# 2 37.1656 129.5428 7.3942 0.0000 13.5129 0.0000
# 3 8.6957 7.3942 53.0775 -0.0005 1.6505 0.0001
# 4 0.0000 0.0000 -0.0005 41.1522 -0.0001 13.4663
# 5 7.7997 13.5129 1.6505 -0.0001 42.7206 0.0000
# 6 0.0000 0.0000 0.0001 13.4663 0.0000 44.2632
#
#
#
# Elastic Compliance Matrix: (Units=1/GPa)
#
#
# Indices 1 2 3 4 5 6 
#
# 1 0.014037 -0.003793 -0.001731 0.000000 -0.001296 0.000000
# 2 -0.003793 0.009065 -0.000574 0.000000 -0.002153 0.000000
# 3 -0.001731 -0.000574 0.019212 0.000000 -0.000245 0.000000
# 4 0.000000 0.000000 0.000000 0.026987 0.000000 -0.008210
# 5 -0.001296 -0.002153 -0.000245 0.000000 0.024335 0.000000
# 6 0.000000 0.000000 0.000000 -0.008210 0.000000 0.025090
#
#
# Mechanical properties :
#
#
# Convention : Reuss Voigt Hill
#
# Bulk Modulus (GPa) = 33.20432 41.35614 37.28023
# Shear Modulus (GPa) = 35.47055 39.78979 37.63017
#
# Velocity S-wave (km/s) = 3.72307 3.94324 3.83474
# Velocity P-wave (km/s) = 5.60868 6.07399 5.84597
#
# Compressibility (1/GPa) = 0.03011657
#
# Stress axis : x y z
#
# Youngs Moduli (GPa) = 71.23825 110.31341 52.05186
#
# Poissons Ratio (x) = 0.41845 0.09010
# Poissons Ratio (y) = 0.27023 0.02990
# Poissons Ratio (z) = 0.12331 0.06337
#
# Static dielectric constant tensor:
#      x y z
#    x 2.020770 0.000000 0.035650 
#    y 0.000000 1.968960 0.000000 
#    z 0.035650 0.000000 2.062470 
# 
# From -- ./inp_files/333341.got.cif
#   From: 2010.05.17/outbox.cif.g08.bks.cpg/sg12_167_cif.got.tgz:333341.got - 2010.06.03 13:09:07.
