data_PCOD9199526
_publ_section_title
;
Structure prediction by ZEFSAII (Michael W. Deem and Ramdas Pophale) SiO2 
 PCOD9199526
Probable space group: C 2/M
;
_chemical_formula_sum "Si O2"
_cell_formula_units_Z 48
_cell_length_a 30.193502
_cell_length_b 8.886867
_cell_length_c 16.818976
_cell_angle_alpha 90.000000
_cell_angle_beta 143.156397
_cell_angle_gamma 90.000000
_cell_volume 2706.120279
_symmetry_space_group_name_H-M "C 2/M"
_symmetry_group_IT_number 12
_symmetry_cell_setting 'monoclinic'
loop_
_space_group_symop_operation_xyz
x,y,z
-x,y,-z
-x,-y,-z
x,-y,z
1/2+x,1/2+y,z
1/2-x,1/2+y,-z
1/2-x,1/2-y,-z
1/2+x,1/2-y,z
loop_
_atom_site_type_symbol
_atom_site_label
_atom_site_fract_x
_atom_site_fract_y
_atom_site_fract_z
Si Si1 0.852948 0.821047 0.472812
Si Si2 0.305497 0.822015 0.836023
Si Si3 0.668944 0.178916 0.392756
Si Si4 0.583241 0.819980 0.592053
Si Si5 0.276874 0.681012 0.121221
Si Si6 0.412341 0.676167 0.871611
O O1 0.767617 0.797132 0.323099
O O2 0.864655 0.744363 0.574255
O O3 0.901432 0.749000 0.472710
O O4 0.864852 0.000000 0.494193
O O5 0.280286 0.782780 0.889125
O O6 0.372111 0.729517 0.894253
O O7 0.322357 0.000000 0.857511
O O8 0.750000 0.250000 0.500000
O O9 0.621776 0.228645 0.249208
O O10 0.674950 0.000000 0.405472
O O11 0.500000 0.788169 0.500000
O O12 0.644471 0.747627 0.738064
O O13 0.593836 0.000000 0.605255
O O14 0.282007 0.500000 0.124025
O O15 0.250000 0.750000 0.000000
O O16 0.396291 0.500000 0.835154
O O17 0.500000 0.696685 0.000000
#
# Coordination Sequence:
#
# PCOD9199526 Si02
#       6
#     8   8   8   8   8   8
#     4  10  20  36  60  89 117 149 194 240 285 342
#     4   9  19  36  59  84 112 150 191 236 287 344
#     4  12  23  37  61  88 116 152 194 239 285 340
#     4  10  21  38  60  87 120 155 192 236 290 346
#     4  10  21  38  61  87 115 150 195 241 289 347
#     4  11  24  40  58  84 118 154 193 237 289 345
#
# _framework density 17.737570000000002
#
# number of rings (size 3 to 8) (size 9 to 14) (size 15 to 20)
#    0.000    1.667    1.667    4.500    0.000    6.000 
#    3.000    0.000    0.000    0.000    0.000    0.000 
#    0.000    0.000    0.000    0.000    0.000    0.000 
#
# Total GULP energy -134081.812542 kJ/mol
# GULP energy per Si atom -5586.742189 kJ/mol
# Density = 1.769720 g / cm^3
# Si number density = 17.737570 Si / 1000 Ang^3
#
#
#
# Elastic Constant Matrix: (Units=GPa)
#
#
# Indices 1 2 3 4 5 6 
#
# 1 144.7209 86.0701 69.5165 0.0000 -2.1825 0.0000
# 2 86.0701 113.3968 56.0457 0.0000 4.3735 0.0000
# 3 69.5165 56.0457 72.5230 0.0000 -14.9426 0.0000
# 4 0.0000 0.0000 0.0000 30.8671 0.0000 -3.0021
# 5 -2.1825 4.3735 -14.9426 0.0000 30.9109 0.0000
# 6 0.0000 0.0000 0.0000 -3.0021 0.0000 35.0955
#
#
#
# Elastic Compliance Matrix: (Units=1/GPa)
#
#
# Indices 1 2 3 4 5 6 
#
# 1 0.016075 -0.006697 -0.010889 0.000000 -0.003181 0.000000
# 2 -0.006697 0.019189 -0.010070 0.000000 -0.008056 0.000000
# 3 -0.010889 -0.010070 0.035699 0.000000 0.017913 0.000000
# 4 0.000000 0.000000 0.000000 0.032669 0.000000 0.002795
# 5 -0.003181 -0.008056 0.017913 0.000000 0.041926 0.000000
# 6 0.000000 0.000000 0.000000 0.002795 0.000000 0.028733
#
#
# Mechanical properties :
#
#
# Convention : Reuss Voigt Hill
#
# Bulk Modulus (GPa) = 63.88945 83.76725 73.82835
# Shear Modulus (GPa) = 21.29286 27.30860 24.30073
#
# Velocity S-wave (km/s) = 3.46849 3.92802 3.70539
# Velocity P-wave (km/s) = 7.22067 8.24020 7.74722
#
# Compressibility (1/GPa) = 0.01565204
#
# Stress axis : x y z
#
# Youngs Moduli (GPa) = 62.20756 52.11196 28.01170
#
# Poissons Ratio (x) = 0.34899 0.30502
# Poissons Ratio (y) = 0.41660 0.28208
# Poissons Ratio (z) = 0.67738 0.52478
#
# Static dielectric constant tensor:
#      x y z
#    x 1.602940 0.000000 -0.007510 
#    y 0.000000 1.588750 0.000000 
#    z -0.007510 0.000000 1.577010 
# 
# From -- ./inp_files/244871.got.cif
#   From: 2010.05.17/outbox.cif.g08.bks.cpg/sg12_123_cif.got.tgz:244871.got - 2010.06.03 13:09:07.
