data_PCOD9199574
_publ_section_title
;
Structure prediction by ZEFSAII (Michael W. Deem and Ramdas Pophale) SiO2 
 PCOD9199574
Probable space group: C 2/M
;
_chemical_formula_sum "Si O2"
_cell_formula_units_Z 48
_cell_length_a 19.639634
_cell_length_b 13.759683
_cell_length_c 9.980808
_cell_angle_alpha 90.000000
_cell_angle_beta 108.894219
_cell_angle_gamma 90.000000
_cell_volume 2551.836480
_symmetry_space_group_name_H-M "C 2/M"
_symmetry_group_IT_number 12
_symmetry_cell_setting 'monoclinic'
loop_
_space_group_symop_operation_xyz
x,y,z
-x,y,-z
-x,-y,-z
x,-y,z
1/2+x,1/2+y,z
1/2-x,1/2+y,-z
1/2-x,1/2-y,-z
1/2+x,1/2-y,z
loop_
_atom_site_type_symbol
_atom_site_label
_atom_site_fract_x
_atom_site_fract_y
_atom_site_fract_z
Si Si1 0.441774 0.389356 0.580631
Si Si2 0.418983 0.884386 0.928061
Si Si3 0.189538 0.616290 0.370367
Si Si4 0.958951 0.886120 0.114054
Si Si5 0.834191 0.737484 0.084780
Si Si6 0.321524 0.751653 0.387339
O O1 0.500000 0.394733 0.500000
O O2 0.414637 0.500000 0.588301
O O3 0.484708 0.352920 0.737262
O O4 0.380318 0.317394 0.494219
O O5 0.367684 0.845225 0.012252
O O6 0.422091 0.000000 0.940961
O O7 0.500000 0.845745 0.000000
O O8 0.382934 0.863509 0.761033
O O9 0.204135 0.500000 0.373039
O O10 0.250214 0.684322 0.341194
O O11 0.186756 0.655661 0.520628
O O12 0.884168 0.829519 0.077913
O O13 0.944995 0.000000 0.131183
O O14 0.000000 0.877570 0.000000
O O15 0.841633 0.721410 0.248754
O O16 0.750000 0.750000 0.000000
#
# Coordination Sequence:
#
# PCOD9199574 Si02
#       6
#     8   8   8   8   8   8
#     4  10  20  36  60  90 120 155 195 246 309 367
#     4  10  23  43  65  88 121 169 211 249 301 363
#     4  10  23  42  62  87 123 163 205 250 306 371
#     4  10  23  40  62  93 128 163 201 251 310 368
#     4  12  24  39  62  93 125 161 205 256 305 360
#     4  11  23  38  62  93 122 158 202 254 315 360
#
# _framework density 18.809982999999999
#
# number of rings (size 3 to 8) (size 9 to 14) (size 15 to 20)
#    0.000    1.500    3.333    1.000    4.667    2.000 
#    0.000    1.667    0.000    3.500    0.000    0.000 
#    0.000    0.000    0.000    0.000    0.000    0.000 
#
# Total GULP energy -133962.262546 kJ/mol
# GULP energy per Si atom -5581.760939 kJ/mol
# Density = 1.876717 g / cm^3
# Si number density = 18.809983 Si / 1000 Ang^3
#
#
#
# Elastic Constant Matrix: (Units=GPa)
#
#
# Indices 1 2 3 4 5 6 
#
# 1 92.6890 16.5749 46.8473 0.0000 12.6127 0.0000
# 2 16.5749 60.4040 25.3990 0.0000 12.9670 0.0000
# 3 46.8473 25.3990 118.9140 0.0000 6.9249 0.0000
# 4 0.0000 0.0000 0.0000 26.8368 0.0000 -0.3541
# 5 12.6127 12.9670 6.9249 0.0000 38.2591 0.0000
# 6 0.0000 0.0000 0.0000 -0.3541 0.0000 -3.3037
#
#
#
# Elastic Compliance Matrix: (Units=1/GPa)
#
#
# Indices 1 2 3 4 5 6 
#
# 1 0.014005 -0.000971 -0.005114 0.000000 -0.003362 0.000000
# 2 -0.000971 0.019487 -0.003450 0.000000 -0.005660 0.000000
# 3 -0.005114 -0.003450 0.011112 0.000000 0.000844 0.000000
# 4 0.000000 0.000000 0.000000 0.037210 0.000000 -0.003988
# 5 -0.003362 -0.005660 0.000844 0.000000 0.029012 0.000000
# 6 0.000000 0.000000 0.000000 -0.003988 0.000000 -0.302263
#
#
# Mechanical properties :
#
#
# Convention : Reuss Voigt Hill
#
# Bulk Modulus (GPa) = 39.16375 49.96106 44.56241
# Shear Modulus (GPa) = -30.51467 24.57083 -2.97192
#
# Velocity S-wave (km/s) = -4.03210 3.61815 -1.25833
# Velocity P-wave (km/s) = 0.90064 6.63877 4.65092
#
# Compressibility (1/GPa) = 0.02553381
#
# Stress axis : x y z
#
# Youngs Moduli (GPa) = 71.40468 51.31501 89.99270
#
# Poissons Ratio (x) = 0.04981 0.46024
# Poissons Ratio (y) = 0.06931 0.31050
# Poissons Ratio (z) = 0.36517 0.17705
#
# Static dielectric constant tensor:
#      x y z
#    x 1.646940 0.000000 0.013300 
#    y 0.000000 1.654090 0.000000 
#    z 0.013300 0.000000 1.642660 
# 
# From -- ./inp_files/85932.got.cif
#   From: 2010.05.17/outbox.cif.g08.bks.cpg/sg12_43_cif.got.tgz:85932.got - 2010.06.03 13:09:07.
