data_PCOD9199369
_publ_section_title
;
Structure prediction by ZEFSAII (Michael W. Deem and Ramdas Pophale) SiO2 
 PCOD9199369
Probable space group: C 2/M
;
_chemical_formula_sum "Si O2"
_cell_formula_units_Z 40
_cell_length_a 24.470134
_cell_length_b 8.809098
_cell_length_c 8.326202
_cell_angle_alpha 90.000000
_cell_angle_beta 97.442134
_cell_angle_gamma 90.000000
_cell_volume 1779.675484
_symmetry_space_group_name_H-M "C 2/M"
_symmetry_group_IT_number 12
_symmetry_cell_setting 'monoclinic'
loop_
_space_group_symop_operation_xyz
x,y,z
-x,y,-z
-x,-y,-z
x,-y,z
1/2+x,1/2+y,z
1/2-x,1/2+y,-z
1/2-x,1/2-y,-z
1/2+x,1/2-y,z
loop_
_atom_site_type_symbol
_atom_site_label
_atom_site_fract_x
_atom_site_fract_y
_atom_site_fract_z
Si Si1 0.233551 0.177714 0.747265
Si Si2 0.332694 0.326170 0.613621
Si Si3 0.575794 0.178652 0.177127
Si Si4 0.470140 0.817369 0.323383
Si Si5 0.370210 0.318996 0.116108
O O1 0.286709 0.276511 0.726422
O O2 0.196552 0.183410 0.570086
O O3 0.191986 0.234072 0.869169
O O4 0.248881 0.000000 0.777902
O O5 0.349820 0.500000 0.646643
O O6 0.384522 0.216932 0.657702
O O7 0.513899 0.223425 0.200158
O O8 0.575763 0.000000 0.144812
O O9 0.603479 0.261818 0.038510
O O10 0.500000 0.774954 0.500000
O O11 0.412431 0.739087 0.267641
O O12 0.463132 0.000000 0.319433
O O13 0.368249 0.500000 0.118871
#
# Coordination Sequence:
#
# PCOD9199369 Si02
#       5
#     8   8   8   8   8
#     4   9  20  38  58  83 114 147 185 229 279 332
#     4  10  20  36  60  86 111 144 188 234 277 326
#     4  11  23  38  57  82 115 151 185 227 279 333
#     4  10  22  40  61  84 111 146 187 229 277 333
#     4  11  23  38  58  84 115 149 185 229 278 329
#
# _framework density 22.476009000000001
#
# number of rings (size 3 to 8) (size 9 to 14) (size 15 to 20)
#    0.000    1.800    0.000    3.600    0.000    7.600 
#    0.000    0.000    0.000    0.000    0.000    0.000 
#    0.000    0.000    0.000    0.000    0.000    0.000 
#
# Total GULP energy -111899.905444 kJ/mol
# GULP energy per Si atom -5594.995272 kJ/mol
# Density = 2.242485 g / cm^3
# Si number density = 22.476009 Si / 1000 Ang^3
#
#
#
# Elastic Constant Matrix: (Units=GPa)
#
#
# Indices 1 2 3 4 5 6 
#
# 1 99.5981 13.0157 -1.0051 0.0000 -14.7758 0.0000
# 2 13.0157 15.9028 2.4442 0.0000 -9.1658 0.0000
# 3 -1.0051 2.4442 56.6493 0.0000 -11.8321 0.0000
# 4 0.0000 0.0000 0.0000 33.2257 0.0000 4.7797
# 5 -14.7758 -9.1658 -11.8321 0.0000 39.5733 0.0000
# 6 0.0000 0.0000 0.0000 4.7797 0.0000 25.5586
#
#
#
# Elastic Compliance Matrix: (Units=1/GPa)
#
#
# Indices 1 2 3 4 5 6 
#
# 1 0.011509 -0.007988 0.001131 0.000000 0.002785 0.000000
# 2 -0.007988 0.078123 -0.000380 0.000000 0.014999 0.000000
# 3 0.001131 -0.000380 0.018942 0.000000 0.005998 0.000000
# 4 0.000000 0.000000 0.000000 0.030929 0.000000 -0.005784
# 5 0.002785 0.014999 0.005998 0.000000 0.031577 0.000000
# 6 0.000000 0.000000 0.000000 -0.005784 0.000000 0.040207
#
#
# Mechanical properties :
#
#
# Convention : Reuss Voigt Hill
#
# Bulk Modulus (GPa) = 10.62710 22.33996 16.48353
# Shear Modulus (GPa) = 19.44560 30.18454 24.81507
#
# Velocity S-wave (km/s) = 2.94457 3.66863 3.32636
# Velocity P-wave (km/s) = 4.03722 5.28263 4.70134
#
# Compressibility (1/GPa) = 0.09409901
#
# Stress axis : x y z
#
# Youngs Moduli (GPa) = 86.88990 12.80032 52.79386
#
# Poissons Ratio (x) = 0.10225 -0.05969
# Poissons Ratio (y) = 0.69408 0.02005
# Poissons Ratio (z) = -0.09823 0.00486
#
# Static dielectric constant tensor:
#      x y z
#    x 1.818480 0.000000 -0.004490 
#    y 0.000000 1.742480 0.000000 
#    z -0.004490 0.000000 1.916320 
# 
# From -- ./inp_files/92730.got.cif
#   From: 2010.05.17/outbox.cif.g08.bks.cpg/sg12_47_cif.got.tgz:92730.got - 2010.06.03 13:09:07.
