data_PCOD9199039
_publ_section_title
;
Structure prediction by ZEFSAII (Michael W. Deem and Ramdas Pophale) SiO2 
 PCOD9199039
Probable space group: C 2/M
;
_chemical_formula_sum "Si O2"
_cell_formula_units_Z 56
_cell_length_a 18.133197
_cell_length_b 11.114673
_cell_length_c 15.074085
_cell_angle_alpha 90.000000
_cell_angle_beta 57.966143
_cell_angle_gamma 90.000000
_cell_volume 2575.502919
_symmetry_space_group_name_H-M "C 2/M"
_symmetry_group_IT_number 12
_symmetry_cell_setting 'monoclinic'
loop_
_space_group_symop_operation_xyz
x,y,z
-x,y,-z
-x,-y,-z
x,-y,z
1/2+x,1/2+y,z
1/2-x,1/2+y,-z
1/2-x,1/2-y,-z
1/2+x,1/2-y,z
loop_
_atom_site_type_symbol
_atom_site_label
_atom_site_fract_x
_atom_site_fract_y
_atom_site_fract_z
Si Si1 0.362997 0.631459 0.953976
Si Si2 0.057328 0.863118 0.864396
Si Si3 0.802762 0.290632 0.836860
Si Si4 0.178319 0.359898 0.799955
Si Si5 0.685982 0.638570 0.422997
Si Si6 0.564373 0.363419 0.647035
Si Si7 0.061250 0.694242 0.386389
O O1 0.364772 0.500000 0.908775
O O2 0.453812 0.641479 0.947748
O O3 0.354837 0.735862 0.886681
O O4 0.278425 0.638415 0.070097
O O5 0.106430 0.741722 0.861261
O O6 0.063382 0.856499 0.752756
O O7 0.089739 0.000000 0.865809
O O8 0.757016 0.178163 0.815264
O O9 0.865882 0.358360 0.727482
O O10 0.153528 0.500000 0.827256
O O11 0.217822 0.340767 0.675861
O O12 0.668710 0.500000 0.410684
O O13 0.659877 0.653480 0.542029
O O14 0.619078 0.718836 0.410899
O O15 0.536471 0.500000 0.641033
O O16 0.500613 0.269859 0.640063
O O17 0.000000 0.631182 0.500000
#
# Coordination Sequence:
#
# PCOD9199039 Si02
#       7
#     8   8   8   8   8   8   8
#     4  10  21  38  60  84 111 147 192 242 288 334
#     4  10  21  36  56  82 114 152 192 234 281 337
#     4  10  20  36  59  85 112 144 189 237 288 341
#     4  10  21  37  56  81 117 152 187 234 287 343
#     4   8  15  26  46  79 111 144 183 228 284 338
#     4   9  15  26  48  77 111 146 184 230 280 335
#     4   9  15  26  50  82 113 141 176 233 293 338
#
# _framework density 21.743327000000001
#
# number of rings (size 3 to 8) (size 9 to 14) (size 15 to 20)
#    0.000    2.571    1.429    0.857    0.000    4.571 
#    0.000    5.714    0.000    0.429    0.000    4.000 
#    0.000    0.000    0.000    0.000    0.000    0.000 
#
# Total GULP energy -155977.941777 kJ/mol
# GULP energy per Si atom -5570.640778 kJ/mol
# Density = 2.169384 g / cm^3
# Si number density = 21.743327 Si / 1000 Ang^3
#
#
#
# Elastic Constant Matrix: (Units=GPa)
#
#
# Indices 1 2 3 4 5 6 
#
# 1 52.9381 42.2902 7.5115 0.0000 -10.8391 0.0000
# 2 42.2902 118.8537 36.0891 0.0000 -12.3987 0.0000
# 3 7.5115 36.0891 141.0292 0.0000 -23.9640 0.0000
# 4 0.0000 0.0000 0.0000 21.7408 0.0000 -6.2549
# 5 -10.8391 -12.3987 -23.9640 0.0000 29.9744 0.0000
# 6 0.0000 0.0000 0.0000 -6.2549 0.0000 17.4574
#
#
#
# Elastic Compliance Matrix: (Units=1/GPa)
#
#
# Indices 1 2 3 4 5 6 
#
# 1 0.028081 -0.009885 0.002389 0.000000 0.007976 0.000000
# 2 -0.009885 0.012730 -0.002828 0.000000 -0.000570 0.000000
# 3 0.002389 -0.002828 0.008835 0.000000 0.006758 0.000000
# 4 0.000000 0.000000 0.000000 0.051283 0.000000 0.018374
# 5 0.007976 -0.000570 0.006758 0.000000 0.041413 0.000000
# 6 0.000000 0.000000 0.000000 0.018374 0.000000 0.063866
#
#
# Mechanical properties :
#
#
# Convention : Reuss Voigt Hill
#
# Bulk Modulus (GPa) = 34.48419 53.84473 44.16446
# Shear Modulus (GPa) = 21.13964 28.96319 25.05142
#
# Velocity S-wave (km/s) = 3.12145 3.65369 3.39801
# Velocity P-wave (km/s) = 5.37451 6.52815 5.97922
#
# Compressibility (1/GPa) = 0.02899880
#
# Stress axis : x y z
#
# Youngs Moduli (GPa) = 35.61147 78.55297 113.17999
#
# Poissons Ratio (x) = 0.77650 -0.27041
# Poissons Ratio (y) = 0.35202 0.32007
# Poissons Ratio (z) = -0.08508 0.22214
#
# Static dielectric constant tensor:
#      x y z
#    x 1.792120 0.000000 -0.009420 
#    y 0.000000 1.731130 0.000000 
#    z -0.009420 0.000000 1.933860 
# 
# From -- ./inp_files/223719.got.cif
#   From: 2010.05.17/outbox.cif.g08.bks.cpg/sg12_112_cif.got.tgz:223719.got - 2010.06.03 13:09:07.
