data_PCOD9199918
_publ_section_title
;
Structure prediction by ZEFSAII (Michael W. Deem and Ramdas Pophale) SiO2 
 PCOD9199918
Probable space group: C 2/M
;
_chemical_formula_sum "Si O2"
_cell_formula_units_Z 56
_cell_length_a 18.819994
_cell_length_b 15.635618
_cell_length_c 11.477751
_cell_angle_alpha 90.000000
_cell_angle_beta 55.251727
_cell_angle_gamma 90.000000
_cell_volume 2775.144829
_symmetry_space_group_name_H-M "C 2/M"
_symmetry_group_IT_number 12
_symmetry_cell_setting 'monoclinic'
loop_
_space_group_symop_operation_xyz
x,y,z
-x,y,-z
-x,-y,-z
x,-y,z
1/2+x,1/2+y,z
1/2-x,1/2+y,-z
1/2-x,1/2-y,-z
1/2+x,1/2-y,z
loop_
_atom_site_type_symbol
_atom_site_label
_atom_site_fract_x
_atom_site_fract_y
_atom_site_fract_z
Si Si1 0.253349 0.364219 0.369579
Si Si2 0.407127 0.500000 0.926037
Si Si3 0.217773 0.101999 0.406028
Si Si4 0.099596 0.000000 0.789918
Si Si5 0.955838 0.784233 0.414200
Si Si6 0.226963 0.284672 0.831850
Si Si7 0.874444 0.812762 0.882953
Si Si8 0.073034 0.590871 0.530765
O O1 0.232315 0.363943 0.526496
O O2 0.341049 0.418011 0.287751
O O3 0.265961 0.279854 0.283467
O O4 0.170249 0.408479 0.389135
O O5 0.510401 0.500000 0.801897
O O6 0.361606 0.412735 0.927301
O O7 0.410934 0.500000 0.061619
O O8 0.126934 0.154030 0.496866
O O9 0.268720 0.125397 0.239853
O O10 0.204749 0.000000 0.426576
O O11 0.933889 0.685141 0.408355
O O12 0.000000 0.786901 0.500000
O O13 0.027336 0.808571 0.252387
O O14 0.311173 0.284703 0.836932
O O15 0.150325 0.249067 0.985756
O O16 0.063758 0.500000 0.605970
O O17 0.000000 0.589989 0.500000
#
# Coordination Sequence:
#
# PCOD9199918 Si02
#       8
#     8   4   8   4   8   8   8   8
#     4  12  21  43  65  96 132 171 225 287 342 419
#     4  11  24  42  66  97 144 180 229 289 355 430
#     4  12  25  40  67 102 138 184 230 286 358 427
#     4  11  22  40  66 104 137 172 228 286 356 415
#     4  11  22  40  61  96 134 175 227 294 348 413
#     4  11  24  42  63  93 133 184 231 279 348 417
#     4  11  24  42  65  93 137 182 233 288 352 418
#     4  10  20  36  62  90 121 164 222 284 335 395
#
# _framework density 20.179126
#
# number of rings (size 3 to 8) (size 9 to 14) (size 15 to 20)
#    0.000    0.857    5.714    2.143    2.000    0.286 
#    0.000    0.714    0.000    0.000    0.000    2.000 
#    0.000    0.000    0.000    0.000    0.000    0.000 
#
# Total GULP energy -155993.281251 kJ/mol
# GULP energy per Si atom -5571.188616 kJ/mol
# Density = 2.013320 g / cm^3
# Si number density = 20.179126 Si / 1000 Ang^3
#
#
#
# Elastic Constant Matrix: (Units=GPa)
#
#
# Indices 1 2 3 4 5 6 
#
# 1 87.2210 32.4945 20.8647 0.0000 -4.4038 0.0000
# 2 32.4945 134.3457 46.4848 0.0000 13.8579 0.0000
# 3 20.8647 46.4848 102.8612 0.0000 2.0181 0.0000
# 4 0.0000 0.0000 0.0000 53.0989 0.0000 11.1441
# 5 -4.4038 13.8579 2.0181 0.0000 24.7957 0.0000
# 6 0.0000 0.0000 0.0000 11.1441 0.0000 37.8547
#
#
#
# Elastic Compliance Matrix: (Units=1/GPa)
#
#
# Indices 1 2 3 4 5 6 
#
# 1 0.013173 -0.003162 -0.001326 0.000000 0.004215 0.000000
# 2 -0.003162 0.010143 -0.003826 0.000000 -0.005919 0.000000
# 3 -0.001326 -0.003826 0.011701 0.000000 0.000951 0.000000
# 4 0.000000 0.000000 0.000000 0.020073 0.000000 -0.005909
# 5 0.004215 -0.005919 0.000951 0.000000 0.044309 0.000000
# 6 0.000000 0.000000 0.000000 -0.005909 0.000000 0.028156
#
#
# Mechanical properties :
#
#
# Convention : Reuss Voigt Hill
#
# Bulk Modulus (GPa) = 54.38055 58.23511 56.30783
# Shear Modulus (GPa) = 33.26387 38.12211 35.69299
#
# Velocity S-wave (km/s) = 4.06449 4.35119 4.21028
# Velocity P-wave (km/s) = 7.00244 7.35973 7.18331
#
# Compressibility (1/GPa) = 0.01838893
#
# Stress axis : x y z
#
# Youngs Moduli (GPa) = 75.91172 98.59244 85.46140
#
# Poissons Ratio (x) = 0.31178 0.11330
# Poissons Ratio (y) = 0.24006 0.32699
# Poissons Ratio (z) = 0.10064 0.37723
#
# Static dielectric constant tensor:
#      x y z
#    x 1.737640 0.000000 -0.007810 
#    y 0.000000 1.782990 0.000000 
#    z -0.007810 0.000000 1.770460 
# 
# From -- ./inp_files/156566.got.cif
#   From: 2010.05.17/outbox.cif.g08.bks.cpg/sg12_79_cif.got.tgz:156566.got - 2010.06.03 13:09:07.
