data_PCOD9199718
_publ_section_title
;
Structure prediction by ZEFSAII (Michael W. Deem and Ramdas Pophale) SiO2 
 PCOD9199718
Probable space group: C 2/M
;
_chemical_formula_sum "Si O2"
_cell_formula_units_Z 42
_cell_length_a 21.400186
_cell_length_b 7.611068
_cell_length_c 11.726679
_cell_angle_alpha 90.000000
_cell_angle_beta 84.118545
_cell_angle_gamma 90.000000
_cell_volume 1899.966916
_symmetry_space_group_name_H-M "C 2/M"
_symmetry_group_IT_number 12
_symmetry_cell_setting 'monoclinic'
loop_
_space_group_symop_operation_xyz
x,y,z
-x,y,-z
-x,-y,-z
x,-y,z
1/2+x,1/2+y,z
1/2-x,1/2+y,-z
1/2-x,1/2-y,-z
1/2+x,1/2-y,z
loop_
_atom_site_type_symbol
_atom_site_label
_atom_site_fract_x
_atom_site_fract_y
_atom_site_fract_z
Si Si1 0.500000 0.500000 0.500000
Si Si2 0.852387 0.792872 0.266011
Si Si3 0.106303 0.713395 0.258108
Si Si4 0.588544 0.201732 0.523331
Si Si5 0.262071 0.788891 0.866231
Si Si6 0.487359 0.787151 0.132299
O O1 0.536384 0.343904 0.565169
O O2 0.858295 0.712835 0.390865
O O3 0.794964 0.722236 0.201330
O O4 0.918551 0.763701 0.189247
O O5 0.843024 0.000000 0.282026
O O6 0.105574 0.500000 0.254572
O O7 0.106834 0.759363 0.391881
O O8 0.169988 0.776481 0.186959
O O9 0.044515 0.774247 0.202362
O O10 0.566551 0.000000 0.525592
O O11 0.263356 0.000000 0.853997
O O12 0.250000 0.750000 0.000000
O O13 0.488817 0.000000 0.133677
O O14 0.500000 0.729895 0.000000
#
# Coordination Sequence:
#
# PCOD9199718 Si02
#       6
#     2   8   8   8   8   8
#     4  12  22  40  64  98 138 168 218 270 320 400
#     4  11  23  39  61  93 132 169 215 278 328 391
#     4   9  20  39  62  90 125 170 220 269 322 394
#     4  11  23  40  65  95 133 180 216 267 334 393
#     4  10  22  42  65  92 128 171 221 273 331 394
#     4  10  20  36  61  88 119 164 217 270 327 392
#
# _framework density 22.105647999999999
#
# number of rings (size 3 to 8) (size 9 to 14) (size 15 to 20)
#    0.000    1.714    0.952    3.143    0.000    5.714 
#    1.714    0.000    0.000    0.000    0.000    0.000 
#    0.000    0.000    0.000    0.000    0.000    0.000 
#
# Total GULP energy -117144.335102 kJ/mol
# GULP energy per Si atom -5578.301672 kJ/mol
# Density = 2.205533 g / cm^3
# Si number density = 22.105648 Si / 1000 Ang^3
#
#
#
# Elastic Constant Matrix: (Units=GPa)
#
#
# Indices 1 2 3 4 5 6 
#
# 1 160.2896 15.7872 72.0043 0.0000 15.7311 0.0000
# 2 15.7872 88.0590 14.4243 0.0000 3.7929 0.0000
# 3 72.0043 14.4243 152.9156 0.0000 14.6505 0.0000
# 4 0.0000 0.0000 0.0000 23.2655 0.0000 5.8219
# 5 15.7311 3.7929 14.6505 0.0000 42.3929 0.0000
# 6 0.0000 0.0000 0.0000 5.8219 0.0000 23.0557
#
#
#
# Elastic Compliance Matrix: (Units=1/GPa)
#
#
# Indices 1 2 3 4 5 6 
#
# 1 0.008087 -0.000792 -0.003571 0.000000 -0.001696 0.000000
# 2 -0.000792 0.011631 -0.000675 0.000000 -0.000513 0.000000
# 3 -0.003571 -0.000675 0.008431 0.000000 -0.001528 0.000000
# 4 0.000000 0.000000 0.000000 0.045881 0.000000 -0.011586
# 5 -0.001696 -0.000513 -0.001528 0.000000 0.024792 0.000000
# 6 0.000000 0.000000 0.000000 -0.011586 0.000000 0.046299
#
#
# Mechanical properties :
#
#
# Convention : Reuss Voigt Hill
#
# Bulk Modulus (GPa) = 55.32996 67.29951 61.31474
# Shear Modulus (GPa) = 31.01321 37.67938 34.34629
#
# Velocity S-wave (km/s) = 3.74967 4.13305 3.94602
# Velocity P-wave (km/s) = 6.62048 7.29978 6.96841
#
# Compressibility (1/GPa) = 0.01807339
#
# Stress axis : x y z
#
# Youngs Moduli (GPa) = 123.65131 85.97947 118.60858
#
# Poissons Ratio (x) = 0.06809 0.42354
# Poissons Ratio (y) = 0.09792 0.08006
# Poissons Ratio (z) = 0.44155 0.05804
#
# Static dielectric constant tensor:
#      x y z
#    x 1.834490 0.000000 0.003700 
#    y 0.000000 1.826960 0.000000 
#    z 0.003700 0.000000 1.825540 
# 
# From -- ./inp_files/162985.got.cif
#   From: 2010.05.17/outbox.cif.g08.bks.cpg/sg12_82_cif.got.tgz:162985.got - 2010.06.03 13:09:07.
