data_PCOD9199373
_publ_section_title
;
Structure prediction by ZEFSAII (Michael W. Deem and Ramdas Pophale) SiO2 
 PCOD9199373
Probable space group: C 2/M
;
_chemical_formula_sum "Si O2"
_cell_formula_units_Z 64
_cell_length_a 19.103706
_cell_length_b 8.984353
_cell_length_c 30.932921
_cell_angle_alpha 90.000000
_cell_angle_beta 141.745510
_cell_angle_gamma 90.000000
_cell_volume 3287.192164
_symmetry_space_group_name_H-M "C 2/M"
_symmetry_group_IT_number 12
_symmetry_cell_setting 'monoclinic'
loop_
_space_group_symop_operation_xyz
x,y,z
-x,y,-z
-x,-y,-z
x,-y,z
1/2+x,1/2+y,z
1/2-x,1/2+y,-z
1/2-x,1/2-y,-z
1/2+x,1/2-y,z
loop_
_atom_site_type_symbol
_atom_site_label
_atom_site_fract_x
_atom_site_fract_y
_atom_site_fract_z
Si Si1 0.790531 0.178718 0.798353
Si Si2 0.046899 0.671499 0.569388
Si Si3 0.869793 0.181013 0.932788
Si Si4 0.809352 0.822950 0.569779
Si Si5 0.052117 0.322569 0.198594
Si Si6 0.288165 0.179707 0.063665
Si Si7 0.202859 0.172509 0.340480
Si Si8 0.446529 0.674966 0.340266
O O1 0.821966 0.223387 0.862630
O O2 0.880122 0.246126 0.807909
O O3 0.664997 0.235547 0.726601
O O4 0.794103 0.000000 0.796693
O O5 0.010071 0.500000 0.559640
O O6 0.182367 0.673890 0.631327
O O7 0.015491 0.776569 0.593337
O O8 0.000000 0.715281 0.500000
O O9 0.791264 0.229271 0.934829
O O10 0.870386 0.000000 0.934129
O O11 0.000000 0.230824 0.000000
O O12 0.750000 0.750000 0.500000
O O13 0.766806 0.776396 0.596398
O O14 0.943743 0.792903 0.635268
O O15 0.793159 0.000000 0.557663
O O16 0.062630 0.500000 0.199404
O O17 0.110972 0.268753 0.271213
O O18 0.919823 0.282862 0.134739
O O19 0.279436 0.000000 0.056636
O O20 0.250000 0.250000 0.000000
O O21 0.164762 0.000000 0.324970
O O22 0.421408 0.500000 0.326813
#
# Coordination Sequence:
#
# PCOD9199373 Si02
#       8
#     8   8   8   8   8   8   8   8
#     4  11  22  38  63  88 116 160 205 243 293 355
#     4  10  20  36  60  86 112 150 201 249 292 349
#     4   9  19  37  62  90 119 153 196 242 284 341
#     4  10  23  41  60  85 117 157 199 248 303 359
#     4  11  23  38  59  88 124 157 193 249 303 348
#     4  10  22  40  62  92 124 157 197 239 292 350
#     4  10  21  38  59  84 116 157 204 241 290 359
#     4  11  23  38  57  86 123 156 194 248 305 353
#
# _framework density 19.469504000000001
#
# number of rings (size 3 to 8) (size 9 to 14) (size 15 to 20)
#    0.000    1.750    1.250    2.625    1.750    4.750 
#    0.000    1.250    0.000    3.375    0.000    0.000 
#    0.000    0.000    0.000    0.000    0.000    0.000 
#
# Total GULP energy -178750.416695 kJ/mol
# GULP energy per Si atom -5585.950522 kJ/mol
# Density = 1.942519 g / cm^3
# Si number density = 19.469504 Si / 1000 Ang^3
#
#
#
# Elastic Constant Matrix: (Units=GPa)
#
#
# Indices 1 2 3 4 5 6 
#
# 1 111.3407 29.3172 38.8999 0.0000 -5.0637 0.0000
# 2 29.3172 33.7471 29.3244 0.0000 3.5359 0.0001
# 3 38.8999 29.3244 117.1746 0.0000 -3.0722 0.0000
# 4 0.0000 0.0000 0.0000 24.4922 0.0000 -5.7777
# 5 -5.0637 3.5359 -3.0722 0.0000 31.8162 0.0000
# 6 0.0000 0.0001 0.0000 -5.7777 0.0000 21.2483
#
#
#
# Elastic Compliance Matrix: (Units=1/GPa)
#
#
# Indices 1 2 3 4 5 6 
#
# 1 0.012163 -0.009481 -0.001591 0.000000 0.002836 0.000000
# 2 -0.009481 0.046114 -0.008589 0.000000 -0.007463 0.000000
# 3 -0.001591 -0.008589 0.011259 0.000000 0.001788 0.000000
# 4 0.000000 0.000000 0.000000 0.043628 0.000000 0.011863
# 5 0.002836 -0.007463 0.001788 0.000000 0.032884 0.000000
# 6 0.000000 0.000000 0.000000 0.011863 0.000000 0.050288
#
#
# Mechanical properties :
#
#
# Convention : Reuss Voigt Hill
#
# Bulk Modulus (GPa) = 33.09696 50.81614 41.95655
# Shear Modulus (GPa) = 20.34780 26.49274 23.42027
#
# Velocity S-wave (km/s) = 3.23633 3.69281 3.47208
# Velocity P-wave (km/s) = 5.56789 6.65879 6.13762
#
# Compressibility (1/GPa) = 0.03021426
#
# Stress axis : x y z
#
# Youngs Moduli (GPa) = 82.21938 21.68562 88.82048
#
# Poissons Ratio (x) = 0.20560 0.14129
# Poissons Ratio (y) = 0.77951 0.76285
# Poissons Ratio (z) = 0.13079 0.18625
#
# Static dielectric constant tensor:
#      x y z
#    x 1.679490 0.000000 0.007120 
#    y 0.000000 1.660410 0.000000 
#    z 0.007120 0.000000 1.671240 
# 
# From -- ./inp_files/378403.got.cif
#   From: 2010.05.17/outbox.cif.g08.bks.cpg/sg12_190_cif.got.tgz:378403.got - 2010.06.03 13:09:07.
