data_PCOD9199497
_publ_section_title
;
Structure prediction by ZEFSAII (Michael W. Deem and Ramdas Pophale) SiO2 
 PCOD9199497
Probable space group: C 2/M
;
_chemical_formula_sum "Si O2"
_cell_formula_units_Z 56
_cell_length_a 31.621010
_cell_length_b 14.276320
_cell_length_c 12.585862
_cell_angle_alpha 90.000000
_cell_angle_beta 28.705365
_cell_angle_gamma 90.000000
_cell_volume 2728.931618
_symmetry_space_group_name_H-M "C 2/M"
_symmetry_group_IT_number 12
_symmetry_cell_setting 'monoclinic'
loop_
_space_group_symop_operation_xyz
x,y,z
-x,y,-z
-x,-y,-z
x,-y,z
1/2+x,1/2+y,z
1/2-x,1/2+y,-z
1/2-x,1/2-y,-z
1/2+x,1/2-y,z
loop_
_atom_site_type_symbol
_atom_site_label
_atom_site_fract_x
_atom_site_fract_y
_atom_site_fract_z
Si Si1 0.432396 0.601633 0.551814
Si Si2 0.088675 0.891232 0.874014
Si Si3 0.265002 0.107593 0.925998
Si Si4 0.245493 0.388324 0.634248
Si Si5 0.702829 0.222239 0.939499
Si Si6 0.045099 0.389506 0.010565
Si Si7 0.970886 0.765415 0.800289
O O1 0.500000 0.609715 0.500000
O O2 0.447954 0.500000 0.465225
O O3 0.336165 0.602575 0.812171
O O4 0.449081 0.682084 0.430878
O O5 0.172790 0.859814 0.619619
O O6 0.103669 0.000000 0.870058
O O7 0.071737 0.829725 0.014409
O O8 0.000000 0.886255 0.000000
O O9 0.309399 0.155785 0.930648
O O10 0.293258 0.000000 0.840151
O O11 0.259738 0.185935 0.845407
O O12 0.253898 0.500000 0.636439
O O13 0.243023 0.334133 0.751354
O O14 0.150840 0.373929 0.785095
O O15 0.605749 0.251499 0.116361
O O16 0.029923 0.500000 0.055510
O O17 0.005681 0.331382 0.194837
O O18 0.000000 0.358650 0.000000
#
# Coordination Sequence:
#
# PCOD9199497 Si02
#       7
#     8   8   8   8   8   8   8
#     4  10  20  36  60  88 119 151 186 236 309 367
#     4  10  22  37  56  89 125 153 189 242 305 365
#     4  10  21  38  59  87 120 153 193 244 295 356
#     4   9  19  37  59  85 119 156 195 243 299 355
#     4  10  21  35  58  86 114 157 194 233 290 356
#     4   9  19  37  59  80 111 162 210 244 283 336
#     4  11  21  36  58  88 116 152 194 246 287 354
#
# _framework density 20.520851
#
# number of rings (size 3 to 8) (size 9 to 14) (size 15 to 20)
#    0.000    2.143    1.429    1.286    2.000    3.429 
#    2.571    0.000    0.000    5.571    0.000    0.000 
#    0.000    0.000    0.000    0.000    0.000    0.000 
#
# Total GULP energy -156384.343762 kJ/mol
# GULP energy per Si atom -5585.155134 kJ/mol
# Density = 2.047414 g / cm^3
# Si number density = 20.520851 Si / 1000 Ang^3
#
#
#
# Elastic Constant Matrix: (Units=GPa)
#
#
# Indices 1 2 3 4 5 6 
#
# 1 116.2249 48.0156 9.9926 0.0000 -3.7835 0.0000
# 2 48.0156 101.1472 21.0063 0.0000 3.9475 0.0000
# 3 9.9926 21.0063 55.0834 0.0000 2.6170 0.0000
# 4 0.0000 0.0000 0.0000 22.4245 0.0000 5.0818
# 5 -3.7835 3.9475 2.6170 0.0000 12.1127 0.0000
# 6 0.0000 0.0000 0.0000 5.0818 0.0000 20.8283
#
#
#
# Elastic Compliance Matrix: (Units=1/GPa)
#
#
# Indices 1 2 3 4 5 6 
#
# 1 0.011020 -0.005397 -0.000190 0.000000 0.005242 0.000000
# 2 -0.005397 0.013464 -0.003907 0.000000 -0.005229 0.000000
# 3 -0.000190 -0.003907 0.019825 0.000000 -0.003069 0.000000
# 4 0.000000 0.000000 0.000000 0.047204 0.000000 -0.011517
# 5 0.005242 -0.005229 -0.003069 0.000000 0.086563 0.000000
# 6 0.000000 0.000000 0.000000 -0.011517 0.000000 0.050822
#
#
# Mechanical properties :
#
#
# Convention : Reuss Voigt Hill
#
# Bulk Modulus (GPa) = 39.49269 47.83159 43.66214
# Shear Modulus (GPa) = 19.50641 23.96916 21.73778
#
# Velocity S-wave (km/s) = 3.08647 3.42137 3.25822
# Velocity P-wave (km/s) = 5.65585 6.24236 5.95633
#
# Compressibility (1/GPa) = 0.02532114
#
# Stress axis : x y z
#
# Youngs Moduli (GPa) = 90.73999 74.27257 50.44235
#
# Poissons Ratio (x) = 0.40082 0.00960
# Poissons Ratio (y) = 0.48969 0.19708
# Poissons Ratio (z) = 0.01726 0.29019
#
# Static dielectric constant tensor:
#      x y z
#    x 1.722280 0.000000 -0.010350 
#    y 0.000000 1.782740 0.000000 
#    z -0.010350 0.000000 1.707220 
# 
# From -- ./inp_files/189604.got.cif
#   From: 2010.05.17/outbox.cif.g08.bks.cpg/sg12_95_cif.got.tgz:189604.got - 2010.06.03 13:09:07.
