data_PCOD9199597
_publ_section_title
;
Structure prediction by ZEFSAII (Michael W. Deem and Ramdas Pophale) SiO2 
 PCOD9199597
Probable space group: C 2/M
;
_chemical_formula_sum "Si O2"
_cell_formula_units_Z 40
_cell_length_a 14.884277
_cell_length_b 12.283220
_cell_length_c 18.130531
_cell_angle_alpha 90.000000
_cell_angle_beta 145.180169
_cell_angle_gamma 90.000000
_cell_volume 1892.713554
_symmetry_space_group_name_H-M "C 2/M"
_symmetry_group_IT_number 12
_symmetry_cell_setting 'monoclinic'
loop_
_space_group_symop_operation_xyz
x,y,z
-x,y,-z
-x,-y,-z
x,-y,z
1/2+x,1/2+y,z
1/2-x,1/2+y,-z
1/2-x,1/2-y,-z
1/2+x,1/2-y,z
loop_
_atom_site_type_symbol
_atom_site_label
_atom_site_fract_x
_atom_site_fract_y
_atom_site_fract_z
Si Si1 0.885224 0.372040 0.249999
Si Si2 0.970584 0.000000 0.392976
Si Si3 0.374236 0.722044 0.520270
Si Si4 0.666302 0.222044 0.020269
Si Si5 0.603772 0.131685 0.250001
Si Si6 0.184633 0.500000 0.107025
O O1 0.863792 0.500000 0.249999
O O2 0.722967 0.311428 0.117766
O O3 0.987432 0.311428 0.382231
O O4 0.994498 0.359004 0.250000
O O5 0.000000 0.000000 0.500000
O O6 0.046818 0.893373 0.409896
O O7 0.790151 0.000000 0.250000
O O8 0.250000 0.750000 0.500000
O O9 0.267695 0.693439 0.376987
O O10 0.727026 0.106627 0.090104
O O11 0.750000 0.250000 0.000000
O O12 0.486278 0.193438 0.876986
O O13 0.614339 0.000000 0.250002
O O14 0.000000 0.500000 0.000000
#
# Coordination Sequence:
#
# PCOD9199597 Si02
#       6
#     8   4   8   8   8   4
#     4   9  18  33  53  85 119 159 212 266 320 368
#     4  12  26  42  62 100 139 174 217 278 337 396
#     4  10  20  36  60  90 124 168 218 268 326 386
#     4  10  20  36  60  90 124 168 218 268 326 386
#     4   9  16  28  52  84 122 153 195 267 325 373
#     4  12  26  42  62 100 139 174 217 278 337 396
#
# _framework density 21.133678
#
# number of rings (size 3 to 8) (size 9 to 14) (size 15 to 20)
#    0.000    2.000    4.000    0.000    5.600    0.000 
#    0.000    1.000    0.000    1.200    0.000    0.000 
#    0.000    0.000    0.000    0.000    0.000    0.000 
#
# Total GULP energy -111517.479082 kJ/mol
# GULP energy per Si atom -5575.873954 kJ/mol
# Density = 2.108558 g / cm^3
# Si number density = 21.133678 Si / 1000 Ang^3
#
#
#
# Elastic Constant Matrix: (Units=GPa)
#
#
# Indices 1 2 3 4 5 6 
#
# 1 53.4021 22.4821 6.7157 0.0000 0.2008 0.0000
# 2 22.4821 186.9196 96.3194 0.0001 -0.5992 0.0000
# 3 6.7157 96.3194 235.3388 0.0002 -1.6764 0.0001
# 4 0.0000 0.0001 0.0002 39.9541 0.0001 -0.2792
# 5 0.2008 -0.5992 -1.6764 0.0001 10.9573 0.0000
# 6 0.0000 0.0000 0.0001 -0.2792 0.0000 5.4862
#
#
#
# Elastic Compliance Matrix: (Units=1/GPa)
#
#
# Indices 1 2 3 4 5 6 
#
# 1 0.019776 -0.002646 0.000515 0.000000 -0.000428 0.000000
# 2 -0.002646 0.007134 -0.002844 0.000000 0.000003 0.000000
# 3 0.000515 -0.002844 0.005403 0.000000 0.000662 0.000000
# 4 0.000000 0.000000 0.000000 0.025038 0.000000 0.001274
# 5 -0.000428 0.000003 0.000662 0.000000 0.091373 -0.000001
# 6 0.000000 0.000000 0.000000 0.001274 -0.000001 0.182341
#
#
# Mechanical properties :
#
#
# Convention : Reuss Voigt Hill
#
# Bulk Modulus (GPa) = 44.71336 80.74386 62.72861
# Shear Modulus (GPa) = 14.34848 34.62240 24.48544
#
# Velocity S-wave (km/s) = 2.60847 4.05193 3.40751
# Velocity P-wave (km/s) = 5.50232 7.75758 6.72516
#
# Compressibility (1/GPa) = 0.02236468
#
# Stress axis : x y z
#
# Youngs Moduli (GPa) = 50.56518 140.17970 185.07355
#
# Poissons Ratio (x) = 0.37086 -0.09539
# Poissons Ratio (y) = 0.13378 0.52638
# Poissons Ratio (z) = -0.02606 0.39869
#
# Static dielectric constant tensor:
#      x y z
#    x 1.768830 0.000000 -0.000780 
#    y 0.000000 1.719810 0.000000 
#    z -0.000780 0.000000 1.865980 
# 
# From -- ./inp_files/315555.got.cif
#   From: 2010.05.17/outbox.cif.g08.bks.cpg/sg12_158_cif.got.tgz:315555.got - 2010.06.03 13:09:07.
