data_PCOD9199896
_publ_section_title
;
Structure prediction by ZEFSAII (Michael W. Deem and Ramdas Pophale) SiO2 
 PCOD9199896
Probable space group: C 2/M
;
_chemical_formula_sum "Si O2"
_cell_formula_units_Z 64
_cell_length_a 17.856558
_cell_length_b 12.076801
_cell_length_c 14.849885
_cell_angle_alpha 90.000000
_cell_angle_beta 93.141747
_cell_angle_gamma 90.000000
_cell_volume 3197.565980
_symmetry_space_group_name_H-M "C 2/M"
_symmetry_group_IT_number 12
_symmetry_cell_setting 'monoclinic'
loop_
_space_group_symop_operation_xyz
x,y,z
-x,y,-z
-x,-y,-z
x,-y,z
1/2+x,1/2+y,z
1/2-x,1/2+y,-z
1/2-x,1/2-y,-z
1/2+x,1/2-y,z
loop_
_atom_site_type_symbol
_atom_site_label
_atom_site_fract_x
_atom_site_fract_y
_atom_site_fract_z
Si Si1 0.028842 0.123482 0.156351
Si Si2 0.139946 0.791072 0.312096
Si Si3 0.239977 0.627974 0.548794
Si Si4 0.294612 0.120422 0.824901
Si Si5 0.419608 0.181295 0.971786
Si Si6 0.963637 0.372223 0.591928
Si Si7 0.119899 0.376242 0.691987
Si Si8 0.363536 0.708973 0.147467
O O1 0.075522 0.148808 0.249996
O O2 0.055917 0.210265 0.083470
O O3 0.939888 0.139040 0.164037
O O4 0.045169 0.000000 0.126647
O O5 0.194448 0.869198 0.371762
O O6 0.186480 0.716164 0.244928
O O7 0.100936 0.706837 0.378740
O O8 0.241864 0.500000 0.507574
O O9 0.250000 0.750000 0.500000
O O10 0.162686 0.636030 0.599992
O O11 0.360484 0.122065 0.903379
O O12 0.213671 0.142227 0.863698
O O13 0.294324 0.000000 0.779753
O O14 0.500000 0.126242 0.000000
O O15 0.378547 0.216964 0.060386
O O16 0.939185 0.500000 0.581455
O O17 0.000000 0.337600 0.500000
O O18 0.031177 0.368442 0.668439
O O19 0.137093 0.500000 0.726573
O O20 0.143025 0.286589 0.765768
#
# Coordination Sequence:
#
# PCOD9199896 Si02
#       8
#     8   8   8   8   8   8   8   8
#     4  10  21  38  62  86 115 159 204 250 305 365
#     4  11  21  39  61  88 124 156 203 255 305 375
#     4  11  24  43  67  93 127 166 211 263 316 379
#     4  11  23  37  58  89 122 160 199 251 312 369
#     4   9  22  39  59  86 118 156 204 255 299 365
#     4  10  20  36  62  89 117 159 206 252 303 368
#     4  10  21  39  62  89 121 162 206 248 303 368
#     4  11  20  40  59  86 122 157 199 250 302 373
#
# _framework density 20.015225000000001
#
# number of rings (size 3 to 8) (size 9 to 14) (size 15 to 20)
#    0.000    1.625    2.500    2.250    0.000    5.500 
#    0.000    0.000    0.000    1.500    0.000    0.000 
#    0.000    0.000    0.000    0.000    0.000    0.000 
#
# Total GULP energy -178544.342573 kJ/mol
# GULP energy per Si atom -5579.510705 kJ/mol
# Density = 1.996967 g / cm^3
# Si number density = 20.015225 Si / 1000 Ang^3
#
#
#
# Elastic Constant Matrix: (Units=GPa)
#
#
# Indices 1 2 3 4 5 6 
#
# 1 114.2645 31.7232 15.2302 0.0000 3.9920 0.0000
# 2 31.7232 102.9365 19.6919 0.0000 -0.4917 0.0000
# 3 15.2302 19.6919 53.9984 0.0000 7.9255 0.0000
# 4 0.0000 0.0000 0.0000 -13.5149 0.0000 6.0472
# 5 3.9920 -0.4917 7.9255 0.0000 28.6303 0.0000
# 6 0.0000 0.0000 0.0000 6.0472 0.0000 4.7577
#
#
#
# Elastic Compliance Matrix: (Units=1/GPa)
#
#
# Indices 1 2 3 4 5 6 
#
# 1 0.009751 -0.002699 -0.001626 0.000000 -0.000956 0.000000
# 2 -0.002699 0.011236 -0.003565 0.000000 0.001556 0.000000
# 3 -0.001626 -0.003565 0.021111 0.000000 -0.005678 0.000000
# 4 0.000000 0.000000 0.000000 -0.047167 0.000000 0.059951
# 5 -0.000956 0.001556 -0.005678 0.000000 0.036660 0.000000
# 6 0.000000 0.000000 0.000000 0.059951 0.000000 0.133985
#
#
# Mechanical properties :
#
#
# Convention : Reuss Voigt Hill
#
# Bulk Modulus (GPa) = 37.99461 44.94335 41.46898
# Shear Modulus (GPa) = 26.29817 17.61155 21.95486
#
# Velocity S-wave (km/s) = 3.62872 2.96954 3.31555
# Velocity P-wave (km/s) = 6.04821 5.85328 5.95154
#
# Compressibility (1/GPa) = 0.02631952
#
# Stress axis : x y z
#
# Youngs Moduli (GPa) = 102.55426 89.00163 47.36868
#
# Poissons Ratio (x) = 0.24018 0.07701
# Poissons Ratio (y) = 0.27675 0.16885
# Poissons Ratio (z) = 0.16674 0.31726
#
# Static dielectric constant tensor:
#      x y z
#    x 1.711260 0.000000 0.035730 
#    y 0.000000 1.700540 0.000000 
#    z 0.035730 0.000000 1.701490 
# 
# From -- ./inp_files/223850.got.cif
#   From: 2010.05.17/outbox.cif.g08.bks.cpg/sg12_112_cif.got.tgz:223850.got - 2010.06.03 13:09:07.
