data_PCOD9199396
_publ_section_title
;
Structure prediction by ZEFSAII (Michael W. Deem and Ramdas Pophale) SiO2 
 PCOD9199396
Probable space group: C 2/M
;
_chemical_formula_sum "Si O2"
_cell_formula_units_Z 40
_cell_length_a 12.155451
_cell_length_b 13.043172
_cell_length_c 9.526469
_cell_angle_alpha 90.000000
_cell_angle_beta 97.298394
_cell_angle_gamma 90.000000
_cell_volume 1498.143013
_symmetry_space_group_name_H-M "C 2/M"
_symmetry_group_IT_number 12
_symmetry_cell_setting 'monoclinic'
loop_
_space_group_symop_operation_xyz
x,y,z
-x,y,-z
-x,-y,-z
x,-y,z
1/2+x,1/2+y,z
1/2-x,1/2+y,-z
1/2-x,1/2-y,-z
1/2+x,1/2-y,z
loop_
_atom_site_type_symbol
_atom_site_label
_atom_site_fract_x
_atom_site_fract_y
_atom_site_fract_z
Si Si1 0.283436 0.614968 0.984431
Si Si2 0.422891 0.834064 0.253382
Si Si3 0.407203 0.387886 0.361310
Si Si4 0.648396 0.214684 0.191754
Si Si5 0.255302 0.614338 0.586710
O O1 0.324208 0.500000 0.979811
O O2 0.171930 0.627363 0.868980
O O3 0.366132 0.700573 0.936232
O O4 0.239301 0.642186 0.131916
O O5 0.427631 0.711349 0.272494
O O6 0.545213 0.854887 0.218977
O O7 0.373969 0.873132 0.394351
O O8 0.500000 0.384273 0.500000
O O9 0.418021 0.500000 0.296467
O O10 0.293262 0.381313 0.432649
O O11 0.685197 0.292941 0.321379
O O12 0.289864 0.500000 0.640734
#
# Coordination Sequence:
#
# PCOD9199396 Si02
#       5
#     8   8   8   8   8
#     4  10  23  41  60  83 116 155 192 235 289 343
#     4  11  20  34  61  90 113 148 196 238 280 340
#     4  10  20  36  60  86 116 153 189 233 288 340
#     4  10  20  36  60  87 113 150 196 236 281 340
#     4  10  21  39  61  86 118 155 190 230 286 344
#
# _framework density 26.699722000000001
#
# number of rings (size 3 to 8) (size 9 to 14) (size 15 to 20)
#    0.000    1.800    2.000    3.600    0.000    3.200 
#    0.000   10.000    0.000   25.200    0.000    0.000 
#    0.000    0.000    0.000    0.000    0.000    0.000 
#
# Total GULP energy -111826.194672 kJ/mol
# GULP energy per Si atom -5591.309734 kJ/mol
# Density = 2.663895 g / cm^3
# Si number density = 26.699722 Si / 1000 Ang^3
#
#
#
# Elastic Constant Matrix: (Units=GPa)
#
#
# Indices 1 2 3 4 5 6 
#
# 1 99.5964 -11.6385 -5.6659 0.0000 -22.6215 0.0000
# 2 -11.6385 118.5251 11.5812 0.0000 8.9561 0.0000
# 3 -5.6659 11.5812 83.3155 0.0000 -8.1080 0.0000
# 4 0.0000 0.0000 0.0000 27.2990 0.0000 6.7844
# 5 -22.6215 8.9561 -8.1080 0.0000 44.8726 0.0000
# 6 0.0000 0.0000 0.0000 6.7844 0.0000 10.9234
#
#
#
# Elastic Compliance Matrix: (Units=1/GPa)
#
#
# Indices 1 2 3 4 5 6 
#
# 1 0.011526 0.000558 0.001283 0.000000 0.005931 0.000000
# 2 0.000558 0.008752 -0.001345 0.000000 -0.001708 0.000000
# 3 0.001283 -0.001345 0.012587 0.000000 0.003190 0.000000
# 4 0.000000 0.000000 0.000000 0.043318 0.000000 -0.026904
# 5 0.005931 -0.001708 0.003190 0.000000 0.026193 0.000000
# 6 0.000000 0.000000 0.000000 -0.026904 0.000000 0.108256
#
#
# Mechanical properties :
#
#
# Convention : Reuss Voigt Hill
#
# Bulk Modulus (GPa) = 29.53436 32.22119 30.87777
# Shear Modulus (GPa) = 22.63216 37.09635 29.86425
#
# Velocity S-wave (km/s) = 2.91461 3.73150 3.34806
# Velocity P-wave (km/s) = 4.73416 5.53711 5.15131
#
# Compressibility (1/GPa) = 0.03385887
#
# Stress axis : x y z
#
# Youngs Moduli (GPa) = 86.76127 114.25494 79.44566
#
# Poissons Ratio (x) = -0.06378 -0.10196
# Poissons Ratio (y) = -0.04843 0.10685
# Poissons Ratio (z) = -0.11135 0.15366
#
# Static dielectric constant tensor:
#      x y z
#    x 2.222890 0.000000 0.092730 
#    y 0.000000 2.040950 0.000000 
#    z 0.092730 0.000000 2.208770 
# 
# From -- ./inp_files/140276.got.cif
#   From: 2010.05.17/outbox.cif.g08.bks.cpg/sg12_71_cif.got.tgz:140276.got - 2010.06.03 13:09:07.
