data_PCOD9199782
_publ_section_title
;
Structure prediction by ZEFSAII (Michael W. Deem and Ramdas Pophale) SiO2 
 PCOD9199782
Probable space group: C 2/M
;
_chemical_formula_sum "Si O2"
_cell_formula_units_Z 60
_cell_length_a 12.545567
_cell_length_b 13.674319
_cell_length_c 18.161863
_cell_angle_alpha 90.000000
_cell_angle_beta 101.484203
_cell_angle_gamma 90.000000
_cell_volume 3053.327908
_symmetry_space_group_name_H-M "C 2/M"
_symmetry_group_IT_number 12
_symmetry_cell_setting 'monoclinic'
loop_
_space_group_symop_operation_xyz
x,y,z
-x,y,-z
-x,-y,-z
x,-y,z
1/2+x,1/2+y,z
1/2-x,1/2+y,-z
1/2-x,1/2-y,-z
1/2+x,1/2-y,z
loop_
_atom_site_type_symbol
_atom_site_label
_atom_site_fract_x
_atom_site_fract_y
_atom_site_fract_z
Si Si1 0.889363 0.745392 0.952416
Si Si2 0.434326 0.884359 0.246899
Si Si3 0.654584 0.612194 0.689137
Si Si4 0.582708 0.385489 0.384847
Si Si5 0.639178 0.884371 0.193053
Si Si6 0.000000 0.260221 0.500000
Si Si7 0.807332 0.615890 0.077328
Si Si8 0.815476 0.305288 0.373844
O O1 0.895742 0.681033 0.879953
O O2 0.808097 0.833563 0.926107
O O3 0.851020 0.671070 0.011280
O O4 0.000000 0.786767 0.000000
O O5 0.561105 0.859176 0.251441
O O6 0.378232 0.865959 0.160232
O O7 0.371542 0.832702 0.304046
O O8 0.427450 0.000000 0.260693
O O9 0.672961 0.500000 0.669226
O O10 0.524642 0.623406 0.682363
O O11 0.734663 0.630160 0.768839
O O12 0.692730 0.687591 0.632078
O O13 0.586800 0.500000 0.408077
O O14 0.554298 0.311196 0.446848
O O15 0.699224 0.355386 0.367983
O O16 0.621716 0.000000 0.174807
O O17 0.095318 0.323606 0.550671
O O18 0.802866 0.500000 0.064678
#
# Coordination Sequence:
#
# PCOD9199782 Si02
#       8
#     8   8   8   8   8   4   8   8
#     4  11  21  37  62  87 119 164 204 244 296 355
#     4  10  21  38  61  90 123 157 198 252 304 352
#     4   9  21  38  59  88 120 157 202 250 296 346
#     4  10  21  41  64  87 118 157 200 246 301 359
#     4  10  20  36  61  91 121 159 209 253 294 352
#     4  10  23  40  61  90 122 156 197 244 297 360
#     4  10  22  39  58  88 122 157 201 250 300 349
#     4  11  22  39  65  90 123 157 200 244 303 363
#
# _framework density 19.650689
#
# number of rings (size 3 to 8) (size 9 to 14) (size 15 to 20)
#    0.000    1.867    1.333    2.200    3.733    1.333 
#    0.000    1.333    0.000    0.000    0.000    0.000 
#    0.000    0.000    0.000    0.000    0.000    0.000 
#
# Total GULP energy -167340.932755 kJ/mol
# GULP energy per Si atom -5578.031092 kJ/mol
# Density = 1.960596 g / cm^3
# Si number density = 19.650689 Si / 1000 Ang^3
#
#
#
# Elastic Constant Matrix: (Units=GPa)
#
#
# Indices 1 2 3 4 5 6 
#
# 1 119.4913 26.6574 41.5468 0.0000 16.1432 0.0000
# 2 26.6574 38.0789 15.5242 0.0000 13.9525 0.0000
# 3 41.5468 15.5242 63.2380 0.0000 11.3788 0.0000
# 4 0.0000 0.0000 0.0000 17.5428 0.0000 3.9883
# 5 16.1432 13.9525 11.3788 0.0000 34.1794 0.0000
# 6 0.0000 0.0000 0.0000 3.9883 0.0000 28.5957
#
#
#
# Elastic Compliance Matrix: (Units=1/GPa)
#
#
# Indices 1 2 3 4 5 6 
#
# 1 0.011918 -0.005273 -0.006287 0.000000 -0.001383 0.000000
# 2 -0.005273 0.035236 -0.003240 0.000000 -0.010815 0.000000
# 3 -0.006287 -0.003240 0.021239 0.000000 -0.002779 0.000000
# 4 0.000000 0.000000 0.000000 0.058870 0.000000 -0.008211
# 5 -0.001383 -0.010815 -0.002779 0.000000 0.035251 0.000000
# 6 0.000000 0.000000 0.000000 -0.008211 0.000000 0.036115
#
#
# Mechanical properties :
#
#
# Convention : Reuss Voigt Hill
#
# Bulk Modulus (GPa) = 25.77715 43.14056 34.45886
# Shear Modulus (GPa) = 20.73316 25.20224 22.96770
#
# Velocity S-wave (km/s) = 3.25173 3.58510 3.42248
# Velocity P-wave (km/s) = 5.21963 6.25609 5.76121
#
# Compressibility (1/GPa) = 0.03879405
#
# Stress axis : x y z
#
# Youngs Moduli (GPa) = 83.90697 28.37982 47.08367
#
# Poissons Ratio (x) = 0.14966 0.29599
# Poissons Ratio (y) = 0.44248 0.15253
# Poissons Ratio (z) = 0.52748 0.09194
#
# Static dielectric constant tensor:
#      x y z
#    x 1.729400 0.000000 0.031580 
#    y 0.000000 1.690430 0.000000 
#    z 0.031580 0.000000 1.689840 
# 
# From -- ./inp_files/263385.got.cif
#   From: 2010.05.17/outbox.cif.g08.bks.cpg/sg12_132_cif.got.tgz:263385.got - 2010.06.03 13:09:07.
