data_PCOD9199426
_publ_section_title
;
Structure prediction by ZEFSAII (Michael W. Deem and Ramdas Pophale) SiO2 
 PCOD9199426
Probable space group: C 2/M
;
_chemical_formula_sum "Si O2"
_cell_formula_units_Z 40
_cell_length_a 22.874552
_cell_length_b 11.741530
_cell_length_c 9.420969
_cell_angle_alpha 90.000000
_cell_angle_beta 143.813947
_cell_angle_gamma 90.000000
_cell_volume 1493.915365
_symmetry_space_group_name_H-M "C 2/M"
_symmetry_group_IT_number 12
_symmetry_cell_setting 'monoclinic'
loop_
_space_group_symop_operation_xyz
x,y,z
-x,y,-z
-x,-y,-z
x,-y,z
1/2+x,1/2+y,z
1/2-x,1/2+y,-z
1/2-x,1/2-y,-z
1/2+x,1/2-y,z
loop_
_atom_site_type_symbol
_atom_site_label
_atom_site_fract_x
_atom_site_fract_y
_atom_site_fract_z
Si Si1 0.524090 0.122601 0.877201
Si Si2 0.115864 0.125350 0.381809
Si Si3 0.699693 0.626884 0.863609
Si Si4 0.606004 0.659649 0.954903
Si Si5 0.182635 0.629875 0.495765
O O1 0.601416 0.205971 0.963039
O O2 0.415176 0.131585 0.595286
O O3 0.564511 0.000000 0.933243
O O4 0.500000 0.136753 0.000000
O O5 0.161055 0.129874 0.627622
O O6 0.161966 0.238366 0.397193
O O7 0.996011 0.129331 0.163434
O O8 0.138986 0.000000 0.365847
O O9 0.749441 0.500000 0.980162
O O10 0.609097 0.624497 0.798704
O O11 0.750000 0.750000 0.000000
O O12 0.711355 0.624561 0.224114
O O13 0.171274 0.500000 0.406689
#
# Coordination Sequence:
#
# PCOD9199426 Si02
#       5
#     8   8   8   8   8
#     4   9  21  41  61  85 118 153 193 243 299 354
#     4  10  21  36  56  84 119 157 195 233 282 342
#     4  11  22  36  57  85 120 159 194 234 283 341
#     4  11  21  35  60  86 114 152 196 239 288 340
#     4  10  20  36  60  87 117 152 191 240 291 341
#
# _framework density 26.775278
#
# number of rings (size 3 to 8) (size 9 to 14) (size 15 to 20)
#    0.000    1.800    2.000    2.400    0.000    4.000 
#    0.000    0.000    0.000   27.600    0.000    0.000 
#    0.000    0.000    0.000    0.000    0.000    0.000 
#
# Total GULP energy -111417.738045 kJ/mol
# GULP energy per Si atom -5570.886902 kJ/mol
# Density = 2.671434 g / cm^3
# Si number density = 26.775278 Si / 1000 Ang^3
#
#
#
# Elastic Constant Matrix: (Units=GPa)
#
#
# Indices 1 2 3 4 5 6 
#
# 1 96.4727 39.0963 28.1331 0.0000 17.2278 0.0000
# 2 39.0963 295.3986 56.2837 0.0000 8.4237 0.0000
# 3 28.1331 56.2837 156.9961 0.0000 32.2977 0.0000
# 4 0.0000 0.0000 0.0000 23.6778 0.0000 -2.0604
# 5 17.2278 8.4237 32.2977 0.0000 32.0785 0.0000
# 6 0.0000 0.0000 0.0000 -2.0604 0.0000 5.3093
#
#
#
# Elastic Compliance Matrix: (Units=1/GPa)
#
#
# Indices 1 2 3 4 5 6 
#
# 1 0.012060 -0.001335 -0.000532 0.000000 -0.005590 0.000000
# 2 -0.001335 0.003786 -0.001338 0.000000 0.001070 0.000000
# 3 -0.000532 -0.001338 0.008594 0.000000 -0.008015 0.000000
# 4 0.000000 0.000000 0.000000 0.043710 0.000000 0.016963
# 5 -0.005590 0.001070 -0.008015 0.000000 0.041965 0.000000
# 6 0.000000 0.000000 0.000000 0.016963 0.000000 0.194933
#
#
# Mechanical properties :
#
#
# Convention : Reuss Voigt Hill
#
# Bulk Modulus (GPa) = 55.46834 88.43261 71.95047
# Shear Modulus (GPa) = 15.74953 40.57006 28.15980
#
# Velocity S-wave (km/s) = 2.42794 3.89679 3.24652
# Velocity P-wave (km/s) = 5.34987 7.30384 6.40184
#
# Compressibility (1/GPa) = 0.01802830
#
# Stress axis : x y z
#
# Youngs Moduli (GPa) = 82.91634 264.09786 116.36465
#
# Poissons Ratio (x) = 0.35266 0.06195
# Poissons Ratio (y) = 0.11072 0.15574
# Poissons Ratio (z) = 0.04414 0.35346
#
# Static dielectric constant tensor:
#      x y z
#    x 2.030550 0.000000 -0.012800 
#    y 0.000000 2.282300 0.000000 
#    z -0.012800 0.000000 2.136680 
# 
# From -- ./inp_files/182781.got.cif
#   From: 2010.05.17/outbox.cif.g08.bks.cpg/sg12_92_cif.got.tgz:182781.got - 2010.06.03 13:09:07.
