data_PCOD9199334
_publ_section_title
;
Structure prediction by ZEFSAII (Michael W. Deem and Ramdas Pophale) SiO2 
 PCOD9199334
Probable space group: C 2/M
;
_chemical_formula_sum "Si O2"
_cell_formula_units_Z 58
_cell_length_a 16.604851
_cell_length_b 13.055104
_cell_length_c 14.760732
_cell_angle_alpha 90.000000
_cell_angle_beta 99.537647
_cell_angle_gamma 90.000000
_cell_volume 3155.571738
_symmetry_space_group_name_H-M "C 2/M"
_symmetry_group_IT_number 12
_symmetry_cell_setting 'monoclinic'
loop_
_space_group_symop_operation_xyz
x,y,z
-x,y,-z
-x,-y,-z
x,-y,z
1/2+x,1/2+y,z
1/2-x,1/2+y,-z
1/2-x,1/2-y,-z
1/2+x,1/2-y,z
loop_
_atom_site_type_symbol
_atom_site_label
_atom_site_fract_x
_atom_site_fract_y
_atom_site_fract_z
Si Si1 0.526567 0.619475 0.401273
Si Si2 0.371319 0.115689 0.734498
Si Si3 0.796315 0.211108 0.597269
Si Si4 0.619697 0.322599 0.949176
Si Si5 0.456722 0.224769 0.241885
Si Si6 0.289029 0.800936 0.891302
Si Si7 0.713165 0.119979 0.755358
Si Si8 0.000000 0.000000 0.000000
O O1 0.500000 0.635660 0.500000
O O2 0.514107 0.500000 0.375656
O O3 0.621769 0.648469 0.410518
O O4 0.476729 0.692417 0.323876
O O5 0.324242 0.187949 0.656150
O O6 0.462307 0.159381 0.758682
O O7 0.326460 0.127431 0.821991
O O8 0.371919 0.000000 0.703176
O O9 0.750000 0.250000 0.500000
O O10 0.744136 0.146122 0.659903
O O11 0.567619 0.282970 0.854368
O O12 0.709529 0.348798 0.924752
O O13 0.643218 0.232499 0.023557
O O14 0.568700 0.410759 0.987914
O O15 0.381002 0.153249 0.254664
O O16 0.260392 0.695938 0.833982
O O17 0.725582 0.000000 0.777787
#
# Coordination Sequence:
#
# PCOD9199334 Si02
#       8
#     8   8   8   8   8   8   8   2
#     4  10  21  37  58  83 115 154 190 234 297 356
#     4  10  21  37  60  83 111 154 194 237 290 353
#     4  10  21  38  57  84 116 148 192 245 291 352
#     4  10  22  39  56  85 119 153 194 249 292 353
#     4  10  21  39  57  84 120 148 194 247 292 345
#     4   9  21  41  57  80 123 154 195 243 298 349
#     4  10  20  36  60  84 111 154 193 241 293 354
#     4  12  24  32  60  92 112 154 204 248 300 360
#
# _framework density 18.380188
#
# number of rings (size 3 to 8) (size 9 to 14) (size 15 to 20)
#    0.000    2.069    0.000    2.483    2.897    1.103 
#    0.000    5.517    0.000    4.552    0.000    0.000 
#    0.000    0.000    0.000    0.000    0.000    0.000 
#
# Total GULP energy -161609.373217 kJ/mol
# GULP energy per Si atom -5572.737007 kJ/mol
# Density = 1.833835 g / cm^3
# Si number density = 18.380188 Si / 1000 Ang^3
#
#
#
# Elastic Constant Matrix: (Units=GPa)
#
#
# Indices 1 2 3 4 5 6 
#
# 1 75.1589 41.1390 35.4794 0.0000 -6.3609 0.0000
# 2 41.1390 93.1046 8.8019 0.0000 -4.2470 0.0000
# 3 35.4794 8.8019 63.7882 0.0000 0.8302 0.0000
# 4 0.0000 0.0000 0.0000 4.9064 0.0000 0.1273
# 5 -6.3609 -4.2470 0.8302 0.0000 27.9510 0.0000
# 6 0.0000 0.0000 0.0000 0.1273 0.0000 11.8052
#
#
#
# Elastic Compliance Matrix: (Units=1/GPa)
#
#
# Indices 1 2 3 4 5 6 
#
# 1 0.024881 -0.009596 -0.012574 0.000000 0.004578 0.000000
# 2 -0.009596 0.014665 0.003315 0.000000 -0.000054 0.000000
# 3 -0.012574 0.003315 0.022253 0.000000 -0.003019 0.000000
# 4 0.000000 0.000000 0.000000 0.203873 0.000000 -0.002199
# 5 0.004578 -0.000054 -0.003019 0.000000 0.036900 0.000000
# 6 0.000000 0.000000 0.000000 -0.002199 0.000000 0.084732
#
#
# Mechanical properties :
#
#
# Convention : Reuss Voigt Hill
#
# Bulk Modulus (GPa) = 41.51673 44.76581 43.14127
# Shear Modulus (GPa) = 11.54614 18.70792 15.12703
#
# Velocity S-wave (km/s) = 2.50908 3.19381 2.87192
# Velocity P-wave (km/s) = 5.57053 6.16513 5.87536
#
# Compressibility (1/GPa) = 0.02408668
#
# Stress axis : x y z
#
# Youngs Moduli (GPa) = 40.19109 68.18948 44.93819
#
# Poissons Ratio (x) = 0.65437 0.56507
# Poissons Ratio (y) = 0.38569 -0.14896
# Poissons Ratio (z) = 0.50538 -0.22603
#
# Static dielectric constant tensor:
#      x y z
#    x 1.627960 0.000000 -0.012760 
#    y 0.000000 1.589340 0.000000 
#    z -0.012760 0.000000 1.622040 
# 
# From -- ./inp_files/223320.got.cif
#   From: 2010.05.17/outbox.cif.g08.bks.cpg/sg12_112_cif.got.tgz:223320.got - 2010.06.03 13:09:07.
