data_PCOD9199275
_publ_section_title
;
Structure prediction by ZEFSAII (Michael W. Deem and Ramdas Pophale) SiO2 
 PCOD9199275
Probable space group: C 2/M
;
_chemical_formula_sum "Si O2"
_cell_formula_units_Z 56
_cell_length_a 18.313528
_cell_length_b 17.801811
_cell_length_c 14.548346
_cell_angle_alpha 90.000000
_cell_angle_beta 142.318109
_cell_angle_gamma 90.000000
_cell_volume 2899.264464
_symmetry_space_group_name_H-M "C 2/M"
_symmetry_group_IT_number 12
_symmetry_cell_setting 'monoclinic'
loop_
_space_group_symop_operation_xyz
x,y,z
-x,y,-z
-x,-y,-z
x,-y,z
1/2+x,1/2+y,z
1/2-x,1/2+y,-z
1/2-x,1/2-y,-z
1/2+x,1/2-y,z
loop_
_atom_site_type_symbol
_atom_site_label
_atom_site_fract_x
_atom_site_fract_y
_atom_site_fract_z
Si Si1 0.595626 0.083735 0.679035
Si Si2 0.066199 0.358439 0.318937
Si Si3 0.416425 0.279166 0.549092
Si Si4 0.175984 0.745715 0.743800
Si Si5 0.316165 0.419025 0.554972
Si Si6 0.005440 0.083780 0.115447
Si Si7 0.942955 0.746705 0.045767
O O1 0.500000 0.087738 0.500000
O O2 0.526782 0.099901 0.706266
O O3 0.680660 0.154685 0.747895
O O4 0.647959 0.000000 0.730643
O O5 0.128712 0.293285 0.441590
O O6 0.174995 0.411746 0.402283
O O7 0.007899 0.312583 0.177092
O O8 0.559903 0.268388 0.687336
O O9 0.359042 0.274525 0.391710
O O10 0.379487 0.353801 0.562549
O O11 0.303494 0.773890 0.902440
O O12 0.355845 0.500000 0.559350
O O13 0.362698 0.414282 0.706767
O O14 0.953110 0.166038 0.089822
O O15 0.956269 0.000000 0.094991
O O16 0.000000 0.083372 0.000000
O O17 0.000000 0.743898 0.000000
#
# Coordination Sequence:
#
# PCOD9199275 Si02
#       7
#     8   8   8   8   8   8   8
#     4  10  20  36  59  90 122 155 193 238 297 351
#     4  11  21  37  60  89 119 155 201 248 287 351
#     4  10  20  38  60  87 115 155 202 245 285 348
#     4  10  21  39  60  86 120 157 198 245 289 352
#     4  11  22  37  61  86 117 154 196 244 295 349
#     4   9  20  34  49  84 124 152 183 230 292 350
#     4  11  23  36  61  89 119 158 199 243 302 345
#
# _framework density 19.315244
#
# number of rings (size 3 to 8) (size 9 to 14) (size 15 to 20)
#    0.000    1.714    4.286    1.714    4.000    2.857 
#    0.000    1.429    0.000    8.571    0.000    0.000 
#    0.000    0.000    0.000    0.000    0.000    0.000 
#
# Total GULP energy -156080.763297 kJ/mol
# GULP energy per Si atom -5574.312975 kJ/mol
# Density = 1.927128 g / cm^3
# Si number density = 19.315244 Si / 1000 Ang^3
#
#
#
# Elastic Constant Matrix: (Units=GPa)
#
#
# Indices 1 2 3 4 5 6 
#
# 1 39.2326 25.7728 27.0448 0.0000 -12.1559 0.0000
# 2 25.7728 89.6086 29.9567 0.0000 -10.1826 0.0000
# 3 27.0448 29.9567 94.9338 0.0000 6.7869 0.0000
# 4 0.0000 0.0000 0.0000 22.9663 0.0000 -3.8880
# 5 -12.1559 -10.1826 6.7869 0.0000 22.3346 0.0000
# 6 0.0000 0.0000 0.0000 -3.8880 0.0000 12.9290
#
#
#
# Elastic Compliance Matrix: (Units=1/GPa)
#
#
# Indices 1 2 3 4 5 6 
#
# 1 0.047029 -0.005969 -0.013441 0.000000 0.026959 0.000000
# 2 -0.005969 0.014418 -0.003155 0.000000 0.004283 0.000000
# 3 -0.013441 -0.003155 0.016339 0.000000 -0.013719 0.000000
# 4 0.000000 0.000000 0.000000 0.045878 0.000000 0.013796
# 5 0.026959 0.004283 -0.013719 0.000000 0.065568 0.000000
# 6 0.000000 0.000000 0.000000 0.013796 0.000000 0.081494
#
#
# Mechanical properties :
#
#
# Convention : Reuss Voigt Hill
#
# Bulk Modulus (GPa) = 30.62365 43.25818 36.94091
# Shear Modulus (GPa) = 15.30250 21.04603 18.17426
#
# Velocity S-wave (km/s) = 2.81775 3.30450 3.07078
# Velocity P-wave (km/s) = 5.14542 6.08310 5.63380
#
# Compressibility (1/GPa) = 0.03265450
#
# Stress axis : x y z
#
# Youngs Moduli (GPa) = 21.26338 69.35730 61.20191
#
# Poissons Ratio (x) = 0.41401 0.82264
# Poissons Ratio (y) = 0.12693 0.19311
# Poissons Ratio (z) = 0.28581 0.21885
#
# Static dielectric constant tensor:
#      x y z
#    x 1.700060 0.000000 0.016500 
#    y 0.000000 1.677380 0.000000 
#    z 0.016500 0.000000 1.683890 
# 
# From -- ./inp_files/234726.got.cif
#   From: 2010.05.17/outbox.cif.g08.bks.cpg/sg12_118_cif.got.tgz:234726.got - 2010.06.03 13:09:07.
