data_PCOD9199364
_publ_section_title
;
Structure prediction by ZEFSAII (Michael W. Deem and Ramdas Pophale) SiO2 
 PCOD9199364
Probable space group: C 2/M
;
_chemical_formula_sum "Si O2"
_cell_formula_units_Z 64
_cell_length_a 30.304925
_cell_length_b 7.864680
_cell_length_c 12.079580
_cell_angle_alpha 90.000000
_cell_angle_beta 92.640632
_cell_angle_gamma 90.000000
_cell_volume 2875.972331
_symmetry_space_group_name_H-M "C 2/M"
_symmetry_group_IT_number 12
_symmetry_cell_setting 'monoclinic'
loop_
_space_group_symop_operation_xyz
x,y,z
-x,y,-z
-x,-y,-z
x,-y,z
1/2+x,1/2+y,z
1/2-x,1/2+y,-z
1/2-x,1/2-y,-z
1/2+x,1/2-y,z
loop_
_atom_site_type_symbol
_atom_site_label
_atom_site_fract_x
_atom_site_fract_y
_atom_site_fract_z
Si Si1 0.902094 0.207011 0.227563
Si Si2 0.894059 0.197708 0.476950
Si Si3 0.994651 0.792240 0.126299
Si Si4 0.702278 0.809404 0.536810
Si Si5 0.240095 0.802903 0.755442
Si Si6 0.073868 0.797445 0.290524
Si Si7 0.836202 0.705923 0.819647
Si Si8 0.180625 0.699644 0.933123
O O1 0.901033 0.269565 0.354683
O O2 0.861404 0.272422 0.150708
O O3 0.947659 0.254230 0.173034
O O4 0.898447 0.000000 0.229007
O O5 0.841684 0.207411 0.497040
O O6 0.920235 0.273383 0.584407
O O7 0.906749 0.000000 0.470784
O O8 0.034131 0.730716 0.210242
O O9 0.996381 0.000000 0.124485
O O10 0.000000 0.734850 0.000000
O O11 0.805544 0.500000 0.503035
O O12 0.750000 0.750000 0.500000
O O13 0.708887 0.799940 0.669783
O O14 0.290582 0.744358 0.754630
O O15 0.221796 0.787085 0.877198
O O16 0.237206 0.000000 0.721264
O O17 0.119981 0.771337 0.232668
O O18 0.066723 0.000000 0.300538
O O19 0.837652 0.500000 0.819013
O O20 0.831460 0.763557 0.946193
O O21 0.190585 0.500000 0.942704
#
# Coordination Sequence:
#
# PCOD9199364 Si02
#       8
#     8   8   8   8   8   8   8   8
#     4  10  20  36  60  85 117 159 197 243 299 352
#     4  10  21  37  57  85 118 153 199 247 294 351
#     4   9  18  34  58  89 119 151 197 246 294 351
#     4  12  24  38  58  83 116 158 201 248 293 346
#     4  11  22  38  58  83 115 153 197 242 294 353
#     4  10  21  37  59  86 116 151 197 247 292 347
#     4  10  23  39  56  82 117 154 194 243 297 355
#     4  11  22  37  57  85 118 152 195 243 293 353
#
# _framework density 22.253342
#
# number of rings (size 3 to 8) (size 9 to 14) (size 15 to 20)
#    0.000    1.625    1.250    3.750    0.000    6.000 
#    0.000    3.125    0.000    2.250    0.000    2.625 
#    0.000    0.000    0.000    0.000    0.000    0.000 
#
# Total GULP energy -178912.259051 kJ/mol
# GULP energy per Si atom -5591.008095 kJ/mol
# Density = 2.220269 g / cm^3
# Si number density = 22.253342 Si / 1000 Ang^3
#
#
#
# Elastic Constant Matrix: (Units=GPa)
#
#
# Indices 1 2 3 4 5 6 
#
# 1 99.9030 -5.8985 27.1406 0.0000 5.5568 0.0000
# 2 -5.8985 32.7335 -1.5891 0.0000 1.0317 0.0000
# 3 27.1406 -1.5891 114.2105 0.0000 7.2859 0.0000
# 4 0.0000 0.0000 0.0000 15.1069 0.0000 -1.4927
# 5 5.5568 1.0317 7.2859 0.0000 38.2897 0.0000
# 6 0.0000 0.0000 0.0000 -1.4927 0.0000 19.6666
#
#
#
# Elastic Compliance Matrix: (Units=1/GPa)
#
#
# Indices 1 2 3 4 5 6 
#
# 1 0.010858 0.001873 -0.002481 0.000000 -0.001154 0.000000
# 2 0.001873 0.030925 0.000056 0.000000 -0.001116 0.000000
# 3 -0.002481 0.000056 0.009438 0.000000 -0.001437 0.000000
# 4 0.000000 0.000000 0.000000 0.066695 0.000000 0.005062
# 5 -0.001154 -0.001116 -0.001437 0.000000 0.026588 0.000000
# 6 0.000000 0.000000 0.000000 0.005062 0.000000 0.051232
#
#
# Mechanical properties :
#
#
# Convention : Reuss Voigt Hill
#
# Bulk Modulus (GPa) = 19.95287 31.79476 25.87382
# Shear Modulus (GPa) = 23.41425 29.75891 26.58658
#
# Velocity S-wave (km/s) = 3.24723 3.66085 3.46023
# Velocity P-wave (km/s) = 4.80053 5.67342 5.25513
#
# Compressibility (1/GPa) = 0.05011810
#
# Stress axis : x y z
#
# Youngs Moduli (GPa) = 92.09469 32.33618 105.95756
#
# Poissons Ratio (x) = -0.06055 0.26284
# Poissons Ratio (y) = -0.17246 -0.00598
# Poissons Ratio (z) = 0.22846 -0.00183
#
# Static dielectric constant tensor:
#      x y z
#    x 1.773480 0.000000 0.002360 
#    y 0.000000 1.812550 0.000000 
#    z 0.002360 0.000000 1.864670 
# 
# From -- ./inp_files/187543.got.cif
#   From: 2010.05.17/outbox.cif.g08.bks.cpg/sg12_94_cif.got.tgz:187543.got - 2010.06.03 13:09:07.
