data_PCOD9199849
_publ_section_title
;
Structure prediction by ZEFSAII (Michael W. Deem and Ramdas Pophale) SiO2 
 PCOD9199849
Probable space group: C 2/M
;
_chemical_formula_sum "Si O2"
_cell_formula_units_Z 56
_cell_length_a 18.781326
_cell_length_b 23.662619
_cell_length_c 6.564475
_cell_angle_alpha 90.000000
_cell_angle_beta 67.719078
_cell_angle_gamma 90.000000
_cell_volume 2699.532293
_symmetry_space_group_name_H-M "C 2/M"
_symmetry_group_IT_number 12
_symmetry_cell_setting 'monoclinic'
loop_
_space_group_symop_operation_xyz
x,y,z
-x,y,-z
-x,-y,-z
x,-y,z
1/2+x,1/2+y,z
1/2-x,1/2+y,-z
1/2-x,1/2-y,-z
1/2+x,1/2-y,z
loop_
_atom_site_type_symbol
_atom_site_label
_atom_site_fract_x
_atom_site_fract_y
_atom_site_fract_z
Si Si1 0.134696 0.934640 0.980332
Si Si2 0.932556 0.436423 0.410804
Si Si3 0.309671 0.640616 0.424147
Si Si4 0.082116 0.836119 0.313255
Si Si5 0.813838 0.561839 0.892509
Si Si6 0.179831 0.762193 0.918855
Si Si7 0.147164 0.359980 0.796399
O O1 0.084923 0.894243 0.179420
O O2 0.111143 0.000000 0.003930
O O3 0.143297 0.907858 0.746325
O O4 0.222604 0.930936 0.968515
O O5 0.943940 0.500000 0.311415
O O6 0.855399 0.438023 0.630982
O O7 0.921240 0.387210 0.259650
O O8 0.000000 0.426348 0.500000
O O9 0.357624 0.660481 0.566910
O O10 0.227002 0.622892 0.598801
O O11 0.297638 0.690397 0.271595
O O12 0.111216 0.788233 0.127320
O O13 0.000000 0.825630 0.500000
O O14 0.828130 0.500000 0.971954
O O15 0.849876 0.610163 0.989064
O O16 0.250000 0.750000 0.000000
O O17 0.152669 0.706540 0.829375
#
# Coordination Sequence:
#
# PCOD9199849 Si02
#       7
#     8   8   8   8   8   8   8
#     4  10  21  38  64 100 128 160 218 264 309 394
#     4  10  23  41  61  92 137 176 209 269 337 386
#     4  11  22  40  67  94 122 171 212 269 324 390
#     4  11  25  45  65  91 133 171 208 269 340 380
#     4  10  20  36  61  95 127 161 213 266 310 384
#     4  11  24  41  68  94 121 164 222 278 320 387
#     4  12  21  37  68  92 122 170 225 263 322 391
#
# _framework density 20.744333000000001
#
# number of rings (size 3 to 8) (size 9 to 14) (size 15 to 20)
#    0.000    1.286    4.286    1.714    0.000    4.286 
#    0.000    7.143    0.000    0.000    0.000    0.000 
#    0.000    0.000    0.000    0.000    0.000    0.000 
#
# Total GULP energy -156464.530080 kJ/mol
# GULP energy per Si atom -5588.018931 kJ/mol
# Density = 2.069712 g / cm^3
# Si number density = 20.744333 Si / 1000 Ang^3
#
#
#
# Elastic Constant Matrix: (Units=GPa)
#
#
# Indices 1 2 3 4 5 6 
#
# 1 56.4335 10.8389 11.2213 0.0000 1.8175 0.0000
# 2 10.8389 81.3860 23.2366 0.0000 5.6534 0.0000
# 3 11.2213 23.2366 79.7080 0.0000 -1.9996 0.0000
# 4 0.0000 0.0000 0.0000 19.6785 0.0000 4.8974
# 5 1.8175 5.6534 -1.9996 0.0000 32.9085 0.0000
# 6 0.0000 0.0000 0.0000 4.8974 0.0000 20.3340
#
#
#
# Elastic Compliance Matrix: (Units=1/GPa)
#
#
# Indices 1 2 3 4 5 6 
#
# 1 0.018512 -0.001807 -0.002100 0.000000 -0.000839 0.000000
# 2 -0.001807 0.013795 -0.003830 0.000000 -0.002503 0.000000
# 3 -0.002100 -0.003830 0.013999 0.000000 0.001625 0.000000
# 4 0.000000 0.000000 0.000000 0.054057 0.000000 -0.013020
# 5 -0.000839 -0.002503 0.001625 0.000000 0.030962 0.000000
# 6 0.000000 0.000000 0.000000 -0.013020 0.000000 0.052314
#
#
# Mechanical properties :
#
#
# Convention : Reuss Voigt Hill
#
# Bulk Modulus (GPa) = 32.43543 34.23567 33.33555
# Shear Modulus (GPa) = 23.87873 26.06626 24.97249
#
# Velocity S-wave (km/s) = 3.39646 3.54863 3.47338
# Velocity P-wave (km/s) = 5.57234 5.77320 5.67366
#
# Compressibility (1/GPa) = 0.03083049
#
# Stress axis : x y z
#
# Youngs Moduli (GPa) = 54.01972 72.48912 71.43510
#
# Poissons Ratio (x) = 0.13102 0.15003
# Poissons Ratio (y) = 0.09764 0.27359
# Poissons Ratio (z) = 0.11345 0.27763
#
# Static dielectric constant tensor:
#      x y z
#    x 1.748000 0.000000 0.003130 
#    y 0.000000 1.765310 0.000000 
#    z 0.003130 0.000000 1.726930 
# 
# From -- ./inp_files/21843.got.cif
#   From: 2010.05.17/outbox.cif.g08.bks.cpg/sg12_11_cif.got.tgz:21843.got - 2010.06.03 13:09:07.
