data_PCOD9199799
_publ_section_title
;
Structure prediction by ZEFSAII (Michael W. Deem and Ramdas Pophale) SiO2 
 PCOD9199799
Probable space group: C 2/M
;
_chemical_formula_sum "Si O2"
_cell_formula_units_Z 64
_cell_length_a 28.378262
_cell_length_b 14.374616
_cell_length_c 12.182708
_cell_angle_alpha 90.000000
_cell_angle_beta 39.937047
_cell_angle_gamma 90.000000
_cell_volume 3190.245223
_symmetry_space_group_name_H-M "C 2/M"
_symmetry_group_IT_number 12
_symmetry_cell_setting 'monoclinic'
loop_
_space_group_symop_operation_xyz
x,y,z
-x,y,-z
-x,-y,-z
x,-y,z
1/2+x,1/2+y,z
1/2-x,1/2+y,-z
1/2-x,1/2-y,-z
1/2+x,1/2-y,z
loop_
_atom_site_type_symbol
_atom_site_label
_atom_site_fract_x
_atom_site_fract_y
_atom_site_fract_z
Si Si1 0.356682 0.818142 0.510858
Si Si2 0.196934 0.106123 0.857380
Si Si3 0.675957 0.755458 0.061183
Si Si4 0.084235 0.132656 0.863658
Si Si5 0.643308 0.602068 0.519683
Si Si6 0.187793 0.401300 0.846024
Si Si7 0.917074 0.352796 0.162312
Si Si8 0.413902 0.895461 0.632231
O O1 0.269036 0.837670 0.683914
O O2 0.377601 0.707327 0.482498
O O3 0.384306 0.855889 0.343679
O O4 0.395872 0.872921 0.538411
O O5 0.131571 0.105553 0.884827
O O6 0.220294 0.000000 0.835199
O O7 0.167272 0.154195 0.021729
O O8 0.619352 0.809633 0.239530
O O9 0.750000 0.750000 0.000000
O O10 0.679013 0.820073 0.948320
O O11 0.126319 0.103610 0.678847
O O12 0.081055 0.243866 0.870662
O O13 0.000000 0.100771 0.000000
O O14 0.614460 0.500000 0.528531
O O15 0.729553 0.600635 0.344337
O O16 0.174094 0.500000 0.927431
O O17 0.135668 0.395012 0.834455
O O18 0.000000 0.388584 0.000000
O O19 0.500000 0.897013 0.500000
O O20 0.384928 0.000000 0.710109
#
# Coordination Sequence:
#
# PCOD9199799 Si02
#       8
#     8   8   8   8   8   8   8   8
#     4  11  22  42  66  94 135 174 222 280 333 402
#     4  12  24  40  67  97 128 173 225 276 335 398
#     4  12  24  44  67  94 131 173 226 283 328 391
#     4  10  21  38  60  90 131 174 218 266 326 400
#     4  10  20  36  61  91 126 170 215 262 329 399
#     4  11  22  38  62  94 128 167 210 266 332 396
#     4  10  22  38  62  95 133 175 213 266 333 400
#     4  11  26  46  71  99 132 182 232 279 340 407
#
# _framework density 20.061153000000001
#
# number of rings (size 3 to 8) (size 9 to 14) (size 15 to 20)
#    0.000    1.125    3.750    1.875    1.750    6.750 
#    0.000    0.625    0.000    0.750    0.000    0.000 
#    0.000    0.000    0.000    0.000    0.000    0.000 
#
# Total GULP energy -178447.777499 kJ/mol
# GULP energy per Si atom -5576.493047 kJ/mol
# Density = 2.001549 g / cm^3
# Si number density = 20.061153 Si / 1000 Ang^3
#
#
#
# Elastic Constant Matrix: (Units=GPa)
#
#
# Indices 1 2 3 4 5 6 
#
# 1 110.4354 19.5600 38.4552 0.0000 7.2075 0.0000
# 2 19.5600 120.8783 21.7497 0.0000 13.3615 0.0000
# 3 38.4552 21.7497 44.6458 0.0000 17.9128 0.0000
# 4 0.0000 0.0000 0.0000 33.0600 0.0000 13.1588
# 5 7.2075 13.3615 17.9128 0.0000 19.0154 0.0000
# 6 0.0000 0.0000 0.0000 13.1588 0.0000 21.7759
#
#
#
# Elastic Compliance Matrix: (Units=1/GPa)
#
#
# Indices 1 2 3 4 5 6 
#
# 1 0.013996 -0.000522 -0.015787 0.000000 0.009933 0.000000
# 2 -0.000522 0.009239 -0.002453 0.000000 -0.003983 0.000000
# 3 -0.015787 -0.002453 0.054818 0.000000 -0.043932 0.000000
# 4 0.000000 0.000000 0.000000 0.039827 0.000000 -0.024067
# 5 0.009933 -0.003983 -0.043932 0.000000 0.093008 0.000000
# 6 0.000000 0.000000 0.000000 -0.024067 0.000000 0.060466
#
#
# Mechanical properties :
#
#
# Convention : Reuss Voigt Hill
#
# Bulk Modulus (GPa) = 24.67337 48.38770 36.53054
# Shear Modulus (GPa) = 15.50931 27.84989 21.67960
#
# Velocity S-wave (km/s) = 2.78349 3.72996 3.29093
# Velocity P-wave (km/s) = 4.75985 6.53626 5.71747
#
# Compressibility (1/GPa) = 0.04052953
#
# Stress axis : x y z
#
# Youngs Moduli (GPa) = 71.44683 108.23757 18.24234
#
# Poissons Ratio (x) = 0.05653 0.28798
# Poissons Ratio (y) = 0.03732 0.04474
# Poissons Ratio (z) = 1.12790 0.26548
#
# Static dielectric constant tensor:
#      x y z
#    x 1.659070 0.000000 -0.014850 
#    y 0.000000 1.792160 0.000000 
#    z -0.014850 0.000000 1.753170 
# 
# From -- ./inp_files/183759.got.cif
#   From: 2010.05.17/outbox.cif.g08.bks.cpg/sg12_92_cif.got.tgz:183759.got - 2010.06.03 13:09:07.
