data_PCOD9199255
_publ_section_title
;
Structure prediction by ZEFSAII (Michael W. Deem and Ramdas Pophale) SiO2 
 PCOD9199255
Probable space group: C 2/M
;
_chemical_formula_sum "Si O2"
_cell_formula_units_Z 56
_cell_length_a 20.397420
_cell_length_b 12.101159
_cell_length_c 16.169851
_cell_angle_alpha 90.000000
_cell_angle_beta 144.972236
_cell_angle_gamma 90.000000
_cell_volume 2290.867233
_symmetry_space_group_name_H-M "C 2/M"
_symmetry_group_IT_number 12
_symmetry_cell_setting 'monoclinic'
loop_
_space_group_symop_operation_xyz
x,y,z
-x,y,-z
-x,-y,-z
x,-y,z
1/2+x,1/2+y,z
1/2-x,1/2+y,-z
1/2-x,1/2-y,-z
1/2+x,1/2-y,z
loop_
_atom_site_type_symbol
_atom_site_label
_atom_site_fract_x
_atom_site_fract_y
_atom_site_fract_z
Si Si1 0.351611 0.385937 0.084533
Si Si2 0.341643 0.627788 0.766957
Si Si3 0.823672 0.621082 0.547791
Si Si4 0.406280 0.876738 0.807949
Si Si5 0.842347 0.339582 0.987966
Si Si6 0.019185 0.210370 0.384094
Si Si7 0.171200 0.238690 0.687748
O O1 0.364159 0.500000 0.051786
O O2 0.232700 0.382025 0.012575
O O3 0.450754 0.373058 0.255433
O O4 0.358149 0.288131 0.027389
O O5 0.383485 0.500000 0.825041
O O6 0.294690 0.628583 0.624057
O O7 0.403235 0.749435 0.840504
O O8 0.231779 0.654182 0.711456
O O9 0.870917 0.500000 0.576706
O O10 0.817230 0.627911 0.639625
O O11 0.911565 0.709297 0.603707
O O12 0.389280 0.000000 0.830828
O O13 0.533365 0.884356 0.900820
O O14 0.762248 0.341810 0.824964
O O15 0.106433 0.175942 0.546452
O O16 0.918638 0.268789 0.333536
#
# Coordination Sequence:
#
# PCOD9199255 Si02
#       7
#     8   8   8   8   8   8   8
#     4  10  20  36  59  89 123 159 201 251 308 368
#     4  10  22  40  60  87 122 160 206 255 303 359
#     4   9  18  35  61  89 118 151 198 254 304 359
#     4  11  22  39  61  87 119 162 209 251 301 362
#     4  10  21  38  57  88 122 158 201 251 307 367
#     4   9  17  37  60  90 120 156 198 245 311 367
#     4   9  20  37  60  86 126 160 197 250 308 371
#
# _framework density 24.444891999999999
#
# number of rings (size 3 to 8) (size 9 to 14) (size 15 to 20)
#    0.000    2.286    1.429    0.857    0.000    2.286 
#    0.000   17.143    0.000    0.000    0.000    0.000 
#    0.000    0.000    0.000    0.000    0.000    0.000 
#
# Total GULP energy -156091.310046 kJ/mol
# GULP energy per Si atom -5574.689645 kJ/mol
# Density = 2.438925 g / cm^3
# Si number density = 24.444892 Si / 1000 Ang^3
#
#
#
# Elastic Constant Matrix: (Units=GPa)
#
#
# Indices 1 2 3 4 5 6 
#
# 1 62.7254 35.3866 18.4011 0.0000 12.5569 0.0000
# 2 35.3866 192.8038 22.3308 0.0000 22.2587 0.0000
# 3 18.4011 22.3308 87.1226 0.0000 -11.0084 0.0000
# 4 0.0000 0.0000 0.0000 -32.1370 0.0000 9.9405
# 5 12.5569 22.2587 -11.0084 0.0000 27.7985 0.0000
# 6 0.0000 0.0000 0.0000 9.9405 0.0000 -19.4892
#
#
#
# Elastic Compliance Matrix: (Units=1/GPa)
#
#
# Indices 1 2 3 4 5 6 
#
# 1 0.020501 -0.002077 -0.005009 0.000000 -0.009581 0.000000
# 2 -0.002077 0.006336 -0.001798 0.000000 -0.004847 0.000000
# 3 -0.005009 -0.001798 0.014174 0.000000 0.009315 0.000000
# 4 0.000000 0.000000 0.000000 -0.036946 0.000000 -0.018844
# 5 -0.009581 -0.004847 0.009315 0.000000 0.047871 0.000000
# 6 0.000000 0.000000 0.000000 -0.018844 0.000000 -0.060922
#
#
# Mechanical properties :
#
#
# Convention : Reuss Voigt Hill
#
# Bulk Modulus (GPa) = 43.01993 54.98765 49.00379
# Shear Modulus (GPa) = 302.52011 13.00335 157.76173
#
# Velocity S-wave (km/s) = 11.13663 2.30890 8.04225
# Velocity P-wave (km/s) = 13.52786 5.44531 10.31151
#
# Compressibility (1/GPa) = 0.02324504
#
# Stress axis : x y z
#
# Youngs Moduli (GPa) = 48.77723 157.84053 70.55341
#
# Poissons Ratio (x) = 0.32776 0.35337
# Poissons Ratio (y) = 0.10129 0.12684
# Poissons Ratio (z) = 0.24430 0.28375
#
# Static dielectric constant tensor:
#      x y z
#    x 1.973020 0.000000 0.013370 
#    y 0.000000 1.939450 0.000000 
#    z 0.013370 0.000000 2.002430 
# 
# From -- ./inp_files/325169.got.cif
#   From: 2010.05.17/outbox.cif.g08.bks.cpg/sg12_163_cif.got.tgz:325169.got - 2010.06.03 13:09:07.
