data_PCOD9199883
_publ_section_title
;
Structure prediction by ZEFSAII (Michael W. Deem and Ramdas Pophale) SiO2 
 PCOD9199883
Probable space group: C 2/M
;
_chemical_formula_sum "Si O2"
_cell_formula_units_Z 64
_cell_length_a 20.327423
_cell_length_b 7.703034
_cell_length_c 32.476940
_cell_angle_alpha 90.000000
_cell_angle_beta 144.565380
_cell_angle_gamma 90.000000
_cell_volume 2948.340740
_symmetry_space_group_name_H-M "C 2/M"
_symmetry_group_IT_number 12
_symmetry_cell_setting 'monoclinic'
loop_
_space_group_symop_operation_xyz
x,y,z
-x,y,-z
-x,-y,-z
x,-y,z
1/2+x,1/2+y,z
1/2-x,1/2+y,-z
1/2-x,1/2-y,-z
1/2+x,1/2-y,z
loop_
_atom_site_type_symbol
_atom_site_label
_atom_site_fract_x
_atom_site_fract_y
_atom_site_fract_z
Si Si1 0.154142 0.793255 0.484881
Si Si2 0.972571 0.202758 0.118753
Si Si3 0.545804 0.297188 0.980251
Si Si4 0.416801 0.286913 0.325850
Si Si5 0.806824 0.211709 0.102738
Si Si6 0.532448 0.711415 0.739941
Si Si7 0.707977 0.200538 0.272427
Si Si8 0.278913 0.703957 0.630515
O O1 0.250000 0.750000 0.500000
O O2 0.192910 0.728440 0.549197
O O3 0.032118 0.728785 0.407155
O O4 0.147331 0.000000 0.483817
O O5 0.085998 0.213059 0.203850
O O6 0.993952 0.278711 0.084154
O O7 0.867587 0.274463 0.091739
O O8 0.945920 0.000000 0.098803
O O9 0.510801 0.500000 0.962943
O O10 0.500000 0.220701 0.000000
O O11 0.681547 0.281039 0.046680
O O12 0.416697 0.500000 0.326810
O O13 0.421588 0.232580 0.280858
O O14 0.304674 0.226561 0.291984
O O15 0.888642 0.263828 0.182064
O O16 0.801581 0.000000 0.099261
O O17 0.530362 0.500000 0.738423
O O18 0.402926 0.770125 0.679783
O O19 0.750035 0.212138 0.340739
O O20 0.689850 0.000000 0.252545
O O21 0.289738 0.500000 0.644279
#
# Coordination Sequence:
#
# PCOD9199883 Si02
#       8
#     8   8   8   8   8   8   8   8
#     4  11  21  37  61  88 118 156 203 248 298 355
#     4  10  21  40  61  82 116 158 193 235 296 352
#     4  10  23  40  57  84 124 158 186 233 298 350
#     4   9  20  37  57  83 118 156 190 239 301 353
#     4  10  20  36  62  87 110 151 201 239 280 345
#     4   9  17  34  59  84 111 150 194 236 290 348
#     4  11  23  38  60  89 117 150 198 246 291 350
#     4  11  21  39  63  85 120 159 194 243 300 352
#
# _framework density 21.707125000000001
#
# number of rings (size 3 to 8) (size 9 to 14) (size 15 to 20)
#    0.000    1.875    2.500    1.500    1.750    1.750 
#    0.000    5.000    0.000    0.000    0.000    0.000 
#    0.000    0.000    0.000    0.000    0.000    0.000 
#
# Total GULP energy -178787.421379 kJ/mol
# GULP energy per Si atom -5587.106918 kJ/mol
# Density = 2.165772 g / cm^3
# Si number density = 21.707125 Si / 1000 Ang^3
#
#
#
# Elastic Constant Matrix: (Units=GPa)
#
#
# Indices 1 2 3 4 5 6 
#
# 1 147.9993 2.8098 25.5380 0.0001 -17.3145 0.0001
# 2 2.8098 36.2811 -4.2155 0.0006 -1.1353 -0.0008
# 3 25.5380 -4.2155 75.3036 0.0000 -21.4196 -0.0001
# 4 0.0001 0.0006 0.0000 18.4301 0.0000 3.7553
# 5 -17.3145 -1.1353 -21.4196 0.0000 40.4250 0.0000
# 6 0.0001 -0.0008 -0.0001 3.7553 0.0000 13.5511
#
#
#
# Elastic Compliance Matrix: (Units=1/GPa)
#
#
# Indices 1 2 3 4 5 6 
#
# 1 0.007351 -0.000728 -0.001936 0.000000 0.002102 0.000000
# 2 -0.000728 0.027938 0.002291 -0.000001 0.001686 0.000002
# 3 -0.001936 0.002291 0.016304 0.000000 0.007874 0.000000
# 4 0.000000 -0.000001 0.000000 0.057506 0.000000 -0.015936
# 5 0.002102 0.001686 0.007874 0.000000 0.029857 0.000000
# 6 0.000000 0.000002 0.000000 -0.015936 0.000000 0.078211
#
#
# Mechanical properties :
#
#
# Convention : Reuss Voigt Hill
#
# Bulk Modulus (GPa) = 19.66732 34.20540 26.93636
# Shear Modulus (GPa) = 21.28907 30.17800 25.73353
#
# Velocity S-wave (km/s) = 3.13508 3.73263 3.44683
# Velocity P-wave (km/s) = 4.71009 5.86247 5.31759
#
# Compressibility (1/GPa) = 0.05084577
#
# Stress axis : x y z
#
# Youngs Moduli (GPa) = 136.04398 35.79368 61.33465
#
# Poissons Ratio (x) = 0.02607 0.11872
# Poissons Ratio (y) = 0.09909 -0.14050
# Poissons Ratio (z) = 0.26333 -0.08199
#
# Static dielectric constant tensor:
#      x y z
#    x 1.776910 0.000000 -0.015050 
#    y 0.000000 1.874640 0.000000 
#    z -0.015050 0.000000 1.756910 
# 
# From -- ./inp_files/378387.got.cif
#   From: 2010.05.17/outbox.cif.g08.bks.cpg/sg12_190_cif.got.tgz:378387.got - 2010.06.03 13:09:07.
