data_PCOD9199748
_publ_section_title
;
Structure prediction by ZEFSAII (Michael W. Deem and Ramdas Pophale) SiO2 
 PCOD9199748
Probable space group: C 2/M
;
_chemical_formula_sum "Si O2"
_cell_formula_units_Z 56
_cell_length_a 8.446062
_cell_length_b 21.636947
_cell_length_c 18.904195
_cell_angle_alpha 90.000000
_cell_angle_beta 52.153397
_cell_angle_gamma 90.000000
_cell_volume 2728.013401
_symmetry_space_group_name_H-M "C 2/M"
_symmetry_group_IT_number 12
_symmetry_cell_setting 'monoclinic'
loop_
_space_group_symop_operation_xyz
x,y,z
-x,y,-z
-x,-y,-z
x,-y,z
1/2+x,1/2+y,z
1/2-x,1/2+y,-z
1/2-x,1/2-y,-z
1/2+x,1/2-y,z
loop_
_atom_site_type_symbol
_atom_site_label
_atom_site_fract_x
_atom_site_fract_y
_atom_site_fract_z
Si Si1 0.064811 0.336924 0.229745
Si Si2 0.417411 0.428807 0.101895
Si Si3 0.628664 0.433295 0.536821
Si Si4 0.254014 0.756379 0.695628
Si Si5 0.263332 0.070679 0.267405
Si Si6 0.297209 0.075034 0.095509
Si Si7 0.339534 0.305317 0.430585
O O1 0.244281 0.377431 0.148730
O O2 0.151799 0.302564 0.273924
O O3 0.943480 0.280889 0.224845
O O4 0.894460 0.389043 0.284993
O O5 0.353572 0.500000 0.137986
O O6 0.596621 0.409997 0.106380
O O7 0.500000 0.431991 0.000000
O O8 0.500000 0.430842 0.500000
O O9 0.734094 0.500000 0.509163
O O10 0.466009 0.431353 0.645003
O O11 0.741698 0.369413 0.516359
O O12 0.421125 0.704943 0.629967
O O13 0.209790 0.794748 0.637404
O O14 0.286427 0.094984 0.180584
O O15 0.337068 0.000000 0.248078
O O16 0.304954 0.000000 0.094634
O O17 0.500000 0.096231 0.000000
O O18 0.250000 0.250000 0.500000
#
# Coordination Sequence:
#
# PCOD9199748 Si02
#       7
#     8   8   8   8   8   8   8
#     4  11  22  39  59  86 128 160 208 267 311 371
#     4  10  21  38  64  97 128 163 208 260 323 389
#     4  10  21  36  58  90 126 162 207 259 316 382
#     4  10  24  38  58  90 118 162 216 259 312 377
#     4  10  20  36  61  89 125 169 205 255 330 383
#     4   9  18  33  58  93 127 159 202 252 309 387
#     4  11  21  40  65  88 118 162 215 267 313 382
#
# _framework density 20.527756
#
# number of rings (size 3 to 8) (size 9 to 14) (size 15 to 20)
#    0.000    1.857    1.429    2.571    4.000    2.286 
#    0.000    1.429    0.000    2.571    0.000    0.000 
#    0.000    0.000    0.000    0.000    0.000    0.000 
#
# Total GULP energy -156115.313635 kJ/mol
# GULP energy per Si atom -5575.546916 kJ/mol
# Density = 2.048103 g / cm^3
# Si number density = 20.527756 Si / 1000 Ang^3
#
#
#
# Elastic Constant Matrix: (Units=GPa)
#
#
# Indices 1 2 3 4 5 6 
#
# 1 85.0115 46.1945 18.5759 0.0000 -2.3162 0.0000
# 2 46.1945 139.5245 17.7952 0.0000 8.8543 0.0000
# 3 18.5759 17.7952 66.4812 0.0000 0.5434 0.0000
# 4 0.0000 0.0000 0.0000 16.8702 0.0000 2.5048
# 5 -2.3162 8.8543 0.5434 0.0000 22.6371 0.0000
# 6 0.0000 0.0000 0.0000 2.5048 0.0000 28.0932
#
#
#
# Elastic Compliance Matrix: (Units=1/GPa)
#
#
# Indices 1 2 3 4 5 6 
#
# 1 0.015147 -0.004861 -0.002960 0.000000 0.003522 0.000000
# 2 -0.004861 0.009170 -0.001063 0.000000 -0.004059 0.000000
# 3 -0.002960 -0.001063 0.016156 0.000000 -0.000275 0.000000
# 4 0.000000 0.000000 0.000000 0.060071 0.000000 -0.005356
# 5 0.003522 -0.004059 -0.000275 0.000000 0.046130 0.000000
# 6 0.000000 0.000000 0.000000 -0.005356 0.000000 0.036073
#
#
# Mechanical properties :
#
#
# Convention : Reuss Voigt Hill
#
# Bulk Modulus (GPa) = 44.04407 50.68316 47.36362
# Shear Modulus (GPa) = 24.02882 27.41689 25.72285
#
# Velocity S-wave (km/s) = 3.42505 3.65855 3.54372
# Velocity P-wave (km/s) = 6.09456 6.52613 6.31403
#
# Compressibility (1/GPa) = 0.02270453
#
# Stress axis : x y z
#
# Youngs Moduli (GPa) = 66.01822 109.05394 61.89756
#
# Poissons Ratio (x) = 0.53012 0.18322
# Poissons Ratio (y) = 0.32092 0.06580
# Poissons Ratio (z) = 0.19542 0.11593
#
# Static dielectric constant tensor:
#      x y z
#    x 1.753620 0.000000 -0.045150 
#    y 0.000000 1.801120 0.000000 
#    z -0.045150 0.000000 1.773970 
# 
# From -- ./inp_files/301634.got.cif
#   From: 2010.05.17/outbox.cif.g08.bks.cpg/sg12_151_cif.got.tgz:301634.got - 2010.06.03 13:09:07.
