data_PCOD9199260
_publ_section_title
;
Structure prediction by ZEFSAII (Michael W. Deem and Ramdas Pophale) SiO2 
 PCOD9199260
Probable space group: C 2/M
;
_chemical_formula_sum "Si O2"
_cell_formula_units_Z 48
_cell_length_a 22.405381
_cell_length_b 8.537999
_cell_length_c 12.556694
_cell_angle_alpha 90.000000
_cell_angle_beta 108.021174
_cell_angle_gamma 90.000000
_cell_volume 2284.219782
_symmetry_space_group_name_H-M "C 2/M"
_symmetry_group_IT_number 12
_symmetry_cell_setting 'monoclinic'
loop_
_space_group_symop_operation_xyz
x,y,z
-x,y,-z
-x,-y,-z
x,-y,z
1/2+x,1/2+y,z
1/2-x,1/2+y,-z
1/2-x,1/2-y,-z
1/2+x,1/2-y,z
loop_
_atom_site_type_symbol
_atom_site_label
_atom_site_fract_x
_atom_site_fract_y
_atom_site_fract_z
Si Si1 0.333397 0.185792 0.758126
Si Si2 0.734915 0.812402 0.874682
Si Si3 0.492479 0.185097 0.661529
Si Si4 0.127430 0.311777 0.664372
Si Si5 0.528023 0.314287 0.130578
Si Si6 0.145839 0.816315 0.452249
O O1 0.282162 0.243460 0.813203
O O2 0.398801 0.269752 0.824092
O O3 0.320763 0.230537 0.627880
O O4 0.341473 0.000000 0.769457
O O5 0.665883 0.770749 0.791796
O O6 0.740384 0.000000 0.878354
O O7 0.750000 0.750000 0.000000
O O8 0.554694 0.236365 0.633735
O O9 0.504168 0.216872 0.792821
O O10 0.428445 0.275426 0.601045
O O11 0.481877 0.000000 0.636601
O O12 0.127807 0.500000 0.653951
O O13 0.160468 0.241037 0.578934
O O14 0.520682 0.500000 0.146859
O O15 0.500000 0.278296 0.000000
O O16 0.156111 0.000000 0.447479
#
# Coordination Sequence:
#
# PCOD9199260 Si02
#       6
#     8   8   8   8   8   8
#     4  11  23  41  64  88 120 162 204 252 305 361
#     4  11  25  45  65  90 123 162 207 255 304 361
#     4  10  20  36  59  89 124 161 200 246 300 366
#     4  10  23  41  62  89 123 164 205 246 301 366
#     4  10  21  36  57  88 121 158 200 252 307 358
#     4  11  22  38  63  94 125 158 200 253 309 361
#
# _framework density 21.013741
#
# number of rings (size 3 to 8) (size 9 to 14) (size 15 to 20)
#    0.000    1.500    0.000    7.000    2.333    6.667 
#    0.000    0.000    0.000    0.000    0.000    0.000 
#    0.000    0.000    0.000    0.000    0.000    0.000 
#
# Total GULP energy -134212.888013 kJ/mol
# GULP energy per Si atom -5592.203667 kJ/mol
# Density = 2.096591 g / cm^3
# Si number density = 21.013741 Si / 1000 Ang^3
#
#
#
# Elastic Constant Matrix: (Units=GPa)
#
#
# Indices 1 2 3 4 5 6 
#
# 1 73.8039 -1.8923 17.0939 0.0000 -20.4801 0.0000
# 2 -1.8923 23.6761 13.2157 0.0000 0.9336 0.0000
# 3 17.0939 13.2157 120.5535 0.0000 -11.5221 0.0000
# 4 0.0000 0.0000 0.0000 35.4594 0.0000 -6.5425
# 5 -20.4801 0.9336 -11.5221 0.0000 27.0732 0.0000
# 6 0.0000 0.0000 0.0000 -6.5425 0.0000 25.5541
#
#
#
# Elastic Compliance Matrix: (Units=1/GPa)
#
#
# Indices 1 2 3 4 5 6 
#
# 1 0.017394 0.001714 -0.001462 0.000000 0.012477 0.000000
# 2 0.001714 0.045538 -0.005484 0.000000 -0.002608 0.000000
# 3 -0.001462 -0.005484 0.009398 0.000000 0.003083 0.000000
# 4 0.000000 0.000000 0.000000 0.029600 0.000000 0.007578
# 5 0.012477 -0.002608 0.003083 0.000000 0.047778 0.000000
# 6 0.000000 0.000000 0.000000 0.007578 0.000000 0.041073
#
#
# Mechanical properties :
#
#
# Convention : Reuss Voigt Hill
#
# Bulk Modulus (GPa) = 16.16392 30.54093 23.35243
# Shear Modulus (GPa) = 22.53609 30.25840 26.39725
#
# Velocity S-wave (km/s) = 3.27837 3.79876 3.54812
# Velocity P-wave (km/s) = 4.69458 5.81431 5.28419
#
# Compressibility (1/GPa) = 0.06186616
#
# Stress axis : x y z
#
# Youngs Moduli (GPa) = 57.49030 21.95979 106.40280
#
# Poissons Ratio (x) = -0.03764 0.15554
# Poissons Ratio (y) = -0.09855 0.58355
# Poissons Ratio (z) = 0.08404 0.12044
#
# Static dielectric constant tensor:
#      x y z
#    x 1.751130 0.000000 0.018060 
#    y 0.000000 1.700800 0.000000 
#    z 0.018060 0.000000 1.777580 
# 
# From -- ./inp_files/173043.got.cif
#   From: 2010.05.17/outbox.cif.g08.bks.cpg/sg12_87_cif.got.tgz:173043.got - 2010.06.03 13:09:07.
