data_PCOD9199219
_publ_section_title
;
Structure prediction by ZEFSAII (Michael W. Deem and Ramdas Pophale) SiO2 
 PCOD9199219
Probable space group: C 2/M
;
_chemical_formula_sum "Si O2"
_cell_formula_units_Z 56
_cell_length_a 23.304847
_cell_length_b 8.972242
_cell_length_c 14.921042
_cell_angle_alpha 90.000000
_cell_angle_beta 68.811872
_cell_angle_gamma 90.000000
_cell_volume 2909.029013
_symmetry_space_group_name_H-M "C 2/M"
_symmetry_group_IT_number 12
_symmetry_cell_setting 'monoclinic'
loop_
_space_group_symop_operation_xyz
x,y,z
-x,y,-z
-x,-y,-z
x,-y,z
1/2+x,1/2+y,z
1/2-x,1/2+y,-z
1/2-x,1/2-y,-z
1/2+x,1/2-y,z
loop_
_atom_site_type_symbol
_atom_site_label
_atom_site_fract_x
_atom_site_fract_y
_atom_site_fract_z
Si Si1 0.218939 0.676301 0.604374
Si Si2 0.086013 0.821906 0.697252
Si Si3 0.313730 0.320698 0.860395
Si Si4 0.338477 0.323711 0.648288
Si Si5 0.939270 0.820691 0.088204
Si Si6 0.330429 0.822051 0.038220
Si Si7 0.558002 0.822884 0.529715
O O1 0.209206 0.500000 0.594861
O O2 0.250000 0.750000 0.500000
O O3 0.154817 0.755735 0.659497
O O4 0.267930 0.693484 0.656735
O O5 0.055626 0.784198 0.809588
O O6 0.053585 0.754106 0.628604
O O7 0.088873 0.000000 0.686685
O O8 0.318984 0.500000 0.867092
O O9 0.343878 0.277635 0.748784
O O10 0.240664 0.284740 0.898222
O O11 0.340887 0.242124 0.932482
O O12 0.353044 0.500000 0.632808
O O13 0.381881 0.235533 0.556203
O O14 0.878920 0.747813 0.079152
O O15 0.933401 0.000000 0.083922
O O16 0.000000 0.774005 0.000000
O O17 0.336041 0.000000 0.035410
O O18 0.500000 0.787188 0.500000
O O19 0.561898 0.000000 0.539314
#
# Coordination Sequence:
#
# PCOD9199219 Si02
#       7
#     8   8   8   8   8   8   8
#     4  11  21  35  59  91 124 155 192 241 295 351
#     4  11  23  40  63  89 117 156 200 245 301 356
#     4   9  19  36  58  85 119 155 189 235 292 350
#     4  10  21  37  59  86 116 154 197 236 286 353
#     4  10  23  42  62  85 116 156 203 249 294 351
#     4  10  20  36  59  88 118 151 192 242 297 350
#     4  11  25  42  59  82 116 155 195 243 295 350
#
# _framework density 19.250409000000001
#
# number of rings (size 3 to 8) (size 9 to 14) (size 15 to 20)
#    0.000    1.714    1.429    2.571    0.000    6.571 
#    0.000    4.286    0.000    0.000    0.000    0.000 
#    0.000    0.000    0.000    0.000    0.000    0.000 
#
# Total GULP energy -156482.805627 kJ/mol
# GULP energy per Si atom -5588.671630 kJ/mol
# Density = 1.920659 g / cm^3
# Si number density = 19.250409 Si / 1000 Ang^3
#
#
#
# Elastic Constant Matrix: (Units=GPa)
#
#
# Indices 1 2 3 4 5 6 
#
# 1 80.7549 45.7286 49.4091 0.0000 17.6618 0.0000
# 2 45.7286 50.1318 55.9723 0.0000 13.2938 0.0000
# 3 49.4091 55.9723 155.9993 0.0000 20.6924 0.0000
# 4 0.0000 0.0000 0.0000 20.0478 0.0000 10.7449
# 5 17.6618 13.2938 20.6924 0.0000 28.6929 0.0000
# 6 0.0000 0.0000 0.0000 10.7449 0.0000 30.1732
#
#
#
# Elastic Compliance Matrix: (Units=1/GPa)
#
#
# Indices 1 2 3 4 5 6 
#
# 1 0.026503 -0.023519 0.000844 0.000000 -0.006025 0.000000
# 2 -0.023519 0.055689 -0.012197 0.000000 -0.002528 0.000000
# 3 0.000844 -0.012197 0.010879 0.000000 -0.002714 0.000000
# 4 0.000000 0.000000 0.000000 0.061647 0.000000 -0.021953
# 5 -0.006025 -0.002528 -0.002714 0.000000 0.041690 0.000000
# 6 0.000000 0.000000 0.000000 -0.021953 0.000000 0.040960
#
#
# Mechanical properties :
#
#
# Convention : Reuss Voigt Hill
#
# Bulk Modulus (GPa) = 42.86917 65.45623 54.16270
# Shear Modulus (GPa) = 15.87872 24.83452 20.35662
#
# Velocity S-wave (km/s) = 2.87514 3.59566 3.25540
# Velocity P-wave (km/s) = 5.77403 7.16343 6.50593
#
# Compressibility (1/GPa) = 0.02332679
#
# Stress axis : x y z
#
# Youngs Moduli (GPa) = 37.73170 17.95684 91.91869
#
# Poissons Ratio (x) = 0.42233 -0.07756
# Poissons Ratio (y) = 0.88743 1.12109
# Poissons Ratio (z) = -0.03184 0.21901
#
# Static dielectric constant tensor:
#      x y z
#    x 1.657030 0.000000 0.008070 
#    y 0.000000 1.640670 0.000000 
#    z 0.008070 0.000000 1.667810 
# 
# From -- ./inp_files/237415.got.cif
#   From: 2010.05.17/outbox.cif.g08.bks.cpg/sg12_119_cif.got.tgz:237415.got - 2010.06.03 13:09:07.
