data_PCOD9199784
_publ_section_title
;
Structure prediction by ZEFSAII (Michael W. Deem and Ramdas Pophale) SiO2 
 PCOD9199784
Probable space group: C 2/M
;
_chemical_formula_sum "Si O2"
_cell_formula_units_Z 40
_cell_length_a 11.482793
_cell_length_b 18.884412
_cell_length_c 17.000184
_cell_angle_alpha 90.000000
_cell_angle_beta 150.855362
_cell_angle_gamma 90.000000
_cell_volume 1795.344636
_symmetry_space_group_name_H-M "C 2/M"
_symmetry_group_IT_number 12
_symmetry_cell_setting 'monoclinic'
loop_
_space_group_symop_operation_xyz
x,y,z
-x,y,-z
-x,-y,-z
x,-y,z
1/2+x,1/2+y,z
1/2-x,1/2+y,-z
1/2-x,1/2-y,-z
1/2+x,1/2-y,z
loop_
_atom_site_type_symbol
_atom_site_label
_atom_site_fract_x
_atom_site_fract_y
_atom_site_fract_z
Si Si1 0.214127 0.822648 0.525851
Si Si2 0.278428 0.661387 0.173189
Si Si3 0.367042 0.795770 0.139263
Si Si4 0.542128 0.917595 0.612583
Si Si5 0.587912 0.417750 0.906349
O O1 0.250000 0.750000 0.500000
O O2 0.345401 0.803762 0.685512
O O3 0.392397 0.877734 0.589325
O O4 0.946887 0.849960 0.348784
O O5 0.285643 0.746487 0.163583
O O6 0.407185 0.620508 0.176449
O O7 0.000000 0.639941 0.000000
O O8 0.250000 0.750000 0.000000
O O9 0.262219 0.873087 0.064361
O O10 0.500000 0.887475 0.500000
O O11 0.825900 0.913806 0.789358
O O12 0.468131 0.000000 0.567502
O O13 0.653328 0.500000 0.936001
#
# Coordination Sequence:
#
# PCOD9199784 Si02
#       5
#     8   8   8   8   8
#     4  10  21  37  60  88 117 159 203 247 304 359
#     4  10  21  38  60  87 117 154 204 252 298 363
#     4   9  21  39  56  83 121 158 201 250 299 363
#     4  10  20  36  61  91 123 155 199 256 310 366
#     4  10  21  38  59  86 121 160 196 247 313 362
#
# _framework density 22.279845000000002
#
# number of rings (size 3 to 8) (size 9 to 14) (size 15 to 20)
#    0.000    2.200    2.000    0.000    5.600    1.200 
#    0.000    6.000    0.000    1.200    0.000    0.000 
#    0.000    0.000    0.000    0.000    0.000    0.000 
#
# Total GULP energy -111417.511628 kJ/mol
# GULP energy per Si atom -5570.875581 kJ/mol
# Density = 2.222913 g / cm^3
# Si number density = 22.279845 Si / 1000 Ang^3
#
#
#
# Elastic Constant Matrix: (Units=GPa)
#
#
# Indices 1 2 3 4 5 6 
#
# 1 62.6267 19.2033 23.2815 -0.0003 11.6781 0.0011
# 2 19.2033 107.8758 28.8126 -0.0047 2.3582 0.0025
# 3 23.2815 28.8126 198.8174 -0.0142 -8.8965 0.0041
# 4 -0.0003 -0.0047 -0.0142 28.2509 -0.0004 0.4465
# 5 11.6781 2.3582 -8.8965 -0.0004 24.3503 0.0024
# 6 0.0011 0.0025 0.0041 0.4465 0.0024 19.1591
#
#
#
# Elastic Compliance Matrix: (Units=1/GPa)
#
#
# Indices 1 2 3 4 5 6 
#
# 1 0.019503 -0.002627 -0.002349 -0.000002 -0.009957 0.000001
# 2 -0.002627 0.010049 -0.001155 0.000001 -0.000135 -0.000001
# 3 -0.002349 -0.001155 0.005619 0.000003 0.003291 -0.000001
# 4 -0.000002 0.000001 0.000003 0.035410 0.000002 -0.000825
# 5 -0.009957 -0.000135 0.003291 0.000002 0.047058 -0.000006
# 6 0.000001 -0.000001 -0.000001 -0.000825 -0.000006 0.052214
#
#
# Mechanical properties :
#
#
# Convention : Reuss Voigt Hill
#
# Bulk Modulus (GPa) = 43.64755 56.87943 50.26349
# Shear Modulus (GPa) = 26.35039 34.22023 30.28531
#
# Velocity S-wave (km/s) = 3.44277 3.92334 3.69089
# Velocity P-wave (km/s) = 5.95287 6.79032 6.38534
#
# Compressibility (1/GPa) = 0.02291079
#
# Stress axis : x y z
#
# Youngs Moduli (GPa) = 51.27436 99.51336 177.95531
#
# Poissons Ratio (x) = 0.26140 0.41796
# Poissons Ratio (y) = 0.13469 0.20549
# Poissons Ratio (z) = 0.12043 0.11491
#
# Static dielectric constant tensor:
#      x y z
#    x 1.891820 0.000000 -0.057220 
#    y 0.000000 1.824010 -0.000010 
#    z -0.057220 -0.000010 1.949250 
# 
# From -- ./inp_files/147304.got.cif
#   From: 2010.05.17/outbox.cif.g08.bks.cpg/sg12_74_cif.got.tgz:147304.got - 2010.06.03 13:09:07.
