data_PCOD9199269
_publ_section_title
;
Structure prediction by ZEFSAII (Michael W. Deem and Ramdas Pophale) SiO2 
 PCOD9199269
Probable space group: C 2/M
;
_chemical_formula_sum "Si O2"
_cell_formula_units_Z 40
_cell_length_a 15.936665
_cell_length_b 9.008575
_cell_length_c 12.707741
_cell_angle_alpha 90.000000
_cell_angle_beta 85.562113
_cell_angle_gamma 90.000000
_cell_volume 1818.937769
_symmetry_space_group_name_H-M "C 2/M"
_symmetry_group_IT_number 12
_symmetry_cell_setting 'monoclinic'
loop_
_space_group_symop_operation_xyz
x,y,z
-x,y,-z
-x,-y,-z
x,-y,z
1/2+x,1/2+y,z
1/2-x,1/2+y,-z
1/2-x,1/2-y,-z
1/2+x,1/2-y,z
loop_
_atom_site_type_symbol
_atom_site_label
_atom_site_fract_x
_atom_site_fract_y
_atom_site_fract_z
Si Si1 0.333558 0.330671 0.462008
Si Si2 0.144674 0.820097 0.778323
Si Si3 0.293427 0.680046 0.892990
Si Si4 0.431501 0.156111 0.597749
Si Si5 0.473552 0.172242 0.837355
O O1 0.318242 0.500000 0.448495
O O2 0.250000 0.250000 0.500000
O O3 0.366606 0.280233 0.344575
O O4 0.387561 0.302592 0.561002
O O5 0.232917 0.747437 0.807163
O O6 0.063623 0.751851 0.847370
O O7 0.146672 0.000000 0.791411
O O8 0.291672 0.500000 0.892619
O O9 0.389623 0.739791 0.880578
O O10 0.250000 0.750000 0.000000
O O11 0.500000 0.141311 0.500000
O O12 0.463299 0.167380 0.711867
O O13 0.380359 0.000000 0.597783
O O14 0.473594 0.000000 0.874462
#
# Coordination Sequence:
#
# PCOD9199269 Si02
#       5
#     8   8   8   8   8
#     4  11  23  36  57  88 128 172 217 264 314 376
#     4  11  24  43  66  97 133 173 221 272 326 390
#     4  12  27  48  72  98 129 167 216 276 338 398
#     4  10  20  36  59  89 128 170 210 254 307 370
#     4  11  23  42  69 100 135 176 221 271 327 389
#
# _framework density 21.990856999999998
#
# number of rings (size 3 to 8) (size 9 to 14) (size 15 to 20)
#    0.000    1.000    2.000    4.800    0.000   10.000 
#    0.000    4.000    0.000    0.000    0.000    0.000 
#    0.000    0.000    0.000    0.000    0.000    0.000 
#
# Total GULP energy -111513.166876 kJ/mol
# GULP energy per Si atom -5575.658344 kJ/mol
# Density = 2.194080 g / cm^3
# Si number density = 21.990857 Si / 1000 Ang^3
#
#
#
# Elastic Constant Matrix: (Units=GPa)
#
#
# Indices 1 2 3 4 5 6 
#
# 1 98.7733 65.4070 2.9966 0.0000 -24.4099 0.0000
# 2 65.4070 138.5482 30.5345 0.0000 -19.8115 0.0000
# 3 2.9966 30.5345 62.8696 0.0000 -4.5002 0.0000
# 4 0.0000 0.0000 0.0000 4.5549 0.0000 51.3385
# 5 -24.4099 -19.8115 -4.5002 0.0000 36.1542 0.0000
# 6 0.0000 0.0000 0.0000 51.3385 0.0000 -86.5737
#
#
#
# Elastic Compliance Matrix: (Units=1/GPa)
#
#
# Indices 1 2 3 4 5 6 
#
# 1 0.017023 -0.007701 0.003481 0.000000 0.007706 0.000000
# 2 -0.007701 0.012176 -0.005490 0.000000 0.000789 0.000000
# 3 0.003481 -0.005490 0.018524 0.000000 0.001647 0.000000
# 4 0.000000 0.000000 0.000000 0.028572 0.000000 0.016944
# 5 0.007706 0.000789 0.001647 0.000000 0.033500 0.000000
# 6 0.000000 0.000000 0.000000 0.016944 0.000000 -0.001503
#
#
# Mechanical properties :
#
#
# Convention : Reuss Voigt Hill
#
# Bulk Modulus (GPa) = 35.33363 55.34081 45.33722
# Shear Modulus (GPa) = 36.45685 4.24395 20.35040
#
# Velocity S-wave (km/s) = 4.07605 1.39070 3.04534
# Velocity P-wave (km/s) = 6.18502 5.27245 5.74688
#
# Compressibility (1/GPa) = 0.02830165
#
# Stress axis : x y z
#
# Youngs Moduli (GPa) = 58.74434 82.12668 53.98275
#
# Poissons Ratio (x) = 0.63250 -0.18790
# Poissons Ratio (y) = 0.45242 0.29638
# Poissons Ratio (z) = -0.20447 0.45089
#
# Static dielectric constant tensor:
#      x y z
#    x 1.764890 0.000000 -0.060060 
#    y 0.000000 1.776630 0.000000 
#    z -0.060060 0.000000 1.752820 
# 
# From -- ./inp_files/151739.got.cif
#   From: 2010.05.17/outbox.cif.g08.bks.cpg/sg12_76_cif.got.tgz:151739.got - 2010.06.03 13:09:07.
