data_PCOD9199251
_publ_section_title
;
Structure prediction by ZEFSAII (Michael W. Deem and Ramdas Pophale) SiO2 
 PCOD9199251
Probable space group: C 2/M
;
_chemical_formula_sum "Si O2"
_cell_formula_units_Z 40
_cell_length_a 24.686742
_cell_length_b 11.098320
_cell_length_c 7.664082
_cell_angle_alpha 90.000000
_cell_angle_beta 84.513946
_cell_angle_gamma 90.000000
_cell_volume 2090.197419
_symmetry_space_group_name_H-M "C 2/M"
_symmetry_group_IT_number 12
_symmetry_cell_setting 'monoclinic'
loop_
_space_group_symop_operation_xyz
x,y,z
-x,y,-z
-x,-y,-z
x,-y,z
1/2+x,1/2+y,z
1/2-x,1/2+y,-z
1/2-x,1/2-y,-z
1/2+x,1/2-y,z
loop_
_atom_site_type_symbol
_atom_site_label
_atom_site_fract_x
_atom_site_fract_y
_atom_site_fract_z
Si Si1 0.715720 0.636188 0.207054
Si Si2 0.661091 0.361036 0.563202
Si Si3 0.334526 0.209587 0.087152
Si Si4 0.053460 0.635013 0.104757
Si Si5 0.446955 0.364070 0.637029
O O1 0.694834 0.500000 0.211226
O O2 0.704304 0.683623 0.405160
O O3 0.779287 0.636307 0.141332
O O4 0.682538 0.710567 0.074702
O O5 0.673880 0.500000 0.603341
O O6 0.657663 0.288006 0.741636
O O7 0.604609 0.356036 0.475248
O O8 0.390518 0.143953 0.022749
O O9 0.052298 0.500000 0.187964
O O10 0.053433 0.750597 0.232522
O O11 0.000000 0.643913 0.000000
O O12 0.500000 0.357002 0.500000
O O13 0.446243 0.500000 0.719155
#
# Coordination Sequence:
#
# PCOD9199251 Si02
#       5
#     8   8   8   8   8
#     4  10  21  37  58  87 122 157 205 261 301 356
#     4  10  20  36  59  89 121 155 202 256 308 360
#     4  11  21  37  62  85 121 164 205 244 310 364
#     4  11  24  41  61  89 127 164 204 251 305 369
#     4  10  21  39  62  90 123 159 207 258 302 361
#
# _framework density 19.136948
#
# number of rings (size 3 to 8) (size 9 to 14) (size 15 to 20)
#    0.000    1.600    2.000    3.000    0.000    1.600 
#    0.000    2.000    0.000    0.000    0.000    0.000 
#    0.000    0.000    0.000    0.000    0.000    0.000 
#
# Total GULP energy -111546.778490 kJ/mol
# GULP energy per Si atom -5577.338925 kJ/mol
# Density = 1.909339 g / cm^3
# Si number density = 19.136948 Si / 1000 Ang^3
#
#
#
# Elastic Constant Matrix: (Units=GPa)
#
#
# Indices 1 2 3 4 5 6 
#
# 1 126.3391 30.9579 28.5455 0.0000 -13.7934 0.0000
# 2 30.9579 134.5666 74.7458 0.0000 8.0253 0.0000
# 3 28.5455 74.7458 88.8819 0.0000 -1.8043 0.0000
# 4 0.0000 0.0000 0.0000 33.6240 0.0000 8.1099
# 5 -13.7934 8.0253 -1.8043 0.0000 30.4063 0.0000
# 6 0.0000 0.0000 0.0000 8.1099 0.0000 22.5567
#
#
#
# Elastic Compliance Matrix: (Units=1/GPa)
#
#
# Indices 1 2 3 4 5 6 
#
# 1 0.009122 -0.001474 -0.001600 0.000000 0.004432 0.000000
# 2 -0.001474 0.014792 -0.012073 0.000000 -0.005289 0.000000
# 3 -0.001600 -0.012073 0.021994 0.000000 0.003766 0.000000
# 4 0.000000 0.000000 0.000000 0.032565 0.000000 -0.011708
# 5 0.004432 -0.005289 0.003766 0.000000 0.036518 0.000000
# 6 0.000000 0.000000 0.000000 -0.011708 0.000000 0.048542
#
#
# Mechanical properties :
#
#
# Convention : Reuss Voigt Hill
#
# Bulk Modulus (GPa) = 64.04794 68.69843 66.37318
# Shear Modulus (GPa) = 25.12149 31.68661 28.40405
#
# Velocity S-wave (km/s) = 3.62708 4.07354 3.85678
# Velocity P-wave (km/s) = 7.14715 7.62242 7.38861
#
# Compressibility (1/GPa) = 0.01561331
#
# Stress axis : x y z
#
# Youngs Moduli (GPa) = 109.62730 67.60347 45.46607
#
# Poissons Ratio (x) = 0.09966 0.07274
# Poissons Ratio (y) = 0.16161 0.54893
# Poissons Ratio (z) = 0.17539 0.81621
#
# Static dielectric constant tensor:
#      x y z
#    x 1.671210 0.000000 -0.036380 
#    y 0.000000 1.673190 0.000000 
#    z -0.036380 0.000000 1.647470 
# 
# From -- ./inp_files/27390.got.cif
#   From: 2010.05.17/outbox.cif.g08.bks.cpg/sg12_14_cif.got.tgz:27390.got - 2010.06.03 13:09:07.
