data_PCOD9199879
_publ_section_title
;
Structure prediction by ZEFSAII (Michael W. Deem and Ramdas Pophale) SiO2 
 PCOD9199879
Probable space group: C 2/M
;
_chemical_formula_sum "Si O2"
_cell_formula_units_Z 52
_cell_length_a 9.312718
_cell_length_b 16.799066
_cell_length_c 18.855843
_cell_angle_alpha 90.000000
_cell_angle_beta 97.397331
_cell_angle_gamma 90.000000
_cell_volume 2925.350129
_symmetry_space_group_name_H-M "C 2/M"
_symmetry_group_IT_number 12
_symmetry_cell_setting 'monoclinic'
loop_
_space_group_symop_operation_xyz
x,y,z
-x,y,-z
-x,-y,-z
x,-y,z
1/2+x,1/2+y,z
1/2-x,1/2+y,-z
1/2-x,1/2-y,-z
1/2+x,1/2-y,z
loop_
_atom_site_type_symbol
_atom_site_label
_atom_site_fract_x
_atom_site_fract_y
_atom_site_fract_z
Si Si1 0.878721 0.680559 0.716966
Si Si2 0.725348 0.696994 0.402414
Si Si3 0.288074 0.593713 0.169785
Si Si4 0.500000 0.259905 0.500000
Si Si5 0.322426 0.905871 0.282908
Si Si6 0.910764 0.825752 0.822508
Si Si7 0.641449 0.786536 0.050413
O O1 0.801025 0.722843 0.645856
O O2 0.772838 0.630095 0.760527
O O3 0.937018 0.753742 0.768751
O O4 0.015516 0.628221 0.703638
O O5 0.590847 0.690803 0.447554
O O6 0.739954 0.625999 0.347418
O O7 0.875635 0.708099 0.453865
O O8 0.259566 0.500000 0.163685
O O9 0.457947 0.613072 0.174744
O O10 0.211633 0.644046 0.102323
O O11 0.238292 0.866698 0.211177
O O12 0.321646 0.000000 0.277797
O O13 0.900438 0.784133 0.897868
O O14 0.500000 0.815272 0.000000
O O15 0.750000 0.750000 0.000000
#
# Coordination Sequence:
#
# PCOD9199879 Si02
#       7
#     8   8   8   4   8   8   8
#     4  10  20  37  61  85 111 152 197 234 279 338
#     4  10  20  37  62  87 109 156 193 239 270 348
#     4  11  23  38  58  89 118 145 189 246 291 329
#     4  10  20  36  62  86 114 146 208 226 272 336
#     4  11  22  37  58  88 118 146 187 243 293 330
#     4  10  21  38  61  83 112 152 195 235 278 343
#     4  11  22  40  63  83 112 156 197 230 279 349
#
# _framework density 17.775649999999999
#
# number of rings (size 3 to 8) (size 9 to 14) (size 15 to 20)
#    0.000    1.538    3.077    3.692    4.308    0.308 
#    0.000    3.077    0.000    0.000    0.000    0.000 
#    0.000    0.000    0.000    0.000    0.000    0.000 
#
# Total GULP energy -145146.113506 kJ/mol
# GULP energy per Si atom -5582.542827 kJ/mol
# Density = 1.773519 g / cm^3
# Si number density = 17.775650 Si / 1000 Ang^3
#
#
#
# Elastic Constant Matrix: (Units=GPa)
#
#
# Indices 1 2 3 4 5 6 
#
# 1 82.8916 23.1049 30.5130 0.0000 0.9147 0.0000
# 2 23.1049 107.6697 25.1077 0.0000 -6.2009 0.0000
# 3 30.5130 25.1077 87.5131 0.0000 -6.8136 0.0000
# 4 0.0000 0.0000 0.0000 5.9404 0.0000 1.8399
# 5 0.9147 -6.2009 -6.8136 0.0000 34.3565 0.0000
# 6 0.0000 0.0000 0.0000 1.8399 0.0000 19.3354
#
#
#
# Elastic Compliance Matrix: (Units=1/GPa)
#
#
# Indices 1 2 3 4 5 6 
#
# 1 0.014337 -0.002118 -0.004520 0.000000 -0.001660 0.000000
# 2 -0.002118 0.010320 -0.002105 0.000000 0.001501 0.000000
# 3 -0.004520 -0.002105 0.013800 0.000000 0.002477 0.000000
# 4 0.000000 0.000000 0.000000 0.173450 0.000000 -0.016505
# 5 -0.001660 0.001501 0.002477 0.000000 0.029913 0.000000
# 6 0.000000 0.000000 0.000000 -0.016505 0.000000 0.053289
#
#
# Mechanical properties :
#
#
# Convention : Reuss Voigt Hill
#
# Bulk Modulus (GPa) = 47.69017 48.39172 48.04095
# Shear Modulus (GPa) = 15.64529 25.21638 20.43084
#
# Velocity S-wave (km/s) = 2.96996 3.77051 3.39392
# Velocity P-wave (km/s) = 6.21675 6.79988 6.51484
#
# Compressibility (1/GPa) = 0.02096868
#
# Stress axis : x y z
#
# Youngs Moduli (GPa) = 69.75151 96.90304 72.46458
#
# Poissons Ratio (x) = 0.20524 0.32756
# Poissons Ratio (y) = 0.14774 0.15256
# Poissons Ratio (z) = 0.31530 0.20401
#
# Static dielectric constant tensor:
#      x y z
#    x 1.619410 0.000000 -0.001490 
#    y 0.000000 1.557270 0.000000 
#    z -0.001490 0.000000 1.618450 
# 
# From -- ./inp_files/256622.got.cif
#   From: 2010.05.17/outbox.cif.g08.bks.cpg/sg12_129_cif.got.tgz:256622.got - 2010.06.03 13:09:07.
