data_PCOD9199456
_publ_section_title
;
Structure prediction by ZEFSAII (Michael W. Deem and Ramdas Pophale) SiO2 
 PCOD9199456
Probable space group: C 2/M
;
_chemical_formula_sum "Si O2"
_cell_formula_units_Z 56
_cell_length_a 13.329508
_cell_length_b 21.594535
_cell_length_c 23.768352
_cell_angle_alpha 90.000000
_cell_angle_beta 158.620091
_cell_angle_gamma 90.000000
_cell_volume 2494.103588
_symmetry_space_group_name_H-M "C 2/M"
_symmetry_group_IT_number 12
_symmetry_cell_setting 'monoclinic'
loop_
_space_group_symop_operation_xyz
x,y,z
-x,y,-z
-x,-y,-z
x,-y,z
1/2+x,1/2+y,z
1/2-x,1/2+y,-z
1/2-x,1/2-y,-z
1/2+x,1/2-y,z
loop_
_atom_site_type_symbol
_atom_site_label
_atom_site_fract_x
_atom_site_fract_y
_atom_site_fract_z
Si Si1 0.303529 0.072756 0.138985
Si Si2 0.570147 0.116701 0.160837
Si Si3 0.526349 0.757573 0.182314
Si Si4 0.415027 0.124799 0.310062
Si Si5 0.471833 0.382617 0.799849
Si Si6 0.545295 0.619014 0.333531
Si Si7 0.805746 0.255042 0.183395
O O1 0.450234 0.092030 0.157342
O O2 0.478916 0.089089 0.285804
O O3 0.265744 0.000000 0.114136
O O4 0.000000 0.099911 0.000000
O O5 0.678245 0.186304 0.231592
O O6 0.814631 0.086828 0.252413
O O7 0.299192 0.118841 0.980057
O O8 0.633516 0.688908 0.250778
O O9 0.457628 0.782574 0.208331
O O10 0.250000 0.750000 0.000000
O O11 0.174789 0.091128 0.220998
O O12 0.675836 0.124953 0.486562
O O13 0.327291 0.194083 0.243467
O O14 0.411196 0.408569 0.706453
O O15 0.434209 0.688401 0.262593
O O16 0.500000 0.245093 0.000000
#
# Coordination Sequence:
#
# PCOD9199456 Si02
#       7
#     8   8   8   8   8   8   8
#     4  11  24  44  71  96 114 157 221 274 311 360
#     4  11  19  39  62  88 122 161 210 265 307 362
#     4   9  17  28  52  85 118 158 204 240 294 359
#     4  12  22  39  60  90 129 168 208 262 313 368
#     4  10  20  36  60  87 125 175 208 241 298 383
#     4  11  24  35  56  95 133 164 203 250 316 387
#     4  11  19  34  57  86 128 172 215 246 297 375
#
# _framework density 22.452956
#
# number of rings (size 3 to 8) (size 9 to 14) (size 15 to 20)
#    0.000    1.286    2.857    6.857    0.000    0.571 
#    0.000    2.857    0.000    5.143    0.000    0.000 
#    0.000    0.000    0.000    0.000    0.000    0.000 
#
# Total GULP energy -156135.673866 kJ/mol
# GULP energy per Si atom -5576.274067 kJ/mol
# Density = 2.240185 g / cm^3
# Si number density = 22.452956 Si / 1000 Ang^3
#
#
#
# Elastic Constant Matrix: (Units=GPa)
#
#
# Indices 1 2 3 4 5 6 
#
# 1 172.1621 3.2278 31.3017 0.0158 -30.4846 -0.0003
# 2 3.2278 25.7157 -8.8639 0.0371 0.6670 -0.0043
# 3 31.3017 -8.8639 94.7425 0.0828 -11.8049 0.0094
# 4 0.0158 0.0371 0.0828 2.6157 -0.0034 2.6588
# 5 -30.4846 0.6670 -11.8049 -0.0034 33.0082 0.0026
# 6 -0.0003 -0.0043 0.0094 2.6588 0.0026 13.3300
#
#
#
# Elastic Compliance Matrix: (Units=1/GPa)
#
#
# Indices 1 2 3 4 5 6 
#
# 1 0.007243 -0.001685 -0.001793 0.000057 0.006082 -0.000012
# 2 -0.001685 0.040586 0.004248 -0.000892 -0.000857 0.000188
# 3 -0.001793 0.004248 0.011856 -0.000519 0.002499 0.000096
# 4 0.000057 -0.000892 -0.000519 0.479556 -0.000058 -0.095653
# 5 0.006082 -0.000857 0.002499 -0.000058 0.036824 0.000002
# 6 -0.000012 0.000188 0.000096 -0.095653 0.000002 0.094098
#
#
# Mechanical properties :
#
#
# Convention : Reuss Voigt Hill
#
# Bulk Modulus (GPa) = 16.33311 38.21684 27.27498
# Shear Modulus (GPa) = 7.25656 27.58775 17.42216
#
# Velocity S-wave (km/s) = 1.79970 3.50907 2.78859
# Velocity P-wave (km/s) = 3.40716 5.78584 4.74787
#
# Compressibility (1/GPa) = 0.06122531
#
# Stress axis : x y z
#
# Youngs Moduli (GPa) = 138.06465 24.63907 84.34230
#
# Poissons Ratio (x) = 0.04152 0.15121
# Poissons Ratio (y) = 0.23263 -0.35827
# Poissons Ratio (z) = 0.24753 -0.10466
#
# Static dielectric constant tensor:
#      x y z
#    x 1.970420 0.000010 0.011640 
#    y 0.000010 1.869260 0.000000 
#    z 0.011640 0.000000 1.804360 
# 
# From -- ./inp_files/341534.got.cif
#   From: 2010.05.17/outbox.cif.g08.bks.cpg/sg12_171_cif.got.tgz:341534.got - 2010.06.03 13:09:07.
