data_PCOD9199602
_publ_section_title
;
Structure prediction by ZEFSAII (Michael W. Deem and Ramdas Pophale) SiO2 
 PCOD9199602
Probable space group: C 2/M
;
_chemical_formula_sum "Si O2"
_cell_formula_units_Z 48
_cell_length_a 18.873103
_cell_length_b 13.616672
_cell_length_c 9.236456
_cell_angle_alpha 90.000000
_cell_angle_beta 90.121947
_cell_angle_gamma 90.000000
_cell_volume 2373.660858
_symmetry_space_group_name_H-M "C 2/M"
_symmetry_group_IT_number 12
_symmetry_cell_setting 'monoclinic'
loop_
_space_group_symop_operation_xyz
x,y,z
-x,y,-z
-x,-y,-z
x,-y,z
1/2+x,1/2+y,z
1/2-x,1/2+y,-z
1/2-x,1/2-y,-z
1/2+x,1/2-y,z
loop_
_atom_site_type_symbol
_atom_site_label
_atom_site_fract_x
_atom_site_fract_y
_atom_site_fract_z
Si Si1 0.321531 0.218552 0.417910
Si Si2 0.939522 0.317712 0.887843
Si Si3 0.148694 0.000000 0.299300
Si Si4 0.819071 0.280874 0.090488
Si Si5 0.342060 0.000000 0.792920
Si Si6 0.290325 0.000000 0.469098
Si Si7 0.941112 0.186989 0.616481
Si Si8 0.228094 0.500000 0.928044
O O1 0.250000 0.250000 0.500000
O O2 0.321965 0.259241 0.253854
O O3 0.385232 0.253218 0.518599
O O4 0.321634 0.100842 0.409296
O O5 0.891810 0.406088 0.824366
O O6 0.966665 0.254840 0.750829
O O7 0.885962 0.256391 0.990452
O O8 0.000000 0.352160 0.000000
O O9 0.207378 0.000000 0.427994
O O10 0.100532 0.904508 0.315245
O O11 0.197897 0.000000 0.156129
O O12 0.812968 0.399304 0.106505
O O13 0.750000 0.250000 0.000000
O O14 0.310071 0.000000 0.635524
O O15 0.274424 0.000000 0.899058
O O16 0.000000 0.155857 0.500000
#
# Coordination Sequence:
#
# PCOD9199602 Si02
#       8
#     8   8   4   8   4   4   8   4
#     4  12  22  40  66  97 133 172 222 279 333 397
#     4  11  23  43  63  91 133 176 221 271 332 405
#     4  12  23  44  67  95 133 173 223 283 328 398
#     4  11  22  37  62  94 124 167 215 269 329 385
#     4  10  23  38  66 102 133 167 212 274 345 403
#     4  12  22  40  68 103 132 167 218 273 341 389
#     4  12  26  44  65  94 134 183 226 277 334 400
#     4  10  20  36  60  90 126 158 204 266 328 373
#
# _framework density 20.221928999999999
#
# number of rings (size 3 to 8) (size 9 to 14) (size 15 to 20)
#    0.000    0.667    5.000    3.500    2.333    0.000 
#    0.000    3.750    0.000    0.000    0.000    0.000 
#    0.000    0.000    0.000    0.000    0.000    0.000 
#
# Total GULP energy -133978.506394 kJ/mol
# GULP energy per Si atom -5582.437766 kJ/mol
# Density = 2.017590 g / cm^3
# Si number density = 20.221929 Si / 1000 Ang^3
#
#
#
# Elastic Constant Matrix: (Units=GPa)
#
#
# Indices 1 2 3 4 5 6 
#
# 1 63.6643 -3.5092 27.9802 0.0000 -5.7615 0.0000
# 2 -3.5092 66.9788 14.5147 0.0000 2.2181 0.0000
# 3 27.9802 14.5147 178.0484 0.0000 0.7064 0.0000
# 4 0.0000 0.0000 0.0000 28.1227 0.0000 7.3239
# 5 -5.7615 2.2181 0.7064 0.0000 44.1547 0.0000
# 6 0.0000 0.0000 0.0000 7.3239 0.0000 29.4072
#
#
#
# Elastic Compliance Matrix: (Units=1/GPa)
#
#
# Indices 1 2 3 4 5 6 
#
# 1 0.017234 0.001444 -0.002835 0.000000 0.002222 0.000000
# 2 0.001444 0.015344 -0.001476 0.000000 -0.000559 0.000000
# 3 -0.002835 -0.001476 0.006184 0.000000 -0.000395 0.000000
# 4 0.000000 0.000000 0.000000 0.038025 0.000000 -0.009470
# 5 0.002222 -0.000559 -0.000395 0.000000 0.022972 0.000000
# 6 0.000000 0.000000 0.000000 -0.009470 0.000000 0.036364
#
#
# Mechanical properties :
#
#
# Convention : Reuss Voigt Hill
#
# Bulk Modulus (GPa) = 30.27700 42.96257 36.61979
# Shear Modulus (GPa) = 32.70861 38.31730 35.51295
#
# Velocity S-wave (km/s) = 4.02616 4.35770 4.19520
# Velocity P-wave (km/s) = 6.05129 6.82723 6.45094
#
# Compressibility (1/GPa) = 0.03302837
#
# Stress axis : x y z
#
# Youngs Moduli (GPa) = 58.02522 65.17212 161.71317
#
# Poissons Ratio (x) = -0.09409 0.45842
# Poissons Ratio (y) = -0.08377 0.23861
# Poissons Ratio (z) = 0.16449 0.09616
#
# Static dielectric constant tensor:
#      x y z
#    x 1.710790 0.000000 -0.022780 
#    y 0.000000 1.736590 0.000000 
#    z -0.022780 0.000000 1.735330 
# 
# From -- ./inp_files/73714.got.cif
#   From: 2010.05.17/outbox.cif.g08.bks.cpg/sg12_37_cif.got.tgz:73714.got - 2010.06.03 13:09:07.
