data_PCOD9199419
_publ_section_title
;
Structure prediction by ZEFSAII (Michael W. Deem and Ramdas Pophale) SiO2 
 PCOD9199419
Probable space group: C 2/M
;
_chemical_formula_sum "Si O2"
_cell_formula_units_Z 56
_cell_length_a 19.200113
_cell_length_b 7.751221
_cell_length_c 23.648811
_cell_angle_alpha 90.000000
_cell_angle_beta 133.140286
_cell_angle_gamma 90.000000
_cell_volume 2568.127915
_symmetry_space_group_name_H-M "C 2/M"
_symmetry_group_IT_number 12
_symmetry_cell_setting 'monoclinic'
loop_
_space_group_symop_operation_xyz
x,y,z
-x,y,-z
-x,-y,-z
x,-y,z
1/2+x,1/2+y,z
1/2-x,1/2+y,-z
1/2-x,1/2-y,-z
1/2+x,1/2-y,z
loop_
_atom_site_type_symbol
_atom_site_label
_atom_site_fract_x
_atom_site_fract_y
_atom_site_fract_z
Si Si1 0.011734 0.790142 0.071556
Si Si2 0.804907 0.207291 0.974307
Si Si3 0.934335 0.211872 0.516773
Si Si4 0.473712 0.297803 0.664454
Si Si5 0.204935 0.209794 0.240308
Si Si6 0.179198 0.295975 0.800174
Si Si7 0.280982 0.799725 0.621582
O O1 0.106980 0.733868 0.155512
O O2 0.016861 0.000000 0.075222
O O3 0.000000 0.739094 0.000000
O O4 0.912634 0.730216 0.042634
O O5 0.747806 0.274752 0.887670
O O6 0.810900 0.000000 0.970863
O O7 0.750000 0.250000 0.000000
O O8 0.970443 0.271138 0.598314
O O9 0.824254 0.271400 0.450992
O O10 0.000000 0.265951 0.500000
O O11 0.933984 0.000000 0.515771
O O12 0.490379 0.500000 0.669221
O O13 0.567058 0.227694 0.747964
O O14 0.373118 0.273642 0.640436
O O15 0.288802 0.267754 0.244157
O O16 0.209289 0.280508 0.305670
O O17 0.206200 0.000000 0.245757
O O18 0.197868 0.500000 0.809039
O O19 0.279473 0.000000 0.604952
#
# Coordination Sequence:
#
# PCOD9199419 Si02
#       7
#     8   8   8   8   8   8   8
#     4   9  16  33  59  82 106 146 193 235 281 335
#     4  10  21  36  56  82 114 151 193 237 286 342
#     4   9  19  38  63  88 114 149 190 232 282 343
#     4  11  23  39  61  86 116 154 197 236 280 345
#     4  10  20  36  60  87 115 149 195 239 283 346
#     4  10  21  38  58  84 119 154 192 242 292 340
#     4  11  23  39  60  87 121 153 186 236 292 339
#
# _framework density 21.805766999999999
#
# number of rings (size 3 to 8) (size 9 to 14) (size 15 to 20)
#    0.000    2.000    1.429    2.143    2.000    2.286 
#    0.000    2.143    0.000    6.000    0.000    0.000 
#    0.000    0.000    0.000    0.000    0.000    0.000 
#
# Total GULP energy -156341.879801 kJ/mol
# GULP energy per Si atom -5583.638564 kJ/mol
# Density = 2.175614 g / cm^3
# Si number density = 21.805767 Si / 1000 Ang^3
#
#
#
# Elastic Constant Matrix: (Units=GPa)
#
#
# Indices 1 2 3 4 5 6 
#
# 1 110.9458 -7.7763 11.2807 0.0000 12.2893 0.0000
# 2 -7.7763 26.1176 -6.1213 0.0000 0.3488 0.0000
# 3 11.2807 -6.1213 83.3225 0.0000 13.8066 0.0000
# 4 0.0000 0.0000 0.0000 14.7721 0.0000 2.4610
# 5 12.2893 0.3488 13.8066 0.0000 40.1446 0.0000
# 6 0.0000 0.0000 0.0000 2.4610 0.0000 24.3273
#
#
#
# Elastic Compliance Matrix: (Units=1/GPa)
#
#
# Indices 1 2 3 4 5 6 
#
# 1 0.009573 0.002736 -0.000642 0.000000 -0.002734 0.000000
# 2 0.002736 0.039816 0.002917 0.000000 -0.002187 0.000000
# 3 -0.000642 0.002917 0.013016 0.000000 -0.004305 0.000000
# 4 0.000000 0.000000 0.000000 0.068856 0.000000 -0.006966
# 5 -0.002734 -0.002187 -0.004305 0.000000 0.027246 0.000000
# 6 0.000000 0.000000 0.000000 -0.006966 0.000000 0.041811
#
#
# Mechanical properties :
#
#
# Convention : Reuss Voigt Hill
#
# Bulk Modulus (GPa) = 13.80681 23.90579 18.85630
# Shear Modulus (GPa) = 23.31672 30.71566 27.01619
#
# Velocity S-wave (km/s) = 3.27355 3.75721 3.52369
# Velocity P-wave (km/s) = 4.54243 5.45976 5.02208
#
# Compressibility (1/GPa) = 0.07242803
#
# Stress axis : x y z
#
# Youngs Moduli (GPa) = 104.45732 25.11552 76.82746
#
# Poissons Ratio (x) = -0.06873 0.04933
# Poissons Ratio (y) = -0.28584 -0.22410
# Poissons Ratio (z) = 0.06707 -0.07326
#
# Static dielectric constant tensor:
#      x y z
#    x 2.208700 0.000000 0.201870 
#    y 0.000000 1.802930 0.000000 
#    z 0.201870 0.000000 1.852650 
# 
# From -- ./inp_files/342539.got.cif
#   From: 2010.05.17/outbox.cif.g08.bks.cpg/sg12_172_cif.got.tgz:342539.got - 2010.06.03 13:09:07.
