data_PCOD9199322
_publ_section_title
;
Structure prediction by ZEFSAII (Michael W. Deem and Ramdas Pophale) SiO2 
 PCOD9199322
Probable space group: C 2/M
;
_chemical_formula_sum "Si O2"
_cell_formula_units_Z 58
_cell_length_a 12.965385
_cell_length_b 13.319827
_cell_length_c 17.481452
_cell_angle_alpha 90.000000
_cell_angle_beta 97.615429
_cell_angle_gamma 90.000000
_cell_volume 2992.360997
_symmetry_space_group_name_H-M "C 2/M"
_symmetry_group_IT_number 12
_symmetry_cell_setting 'monoclinic'
loop_
_space_group_symop_operation_xyz
x,y,z
-x,y,-z
-x,-y,-z
x,-y,z
1/2+x,1/2+y,z
1/2-x,1/2+y,-z
1/2-x,1/2-y,-z
1/2+x,1/2-y,z
loop_
_atom_site_type_symbol
_atom_site_label
_atom_site_fract_x
_atom_site_fract_y
_atom_site_fract_z
Si Si1 0.000000 0.000000 0.500000
Si Si2 0.653447 0.327310 0.579625
Si Si3 0.156552 0.122516 0.060397
Si Si4 0.568005 0.620388 0.895233
Si Si5 0.574469 0.710161 0.730108
Si Si6 0.801522 0.384580 0.205410
Si Si7 0.135404 0.112933 0.325784
Si Si8 0.190131 0.383966 0.526395
O O1 0.925957 0.911625 0.455577
O O2 0.651889 0.324312 0.670891
O O3 0.763222 0.357026 0.551829
O O4 0.626070 0.213228 0.548638
O O5 0.253080 0.155950 0.121531
O O6 0.048412 0.152916 0.090896
O O7 0.158865 0.000000 0.062910
O O8 0.145688 0.152939 0.970944
O O9 0.567032 0.500000 0.896532
O O10 0.589278 0.653883 0.811686
O O11 0.602385 0.823716 0.752591
O O12 0.458793 0.689539 0.688237
O O13 0.829218 0.500000 0.198189
O O14 0.709031 0.379374 0.259119
O O15 0.209173 0.119220 0.406717
O O16 0.088581 0.000000 0.322720
O O17 0.150653 0.500000 0.526256
#
# Coordination Sequence:
#
# PCOD9199322 Si02
#       8
#     2   8   8   8   8   8   8   8
#     4  12  24  44  58  92 120 156 196 252 292 358
#     4  11  24  36  59  91 119 152 196 244 299 352
#     4   8  15  32  53  78 112 152 188 228 290 342
#     4   9  17  29  52  85 117 143 185 243 284 339
#     4  12  22  31  57  93 115 145 197 243 290 345
#     4  10  20  37  56  81 116 155 192 237 289 348
#     4  10  20  36  60  83 112 148 186 235 293 342
#     4  10  21  42  62  82 117 160 196 240 294 360
#
# _framework density 19.382687000000001
#
# number of rings (size 3 to 8) (size 9 to 14) (size 15 to 20)
#    0.000    1.931    3.448    2.069    3.862    0.552 
#    0.000    0.345    1.517    3.310    0.000    1.931 
#    0.000    0.000    0.000    0.000    0.000    0.000 
#
# Total GULP energy -161457.199925 kJ/mol
# GULP energy per Si atom -5567.489653 kJ/mol
# Density = 1.933857 g / cm^3
# Si number density = 19.382687 Si / 1000 Ang^3
#
#
#
# Elastic Constant Matrix: (Units=GPa)
#
#
# Indices 1 2 3 4 5 6 
#
# 1 35.2050 40.3734 19.7460 0.0000 10.1133 0.0000
# 2 40.3734 120.2797 29.8594 0.0000 7.0746 0.0000
# 3 19.7460 29.8594 113.7164 0.0000 -16.9000 0.0000
# 4 0.0000 0.0000 0.0000 23.9375 0.0000 3.1080
# 5 10.1133 7.0746 -16.9000 0.0000 22.3333 0.0000
# 6 0.0000 0.0000 0.0000 3.1080 0.0000 21.9403
#
#
#
# Elastic Compliance Matrix: (Units=1/GPa)
#
#
# Indices 1 2 3 4 5 6 
#
# 1 0.062583 -0.016340 -0.011289 0.000000 -0.031706 0.000000
# 2 -0.016340 0.013722 -0.000352 0.000000 0.002786 0.000000
# 3 -0.011289 -0.000352 0.013095 0.000000 0.015133 0.000000
# 4 0.000000 0.000000 0.000000 0.042558 0.000000 -0.006029
# 5 -0.031706 0.002786 0.015133 0.000000 0.069703 0.000000
# 6 0.000000 0.000000 0.000000 -0.006029 0.000000 0.046432
#
#
# Mechanical properties :
#
#
# Convention : Reuss Voigt Hill
#
# Bulk Modulus (GPa) = 29.90384 49.90651 39.90517
# Shear Modulus (GPa) = 15.86289 25.59038 20.72664
#
# Velocity S-wave (km/s) = 2.86388 3.63749 3.27362
# Velocity P-wave (km/s) = 5.13784 6.59133 5.90944
#
# Compressibility (1/GPa) = 0.03344052
#
# Stress axis : x y z
#
# Youngs Moduli (GPa) = 15.97867 72.87573 76.36300
#
# Poissons Ratio (x) = 1.19076 0.86204
# Poissons Ratio (y) = 0.26108 0.02686
# Poissons Ratio (z) = 0.18038 0.02564
#
# Static dielectric constant tensor:
#      x y z
#    x 1.685970 0.000000 -0.023190 
#    y 0.000000 1.695570 0.000000 
#    z -0.023190 0.000000 1.732720 
# 
# From -- ./inp_files/268754.got.cif
#   From: 2010.05.17/outbox.cif.g08.bks.cpg/sg12_135_cif.got.tgz:268754.got - 2010.06.03 13:09:07.
