data_PCOD9199163
_publ_section_title
;
Structure prediction by ZEFSAII (Michael W. Deem and Ramdas Pophale) SiO2 
 PCOD9199163
Probable space group: C 2/M
;
_chemical_formula_sum "Si O2"
_cell_formula_units_Z 48
_cell_length_a 8.503256
_cell_length_b 21.413980
_cell_length_c 12.230872
_cell_angle_alpha 90.000000
_cell_angle_beta 99.542473
_cell_angle_gamma 90.000000
_cell_volume 2196.285348
_symmetry_space_group_name_H-M "C 2/M"
_symmetry_group_IT_number 12
_symmetry_cell_setting 'monoclinic'
loop_
_space_group_symop_operation_xyz
x,y,z
-x,y,-z
-x,-y,-z
x,-y,z
1/2+x,1/2+y,z
1/2-x,1/2+y,-z
1/2-x,1/2-y,-z
1/2+x,1/2-y,z
loop_
_atom_site_type_symbol
_atom_site_label
_atom_site_fract_x
_atom_site_fract_y
_atom_site_fract_z
Si Si1 0.779303 0.699776 0.410333
Si Si2 0.148298 0.930698 0.434178
Si Si3 0.491093 0.769110 0.741932
Si Si4 0.597438 0.570595 0.169496
Si Si5 0.378242 0.315806 0.073749
Si Si6 0.096858 0.629034 0.912239
O O1 0.750000 0.750000 0.500000
O O2 0.754665 0.630939 0.455022
O O3 0.649472 0.720475 0.302549
O O4 0.943754 0.707080 0.366082
O O5 0.096380 0.928984 0.301125
O O6 0.000000 0.924177 0.500000
O O7 0.219528 0.000000 0.462182
O O8 0.619528 0.725685 0.818818
O O9 0.483750 0.830486 0.818482
O O10 0.566051 0.500000 0.129978
O O11 0.462126 0.618114 0.112979
O O12 0.773148 0.591013 0.144979
O O13 0.500000 0.286814 0.000000
O O14 0.213319 0.325587 0.994463
O O15 0.000000 0.595757 0.000000
#
# Coordination Sequence:
#
# PCOD9199163 Si02
#       6
#     8   8   8   8   8   8
#     4  12  24  38  63  96 126 155 202 260 316 369
#     4  10  20  40  66  90 116 157 209 257 305 360
#     4  12  21  39  56  88 125 162 200 249 309 365
#     4  10  21  40  64  89 119 159 211 258 300 357
#     4  10  20  36  59  87 117 161 213 251 293 351
#     4  11  22  36  57  88 126 165 197 248 310 372
#
# _framework density 21.855084000000002
#
# number of rings (size 3 to 8) (size 9 to 14) (size 15 to 20)
#    0.000    1.167    3.333    4.500    0.000    3.333 
#    0.000    0.000    0.000    3.000    0.000    0.000 
#    0.000    0.000    0.000    0.000    0.000    0.000 
#
# Total GULP energy -133939.714066 kJ/mol
# GULP energy per Si atom -5580.821419 kJ/mol
# Density = 2.180534 g / cm^3
# Si number density = 21.855084 Si / 1000 Ang^3
#
#
#
# Elastic Constant Matrix: (Units=GPa)
#
#
# Indices 1 2 3 4 5 6 
#
# 1 65.7945 26.8177 24.6380 0.0000 -19.7600 0.0000
# 2 26.8177 155.3078 24.5539 0.0000 -16.4196 0.0000
# 3 24.6380 24.5539 99.2095 0.0000 -27.1498 0.0000
# 4 0.0000 0.0000 0.0000 25.4864 0.0000 3.3066
# 5 -19.7600 -16.4196 -27.1498 0.0000 46.5176 0.0000
# 6 0.0000 0.0000 0.0000 3.3066 0.0000 20.4967
#
#
#
# Elastic Compliance Matrix: (Units=1/GPa)
#
#
# Indices 1 2 3 4 5 6 
#
# 1 0.018777 -0.002237 -0.002550 0.000000 0.005698 0.000000
# 2 -0.002237 0.007077 -0.000919 0.000000 0.001011 0.000000
# 3 -0.002550 -0.000919 0.012562 0.000000 0.005924 0.000000
# 4 0.000000 0.000000 0.000000 0.040075 0.000000 -0.006465
# 5 0.005698 0.001011 0.005924 0.000000 0.027732 0.000000
# 6 0.000000 0.000000 0.000000 -0.006465 0.000000 0.049831
#
#
# Mechanical properties :
#
#
# Convention : Reuss Voigt Hill
#
# Bulk Modulus (GPa) = 37.03232 52.48123 44.75677
# Shear Modulus (GPa) = 28.33375 34.78696 31.56036
#
# Velocity S-wave (km/s) = 3.60451 3.99395 3.80422
# Velocity P-wave (km/s) = 5.85702 6.73307 6.31027
#
# Compressibility (1/GPa) = 0.02700344
#
# Stress axis : x y z
#
# Youngs Moduli (GPa) = 53.25725 141.29644 79.60752
#
# Poissons Ratio (x) = 0.31603 0.20301
# Poissons Ratio (y) = 0.11912 0.07319
# Poissons Ratio (z) = 0.13581 0.12990
#
# Static dielectric constant tensor:
#      x y z
#    x 1.808820 0.000000 -0.001500 
#    y 0.000000 1.814250 0.000000 
#    z -0.001500 0.000000 1.839280 
# 
# From -- ./inp_files/122020.got.cif
#   From: 2010.05.17/outbox.cif.g08.bks.cpg/sg12_62_cif.got.tgz:122020.got - 2010.06.03 13:09:07.
