data_PCOD9199656
_publ_section_title
;
Structure prediction by ZEFSAII (Michael W. Deem and Ramdas Pophale) SiO2 
 PCOD9199656
Probable space group: C 2/M
;
_chemical_formula_sum "Si O2"
_cell_formula_units_Z 48
_cell_length_a 9.003859
_cell_length_b 26.777578
_cell_length_c 17.075399
_cell_angle_alpha 90.000000
_cell_angle_beta 32.752664
_cell_angle_gamma 90.000000
_cell_volume 2227.301460
_symmetry_space_group_name_H-M "C 2/M"
_symmetry_group_IT_number 12
_symmetry_cell_setting 'monoclinic'
loop_
_space_group_symop_operation_xyz
x,y,z
-x,y,-z
-x,-y,-z
x,-y,z
1/2+x,1/2+y,z
1/2-x,1/2+y,-z
1/2-x,1/2-y,-z
1/2+x,1/2-y,z
loop_
_atom_site_type_symbol
_atom_site_label
_atom_site_fract_x
_atom_site_fract_y
_atom_site_fract_z
Si Si1 0.214128 0.319974 0.631727
Si Si2 0.303063 0.892997 0.900503
Si Si3 0.819510 0.811235 0.840765
Si Si4 0.683481 0.768528 0.295075
Si Si5 0.823734 0.500000 0.830708
Si Si6 0.735762 0.000000 0.328221
Si Si7 0.697509 0.416600 0.125192
O O1 0.500000 0.349686 0.500000
O O2 0.307356 0.270512 0.638072
O O3 0.993722 0.349658 0.781705
O O4 0.067710 0.306093 0.613681
O O5 0.423775 0.947425 0.821981
O O6 0.243123 0.893566 0.018838
O O7 0.000000 0.887685 0.000000
O O8 0.839494 0.768033 0.768192
O O9 0.864993 0.868301 0.793391
O O10 0.034274 0.798394 0.814854
O O11 0.500000 0.809955 0.000000
O O12 0.860940 0.500000 0.720159
O O13 0.500000 0.500000 0.000000
O O14 0.500000 0.000000 0.500000
O O15 0.942840 0.046814 0.243350
O O16 0.000000 0.440617 0.000000
#
# Coordination Sequence:
#
# PCOD9199656 Si02
#       7
#     8   8   8   8   4   4   8
#     4  11  23  40  61  93 130 178 227 270 326 393
#     4  11  21  42  71  92 126 178 221 268 332 403
#     4  10  20  36  60  95 127 167 220 271 320 388
#     4  10  22  38  58  87 135 178 214 271 332 385
#     4  10  20  44  72  94 129 173 220 260 336 410
#     4  12  25  46  70 102 129 170 221 272 332 407
#     4  11  22  41  66  99 134 169 214 272 338 391
#
# _framework density 21.550743000000001
#
# number of rings (size 3 to 8) (size 9 to 14) (size 15 to 20)
#    0.000    1.333    3.333    4.250    0.000    4.000 
#    6.000    3.750    0.000    0.000    0.000    0.000 
#    0.000    0.000    0.000    0.000    0.000    0.000 
#
# Total GULP energy -133720.404394 kJ/mol
# GULP energy per Si atom -5571.683516 kJ/mol
# Density = 2.150169 g / cm^3
# Si number density = 21.550743 Si / 1000 Ang^3
#
#
#
# Elastic Constant Matrix: (Units=GPa)
#
#
# Indices 1 2 3 4 5 6 
#
# 1 105.2654 17.8995 39.2664 0.0000 -25.2418 0.0002
# 2 17.8995 104.1993 50.7431 0.0000 -7.0455 0.0001
# 3 39.2664 50.7431 111.6292 -0.0001 -14.3273 0.0010
# 4 0.0000 0.0000 -0.0001 5.8808 0.0000 -0.5495
# 5 -25.2418 -7.0455 -14.3273 0.0000 32.0089 -0.0001
# 6 0.0002 0.0001 0.0010 -0.5495 -0.0001 0.8569
#
#
#
# Elastic Compliance Matrix: (Units=1/GPa)
#
#
# Indices 1 2 3 4 5 6 
#
# 1 0.012833 0.000048 -0.003433 0.000000 0.008594 0.000002
# 2 0.000048 0.012327 -0.005588 0.000000 0.000250 0.000006
# 3 -0.003433 -0.005588 0.012944 -0.000001 0.001857 -0.000014
# 4 0.000000 0.000000 -0.000001 0.180883 0.000000 0.115986
# 5 0.008594 0.000250 0.001857 0.000000 0.038904 0.000002
# 6 0.000002 0.000006 -0.000014 0.115986 0.000002 1.241349
#
#
# Mechanical properties :
#
#
# Convention : Reuss Voigt Hill
#
# Bulk Modulus (GPa) = 49.60735 59.65687 54.63211
# Shear Modulus (GPa) = 3.28104 21.96165 12.62135
#
# Velocity S-wave (km/s) = 1.23522 3.19575 2.42266
# Velocity P-wave (km/s) = 5.01031 6.43111 5.76465
#
# Compressibility (1/GPa) = 0.02015830
#
# Stress axis : x y z
#
# Youngs Moduli (GPa) = 77.92454 81.12246 77.25306
#
# Poissons Ratio (x) = -0.00393 0.26522
# Poissons Ratio (y) = -0.00378 0.43172
# Poissons Ratio (z) = 0.26752 0.45335
#
# Static dielectric constant tensor:
#      x y z
#    x 2.146160 0.000000 -0.012570 
#    y 0.000000 1.867470 0.000000 
#    z -0.012570 0.000000 1.828080 
# 
# From -- ./inp_files/260274.got.cif
#   From: 2010.05.17/outbox.cif.g08.bks.cpg/sg12_131_cif.got.tgz:260274.got - 2010.06.03 13:09:07.
