data_PCOD9199459
_publ_section_title
;
Structure prediction by ZEFSAII (Michael W. Deem and Ramdas Pophale) SiO2 
 PCOD9199459
Probable space group: C 2/M
;
_chemical_formula_sum "Si O2"
_cell_formula_units_Z 56
_cell_length_a 19.028652
_cell_length_b 7.494377
_cell_length_c 23.499773
_cell_angle_alpha 90.000000
_cell_angle_beta 46.675028
_cell_angle_gamma 90.000000
_cell_volume 2437.948748
_symmetry_space_group_name_H-M "C 2/M"
_symmetry_group_IT_number 12
_symmetry_cell_setting 'monoclinic'
loop_
_space_group_symop_operation_xyz
x,y,z
-x,y,-z
-x,-y,-z
x,-y,z
1/2+x,1/2+y,z
1/2-x,1/2+y,-z
1/2-x,1/2-y,-z
1/2+x,1/2-y,z
loop_
_atom_site_type_symbol
_atom_site_label
_atom_site_fract_x
_atom_site_fract_y
_atom_site_fract_z
Si Si1 0.463297 0.719630 0.836406
Si Si2 0.445278 0.709165 0.974642
Si Si3 0.273455 0.283823 0.873010
Si Si4 0.020714 0.285981 0.422163
Si Si5 0.313592 0.212824 0.519019
Si Si6 0.331738 0.704147 0.307580
Si Si7 0.775401 0.796515 0.742656
O O1 0.463679 0.500000 0.836565
O O2 0.364858 0.775613 0.859827
O O3 0.560750 0.780850 0.750515
O O4 0.468836 0.781226 0.898859
O O5 0.471631 0.500000 0.958083
O O6 0.330267 0.726390 0.046039
O O7 0.500000 0.784911 0.000000
O O8 0.276173 0.500000 0.871492
O O9 0.279444 0.222437 0.804120
O O10 0.033349 0.500000 0.409410
O O11 0.921811 0.220567 0.448752
O O12 0.000000 0.249775 0.500000
O O13 0.117529 0.206296 0.343235
O O14 0.250000 0.250000 0.500000
O O15 0.253328 0.284866 0.606451
O O16 0.326486 0.000000 0.521137
O O17 0.341122 0.500000 0.322165
O O18 0.294588 0.703805 0.263477
O O19 0.741004 0.000000 0.765586
#
# Coordination Sequence:
#
# PCOD9199459 Si02
#       7
#     8   8   8   8   8   8   8
#     4   9  19  36  59  83 111 147 187 228 275 335
#     4  10  20  36  60  88 111 141 188 231 271 328
#     4  10  22  38  56  83 116 149 183 224 280 339
#     4  10  20  39  60  81 110 148 194 234 278 338
#     4  10  22  37  58  84 112 149 189 232 282 337
#     4  10  20  39  62  80 109 154 192 229 280 337
#     4  11  23  36  56  85 114 146 189 238 284 332
#
# _framework density 22.970130000000001
#
# number of rings (size 3 to 8) (size 9 to 14) (size 15 to 20)
#    0.000    2.000    1.429    1.714    2.000    4.000 
#    0.000    1.429    0.000    0.000    0.000    0.000 
#    0.000    0.000    0.000    0.000    0.000    0.000 
#
# Total GULP energy -156445.225903 kJ/mol
# GULP energy per Si atom -5587.329497 kJ/mol
# Density = 2.291785 g / cm^3
# Si number density = 22.970130 Si / 1000 Ang^3
#
#
#
# Elastic Constant Matrix: (Units=GPa)
#
#
# Indices 1 2 3 4 5 6 
#
# 1 100.5819 -10.6841 2.3587 -0.0006 -14.5394 0.0011
# 2 -10.6841 58.2929 -8.3839 0.0057 5.1962 -0.0020
# 3 2.3587 -8.3839 76.8088 -0.0001 -10.9480 0.0000
# 4 -0.0006 0.0057 -0.0001 -416.2989 0.0014 239.0169
# 5 -14.5394 5.1962 -10.9480 0.0014 44.3250 -0.0008
# 6 0.0011 -0.0020 0.0000 239.0169 -0.0008 -121.0882
#
#
#
# Elastic Compliance Matrix: (Units=1/GPa)
#
#
# Indices 1 2 3 4 5 6 
#
# 1 0.010600 0.001692 0.000338 0.000000 0.003362 -0.000001
# 2 0.001692 0.017813 0.001735 -0.000001 -0.001105 -0.000001
# 3 0.000338 0.001735 0.013666 0.000000 0.003283 0.000000
# 4 0.000000 -0.000001 0.000000 0.018019 0.000000 0.035567
# 5 0.003362 -0.001105 0.003283 0.000000 0.024604 0.000000
# 6 -0.000001 -0.000001 0.000000 0.035567 0.000000 0.061948
#
#
# Mechanical properties :
#
#
# Convention : Reuss Voigt Hill
#
# Bulk Modulus (GPa) = 20.15761 22.47391 21.31576
# Shear Modulus (GPa) = 32.12220 -81.78623 -24.83201
#
# Velocity S-wave (km/s) = 3.74362 -5.97351 -3.29151
# Velocity P-wave (km/s) = 5.24222 6.14588 2.26836
#
# Compressibility (1/GPa) = 0.04960905
#
# Stress axis : x y z
#
# Youngs Moduli (GPa) = 94.34024 56.13941 73.17279
#
# Poissons Ratio (x) = -0.09497 -0.02476
# Poissons Ratio (y) = -0.15960 -0.12695
# Poissons Ratio (z) = -0.03192 -0.09740
#
# Static dielectric constant tensor:
#      x y z
#    x 1.832700 0.000000 0.016250 
#    y 0.000000 1.585910 0.000000 
#    z 0.016250 0.000000 1.811230 
# 
# From -- ./inp_files/342245.got.cif
#   From: 2010.05.17/outbox.cif.g08.bks.cpg/sg12_172_cif.got.tgz:342245.got - 2010.06.03 13:09:07.
