data_PCOD9199231
_publ_section_title
;
Structure prediction by ZEFSAII (Michael W. Deem and Ramdas Pophale) SiO2 
 PCOD9199231
Probable space group: C 2/M
;
_chemical_formula_sum "Si O2"
_cell_formula_units_Z 48
_cell_length_a 25.223240
_cell_length_b 8.369059
_cell_length_c 11.269559
_cell_angle_alpha 90.000000
_cell_angle_beta 72.110748
_cell_angle_gamma 90.000000
_cell_volume 2263.927985
_symmetry_space_group_name_H-M "C 2/M"
_symmetry_group_IT_number 12
_symmetry_cell_setting 'monoclinic'
loop_
_space_group_symop_operation_xyz
x,y,z
-x,y,-z
-x,-y,-z
x,-y,z
1/2+x,1/2+y,z
1/2-x,1/2+y,-z
1/2-x,1/2-y,-z
1/2+x,1/2-y,z
loop_
_atom_site_type_symbol
_atom_site_label
_atom_site_fract_x
_atom_site_fract_y
_atom_site_fract_z
Si Si1 0.630390 0.309520 0.326655
Si Si2 0.187018 0.807733 0.535296
Si Si3 0.419332 0.688535 0.985003
Si Si4 0.976791 0.313339 0.709155
Si Si5 0.583777 0.692569 0.747458
Si Si6 0.812578 0.688108 0.949202
O O1 0.637133 0.500000 0.306470
O O2 0.657198 0.261490 0.432695
O O3 0.565254 0.269131 0.354040
O O4 0.663089 0.221819 0.198458
O O5 0.250000 0.750000 0.500000
O O6 0.145287 0.751880 0.667777
O O7 0.188044 0.000000 0.538116
O O8 0.432968 0.500000 0.963798
O O9 0.432646 0.744663 0.108564
O O10 0.449232 0.780323 0.857766
O O11 0.353705 0.715992 0.008221
O O12 0.978275 0.500000 0.683283
O O13 0.038605 0.245919 0.682081
O O14 0.583897 0.500000 0.750429
O O15 0.815480 0.500000 0.973187
O O16 0.750000 0.750000 0.000000
#
# Coordination Sequence:
#
# PCOD9199231 Si02
#       6
#     8   8   8   8   8   8
#     4  10  21  40  62  86 118 156 198 245 298 354
#     4  10  24  43  63  88 118 157 201 247 298 353
#     4  10  20  36  59  88 121 156 195 240 298 359
#     4  11  22  37  60  91 122 155 197 248 300 349
#     4  10  22  40  61  87 120 160 198 239 298 359
#     4  11  22  36  57  85 118 155 198 245 296 352
#
# _framework density 21.202086999999999
#
# number of rings (size 3 to 8) (size 9 to 14) (size 15 to 20)
#    0.000    1.667    0.000    6.500    2.333    6.000 
#    0.000    3.333    0.000    0.000    0.000    0.000 
#    0.000    0.000    0.000    0.000    0.000    0.000 
#
# Total GULP energy -134169.500198 kJ/mol
# GULP energy per Si atom -5590.395842 kJ/mol
# Density = 2.115383 g / cm^3
# Si number density = 21.202087 Si / 1000 Ang^3
#
#
#
# Elastic Constant Matrix: (Units=GPa)
#
#
# Indices 1 2 3 4 5 6 
#
# 1 126.5558 -11.9291 25.9793 0.0000 2.6261 0.0000
# 2 -11.9291 24.0960 4.4722 0.0000 3.4127 0.0000
# 3 25.9793 4.4722 59.3903 0.0000 14.9216 0.0000
# 4 0.0000 0.0000 0.0000 11.5059 0.0000 -6.9657
# 5 2.6261 3.4127 14.9216 0.0000 33.4828 0.0000
# 6 0.0000 0.0000 0.0000 -6.9657 0.0000 29.8797
#
#
#
# Elastic Compliance Matrix: (Units=1/GPa)
#
#
# Indices 1 2 3 4 5 6 
#
# 1 0.009359 0.005391 -0.004704 0.000000 0.000813 0.000000
# 2 0.005391 0.045509 -0.005083 0.000000 -0.002796 0.000000
# 3 -0.004704 -0.005083 0.021458 0.000000 -0.008676 0.000000
# 4 0.000000 0.000000 0.000000 0.101194 0.000000 0.023591
# 5 0.000813 -0.002796 -0.008676 0.000000 0.033954 0.000000
# 6 0.000000 0.000000 0.000000 0.023591 0.000000 0.038967
#
#
# Mechanical properties :
#
#
# Convention : Reuss Voigt Hill
#
# Bulk Modulus (GPa) = 14.80728 27.45410 21.13069
# Shear Modulus (GPa) = 17.74669 27.74166 22.74417
#
# Velocity S-wave (km/s) = 2.89628 3.62116 3.27881
# Velocity P-wave (km/s) = 4.26422 5.51911 4.93175
#
# Compressibility (1/GPa) = 0.06753436
#
# Stress axis : x y z
#
# Youngs Moduli (GPa) = 106.85398 21.97372 46.60290
#
# Poissons Ratio (x) = -0.11846 0.21922
# Poissons Ratio (y) = -0.57605 0.23686
# Poissons Ratio (z) = 0.50263 0.11168
#
# Static dielectric constant tensor:
#      x y z
#    x 1.770750 0.000000 -0.010210 
#    y 0.000000 1.716110 0.000000 
#    z -0.010210 0.000000 1.786200 
# 
# From -- ./inp_files/172144.got.cif
#   From: 2010.05.17/outbox.cif.g08.bks.cpg/sg12_87_cif.got.tgz:172144.got - 2010.06.03 13:09:07.
