data_PCOD9199382
_publ_section_title
;
Structure prediction by ZEFSAII (Michael W. Deem and Ramdas Pophale) SiO2 
 PCOD9199382
Probable space group: C 2/M
;
_chemical_formula_sum "Si O2"
_cell_formula_units_Z 44
_cell_length_a 18.982627
_cell_length_b 9.704599
_cell_length_c 17.116647
_cell_angle_alpha 90.000000
_cell_angle_beta 135.358130
_cell_angle_gamma 90.000000
_cell_volume 2215.674647
_symmetry_space_group_name_H-M "C 2/M"
_symmetry_group_IT_number 12
_symmetry_cell_setting 'monoclinic'
loop_
_space_group_symop_operation_xyz
x,y,z
-x,y,-z
-x,-y,-z
x,-y,z
1/2+x,1/2+y,z
1/2-x,1/2+y,-z
1/2-x,1/2-y,-z
1/2+x,1/2-y,z
loop_
_atom_site_type_symbol
_atom_site_label
_atom_site_fract_x
_atom_site_fract_y
_atom_site_fract_z
Si Si1 0.553428 0.338749 0.457516
Si Si2 0.587107 0.164445 0.767977
Si Si3 0.500000 0.792315 0.000000
Si Si4 0.709631 0.659354 0.135638
Si Si5 0.251294 0.162047 0.353250
Si Si6 0.066579 0.349940 0.222373
O O1 0.500000 0.336107 0.500000
O O2 0.567930 0.500000 0.447592
O O3 0.481440 0.255875 0.342501
O O4 0.656964 0.254171 0.544570
O O5 0.701357 0.215129 0.848565
O O6 0.535917 0.175167 0.811888
O O7 0.583975 0.000000 0.743593
O O8 0.597826 0.715350 0.044517
O O9 0.543993 0.859378 0.112682
O O10 0.700742 0.500000 0.109519
O O11 0.747358 0.672458 0.255327
O O12 0.147536 0.230563 0.300016
O O13 0.260097 0.000000 0.380175
O O14 0.106517 0.500000 0.280159
#
# Coordination Sequence:
#
# PCOD9199382 Si02
#       6
#     8   8   4   8   8   8
#     4  11  22  36  58  90 122 153 187 234 291 344
#     4  10  21  38  59  84 117 156 197 239 283 340
#     4  10  20  36  60  86 113 152 193 240 297 350
#     4   9  18  34  57  85 113 147 195 243 285 340
#     4  10  20  36  61  86 115 157 197 234 281 342
#     4  10  22  39  58  84 118 154 194 243 292 340
#
# _framework density 19.858512000000001
#
# number of rings (size 3 to 8) (size 9 to 14) (size 15 to 20)
#    0.000    2.000    1.818    1.636    0.000    3.636 
#    0.000    0.909    0.000    0.000    0.000    0.000 
#    0.000    0.000    0.000    0.000    0.000    0.000 
#
# Total GULP energy -122616.485397 kJ/mol
# GULP energy per Si atom -5573.476609 kJ/mol
# Density = 1.981331 g / cm^3
# Si number density = 19.858512 Si / 1000 Ang^3
#
#
#
# Elastic Constant Matrix: (Units=GPa)
#
#
# Indices 1 2 3 4 5 6 
#
# 1 133.3321 59.5265 27.9100 0.0000 33.8973 0.0000
# 2 59.5265 111.4692 44.8479 0.0000 25.3630 0.0000
# 3 27.9100 44.8479 60.4472 0.0000 29.0353 0.0000
# 4 0.0000 0.0000 0.0000 59.5990 0.0000 7.0437
# 5 33.8973 25.3630 29.0353 0.0000 40.8568 0.0000
# 6 0.0000 0.0000 0.0000 7.0437 0.0000 25.9445
#
#
#
# Elastic Compliance Matrix: (Units=1/GPa)
#
#
# Indices 1 2 3 4 5 6 
#
# 1 0.011333 -0.005241 0.002443 0.000000 -0.007886 0.000000
# 2 -0.005241 0.015302 -0.009806 0.000000 0.001818 0.000000
# 3 0.002443 -0.009806 0.031490 0.000000 -0.018318 0.000000
# 4 0.000000 0.000000 0.000000 0.017335 0.000000 -0.004706
# 5 -0.007886 0.001818 -0.018318 0.000000 0.042908 0.000000
# 6 0.000000 0.000000 0.000000 -0.004706 0.000000 0.039822
#
#
# Mechanical properties :
#
#
# Convention : Reuss Voigt Hill
#
# Bulk Modulus (GPa) = 30.37933 63.31302 46.84617
# Shear Modulus (GPa) = 25.72431 36.81099 31.26765
#
# Velocity S-wave (km/s) = 3.60304 4.31009 3.97233
# Velocity P-wave (km/s) = 5.71317 7.53130 6.68434
#
# Compressibility (1/GPa) = 0.03291712
#
# Stress axis : x y z
#
# Youngs Moduli (GPa) = 88.23595 65.35295 31.75627
#
# Poissons Ratio (x) = 0.34251 -0.07760
# Poissons Ratio (y) = 0.46244 0.31141
# Poissons Ratio (z) = -0.21560 0.64087
#
# Static dielectric constant tensor:
#      x y z
#    x 1.725960 0.000000 0.007470 
#    y 0.000000 1.694390 0.000000 
#    z 0.007470 0.000000 1.689730 
# 
# From -- ./inp_files/275870.got.cif
#   From: 2010.05.17/outbox.cif.g08.bks.cpg/sg12_138_cif.got.tgz:275870.got - 2010.06.03 13:09:07.
