data_PCOD9199850
_publ_section_title
;
Structure prediction by ZEFSAII (Michael W. Deem and Ramdas Pophale) SiO2 
 PCOD9199850
Probable space group: C 2/M
;
_chemical_formula_sum "Si O2"
_cell_formula_units_Z 48
_cell_length_a 26.035018
_cell_length_b 14.228516
_cell_length_c 22.727753
_cell_angle_alpha 90.000000
_cell_angle_beta 163.771219
_cell_angle_gamma 90.000000
_cell_volume 2352.959997
_symmetry_space_group_name_H-M "C 2/M"
_symmetry_group_IT_number 12
_symmetry_cell_setting 'monoclinic'
loop_
_space_group_symop_operation_xyz
x,y,z
-x,y,-z
-x,-y,-z
x,-y,z
1/2+x,1/2+y,z
1/2-x,1/2+y,-z
1/2-x,1/2-y,-z
1/2+x,1/2-y,z
loop_
_atom_site_type_symbol
_atom_site_label
_atom_site_fract_x
_atom_site_fract_y
_atom_site_fract_z
Si Si1 0.750852 0.607323 0.609357
Si Si2 0.963467 0.768302 0.219240
Si Si3 0.968920 0.900270 0.396475
Si Si4 0.979890 0.788539 0.855736
Si Si5 0.108634 0.609898 0.454906
Si Si6 0.621839 0.805375 0.692763
O O1 0.789522 0.500000 0.633126
O O2 0.583481 0.655188 0.387975
O O3 0.664422 0.604021 0.579378
O O4 0.919572 0.679568 0.796594
O O5 0.988389 0.797161 0.179396
O O6 0.054643 0.669102 0.337545
O O7 0.750000 0.750000 0.000000
O O8 0.871511 0.802496 0.276307
O O9 0.000000 0.902041 0.500000
O O10 0.880530 0.000000 0.280885
O O11 0.809067 0.849499 0.690278
O O12 0.167494 0.824320 0.090586
O O13 0.109693 0.500000 0.445624
O O14 0.969504 0.635681 0.355054
O O15 0.500000 0.811238 0.500000
#
# Coordination Sequence:
#
# PCOD9199850 Si02
#       6
#     8   8   8   8   8   8
#     4  10  20  36  61  95 128 164 207 252 316 386
#     4  11  21  40  64  93 129 162 206 258 312 377
#     4   9  17  34  60  89 124 161 201 250 306 371
#     4  11  23  41  64  91 131 161 211 263 314 372
#     4  11  24  43  65  96 129 166 213 259 317 376
#     4  11  23  43  67  90 127 171 213 264 319 371
#
# _framework density 20.399837999999999
#
# number of rings (size 3 to 8) (size 9 to 14) (size 15 to 20)
#    0.000    1.500    5.000    2.000    0.000    5.667 
#    0.000    0.833    0.000    5.000    0.000    0.000 
#    0.000    0.000    0.000    0.000    0.000    0.000 
#
# Total GULP energy -133833.858823 kJ/mol
# GULP energy per Si atom -5576.410784 kJ/mol
# Density = 2.035341 g / cm^3
# Si number density = 20.399838 Si / 1000 Ang^3
#
#
#
# Elastic Constant Matrix: (Units=GPa)
#
#
# Indices 1 2 3 4 5 6 
#
# 1 59.8404 3.9331 17.4684 0.0023 -2.2149 0.0008
# 2 3.9331 117.4500 29.9349 -0.0149 2.4466 -0.0058
# 3 17.4684 29.9349 132.0844 -0.0102 15.1714 -0.0083
# 4 0.0023 -0.0149 -0.0102 0.1900 -0.0045 3.2552
# 5 -2.2149 2.4466 15.1714 -0.0045 30.6601 -0.0034
# 6 0.0008 -0.0058 -0.0083 3.2552 -0.0034 20.4781
#
#
#
# Elastic Compliance Matrix: (Units=1/GPa)
#
#
# Indices 1 2 3 4 5 6 
#
# 1 0.017570 0.000027 -0.002625 0.000153 0.002566 -0.000026
# 2 0.000027 0.009039 -0.002088 -0.000332 0.000314 0.000055
# 3 -0.002625 -0.002088 0.008900 -0.000115 -0.004427 0.000021
# 4 0.000153 -0.000332 -0.000115 -3.053526 -0.000303 0.485396
# 5 0.002566 0.000314 -0.004427 -0.000303 0.034966 0.000052
# 6 -0.000026 0.000055 0.000021 0.485396 0.000052 -0.028327
#
#
# Mechanical properties :
#
#
# Convention : Reuss Voigt Hill
#
# Bulk Modulus (GPa) = 38.25871 45.78307 42.02089
# Shear Modulus (GPa) = -1.67040 27.46818 12.89889
#
# Velocity S-wave (km/s) = -0.90587 3.67344 2.51729
# Velocity P-wave (km/s) = 4.20725 6.36268 5.39373
#
# Compressibility (1/GPa) = 0.02613784
#
# Stress axis : x y z
#
# Youngs Moduli (GPa) = 56.91368 110.63162 112.36271
#
# Poissons Ratio (x) = -0.00300 0.29491
# Poissons Ratio (y) = -0.00154 0.23464
# Poissons Ratio (z) = 0.14937 0.23102
#
# Static dielectric constant tensor:
#      x y z
#    x 1.725080 0.000000 0.013650 
#    y 0.000000 1.760470 0.000000 
#    z 0.013650 0.000000 1.767360 
# 
# From -- ./inp_files/325721.got.cif
#   From: 2010.05.17/outbox.cif.g08.bks.cpg/sg12_163_cif.got.tgz:325721.got - 2010.06.03 13:09:07.
