data_PCOD9199836
_publ_section_title
;
Structure prediction by ZEFSAII (Michael W. Deem and Ramdas Pophale) SiO2 
 PCOD9199836
Probable space group: C 2/M
;
_chemical_formula_sum "Si O2"
_cell_formula_units_Z 48
_cell_length_a 8.314537
_cell_length_b 13.161467
_cell_length_c 26.193495
_cell_angle_alpha 90.000000
_cell_angle_beta 136.706883
_cell_angle_gamma 90.000000
_cell_volume 1965.574694
_symmetry_space_group_name_H-M "C 2/M"
_symmetry_group_IT_number 12
_symmetry_cell_setting 'monoclinic'
loop_
_space_group_symop_operation_xyz
x,y,z
-x,y,-z
-x,-y,-z
x,-y,z
1/2+x,1/2+y,z
1/2-x,1/2+y,-z
1/2-x,1/2-y,-z
1/2+x,1/2-y,z
loop_
_atom_site_type_symbol
_atom_site_label
_atom_site_fract_x
_atom_site_fract_y
_atom_site_fract_z
Si Si1 0.752784 0.616981 0.070159
Si Si2 0.011113 0.611895 0.767975
Si Si3 0.130038 0.182467 0.233122
Si Si4 0.745397 0.200680 0.443516
Si Si5 0.142820 0.618294 0.085406
Si Si6 0.766191 0.614219 0.366185
O O1 0.739747 0.500000 0.047254
O O2 0.811132 0.610411 0.143008
O O3 0.970572 0.660180 0.089172
O O4 0.500000 0.663140 0.000000
O O5 0.905097 0.500000 0.738421
O O6 0.162598 0.640355 0.753673
O O7 0.832575 0.701451 0.740211
O O8 0.091761 0.124036 0.277700
O O9 0.889555 0.174447 0.145746
O O10 0.750000 0.250000 0.500000
O O11 0.736146 0.292810 0.399525
O O12 0.515661 0.131489 0.394354
O O13 0.000000 0.147419 0.500000
O O14 0.200495 0.500000 0.108674
O O15 0.000000 0.621077 0.000000
O O16 0.757297 0.500000 0.386327
#
# Coordination Sequence:
#
# PCOD9199836 Si02
#       6
#     8   8   8   8   8   8
#     4   9  18  34  56  83 117 160 214 279 348 409
#     4  11  24  42  63  89 128 171 217 282 345 403
#     4  12  24  41  65  96 132 177 231 281 341 412
#     4   9  21  42  68 102 137 171 220 264 313 400
#     4  10  20  36  61  93 130 177 235 294 349 407
#     4  11  23  42  69 100 140 183 221 275 337 391
#
# _framework density 24.420339999999999
#
# number of rings (size 3 to 8) (size 9 to 14) (size 15 to 20)
#    0.000    1.667    0.000    4.500    0.000    6.667 
#    0.000   11.667    0.000    0.000    0.000    0.000 
#    0.000    0.000    0.000    0.000    0.000    0.000 
#
# Total GULP energy -134180.515008 kJ/mol
# GULP energy per Si atom -5590.854792 kJ/mol
# Density = 2.436476 g / cm^3
# Si number density = 24.420340 Si / 1000 Ang^3
#
#
#
# Elastic Constant Matrix: (Units=GPa)
#
#
# Indices 1 2 3 4 5 6 
#
# 1 96.7708 19.7464 22.6147 0.0000 -23.1395 0.0000
# 2 19.7464 148.2129 -1.8199 0.0000 -2.1353 0.0000
# 3 22.6147 -1.8199 82.7082 0.0000 -17.7773 0.0000
# 4 0.0000 0.0000 0.0000 16.5227 0.0000 -2.9966
# 5 -23.1395 -2.1353 -17.7773 0.0000 40.1951 0.0000
# 6 0.0000 0.0000 0.0000 -2.9966 0.0000 36.9134
#
#
#
# Elastic Compliance Matrix: (Units=1/GPa)
#
#
# Indices 1 2 3 4 5 6 
#
# 1 0.012663 -0.001624 -0.002155 0.000000 0.006251 0.000000
# 2 -0.001624 0.006965 0.000526 0.000000 -0.000332 0.000000
# 3 -0.002155 0.000526 0.013737 0.000000 0.004863 0.000000
# 4 0.000000 0.000000 0.000000 0.061427 0.000000 0.004987
# 5 0.006251 -0.000332 0.004863 0.000000 0.030610 0.000000
# 6 0.000000 0.000000 0.000000 0.004987 0.000000 0.027495
#
#
# Mechanical properties :
#
#
# Convention : Reuss Voigt Hill
#
# Bulk Modulus (GPa) = 37.22997 45.41935 41.32466
# Shear Modulus (GPa) = 29.69907 37.86962 33.78435
#
# Velocity S-wave (km/s) = 3.49113 3.94222 3.72351
# Velocity P-wave (km/s) = 5.61509 6.27382 5.95357
#
# Compressibility (1/GPa) = 0.02686008
#
# Stress axis : x y z
#
# Youngs Moduli (GPa) = 78.96924 143.57454 72.79798
#
# Poissons Ratio (x) = 0.23310 0.15685
# Poissons Ratio (y) = 0.12821 -0.03828
# Poissons Ratio (z) = 0.17015 -0.07549
#
# Static dielectric constant tensor:
#      x y z
#    x 1.939660 0.000000 0.043630 
#    y 0.000000 2.054130 0.000000 
#    z 0.043630 0.000000 1.996490 
# 
# From -- ./inp_files/356356.got.cif
#   From: 2010.05.17/outbox.cif.g08.bks.cpg/sg12_179_cif.got.tgz:356356.got - 2010.06.03 13:09:07.
