data_PCOD9199093
_publ_section_title
;
Structure prediction by ZEFSAII (Michael W. Deem and Ramdas Pophale) SiO2 
 PCOD9199093
Probable space group: C 2/M
;
_chemical_formula_sum "Si O2"
_cell_formula_units_Z 48
_cell_length_a 7.345001
_cell_length_b 24.270747
_cell_length_c 10.868147
_cell_angle_alpha 90.000000
_cell_angle_beta 105.034902
_cell_angle_gamma 90.000000
_cell_volume 1871.127198
_symmetry_space_group_name_H-M "C 2/M"
_symmetry_group_IT_number 12
_symmetry_cell_setting 'monoclinic'
loop_
_space_group_symop_operation_xyz
x,y,z
-x,y,-z
-x,-y,-z
x,-y,z
1/2+x,1/2+y,z
1/2-x,1/2+y,-z
1/2-x,1/2-y,-z
1/2+x,1/2-y,z
loop_
_atom_site_type_symbol
_atom_site_label
_atom_site_fract_x
_atom_site_fract_y
_atom_site_fract_z
Si Si1 0.286070 0.676626 0.977659
Si Si2 0.156148 0.177774 0.741846
Si Si3 0.279742 0.793191 0.290077
Si Si4 0.962481 0.939557 0.348334
Si Si5 0.857725 0.559802 0.089623
Si Si6 0.389447 0.088348 0.360710
O O1 0.174005 0.705955 0.848553
O O2 0.277510 0.612015 0.944595
O O3 0.500000 0.696191 0.000000
O O4 0.230666 0.681263 0.109785
O O5 0.206549 0.229906 0.665138
O O6 0.935427 0.188507 0.729889
O O7 0.160353 0.115111 0.697092
O O8 0.395970 0.844728 0.361863
O O9 0.170695 0.930064 0.328379
O O10 0.000000 0.941040 0.500000
O O11 0.890150 0.000000 0.295666
O O12 0.764695 0.500000 0.068011
O O13 0.955263 0.566324 0.240082
O O14 0.000000 0.563468 0.000000
O O15 0.500000 0.068129 0.500000
#
# Coordination Sequence:
#
# PCOD9199093 Si02
#       6
#     8   8   8   8   8   8
#     4   9  19  35  55  83 118 156 199 245 300 360
#     4  10  20  36  59  85 118 158 195 243 304 361
#     4   9  20  36  56  87 120 152 197 247 297 360
#     4  10  23  41  60  87 120 156 205 254 296 355
#     4  10  22  38  57  88 125 160 205 255 301 357
#     4  10  22  41  63  88 121 163 204 248 306 363
#
# _framework density 25.652988000000001
#
# number of rings (size 3 to 8) (size 9 to 14) (size 15 to 20)
#    0.000    2.333    0.000    2.000    0.000    8.333 
#    0.000    7.500    0.000    0.000    0.000    0.000 
#    0.000    0.000    0.000    0.000    0.000    0.000 
#
# Total GULP energy -134161.988452 kJ/mol
# GULP energy per Si atom -5590.082852 kJ/mol
# Density = 2.559460 g / cm^3
# Si number density = 25.652988 Si / 1000 Ang^3
#
#
#
# Elastic Constant Matrix: (Units=GPa)
#
#
# Indices 1 2 3 4 5 6 
#
# 1 60.1187 19.5098 16.8706 0.0000 -11.8355 0.0000
# 2 19.5098 239.2651 22.2342 0.0000 -1.4709 0.0000
# 3 16.8706 22.2342 96.0218 0.0000 -16.2449 0.0000
# 4 0.0000 0.0000 0.0000 70.0871 0.0000 -25.3999
# 5 -11.8355 -1.4709 -16.2449 0.0000 20.3061 0.0000
# 6 0.0000 0.0000 0.0000 -25.3999 0.0000 39.1830
#
#
#
# Elastic Compliance Matrix: (Units=1/GPa)
#
#
# Indices 1 2 3 4 5 6 
#
# 1 0.019472 -0.001397 -0.001382 0.000000 0.010143 0.000000
# 2 -0.001397 0.004377 -0.000986 0.000000 -0.001286 0.000000
# 3 -0.001382 -0.000986 0.012418 0.000000 0.009057 0.000000
# 4 0.000000 0.000000 0.000000 0.018649 0.000000 0.012089
# 5 0.010143 -0.001286 0.009057 0.000000 0.062310 0.000000
# 6 0.000000 0.000000 0.000000 0.012089 0.000000 0.033358
#
#
# Mechanical properties :
#
#
# Convention : Reuss Voigt Hill
#
# Bulk Modulus (GPa) = 34.79748 56.95942 45.87845
# Shear Modulus (GPa) = 29.81667 48.36799 39.09233
#
# Velocity S-wave (km/s) = 3.41296 4.34691 3.90794
# Velocity P-wave (km/s) = 5.39678 6.88812 6.18755
#
# Compressibility (1/GPa) = 0.02873771
#
# Stress axis : x y z
#
# Youngs Moduli (GPa) = 51.35693 228.46396 80.53103
#
# Poissons Ratio (x) = 0.31916 0.11127
# Poissons Ratio (y) = 0.07174 0.07937
# Poissons Ratio (z) = 0.07096 0.22517
#
# Static dielectric constant tensor:
#      x y z
#    x 2.065880 0.000000 -0.022330 
#    y 0.000000 2.044350 0.000000 
#    z -0.022330 0.000000 2.020210 
# 
# From -- ./inp_files/122549.got.cif
#   From: 2010.05.17/outbox.cif.g08.bks.cpg/sg12_62_cif.got.tgz:122549.got - 2010.06.03 13:09:07.
