data_PCOD9199357
_publ_section_title
;
Structure prediction by ZEFSAII (Michael W. Deem and Ramdas Pophale) SiO2 
 PCOD9199357
Probable space group: C 2/M
;
_chemical_formula_sum "Si O2"
_cell_formula_units_Z 60
_cell_length_a 18.385910
_cell_length_b 12.479961
_cell_length_c 21.487684
_cell_angle_alpha 90.000000
_cell_angle_beta 44.427553
_cell_angle_gamma 90.000000
_cell_volume 3451.359925
_symmetry_space_group_name_H-M "C 2/M"
_symmetry_group_IT_number 12
_symmetry_cell_setting 'monoclinic'
loop_
_space_group_symop_operation_xyz
x,y,z
-x,y,-z
-x,-y,-z
x,-y,z
1/2+x,1/2+y,z
1/2-x,1/2+y,-z
1/2-x,1/2-y,-z
1/2+x,1/2-y,z
loop_
_atom_site_type_symbol
_atom_site_label
_atom_site_fract_x
_atom_site_fract_y
_atom_site_fract_z
Si Si1 0.922906 0.757462 0.387335
Si Si2 0.233411 0.625870 0.434875
Si Si3 0.561127 0.622564 0.397648
Si Si4 0.754652 0.219593 0.287676
Si Si5 0.549649 0.125462 0.837889
Si Si6 0.079741 0.626916 0.204113
Si Si7 0.699444 0.374172 0.874129
Si Si8 0.000000 0.725093 0.000000
O O1 0.866037 0.677522 0.470289
O O2 0.833379 0.813847 0.401992
O O3 0.983646 0.845793 0.389933
O O4 0.003047 0.693551 0.295161
O O5 0.238343 0.500000 0.444322
O O6 0.233286 0.649616 0.361644
O O7 0.500000 0.634004 0.500000
O O8 0.596351 0.500000 0.370628
O O9 0.657109 0.702813 0.337222
O O10 0.854805 0.295918 0.236503
O O11 0.772107 0.149665 0.215259
O O12 0.458134 0.143870 0.843545
O O13 0.579544 0.000000 0.815326
O O14 0.516919 0.154696 0.927973
O O15 0.067801 0.500000 0.224986
O O16 0.199172 0.653990 0.146630
O O17 0.676280 0.500000 0.896720
O O18 0.600317 0.300624 0.948835
#
# Coordination Sequence:
#
# PCOD9199357 Si02
#       8
#     8   8   8   8   8   8   8   4
#     4  11  21  39  55  80 117 153 195 238 278 325
#     4  11  23  36  55  82 115 156 196 234 279 326
#     4  11  22  36  55  80 113 155 197 239 283 325
#     4  11  20  37  56  83 114 148 187 239 276 334
#     4  10  21  38  60  84 110 145 185 232 285 342
#     4  10  20  36  60  85 114 150 189 231 281 335
#     4  10  21  37  60  85 113 147 183 227 287 345
#     4  10  22  38  62  86 114 144 180 232 284 348
#
# _framework density 17.384453000000001
#
# number of rings (size 3 to 8) (size 9 to 14) (size 15 to 20)
#    0.000    1.467    4.000    2.000    0.000    0.533 
#    0.000    0.667    0.000    0.000    0.000    0.000 
#    0.000    0.000    0.000    0.000    0.000    0.000 
#
# Total GULP energy -167502.011454 kJ/mol
# GULP energy per Si atom -5583.400382 kJ/mol
# Density = 1.734488 g / cm^3
# Si number density = 17.384453 Si / 1000 Ang^3
#
#
#
# Elastic Constant Matrix: (Units=GPa)
#
#
# Indices 1 2 3 4 5 6 
#
# 1 70.9600 -0.9932 1.9373 0.0000 -3.3804 0.0000
# 2 -0.9932 46.5315 4.1978 0.0000 -2.5772 0.0000
# 3 1.9373 4.1978 39.9753 0.0000 1.5562 0.0000
# 4 0.0000 0.0000 0.0000 9.9771 0.0000 -0.5439
# 5 -3.3804 -2.5772 1.5562 0.0000 25.6222 0.0000
# 6 0.0000 0.0000 0.0000 -0.5439 0.0000 22.2891
#
#
#
# Elastic Compliance Matrix: (Units=1/GPa)
#
#
# Indices 1 2 3 4 5 6 
#
# 1 0.014216 0.000486 -0.000817 0.000000 0.001974 0.000000
# 2 0.000486 0.021852 -0.002412 0.000000 0.002409 0.000000
# 3 -0.000817 -0.002412 0.025382 0.000000 -0.001892 0.000000
# 4 0.000000 0.000000 0.000000 0.100363 0.000000 0.002449
# 5 0.001974 0.002409 -0.001892 0.000000 0.039646 0.000000
# 6 0.000000 0.000000 0.000000 0.002449 0.000000 0.044925
#
#
# Mechanical properties :
#
#
# Convention : Reuss Voigt Hill
#
# Bulk Modulus (GPa) = 17.86836 18.63898 18.25367
# Shear Modulus (GPa) = 18.48263 21.73264 20.10764
#
# Velocity S-wave (km/s) = 3.26417 3.53954 3.40464
# Velocity P-wave (km/s) = 4.95046 5.23921 5.09688
#
# Compressibility (1/GPa) = 0.05596484
#
# Stress axis : x y z
#
# Youngs Moduli (GPa) = 70.34527 45.76195 39.39800
#
# Poissons Ratio (x) = -0.02226 0.03218
# Poissons Ratio (y) = -0.03422 0.09503
# Poissons Ratio (z) = 0.05746 0.11038
#
# Static dielectric constant tensor:
#      x y z
#    x 1.583150 0.000000 -0.000150 
#    y 0.000000 1.555430 0.000000 
#    z -0.000150 0.000000 1.560710 
# 
# From -- ./inp_files/315943.got.cif
#   From: 2010.05.17/outbox.cif.g08.bks.cpg/sg12_158_cif.got.tgz:315943.got - 2010.06.03 13:09:07.
