data_PCOD9199783
_publ_section_title
;
Structure prediction by ZEFSAII (Michael W. Deem and Ramdas Pophale) SiO2 
 PCOD9199783
Probable space group: C 2/M
;
_chemical_formula_sum "Si O2"
_cell_formula_units_Z 40
_cell_length_a 8.286916
_cell_length_b 30.148263
_cell_length_c 11.533332
_cell_angle_alpha 90.000000
_cell_angle_beta 44.067069
_cell_angle_gamma 90.000000
_cell_volume 2004.043387
_symmetry_space_group_name_H-M "C 2/M"
_symmetry_group_IT_number 12
_symmetry_cell_setting 'monoclinic'
loop_
_space_group_symop_operation_xyz
x,y,z
-x,y,-z
-x,-y,-z
x,-y,z
1/2+x,1/2+y,z
1/2-x,1/2+y,-z
1/2-x,1/2-y,-z
1/2+x,1/2-y,z
loop_
_atom_site_type_symbol
_atom_site_label
_atom_site_fract_x
_atom_site_fract_y
_atom_site_fract_z
Si Si1 0.011859 0.856344 0.683370
Si Si2 0.308917 0.699567 0.999997
Si Si3 0.499136 0.951473 0.196854
Si Si4 0.107150 0.048528 0.196857
Si Si5 0.878601 0.643656 0.316624
O O1 0.039209 0.907069 0.712803
O O2 0.814200 0.857079 0.685803
O O3 0.247711 0.840896 0.499996
O O4 0.913702 0.826079 0.835673
O O5 0.085051 0.673919 0.164317
O O6 0.500000 0.699166 0.000000
O O7 0.250000 0.750000 0.000000
O O8 0.290821 0.951889 0.209178
O O9 0.464815 0.907069 0.287193
O O10 0.496310 0.000000 0.256300
O O11 0.734208 0.947686 0.999998
O O12 0.991083 0.000000 0.256304
#
# Coordination Sequence:
#
# PCOD9199783 Si02
#       5
#     8   8   8   8   8
#     4  10  20  36  61  91 122 154 192 239 288 341
#     4  12  26  44  65  84 111 149 190 243 297 354
#     4   8  13  24  48  83 121 157 192 232 276 325
#     4   8  13  24  48  83 121 157 192 232 276 325
#     4  10  20  36  61  91 122 154 192 239 288 341
#
# _framework density 19.959648000000001
#
# number of rings (size 3 to 8) (size 9 to 14) (size 15 to 20)
#    0.000    2.400    2.000    3.000    0.000    2.400 
#    0.000    4.000    0.000    2.400    0.000    2.800 
#    0.000    0.000    0.000    0.000    0.000    0.000 
#
# Total GULP energy -111592.221954 kJ/mol
# GULP energy per Si atom -5579.611098 kJ/mol
# Density = 1.991422 g / cm^3
# Si number density = 19.959648 Si / 1000 Ang^3
#
#
#
# Elastic Constant Matrix: (Units=GPa)
#
#
# Indices 1 2 3 4 5 6 
#
# 1 27.7457 25.1099 33.0865 0.0000 0.2403 0.0000
# 2 25.1099 165.5141 106.3585 0.0000 0.9584 0.0000
# 3 33.0865 106.3585 170.7806 0.0000 1.4463 0.0000
# 4 0.0000 0.0000 0.0000 -4.8560 0.0000 -0.2341
# 5 0.2403 0.9584 1.4463 0.0000 7.4660 0.0000
# 6 0.0000 0.0000 0.0000 -0.2341 0.0000 15.2777
#
#
#
# Elastic Compliance Matrix: (Units=1/GPa)
#
#
# Indices 1 2 3 4 5 6 
#
# 1 0.047324 -0.002147 -0.007833 0.000000 0.000270 0.000000
# 2 -0.002147 0.010170 -0.005917 0.000000 -0.000090 0.000000
# 3 -0.007833 -0.005917 0.011068 0.000000 -0.001132 0.000000
# 4 0.000000 0.000000 0.000000 -0.205779 0.000000 -0.003153
# 5 0.000270 -0.000090 -0.001132 0.000000 0.134162 0.000000
# 6 0.000000 0.000000 0.000000 -0.003153 0.000000 0.065407
#
#
# Mechanical properties :
#
#
# Convention : Reuss Voigt Hill
#
# Bulk Modulus (GPa) = 27.19879 77.01668 52.10774
# Shear Modulus (GPa) = 46.99115 16.87657 31.93386
#
# Velocity S-wave (km/s) = 4.85738 2.91096 4.00424
# Velocity P-wave (km/s) = 6.71680 7.06882 6.89506
#
# Compressibility (1/GPa) = 0.03676634
#
# Stress axis : x y z
#
# Youngs Moduli (GPa) = 21.13102 98.32473 90.35281
#
# Poissons Ratio (x) = 0.21113 0.70777
# Poissons Ratio (y) = 0.04537 0.53463
# Poissons Ratio (z) = 0.16553 0.58180
#
# Static dielectric constant tensor:
#      x y z
#    x 1.709540 0.000000 0.000010 
#    y 0.000000 1.648400 0.000000 
#    z 0.000010 0.000000 1.710530 
# 
# From -- ./inp_files/124979.got.cif
#   From: 2010.05.17/outbox.cif.g08.bks.cpg/sg12_63_cif.got.tgz:124979.got - 2010.06.03 13:09:07.
