data_PCOD9199862
_publ_section_title
;
Structure prediction by ZEFSAII (Michael W. Deem and Ramdas Pophale) SiO2 
 PCOD9199862
Probable space group: C 2/M
;
_chemical_formula_sum "Si O2"
_cell_formula_units_Z 60
_cell_length_a 21.324471
_cell_length_b 15.185226
_cell_length_c 12.416726
_cell_angle_alpha 90.000000
_cell_angle_beta 42.497436
_cell_angle_gamma 90.000000
_cell_volume 2716.243872
_symmetry_space_group_name_H-M "C 2/M"
_symmetry_group_IT_number 12
_symmetry_cell_setting 'monoclinic'
loop_
_space_group_symop_operation_xyz
x,y,z
-x,y,-z
-x,-y,-z
x,-y,z
1/2+x,1/2+y,z
1/2-x,1/2+y,-z
1/2-x,1/2-y,-z
1/2+x,1/2-y,z
loop_
_atom_site_type_symbol
_atom_site_label
_atom_site_fract_x
_atom_site_fract_y
_atom_site_fract_z
Si Si1 0.716008 0.669641 0.912007
Si Si2 0.279892 0.634163 0.854842
Si Si3 0.784105 0.338279 0.595284
Si Si4 0.518006 0.103664 0.594675
Si Si5 0.924219 0.402322 0.926349
Si Si6 0.638430 0.500000 0.397588
Si Si7 0.171598 0.150397 0.534511
Si Si8 0.008688 0.218989 0.111331
O O1 0.776392 0.760009 0.847193
O O2 0.745086 0.631006 0.759918
O O3 0.726500 0.616799 0.009213
O O4 0.607091 0.692361 0.038503
O O5 0.360385 0.578161 0.698431
O O6 0.185551 0.602517 0.913929
O O7 0.892538 0.356389 0.463242
O O8 0.774755 0.232603 0.590065
O O9 0.735206 0.380287 0.554001
O O10 0.500000 0.142543 0.500000
O O11 0.435156 0.112660 0.783812
O O12 0.536485 0.000000 0.557642
O O13 0.958751 0.500000 0.908107
O O14 0.982531 0.324835 0.904581
O O15 0.648338 0.576859 0.478030
O O16 0.077579 0.186811 0.709271
O O17 0.000000 0.185300 0.000000
#
# Coordination Sequence:
#
# PCOD9199862 Si02
#       8
#     8   8   8   8   8   4   8   8
#     4  10  21  40  70  94 128 180 234 276 331 409
#     4  10  21  40  66  99 132 174 223 280 344 402
#     4  11  21  41  66  99 134 181 227 271 342 411
#     4  10  21  36  58  95 136 168 209 270 339 408
#     4  10  20  36  61  98 137 170 211 273 351 408
#     4  12  24  46  70  97 137 176 228 299 334 400
#     4  11  25  42  67  98 136 181 229 282 340 406
#     4  11  22  43  65  94 134 180 232 281 335 411
#
# _framework density 22.089327999999998
#
# number of rings (size 3 to 8) (size 9 to 14) (size 15 to 20)
#    0.000    1.467    4.667    0.800    0.933    0.267 
#    1.200    2.333    0.000    0.000    0.000    0.000 
#    0.000    0.000    0.000    0.000    0.000    0.000 
#
# Total GULP energy -167018.081157 kJ/mol
# GULP energy per Si atom -5567.269372 kJ/mol
# Density = 2.203905 g / cm^3
# Si number density = 22.089328 Si / 1000 Ang^3
#
#
#
# Elastic Constant Matrix: (Units=GPa)
#
#
# Indices 1 2 3 4 5 6 
#
# 1 77.9368 14.9995 32.1710 0.0000 15.4522 0.0000
# 2 14.9995 50.1525 9.1592 0.0000 11.5293 0.0000
# 3 32.1710 9.1592 69.4681 0.0000 26.5051 0.0000
# 4 0.0000 0.0000 0.0000 8.6710 0.0000 14.7461
# 5 15.4522 11.5293 26.5051 0.0000 43.0921 0.0000
# 6 0.0000 0.0000 0.0000 14.7461 0.0000 23.7928
#
#
#
# Elastic Compliance Matrix: (Units=1/GPa)
#
#
# Indices 1 2 3 4 5 6 
#
# 1 0.016499 -0.003506 -0.006898 0.000000 -0.000736 0.000000
# 2 -0.003506 0.022027 0.000638 0.000000 -0.005029 0.000000
# 3 -0.006898 0.000638 0.021725 0.000000 -0.011060 0.000000
# 4 0.000000 0.000000 0.000000 -2.135772 0.000000 1.323689
# 5 -0.000736 -0.005029 -0.011060 0.000000 0.031618 0.000000
# 6 0.000000 0.000000 0.000000 1.323689 0.000000 -0.778354
#
#
# Mechanical properties :
#
#
# Convention : Reuss Voigt Hill
#
# Bulk Modulus (GPa) = 24.55787 34.46854 29.51321
# Shear Modulus (GPa) = -1.79266 24.52635 11.36685
#
# Velocity S-wave (km/s) = -0.90184 3.33577 2.27091
# Velocity P-wave (km/s) = 3.17132 5.52037 4.50176
#
# Compressibility (1/GPa) = 0.04072014
#
# Stress axis : x y z
#
# Youngs Moduli (GPa) = 60.61083 45.39853 46.02947
#
# Poissons Ratio (x) = 0.15915 0.31750
# Poissons Ratio (y) = 0.21248 -0.02936
# Poissons Ratio (z) = 0.41808 -0.02896
#
# Static dielectric constant tensor:
#      x y z
#    x 1.817620 0.000000 -0.003240 
#    y 0.000000 1.807930 0.000000 
#    z -0.003240 0.000000 1.852450 
# 
# From -- ./inp_files/177357.got.cif
#   From: 2010.05.17/outbox.cif.g08.bks.cpg/sg12_89_cif.got.tgz:177357.got - 2010.06.03 13:09:07.
