data_PCOD9199773
_publ_section_title
;
Structure prediction by ZEFSAII (Michael W. Deem and Ramdas Pophale) SiO2 
 PCOD9199773
Probable space group: C 2/M
;
_chemical_formula_sum "Si O2"
_cell_formula_units_Z 64
_cell_length_a 16.476546
_cell_length_b 23.165759
_cell_length_c 19.310304
_cell_angle_alpha 90.000000
_cell_angle_beta 21.796615
_cell_angle_gamma 90.000000
_cell_volume 2736.793009
_symmetry_space_group_name_H-M "C 2/M"
_symmetry_group_IT_number 12
_symmetry_cell_setting 'monoclinic'
loop_
_space_group_symop_operation_xyz
x,y,z
-x,y,-z
-x,-y,-z
x,-y,z
1/2+x,1/2+y,z
1/2-x,1/2+y,-z
1/2-x,1/2-y,-z
1/2+x,1/2-y,z
loop_
_atom_site_type_symbol
_atom_site_label
_atom_site_fract_x
_atom_site_fract_y
_atom_site_fract_z
Si Si1 0.980461 0.336902 0.371020
Si Si2 0.007842 0.822887 0.705260
Si Si3 0.851962 0.128005 0.970523
Si Si4 0.150335 0.934926 0.239349
Si Si5 0.980230 0.437374 0.852520
Si Si6 0.297723 0.933961 0.608025
Si Si7 0.268666 0.749469 0.187825
Si Si8 0.756970 0.856589 0.705572
O O1 0.079972 0.296919 0.353204
O O2 0.763811 0.308881 0.509553
O O3 0.892039 0.397568 0.469137
O O4 0.187570 0.343948 0.155906
O O5 0.905567 0.829482 0.863267
O O6 0.999423 0.886946 0.677874
O O7 0.851418 0.783898 0.780639
O O8 0.086116 0.100547 0.804728
O O9 0.706544 0.075983 0.054339
O O10 0.218986 0.908275 0.258151
O O11 0.066410 0.000000 0.311982
O O12 0.356804 0.936945 0.024228
O O13 0.081926 0.500000 0.761292
O O14 0.143968 0.383844 0.728559
O O15 0.500000 0.935884 0.500000
O O16 0.235820 0.000000 0.639329
O O17 0.344048 0.799980 0.181139
O O18 0.500000 0.716921 0.000000
O O19 0.000000 0.836541 0.500000
#
# Coordination Sequence:
#
# PCOD9199773 Si02
#       8
#     8   8   8   8   8   8   8   8
#     4  11  25  42  71  99 129 169 224 269 327 398
#     4   9  21  43  62  94 138 173 215 275 334 382
#     4  10  22  40  67  99 133 166 218 263 326 404
#     4   9  18  35  60  86 125 173 215 259 319 386
#     4  10  20  36  61  90 129 172 210 259 320 390
#     4  10  24  46  70  97 134 167 203 271 341 398
#     4  11  24  44  65  89 126 175 226 277 325 383
#     4  11  23  37  55  89 129 169 219 268 316 373
#
# _framework density 23.385034999999998
#
# number of rings (size 3 to 8) (size 9 to 14) (size 15 to 20)
#    0.000    1.875    0.000    3.750    5.250    7.000 
#    2.250    1.250    0.000    0.000    0.000    0.000 
#    0.000    0.000    0.000    0.000    0.000    0.000 
#
# Total GULP energy -178560.727633 kJ/mol
# GULP energy per Si atom -5580.022739 kJ/mol
# Density = 2.333181 g / cm^3
# Si number density = 23.385035 Si / 1000 Ang^3
#
#
#
# Elastic Constant Matrix: (Units=GPa)
#
#
# Indices 1 2 3 4 5 6 
#
# 1 58.6121 20.6724 42.9127 0.1218 -20.8283 0.0480
# 2 20.6724 92.0894 36.6203 -0.1623 -6.3427 0.0421
# 3 42.9127 36.6203 136.2754 -1.2476 -21.1384 -0.4521
# 4 0.1218 -0.1623 -1.2476 -125.0022 0.0099 -49.5114
# 5 -20.8283 -6.3427 -21.1384 0.0099 48.4131 0.0283
# 6 0.0480 0.0421 -0.4521 -49.5114 0.0283 -13.4512
#
#
#
# Elastic Compliance Matrix: (Units=1/GPa)
#
#
# Indices 1 2 3 4 5 6 
#
# 1 0.025201 -0.002738 -0.005978 0.000065 0.007873 0.000058
# 2 -0.002738 0.012457 -0.002590 0.000084 -0.000677 -0.000195
# 3 -0.005978 -0.002590 0.010152 -0.000091 0.001521 -0.000031
# 4 0.000065 0.000084 -0.000091 0.017471 0.000033 -0.064305
# 5 0.007873 -0.000677 0.001521 0.000033 0.024618 -0.000096
# 6 0.000058 -0.000195 -0.000031 -0.064305 -0.000096 0.162354
#
#
# Mechanical properties :
#
#
# Convention : Reuss Voigt Hill
#
# Bulk Modulus (GPa) = 39.68541 54.15420 46.91981
# Shear Modulus (GPa) = 17.65125 -5.55662 6.04732
#
# Velocity S-wave (km/s) = 2.75036 -1.54315 1.60984
# Velocity P-wave (km/s) = 5.20512 4.47581 4.85418
#
# Compressibility (1/GPa) = 0.02519818
#
# Stress axis : x y z
#
# Youngs Moduli (GPa) = 39.68038 80.27453 98.50580
#
# Poissons Ratio (x) = 0.21976 0.58888
# Poissons Ratio (y) = 0.10863 0.25516
# Poissons Ratio (z) = 0.23721 0.20794
#
# Static dielectric constant tensor:
#      x y z
#    x 1.963890 -0.000070 0.038550 
#    y -0.000070 1.945760 -0.000340 
#    z 0.038550 -0.000340 1.992000 
# 
# From -- ./inp_files/318357.got.cif
#   From: 2010.05.17/outbox.cif.g08.bks.cpg/sg12_160_cif.got.tgz:318357.got - 2010.06.03 13:09:07.
