data_PCOD9199346
_publ_section_title
;
Structure prediction by ZEFSAII (Michael W. Deem and Ramdas Pophale) SiO2 
 PCOD9199346
Probable space group: C 2/M
;
_chemical_formula_sum "Si O2"
_cell_formula_units_Z 56
_cell_length_a 15.524638
_cell_length_b 12.583835
_cell_length_c 13.478310
_cell_angle_alpha 90.000000
_cell_angle_beta 54.721792
_cell_angle_gamma 90.000000
_cell_volume 2149.563241
_symmetry_space_group_name_H-M "C 2/M"
_symmetry_group_IT_number 12
_symmetry_cell_setting 'monoclinic'
loop_
_space_group_symop_operation_xyz
x,y,z
-x,y,-z
-x,-y,-z
x,-y,z
1/2+x,1/2+y,z
1/2-x,1/2+y,-z
1/2-x,1/2-y,-z
1/2+x,1/2-y,z
loop_
_atom_site_type_symbol
_atom_site_label
_atom_site_fract_x
_atom_site_fract_y
_atom_site_fract_z
Si Si1 0.483148 0.169194 0.398861
Si Si2 0.236496 0.676344 0.396699
Si Si3 0.279018 0.126432 0.265017
Si Si4 0.030003 0.121670 0.692067
Si Si5 0.008513 0.265265 0.101984
Si Si6 0.205472 0.380610 0.186959
Si Si7 0.728281 0.127505 0.955856
O O1 0.500000 0.135147 0.500000
O O2 0.360505 0.140407 0.469688
O O3 0.493885 0.295891 0.379279
O O4 0.423041 0.124325 0.730158
O O5 0.225350 0.803572 0.386570
O O6 0.346543 0.633632 0.362791
O O7 0.231388 0.646420 0.283474
O O8 0.399504 0.170657 0.190951
O O9 0.273434 0.000000 0.281499
O O10 0.234486 0.154004 0.182821
O O11 0.975361 0.177259 0.823970
O O12 0.001167 0.000000 0.695391
O O13 0.103236 0.348303 0.032755
O O14 0.000000 0.211274 0.000000
O O15 0.241858 0.500000 0.155943
O O16 0.252674 0.331632 0.053834
O O17 0.745535 0.000000 0.947677
#
# Coordination Sequence:
#
# PCOD9199346 Si02
#       7
#     8   8   8   8   8   8   8
#     4  10  22  40  59  81 107 144 194 236 274 322
#     4  10  22  37  55  82 116 147 182 228 277 340
#     4   9  18  32  53  83 115 148 182 226 278 328
#     4  11  22  37  56  80 113 149 184 226 281 337
#     4   9  17  32  55  82 113 144 180 232 275 326
#     4  10  20  36  60  85 110 145 188 234 279 324
#     4   9  16  30  56  84 110 142 185 231 278 323
#
# _framework density 26.051803
#
# number of rings (size 3 to 8) (size 9 to 14) (size 15 to 20)
#    0.000    2.286    1.429    1.286    0.000    6.571 
#    0.000    2.143    0.000    0.000    0.000    0.000 
#    0.000    0.000    0.000    0.000    0.000    0.000 
#
# Total GULP energy -156340.702708 kJ/mol
# GULP energy per Si atom -5583.596525 kJ/mol
# Density = 2.599251 g / cm^3
# Si number density = 26.051803 Si / 1000 Ang^3
#
#
#
# Elastic Constant Matrix: (Units=GPa)
#
#
# Indices 1 2 3 4 5 6 
#
# 1 57.4297 -13.9452 21.6664 0.0000 -8.9340 0.0000
# 2 -13.9452 70.8012 -8.1373 0.0000 5.7339 0.0000
# 3 21.6664 -8.1373 107.0287 0.0000 -6.9517 0.0000
# 4 0.0000 0.0000 0.0000 2.9218 0.0000 33.1836
# 5 -8.9340 5.7339 -6.9517 0.0000 44.3125 0.0000
# 6 0.0000 0.0000 0.0000 33.1836 0.0000 -3.3243
#
#
#
# Elastic Compliance Matrix: (Units=1/GPa)
#
#
# Indices 1 2 3 4 5 6 
#
# 1 0.020047 0.003287 -0.003610 0.000000 0.003050 0.000000
# 2 0.003287 0.014914 0.000390 0.000000 -0.001206 0.000000
# 3 -0.003610 0.000390 0.010157 0.000000 0.000815 0.000000
# 4 0.000000 0.000000 0.000000 0.002993 0.000000 0.029872
# 5 0.003050 -0.001206 0.000815 0.000000 0.023466 0.000000
# 6 0.000000 0.000000 0.000000 0.029872 0.000000 -0.002630
#
#
# Mechanical properties :
#
#
# Convention : Reuss Voigt Hill
#
# Bulk Modulus (GPa) = 22.09898 26.04748 24.07323
# Shear Modulus (GPa) = 59.59720 24.49370 42.04545
#
# Velocity S-wave (km/s) = 4.78812 3.06958 4.02172
# Velocity P-wave (km/s) = 6.25054 4.75217 5.55213
#
# Compressibility (1/GPa) = 0.04525097
#
# Stress axis : x y z
#
# Youngs Moduli (GPa) = 49.88237 67.05148 98.45681
#
# Poissons Ratio (x) = -0.22037 0.35546
# Poissons Ratio (y) = -0.16394 -0.03842
# Poissons Ratio (z) = 0.18009 -0.02617
#
# Static dielectric constant tensor:
#      x y z
#    x 2.108340 0.000000 0.022740 
#    y 0.000000 2.074950 0.000000 
#    z 0.022740 0.000000 2.057110 
# 
# From -- ./inp_files/223153.got.cif
#   From: 2010.05.17/outbox.cif.g08.bks.cpg/sg12_112_cif.got.tgz:223153.got - 2010.06.03 13:09:07.
