data_PCOD9199921
_publ_section_title
;
Structure prediction by ZEFSAII (Michael W. Deem and Ramdas Pophale) SiO2 
 PCOD9199921
Probable space group: C 2/M
;
_chemical_formula_sum "Si O2"
_cell_formula_units_Z 56
_cell_length_a 23.878915
_cell_length_b 12.632251
_cell_length_c 9.973830
_cell_angle_alpha 90.000000
_cell_angle_beta 49.600565
_cell_angle_gamma 90.000000
_cell_volume 2291.145641
_symmetry_space_group_name_H-M "C 2/M"
_symmetry_group_IT_number 12
_symmetry_cell_setting 'monoclinic'
loop_
_space_group_symop_operation_xyz
x,y,z
-x,y,-z
-x,-y,-z
x,-y,z
1/2+x,1/2+y,z
1/2-x,1/2+y,-z
1/2-x,1/2-y,-z
1/2+x,1/2-y,z
loop_
_atom_site_type_symbol
_atom_site_label
_atom_site_fract_x
_atom_site_fract_y
_atom_site_fract_z
Si Si1 0.397227 0.837517 0.671709
Si Si2 0.901585 0.883607 0.776338
Si Si3 0.760510 0.875491 0.614340
Si Si4 0.258584 0.696758 0.129645
Si Si5 0.002008 0.383273 0.734527
Si Si6 0.874439 0.732857 0.290657
Si Si7 0.934338 0.883221 0.996714
O O1 0.403398 0.709178 0.666756
O O2 0.316368 0.869753 0.748746
O O3 0.422240 0.862231 0.786530
O O4 0.449731 0.880805 0.476198
O O5 0.901908 0.000000 0.716066
O O6 0.832044 0.869138 0.986192
O O7 0.962257 0.873561 0.799428
O O8 0.746203 0.792403 0.757308
O O9 0.834508 0.829457 0.430879
O O10 0.690320 0.854470 0.624913
O O11 0.765342 0.000000 0.640752
O O12 0.250000 0.750000 0.000000
O O13 0.997671 0.500000 0.801674
O O14 0.051413 0.312170 0.757342
O O15 0.892189 0.780905 0.117426
O O16 0.898673 0.000000 0.066940
O O17 0.000000 0.887210 0.000000
#
# Coordination Sequence:
#
# PCOD9199921 Si02
#       7
#     8   8   8   8   8   8   8
#     4  10  21  40  61  89 123 158 205 257 301 370
#     4  10  21  38  61  88 121 157 202 252 306 363
#     4  11  23  41  65  93 127 163 205 262 315 364
#     4  10  21  40  62  88 123 158 203 256 308 367
#     4  11  23  41  64  88 122 166 207 253 311 372
#     4  11  22  41  64  91 128 162 211 258 305 374
#     4  10  20  36  62  90 123 165 201 249 308 366
#
# _framework density 24.44192
#
# number of rings (size 3 to 8) (size 9 to 14) (size 15 to 20)
#    0.000    1.571    2.857    2.571    0.000    3.429 
#    0.000    6.429    0.000    1.714    0.000    0.000 
#    0.000    0.000    0.000    0.000    0.000    0.000 
#
# Total GULP energy -156027.634280 kJ/mol
# GULP energy per Si atom -5572.415510 kJ/mol
# Density = 2.438629 g / cm^3
# Si number density = 24.441920 Si / 1000 Ang^3
#
#
#
# Elastic Constant Matrix: (Units=GPa)
#
#
# Indices 1 2 3 4 5 6 
#
# 1 92.7802 43.0870 -3.7844 0.0000 0.2887 0.0000
# 2 43.0870 138.7847 -0.1754 0.0000 -6.8068 0.0000
# 3 -3.7844 -0.1754 28.6440 0.0000 2.8814 0.0000
# 4 0.0000 0.0000 0.0000 23.2731 0.0000 -2.0606
# 5 0.2887 -6.8068 2.8814 0.0000 28.6974 0.0000
# 6 0.0000 0.0000 0.0000 -2.0606 0.0000 28.1191
#
#
#
# Elastic Compliance Matrix: (Units=1/GPa)
#
#
# Indices 1 2 3 4 5 6 
#
# 1 0.012716 -0.004007 0.001782 0.000000 -0.001257 0.000000
# 2 -0.004007 0.008553 -0.000692 0.000000 0.002139 0.000000
# 3 0.001782 -0.000692 0.035520 0.000000 -0.003748 0.000000
# 4 0.000000 0.000000 0.000000 0.043249 0.000000 0.003169
# 5 -0.001257 0.002139 -0.003748 0.000000 0.035743 0.000000
# 6 0.000000 0.000000 0.000000 0.003169 0.000000 0.035795
#
#
# Mechanical properties :
#
#
# Convention : Reuss Voigt Hill
#
# Bulk Modulus (GPa) = 19.62555 37.60702 28.61628
# Shear Modulus (GPa) = 25.72089 30.75671 28.23880
#
# Velocity S-wave (km/s) = 3.24748 3.55118 3.40272
# Velocity P-wave (km/s) = 4.70195 5.67752 5.21261
#
# Compressibility (1/GPa) = 0.05095399
#
# Stress axis : x y z
#
# Youngs Moduli (GPa) = 78.64325 116.91174 28.15349
#
# Poissons Ratio (x) = 0.46848 -0.05017
# Poissons Ratio (y) = 0.31513 0.01949
# Poissons Ratio (z) = -0.14014 0.08092
#
# Static dielectric constant tensor:
#      x y z
#    x 0.822790 0.000000 0.198400 
#    y 0.000000 1.956420 0.000000 
#    z 0.198400 0.000000 1.975360 
# 
# From -- ./inp_files/182456.got.cif
#   From: 2010.05.17/outbox.cif.g08.bks.cpg/sg12_92_cif.got.tgz:182456.got - 2010.06.03 13:09:07.
