data_PCOD9199315
_publ_section_title
;
Structure prediction by ZEFSAII (Michael W. Deem and Ramdas Pophale) SiO2 
 PCOD9199315
Probable space group: C 2/M
;
_chemical_formula_sum "Si O2"
_cell_formula_units_Z 48
_cell_length_a 9.902050
_cell_length_b 22.582636
_cell_length_c 12.466452
_cell_angle_alpha 90.000000
_cell_angle_beta 113.342991
_cell_angle_gamma 90.000000
_cell_volume 2559.504756
_symmetry_space_group_name_H-M "C 2/M"
_symmetry_group_IT_number 12
_symmetry_cell_setting 'monoclinic'
loop_
_space_group_symop_operation_xyz
x,y,z
-x,y,-z
-x,-y,-z
x,-y,z
1/2+x,1/2+y,z
1/2-x,1/2+y,-z
1/2-x,1/2-y,-z
1/2+x,1/2-y,z
loop_
_atom_site_type_symbol
_atom_site_label
_atom_site_fract_x
_atom_site_fract_y
_atom_site_fract_z
Si Si1 0.378599 0.125189 0.157883
Si Si2 0.435840 0.000000 0.100391
Si Si3 0.164471 0.824717 0.254026
Si Si4 0.898392 0.000000 0.072133
Si Si5 0.320021 0.814860 0.751376
Si Si6 0.340942 0.690451 0.503882
Si Si7 0.357102 0.370634 0.109051
O O1 0.289749 0.135179 0.239508
O O2 0.506621 0.173378 0.186817
O O3 0.460960 0.061993 0.168344
O O4 0.254042 0.131857 0.026638
O O5 0.500000 0.000000 0.000000
O O6 0.262796 0.000000 0.027919
O O7 0.207946 0.755734 0.254273
O O8 0.142609 0.838159 0.373637
O O9 0.008176 0.834645 0.146884
O O10 0.909034 0.938799 0.139013
O O11 0.000000 0.000000 0.000000
O O12 0.256736 0.839775 0.619021
O O13 0.234638 0.846317 0.820217
O O14 0.500000 0.701816 0.500000
O O15 0.250000 0.750000 0.500000
#
# Coordination Sequence:
#
# PCOD9199315 Si02
#       7
#     8   4   8   4   8   8   8
#     4  11  23  36  60  90 117 157 194 242 297 345
#     4  10  20  40  60  81 116 158 210 235 271 350
#     4  11  23  37  59  87 123 153 192 242 294 353
#     4  10  20  36  60  81 110 158 204 235 271 344
#     4  11  23  37  59  87 121 155 193 238 296 349
#     4  10  22  40  62  83 114 161 207 236 277 351
#     4  11  21  38  58  86 121 153 195 239 292 350
#
# _framework density 18.753629
#
# number of rings (size 3 to 8) (size 9 to 14) (size 15 to 20)
#    0.000    1.333    1.667    6.000    7.000    4.000 
#    0.000    0.000    0.000    6.000    0.000    0.000 
#    0.000    0.000    0.000    0.000    0.000    0.000 
#
# Total GULP energy -133836.682362 kJ/mol
# GULP energy per Si atom -5576.528432 kJ/mol
# Density = 1.871095 g / cm^3
# Si number density = 18.753629 Si / 1000 Ang^3
#
#
#
# Elastic Constant Matrix: (Units=GPa)
#
#
# Indices 1 2 3 4 5 6 
#
# 1 125.5005 24.7883 31.3552 0.0000 -21.1503 0.0000
# 2 24.7883 63.0084 41.0604 0.0000 -12.7024 0.0000
# 3 31.3552 41.0604 81.9143 0.0000 -16.0354 0.0000
# 4 0.0000 0.0000 0.0000 10.4578 0.0000 12.2512
# 5 -21.1503 -12.7024 -16.0354 0.0000 36.3198 0.0000
# 6 0.0000 0.0000 0.0000 12.2512 0.0000 66.9833
#
#
#
# Elastic Compliance Matrix: (Units=1/GPa)
#
#
# Indices 1 2 3 4 5 6 
#
# 1 0.009475 -0.001579 -0.002040 0.000000 0.004065 0.000000
# 2 -0.001579 0.024203 -0.011002 0.000000 0.002688 0.000000
# 3 -0.002040 -0.011002 0.019175 0.000000 0.003430 0.000000
# 4 0.000000 0.000000 0.000000 0.121698 0.000000 -0.022258
# 5 0.004065 0.002688 0.003430 0.000000 0.032355 0.000000
# 6 0.000000 0.000000 0.000000 -0.022258 0.000000 0.019000
#
#
# Mechanical properties :
#
#
# Convention : Reuss Voigt Hill
#
# Bulk Modulus (GPa) = 42.35024 51.64789 46.99907
# Shear Modulus (GPa) = 19.01021 34.30013 26.65517
#
# Velocity S-wave (km/s) = 3.18729 4.28130 3.77415
# Velocity P-wave (km/s) = 6.01469 7.21384 6.64138
#
# Compressibility (1/GPa) = 0.02361262
#
# Stress axis : x y z
#
# Youngs Moduli (GPa) = 105.54633 41.31663 52.15188
#
# Poissons Ratio (x) = 0.06523 0.10637
# Poissons Ratio (y) = 0.16664 0.57375
# Poissons Ratio (z) = 0.21527 0.45455
#
# Static dielectric constant tensor:
#      x y z
#    x 1.635070 0.000000 0.002460 
#    y 0.000000 1.782570 0.000000 
#    z 0.002460 0.000000 1.674860 
# 
# From -- ./inp_files/122619.got.cif
#   From: 2010.05.17/outbox.cif.g08.bks.cpg/sg12_62_cif.got.tgz:122619.got - 2010.06.03 13:09:07.
