data_PCOD9199257
_publ_section_title
;
Structure prediction by ZEFSAII (Michael W. Deem and Ramdas Pophale) SiO2 
 PCOD9199257
Probable space group: C 2/M
;
_chemical_formula_sum "Si O2"
_cell_formula_units_Z 48
_cell_length_a 25.117801
_cell_length_b 7.798677
_cell_length_c 11.056892
_cell_angle_alpha 90.000000
_cell_angle_beta 107.711893
_cell_angle_gamma 90.000000
_cell_volume 2063.219540
_symmetry_space_group_name_H-M "C 2/M"
_symmetry_group_IT_number 12
_symmetry_cell_setting 'monoclinic'
loop_
_space_group_symop_operation_xyz
x,y,z
-x,y,-z
-x,-y,-z
x,-y,z
1/2+x,1/2+y,z
1/2-x,1/2+y,-z
1/2-x,1/2-y,-z
1/2+x,1/2-y,z
loop_
_atom_site_type_symbol
_atom_site_label
_atom_site_fract_x
_atom_site_fract_y
_atom_site_fract_z
Si Si1 0.670050 0.203086 0.757325
Si Si2 0.438237 0.696262 0.438719
Si Si3 0.172220 0.708067 0.024868
Si Si4 0.561131 0.207907 0.072776
Si Si5 0.730667 0.302882 0.313635
Si Si6 0.120472 0.298426 0.360638
O O1 0.604696 0.223388 0.686102
O O2 0.708283 0.273331 0.674224
O O3 0.681381 0.000000 0.767693
O O4 0.686794 0.271174 0.900961
O O5 0.500000 0.773968 0.500000
O O6 0.446380 0.500000 0.406588
O O7 0.404772 0.705973 0.541492
O O8 0.179319 0.500000 0.037239
O O9 0.106948 0.746380 0.003000
O O10 0.203527 0.789264 0.160288
O O11 0.586916 0.263501 0.218612
O O12 0.558151 0.000000 0.078359
O O13 0.500000 0.274272 0.000000
O O14 0.735459 0.500000 0.354978
O O15 0.686061 0.219777 0.372993
O O16 0.110036 0.500000 0.372661
#
# Coordination Sequence:
#
# PCOD9199257 Si02
#       6
#     8   8   8   8   8   8
#     4  10  22  38  60  88 116 158 205 240 284 345
#     4  11  26  44  60  83 118 155 192 241 299 352
#     4   9  18  33  55  86 121 153 194 240 284 346
#     4   8  15  28  51  83 111 141 184 235 283 326
#     4  10  20  36  59  89 124 154 189 242 299 348
#     4  10  21  38  62  86 113 153 198 243 289 342
#
# _framework density 23.264609
#
# number of rings (size 3 to 8) (size 9 to 14) (size 15 to 20)
#    0.000    2.333    0.000    3.000    2.333    4.000 
#    0.000    0.000    0.000    2.500    0.000    0.000 
#    0.000    0.000    0.000    0.000    0.000    0.000 
#
# Total GULP energy -134041.571969 kJ/mol
# GULP energy per Si atom -5585.065499 kJ/mol
# Density = 2.321166 g / cm^3
# Si number density = 23.264609 Si / 1000 Ang^3
#
#
#
# Elastic Constant Matrix: (Units=GPa)
#
#
# Indices 1 2 3 4 5 6 
#
# 1 117.3260 0.4772 31.0926 0.0000 16.7652 0.0000
# 2 0.4772 36.5478 -5.7550 0.0000 2.4665 0.0000
# 3 31.0926 -5.7550 77.1393 0.0000 -8.3161 0.0000
# 4 0.0000 0.0000 0.0000 19.0019 0.0000 1.5320
# 5 16.7652 2.4665 -8.3161 0.0000 35.8215 0.0000
# 6 0.0000 0.0000 0.0000 1.5320 0.0000 21.2225
#
#
#
# Elastic Compliance Matrix: (Units=1/GPa)
#
#
# Indices 1 2 3 4 5 6 
#
# 1 0.010739 -0.000517 -0.005031 0.000000 -0.006158 0.000000
# 2 -0.000517 0.027787 0.002155 0.000000 -0.001171 0.000000
# 3 -0.005031 0.002155 0.015785 0.000000 0.005871 0.000000
# 4 0.000000 0.000000 0.000000 0.052934 0.000000 -0.003821
# 5 -0.006158 -0.001171 0.005871 0.000000 0.032242 0.000000
# 6 0.000000 0.000000 0.000000 -0.003821 0.000000 0.047396
#
#
# Mechanical properties :
#
#
# Convention : Reuss Voigt Hill
#
# Bulk Modulus (GPa) = 21.04155 31.40475 26.22315
# Shear Modulus (GPa) = 23.86534 28.88907 26.37720
#
# Velocity S-wave (km/s) = 3.20632 3.52769 3.37083
# Velocity P-wave (km/s) = 4.77194 5.48826 5.14259
#
# Compressibility (1/GPa) = 0.04752502
#
# Stress axis : x y z
#
# Youngs Moduli (GPa) = 93.12232 35.98865 63.35113
#
# Poissons Ratio (x) = 0.01860 0.31871
# Poissons Ratio (y) = 0.04813 -0.13653
# Poissons Ratio (z) = 0.46848 -0.07756
#
# Static dielectric constant tensor:
#      x y z
#    x 1.908340 0.000000 0.020180 
#    y 0.000000 1.833890 0.000000 
#    z 0.020180 0.000000 1.882300 
# 
# From -- ./inp_files/173030.got.cif
#   From: 2010.05.17/outbox.cif.g08.bks.cpg/sg12_87_cif.got.tgz:173030.got - 2010.06.03 13:09:07.
