data_PCOD9199710
_publ_section_title
;
Structure prediction by ZEFSAII (Michael W. Deem and Ramdas Pophale) SiO2 
 PCOD9199710
Probable space group: C 2/M
;
_chemical_formula_sum "Si O2"
_cell_formula_units_Z 48
_cell_length_a 17.612431
_cell_length_b 31.038453
_cell_length_c 8.927776
_cell_angle_alpha 90.000000
_cell_angle_beta 148.222296
_cell_angle_gamma 90.000000
_cell_volume 2570.183633
_symmetry_space_group_name_H-M "C 2/M"
_symmetry_group_IT_number 12
_symmetry_cell_setting 'monoclinic'
loop_
_space_group_symop_operation_xyz
x,y,z
-x,y,-z
-x,-y,-z
x,-y,z
1/2+x,1/2+y,z
1/2-x,1/2+y,-z
1/2-x,1/2-y,-z
1/2+x,1/2-y,z
loop_
_atom_site_type_symbol
_atom_site_label
_atom_site_fract_x
_atom_site_fract_y
_atom_site_fract_z
Si Si1 0.453093 0.695206 0.250638
Si Si2 0.167814 0.588888 0.788918
Si Si3 0.602627 0.769375 0.311656
Si Si4 0.958564 0.898979 0.104775
Si Si5 0.858181 0.688282 0.331407
Si Si6 0.643775 0.548978 0.639180
O O1 0.500000 0.688471 0.500000
O O2 0.541376 0.730885 0.310627
O O3 0.461178 0.649341 0.177778
O O4 0.288309 0.710323 0.962114
O O5 0.152179 0.640390 0.752315
O O6 0.000000 0.572268 0.500000
O O7 0.299210 0.581357 0.885997
O O8 0.236929 0.572977 0.060611
O O9 0.750000 0.750000 0.500000
O O10 0.627699 0.809307 0.465753
O O11 0.500000 0.779345 0.000000
O O12 0.085892 0.925566 0.399154
O O13 0.000000 0.897860 0.000000
O O14 0.000000 0.708995 0.500000
O O15 0.500000 0.547255 0.500000
O O16 0.688603 0.500000 0.681148
#
# Coordination Sequence:
#
# PCOD9199710 Si02
#       6
#     8   8   8   8   8   8
#     4  11  23  39  60  80 112 156 199 237 284 346
#     4   9  19  38  59  86 116 153 195 236 286 349
#     4  12  25  40  56  84 118 150 194 245 295 335
#     4  10  20  36  61  88 117 152 194 242 287 341
#     4  10  22  39  58  81 113 151 198 236 282 345
#     4   9  18  36  62  90 118 153 195 234 282 353
#
# _framework density 18.675709000000001
#
# number of rings (size 3 to 8) (size 9 to 14) (size 15 to 20)
#    0.000    1.833    1.667    3.500    4.667    2.000 
#    0.000    0.833    0.000    1.000    0.000    0.000 
#    0.000    0.000    0.000    0.000    0.000    0.000 
#
# Total GULP energy -133709.932041 kJ/mol
# GULP energy per Si atom -5571.247168 kJ/mol
# Density = 1.863320 g / cm^3
# Si number density = 18.675709 Si / 1000 Ang^3
#
#
#
# Elastic Constant Matrix: (Units=GPa)
#
#
# Indices 1 2 3 4 5 6 
#
# 1 119.0737 32.4360 80.7135 0.0000 -5.5001 0.0000
# 2 32.4360 88.5802 43.8492 0.0000 -14.2583 0.0000
# 3 80.7135 43.8492 161.3263 0.0000 0.6786 0.0000
# 4 0.0000 0.0000 0.0000 21.1314 0.0000 1.3232
# 5 -5.5001 -14.2583 0.6786 0.0000 42.9303 0.0000
# 6 0.0000 0.0000 0.0000 1.3232 0.0000 8.5426
#
#
#
# Elastic Compliance Matrix: (Units=1/GPa)
#
#
# Indices 1 2 3 4 5 6 
#
# 1 0.013007 -0.001546 -0.006093 0.000000 0.001249 0.000000
# 2 -0.001546 0.014111 -0.003081 0.000000 0.004537 0.000000
# 3 -0.006093 -0.003081 0.010093 0.000000 -0.001963 0.000000
# 4 0.000000 0.000000 0.000000 0.047786 0.000000 -0.007402
# 5 0.001249 0.004537 -0.001963 0.000000 0.024992 0.000000
# 6 0.000000 0.000000 0.000000 -0.007402 0.000000 0.118207
#
#
# Mechanical properties :
#
#
# Convention : Reuss Voigt Hill
#
# Bulk Modulus (GPa) = 63.40652 75.88640 69.64646
# Shear Modulus (GPa) = 19.61621 28.65295 24.13458
#
# Velocity S-wave (km/s) = 3.24444 3.92118 3.59875
# Velocity P-wave (km/s) = 6.93255 7.82450 7.39199
#
# Compressibility (1/GPa) = 0.01577125
#
# Stress axis : x y z
#
# Youngs Moduli (GPa) = 76.88329 70.86792 99.08343
#
# Poissons Ratio (x) = 0.10954 0.60367
# Poissons Ratio (y) = 0.11884 0.30529
# Poissons Ratio (z) = 0.46841 0.21835
#
# Static dielectric constant tensor:
#      x y z
#    x 1.647640 0.000000 0.035930 
#    y 0.000000 1.658720 0.000000 
#    z 0.035930 0.000000 1.797960 
# 
# From -- ./inp_files/80840.got.cif
#   From: 2010.05.17/outbox.cif.g08.bks.cpg/sg12_41_cif.got.tgz:80840.got - 2010.06.03 13:09:07.
