data_PCOD9199548
_publ_section_title
;
Structure prediction by ZEFSAII (Michael W. Deem and Ramdas Pophale) SiO2 
 PCOD9199548
Probable space group: C 2/M
;
_chemical_formula_sum "Si O2"
_cell_formula_units_Z 56
_cell_length_a 28.144083
_cell_length_b 8.209210
_cell_length_c 18.167422
_cell_angle_alpha 90.000000
_cell_angle_beta 37.850249
_cell_angle_gamma 90.000000
_cell_volume 2575.532156
_symmetry_space_group_name_H-M "C 2/M"
_symmetry_group_IT_number 12
_symmetry_cell_setting 'monoclinic'
loop_
_space_group_symop_operation_xyz
x,y,z
-x,y,-z
-x,-y,-z
x,-y,z
1/2+x,1/2+y,z
1/2-x,1/2+y,-z
1/2-x,1/2-y,-z
1/2+x,1/2-y,z
loop_
_atom_site_type_symbol
_atom_site_label
_atom_site_fract_x
_atom_site_fract_y
_atom_site_fract_z
Si Si1 0.493893 0.190419 0.095312
Si Si2 0.834373 0.697030 0.099845
Si Si3 0.250905 0.194065 0.653988
Si Si4 0.409394 0.692310 0.435163
Si Si5 0.215759 0.194241 0.120308
Si Si6 0.649412 0.311426 0.648037
Si Si7 0.043222 0.691904 0.373274
O O1 0.425420 0.299750 0.208517
O O2 0.477452 0.000000 0.133481
O O3 0.500000 0.200529 0.000000
O O4 0.577010 0.238134 0.026513
O O5 0.831341 0.500000 0.109218
O O6 0.810280 0.767305 0.207944
O O7 0.773831 0.755172 0.112967
O O8 0.331545 0.277774 0.577259
O O9 0.217792 0.258368 0.615924
O O10 0.261637 0.000000 0.635579
O O11 0.425378 0.500000 0.409316
O O12 0.381653 0.762134 0.390220
O O13 0.482872 0.776285 0.381190
O O14 0.127606 0.241561 0.248178
O O15 0.219320 0.000000 0.116394
O O16 0.250000 0.250000 0.000000
O O17 0.668702 0.500000 0.610037
O O18 0.053515 0.500000 0.372396
O O19 0.000000 0.759340 0.500000
#
# Coordination Sequence:
#
# PCOD9199548 Si02
#       7
#     8   8   8   8   8   8   8
#     4  10  20  36  60  89 121 160 203 246 299 362
#     4  10  22  40  62  90 123 163 207 252 306 368
#     4  11  22  38  61  91 125 164 206 250 302 364
#     4  11  24  41  63  91 124 162 204 252 310 370
#     4  11  25  44  67  96 132 170 215 270 326 382
#     4  10  23  39  57  88 126 162 202 248 303 363
#     4  11  25  46  70  96 127 165 216 271 326 386
#
# _framework density 21.743079000000002
#
# number of rings (size 3 to 8) (size 9 to 14) (size 15 to 20)
#    0.000    1.429    1.429    3.000    2.000    7.143 
#    0.000    0.000    0.000    0.000    0.000    0.000 
#    0.000    0.000    0.000    0.000    0.000    0.000 
#
# Total GULP energy -156452.311992 kJ/mol
# GULP energy per Si atom -5587.582571 kJ/mol
# Density = 2.169359 g / cm^3
# Si number density = 21.743079 Si / 1000 Ang^3
#
#
#
# Elastic Constant Matrix: (Units=GPa)
#
#
# Indices 1 2 3 4 5 6 
#
# 1 143.2297 6.8173 46.6879 -0.0049 -17.3127 0.0040
# 2 6.8173 27.7990 17.1564 -0.0079 -0.5274 0.0158
# 3 46.6879 17.1564 88.1498 -0.0084 -12.3714 0.0054
# 4 -0.0049 -0.0079 -0.0084 32.2266 0.0059 4.2129
# 5 -17.3127 -0.5274 -12.3714 0.0059 41.8437 -0.0057
# 6 0.0040 0.0158 0.0054 4.2129 -0.0057 14.2711
#
#
#
# Elastic Compliance Matrix: (Units=1/GPa)
#
#
# Indices 1 2 3 4 5 6 
#
# 1 0.008659 0.000627 -0.004386 0.000000 0.002294 -0.000001
# 2 0.000627 0.041077 -0.008573 0.000014 -0.001758 -0.000047
# 3 -0.004386 -0.008573 0.015718 0.000000 0.002724 0.000006
# 4 0.000000 0.000014 0.000000 0.032276 -0.000006 -0.009528
# 5 0.002294 -0.001758 0.002724 -0.000006 0.025631 0.000012
# 6 -0.000001 -0.000047 0.000006 -0.009528 0.000012 0.072884
#
#
# Mechanical properties :
#
#
# Convention : Reuss Voigt Hill
#
# Bulk Modulus (GPa) = 24.51657 44.50016 34.50836
# Shear Modulus (GPa) = 21.32138 30.23609 25.77874
#
# Velocity S-wave (km/s) = 3.13486 3.73313 3.44700
# Velocity P-wave (km/s) = 4.93996 6.25240 5.63452
#
# Compressibility (1/GPa) = 0.04078874
#
# Stress axis : x y z
#
# Youngs Moduli (GPa) = 115.48715 24.34477 63.61940
#
# Poissons Ratio (x) = -0.01527 0.27905
# Poissons Ratio (y) = -0.07242 0.54544
# Poissons Ratio (z) = 0.50656 0.20872
#
# Static dielectric constant tensor:
#      x y z
#    x 1.817240 0.000000 0.025370 
#    y 0.000000 1.780280 0.000010 
#    z 0.025370 0.000010 1.813440 
# 
# From -- ./inp_files/292403.got.cif
#   From: 2010.05.17/outbox.cif.g08.bks.cpg/sg12_147_cif.got.tgz:292403.got - 2010.06.03 13:09:07.
