data_PCOD9199103
_publ_section_title
;
Structure prediction by ZEFSAII (Michael W. Deem and Ramdas Pophale) SiO2 
 PCOD9199103
Probable space group: C 2/M
;
_chemical_formula_sum "Si O2"
_cell_formula_units_Z 48
_cell_length_a 14.745398
_cell_length_b 8.357494
_cell_length_c 24.777561
_cell_angle_alpha 90.000000
_cell_angle_beta 40.793018
_cell_angle_gamma 90.000000
_cell_volume 1994.906900
_symmetry_space_group_name_H-M "C 2/M"
_symmetry_group_IT_number 12
_symmetry_cell_setting 'monoclinic'
loop_
_space_group_symop_operation_xyz
x,y,z
-x,y,-z
-x,-y,-z
x,-y,z
1/2+x,1/2+y,z
1/2-x,1/2+y,-z
1/2-x,1/2-y,-z
1/2+x,1/2-y,z
loop_
_atom_site_type_symbol
_atom_site_label
_atom_site_fract_x
_atom_site_fract_y
_atom_site_fract_z
Si Si1 0.293026 0.684015 0.121128
Si Si2 0.055612 0.314965 0.050681
Si Si3 0.450411 0.313332 0.830160
Si Si4 0.964178 0.193027 0.389096
Si Si5 0.210626 0.311378 0.430945
Si Si6 0.244948 0.185399 0.303901
O O1 0.299990 0.500000 0.134103
O O2 0.390345 0.786098 0.116963
O O3 0.137109 0.738713 0.179207
O O4 0.368568 0.710460 0.028867
O O5 0.086946 0.500000 0.026185
O O6 0.094797 0.265764 0.093030
O O7 0.420334 0.500000 0.844787
O O8 0.614597 0.284770 0.755082
O O9 0.888496 0.273866 0.474082
O O10 0.866321 0.226359 0.382184
O O11 0.125434 0.240904 0.316565
O O12 0.961929 0.000000 0.397509
O O13 0.201477 0.500000 0.421902
O O14 0.178397 0.206694 0.393344
O O15 0.280318 0.000000 0.277991
#
# Coordination Sequence:
#
# PCOD9199103 Si02
#       6
#     8   8   8   8   8   8
#     4  11  22  40  64  91 119 153 197 243 291 346
#     4  11  22  40  64  91 120 154 195 242 293 345
#     4  12  25  41  59  85 120 158 198 243 295 351
#     4   9  20  38  59  82 112 149 188 232 285 343
#     4  10  20  36  59  86 113 145 189 238 286 340
#     4  11  23  39  57  81 115 154 192 234 290 351
#
# _framework density 24.061274000000001
#
# number of rings (size 3 to 8) (size 9 to 14) (size 15 to 20)
#    0.000    1.333    0.000    7.500    0.000    5.333 
#    0.000    5.000    0.000    0.000    0.000    0.000 
#    0.000    0.000    0.000    0.000    0.000    0.000 
#
# Total GULP energy -134409.586935 kJ/mol
# GULP energy per Si atom -5600.399456 kJ/mol
# Density = 2.400651 g / cm^3
# Si number density = 24.061274 Si / 1000 Ang^3
#
#
#
# Elastic Constant Matrix: (Units=GPa)
#
#
# Indices 1 2 3 4 5 6 
#
# 1 93.0455 26.9441 20.4583 0.0000 -12.1109 -0.0001
# 2 26.9441 78.0720 -2.8139 0.0000 -13.2838 0.0001
# 3 20.4583 -2.8139 60.2003 0.0000 -22.9284 0.0000
# 4 0.0000 0.0000 0.0000 25.2965 0.0000 -1.0460
# 5 -12.1109 -13.2838 -22.9284 0.0000 43.5698 0.0001
# 6 -0.0001 0.0001 0.0000 -1.0460 0.0001 29.1865
#
#
#
# Elastic Compliance Matrix: (Units=1/GPa)
#
#
# Indices 1 2 3 4 5 6 
#
# 1 0.013143 -0.004767 -0.004817 0.000000 -0.000335 0.000000
# 2 -0.004767 0.015613 0.004575 0.000000 0.005843 0.000000
# 3 -0.004817 0.004575 0.023117 0.000000 0.012221 0.000000
# 4 0.000000 0.000000 0.000000 0.039590 0.000000 0.001419
# 5 -0.000335 0.005843 0.012221 0.000000 0.031071 0.000000
# 6 0.000000 0.000000 0.000000 0.001419 0.000000 0.034313
#
#
# Mechanical properties :
#
#
# Convention : Reuss Voigt Hill
#
# Bulk Modulus (GPa) = 23.89168 35.61053 29.75110
# Shear Modulus (GPa) = 27.65248 32.05918 29.85583
#
# Velocity S-wave (km/s) = 3.39374 3.65416 3.52636
# Velocity P-wave (km/s) = 5.03068 5.71279 5.38255
#
# Compressibility (1/GPa) = 0.04185558
#
# Stress axis : x y z
#
# Youngs Moduli (GPa) = 76.08461 64.05031 43.25902
#
# Poissons Ratio (x) = 0.30530 0.20837
# Poissons Ratio (y) = 0.36266 -0.19791
# Poissons Ratio (z) = 0.36649 -0.29303
#
# Static dielectric constant tensor:
#      x y z
#    x 1.916480 0.000000 -0.045120 
#    y 0.000000 1.811260 0.000000 
#    z -0.045120 0.000000 2.010110 
# 
# From -- ./inp_files/360220.got.cif
#   From: 2010.05.17/outbox.cif.g08.bks.cpg/sg12_181_cif.got.tgz:360220.got - 2010.06.03 13:09:07.
