data_PCOD9199169
_publ_section_title
;
Structure prediction by ZEFSAII (Michael W. Deem and Ramdas Pophale) SiO2 
 PCOD9199169
Probable space group: C 2/M
;
_chemical_formula_sum "Si O2"
_cell_formula_units_Z 64
_cell_length_a 23.299639
_cell_length_b 14.977228
_cell_length_c 16.758803
_cell_angle_alpha 90.000000
_cell_angle_beta 31.154990
_cell_angle_gamma 90.000000
_cell_volume 3025.604761
_symmetry_space_group_name_H-M "C 2/M"
_symmetry_group_IT_number 12
_symmetry_cell_setting 'monoclinic'
loop_
_space_group_symop_operation_xyz
x,y,z
-x,y,-z
-x,-y,-z
x,-y,z
1/2+x,1/2+y,z
1/2-x,1/2+y,-z
1/2-x,1/2-y,-z
1/2+x,1/2-y,z
loop_
_atom_site_type_symbol
_atom_site_label
_atom_site_fract_x
_atom_site_fract_y
_atom_site_fract_z
Si Si1 0.057180 0.897885 0.852228
Si Si2 0.776007 0.852369 0.641915
Si Si3 0.651903 0.198470 0.943387
Si Si4 0.668421 0.398520 0.950727
Si Si5 0.987918 0.101479 0.600682
Si Si6 0.713267 0.812760 0.470876
Si Si7 0.073605 0.397207 0.765404
Si Si8 0.267285 0.605054 0.945575
O O1 0.174243 0.860611 0.688321
O O2 0.966636 0.896630 0.889118
O O3 0.078544 0.000000 0.847788
O O4 0.000000 0.856970 0.000000
O O5 0.722033 0.854519 0.793684
O O6 0.892430 0.901979 0.501778
O O7 0.812823 0.753095 0.570555
O O8 0.680743 0.886787 0.695534
O O9 0.684504 0.165316 0.993074
O O10 0.686186 0.301932 0.889317
O O11 0.521895 0.171640 0.092220
O O12 0.694596 0.500000 0.887610
O O13 0.727399 0.390861 0.965581
O O14 0.000000 0.147294 0.500000
O O15 0.889275 0.137220 0.771793
O O16 0.951010 0.000000 0.628926
O O17 0.750000 0.750000 0.500000
O O18 0.617288 0.872715 0.624350
O O19 0.034398 0.500000 0.815607
O O20 0.246483 0.500000 0.951292
#
# Coordination Sequence:
#
# PCOD9199169 Si02
#       8
#     8   8   8   8   8   8   8   8
#     4  10  20  37  62  86 114 152 200 255 300 345
#     4  11  23  38  61  89 121 163 209 258 309 370
#     4  12  23  40  62  90 126 164 206 255 311 375
#     4  10  22  38  60  90 118 155 205 257 310 361
#     4  10  20  36  59  87 118 152 200 257 311 361
#     4  10  22  37  54  84 120 156 198 243 298 363
#     4  11  25  40  61  91 130 172 205 250 315 385
#     4  10  22  38  60  90 120 157 205 258 311 367
#
# _framework density 21.152795000000001
#
# number of rings (size 3 to 8) (size 9 to 14) (size 15 to 20)
#    0.000    1.500    1.250    4.125    5.250    2.000 
#    0.000    0.625    0.000    0.000    0.000    0.875 
#    0.000    0.500    0.000    0.000    0.000    0.000 
#
# Total GULP energy -178292.010763 kJ/mol
# GULP energy per Si atom -5571.625336 kJ/mol
# Density = 2.110465 g / cm^3
# Si number density = 21.152795 Si / 1000 Ang^3
#
#
#
# Elastic Constant Matrix: (Units=GPa)
#
#
# Indices 1 2 3 4 5 6 
#
# 1 68.2811 6.8129 -5.2648 0.0000 -8.3282 0.0000
# 2 6.8129 85.2899 6.0337 0.0000 4.3754 0.0000
# 3 -5.2648 6.0337 58.2194 0.0000 -0.6134 0.0000
# 4 0.0000 0.0000 0.0000 21.6022 0.0000 -5.7554
# 5 -8.3282 4.3754 -0.6134 0.0000 25.3118 0.0000
# 6 0.0000 0.0000 0.0000 -5.7554 0.0000 17.3027
#
#
#
# Elastic Compliance Matrix: (Units=1/GPa)
#
#
# Indices 1 2 3 4 5 6 
#
# 1 0.015601 -0.001642 0.001638 0.000000 0.005457 0.000000
# 2 -0.001642 0.012094 -0.001430 0.000000 -0.002665 0.000000
# 3 0.001638 -0.001430 0.017486 0.000000 0.001210 0.000000
# 4 0.000000 0.000000 0.000000 0.050793 0.000000 0.016895
# 5 0.005457 -0.002665 0.001210 0.000000 0.041793 0.000000
# 6 0.000000 0.000000 0.000000 0.016895 0.000000 0.063414
#
#
# Mechanical properties :
#
#
# Convention : Reuss Voigt Hill
#
# Bulk Modulus (GPa) = 23.63320 25.21709 24.42515
# Shear Modulus (GPa) = 22.91985 26.45726 24.68855
#
# Velocity S-wave (km/s) = 3.29528 3.54046 3.42007
# Velocity P-wave (km/s) = 5.06709 5.35354 5.21228
#
# Compressibility (1/GPa) = 0.04231336
#
# Stress axis : x y z
#
# Youngs Moduli (GPa) = 64.09822 82.68714 57.19023
#
# Poissons Ratio (x) = 0.13578 -0.09370
# Poissons Ratio (y) = 0.10525 0.08178
# Poissons Ratio (z) = -0.10502 0.11824
#
# Static dielectric constant tensor:
#      x y z
#    x 1.778400 0.000000 0.017010 
#    y 0.000000 1.843120 0.000000 
#    z 0.017010 0.000000 1.763480 
# 
# From -- ./inp_files/278175.got.cif
#   From: 2010.05.17/outbox.cif.g08.bks.cpg/sg12_140_cif.got.tgz:278175.got - 2010.06.03 13:09:07.
