data_PCOD9199028
_publ_section_title
;
Structure prediction by ZEFSAII (Michael W. Deem and Ramdas Pophale) SiO2 
 PCOD9199028
Probable space group: C 2/M
;
_chemical_formula_sum "Si O2"
_cell_formula_units_Z 58
_cell_length_a 29.078888
_cell_length_b 7.848785
_cell_length_c 25.354141
_cell_angle_alpha 90.000000
_cell_angle_beta 31.861264
_cell_angle_gamma 90.000000
_cell_volume 3054.579115
_symmetry_space_group_name_H-M "C 2/M"
_symmetry_group_IT_number 12
_symmetry_cell_setting 'monoclinic'
loop_
_space_group_symop_operation_xyz
x,y,z
-x,y,-z
-x,-y,-z
x,-y,z
1/2+x,1/2+y,z
1/2-x,1/2+y,-z
1/2-x,1/2-y,-z
1/2+x,1/2-y,z
loop_
_atom_site_type_symbol
_atom_site_label
_atom_site_fract_x
_atom_site_fract_y
_atom_site_fract_z
Si Si1 0.852091 0.795645 0.402930
Si Si2 0.911412 0.801948 0.234067
Si Si3 0.084657 0.302771 0.354212
Si Si4 0.753043 0.304024 0.320827
Si Si5 0.087133 0.696941 0.541241
Si Si6 0.500000 0.500000 0.500000
Si Si7 0.464555 0.704518 0.977969
Si Si8 0.731410 0.795821 0.814958
O O1 0.750000 0.750000 0.500000
O O2 0.899046 0.727195 0.304433
O O3 0.894168 0.732545 0.416072
O O4 0.857144 0.000000 0.397977
O O5 0.817492 0.792770 0.297253
O O6 0.935208 0.000000 0.218231
O O7 0.979711 0.727045 0.125632
O O8 0.073780 0.500000 0.383144
O O9 0.066124 0.153073 0.414242
O O10 0.183937 0.280073 0.239211
O O11 0.011062 0.268993 0.381664
O O12 0.782189 0.500000 0.291924
O O13 0.655912 0.297838 0.438521
O O14 0.760860 0.237073 0.253846
O O15 0.105722 0.500000 0.512255
O O16 0.477376 0.500000 0.966400
O O17 0.362604 0.741509 0.072821
O O18 0.500000 0.770371 0.000000
O O19 0.736107 0.000000 0.811627
#
# Coordination Sequence:
#
# PCOD9199028 Si02
#       8
#     8   8   8   8   8   2   8   8
#     4  11  22  36  58  85 118 156 198 247 299 357
#     4  10  21  37  55  83 118 155 198 242 296 360
#     4  11  25  41  60  87 123 166 206 254 303 361
#     4  11  22  32  53  83 118 156 191 238 292 350
#     4  11  24  39  58  83 116 159 205 248 297 358
#     4  12  22  40  64  90 130 160 210 248 298 378
#     4  10  20  36  59  84 116 158 199 244 302 360
#     4  11  23  38  58  86 121 160 204 250 294 360
#
# _framework density 18.987887000000001
#
# number of rings (size 3 to 8) (size 9 to 14) (size 15 to 20)
#    0.000    1.241    3.448    2.690    3.862    4.138 
#    0.000    0.000    0.000    0.828    0.000    0.000 
#    0.000    0.000    0.000    0.000    0.000    0.000 
#
# Total GULP energy -161718.641835 kJ/mol
# GULP energy per Si atom -5576.504891 kJ/mol
# Density = 1.894467 g / cm^3
# Si number density = 18.987887 Si / 1000 Ang^3
#
#
#
# Elastic Constant Matrix: (Units=GPa)
#
#
# Indices 1 2 3 4 5 6 
#
# 1 90.9314 4.5319 65.6504 -0.0189 -2.8132 -0.0007
# 2 4.5319 57.1623 13.1604 -0.0325 2.8604 0.0128
# 3 65.6504 13.1604 138.6630 -0.0312 -3.2977 0.0121
# 4 -0.0189 -0.0325 -0.0312 20.4702 0.0244 -8.7400
# 5 -2.8132 2.8604 -3.2977 0.0244 32.9647 -0.0070
# 6 -0.0007 0.0128 0.0121 -8.7400 -0.0070 -4.4709
#
#
#
# Elastic Compliance Matrix: (Units=1/GPa)
#
#
# Indices 1 2 3 4 5 6 
#
# 1 0.016735 0.000475 -0.007954 -0.000004 0.000591 -0.000016
# 2 0.000475 0.017997 -0.001974 0.000027 -0.001719 -0.000003
# 3 -0.007954 -0.001974 0.011179 0.000009 0.000611 0.000007
# 4 -0.000004 0.000027 0.000009 0.026627 -0.000032 -0.052053
# 5 0.000591 -0.001719 0.000611 -0.000032 0.030596 0.000012
# 6 -0.000016 -0.000003 0.000007 -0.052053 0.000012 -0.121914
#
#
# Mechanical properties :
#
#
# Convention : Reuss Voigt Hill
#
# Bulk Modulus (GPa) = 37.03014 50.38246 43.70630
# Shear Modulus (GPa) = 547.79218 23.35375 285.57296
#
# Velocity S-wave (km/s) = 17.00358 3.51084 12.27697
# Velocity P-wave (km/s) = 20.12561 6.55944 14.96774
#
# Compressibility (1/GPa) = 0.02700503
#
# Stress axis : x y z
#
# Youngs Moduli (GPa) = 59.75663 55.56536 89.44988
#
# Poissons Ratio (x) = -0.02639 0.71149
# Poissons Ratio (y) = -0.02838 0.17656
# Poissons Ratio (z) = 0.47531 0.10967
#
# Static dielectric constant tensor:
#      x y z
#    x 1.659710 -0.000020 -0.003980 
#    y -0.000020 1.697980 0.000000 
#    z -0.003980 0.000000 1.671050 
# 
# From -- ./inp_files/353031.got.cif
#   From: 2010.05.17/outbox.cif.g08.bks.cpg/sg12_177_cif.got.tgz:353031.got - 2010.06.03 13:09:07.
