data_PCOD9199677
_publ_section_title
;
Structure prediction by ZEFSAII (Michael W. Deem and Ramdas Pophale) SiO2 
 PCOD9199677
Probable space group: C 2/M
;
_chemical_formula_sum "Si O2"
_cell_formula_units_Z 48
_cell_length_a 5.312323
_cell_length_b 14.688916
_cell_length_c 30.909406
_cell_angle_alpha 90.000000
_cell_angle_beta 64.480005
_cell_angle_gamma 90.000000
_cell_volume 2176.610929
_symmetry_space_group_name_H-M "C 2/M"
_symmetry_group_IT_number 12
_symmetry_cell_setting 'monoclinic'
loop_
_space_group_symop_operation_xyz
x,y,z
-x,y,-z
-x,-y,-z
x,-y,z
1/2+x,1/2+y,z
1/2-x,1/2+y,-z
1/2-x,1/2-y,-z
1/2+x,1/2-y,z
loop_
_atom_site_type_symbol
_atom_site_label
_atom_site_fract_x
_atom_site_fract_y
_atom_site_fract_z
Si Si1 0.807742 0.611440 0.554129
Si Si2 0.959876 0.389304 0.131232
Si Si3 0.802327 0.352454 0.979114
Si Si4 0.679604 0.609523 0.812776
Si Si5 0.172144 0.609398 0.607964
Si Si6 0.967294 0.304980 0.290342
O O1 0.806963 0.500000 0.553721
O O2 0.486948 0.640447 0.574058
O O3 0.000000 0.641111 0.500000
O O4 0.949488 0.640771 0.588646
O O5 0.965292 0.500000 0.127835
O O6 0.642637 0.361074 0.164770
O O7 0.059137 0.351840 0.077955
O O8 0.167647 0.361725 0.154282
O O9 0.500000 0.396733 0.000000
O O10 0.750000 0.250000 0.000000
O O11 0.000000 0.396510 0.000000
O O12 0.680453 0.500000 0.812259
O O13 0.854593 0.643446 0.759085
O O14 0.173998 0.500000 0.605923
O O15 0.092406 0.638747 0.661924
O O16 0.673424 0.275419 0.291194
#
# Coordination Sequence:
#
# PCOD9199677 Si02
#       6
#     8   8   8   8   8   8
#     4   9  17  31  56  91 120 149 203 259 297 343
#     4  10  21  39  64  88 115 153 196 242 291 344
#     4  10  21  38  54  85 119 155 190 228 285 341
#     4  10  22  43  65  89 118 153 198 249 299 356
#     4  10  20  36  61  86 117 163 199 244 304 354
#     4  12  25  42  59  90 122 155 200 246 304 357
#
# _framework density 22.052631999999999
#
# number of rings (size 3 to 8) (size 9 to 14) (size 15 to 20)
#    0.000    1.833    0.000    4.000    0.000    2.667 
#   18.000    6.667    0.000   10.000    0.000    0.000 
#    0.000    0.000    0.000    0.000    0.000    0.000 
#
# Total GULP energy -134287.912790 kJ/mol
# GULP energy per Si atom -5595.329700 kJ/mol
# Density = 2.200244 g / cm^3
# Si number density = 22.052632 Si / 1000 Ang^3
#
#
#
# Elastic Constant Matrix: (Units=GPa)
#
#
# Indices 1 2 3 4 5 6 
#
# 1 103.0207 -9.6592 -10.4641 0.0000 0.0097 0.0000
# 2 -9.6592 59.0722 -4.7358 0.0000 -0.6194 0.0000
# 3 -10.4641 -4.7358 94.0447 0.0000 0.9323 0.0000
# 4 0.0000 0.0000 0.0000 32.4967 0.0000 10.8816
# 5 0.0097 -0.6194 0.9323 0.0000 42.7333 0.0000
# 6 0.0000 0.0000 0.0000 10.8816 0.0000 -2.6707
#
#
#
# Elastic Compliance Matrix: (Units=1/GPa)
#
#
# Indices 1 2 3 4 5 6 
#
# 1 0.009991 0.001730 0.001199 0.000000 -0.000003 0.000000
# 2 0.001730 0.017299 0.001061 0.000000 0.000227 0.000000
# 3 0.001199 0.001061 0.010822 0.000000 -0.000221 0.000000
# 4 0.000000 0.000000 0.000000 0.013015 0.000000 0.053030
# 5 -0.000003 0.000227 -0.000221 0.000000 0.023409 0.000000
# 6 0.000000 0.000000 0.000000 0.053030 0.000000 -0.158367
#
#
# Mechanical properties :
#
#
# Convention : Reuss Voigt Hill
#
# Bulk Modulus (GPa) = 21.69607 22.93550 22.31578
# Shear Modulus (GPa) = -65.40455 33.24498 -16.07978
#
# Velocity S-wave (km/s) = -5.45186 3.88690 -2.70322
# Velocity P-wave (km/s) = 5.45625 5.52874 0.63097
#
# Compressibility (1/GPa) = 0.04609130
#
# Stress axis : x y z
#
# Youngs Moduli (GPa) = 100.09284 57.80772 92.40213
#
# Poissons Ratio (x) = -0.09999 -0.11077
# Poissons Ratio (y) = -0.17313 -0.09807
# Poissons Ratio (z) = -0.11999 -0.06135
#
# Static dielectric constant tensor:
#      x y z
#    x 1.792470 0.000000 -0.002320 
#    y 0.000000 1.809640 0.000000 
#    z -0.002320 0.000000 1.732010 
# 
# From -- ./inp_files/354872.got.cif
#   From: 2010.05.17/outbox.cif.g08.bks.cpg/sg12_178_cif.got.tgz:354872.got - 2010.06.03 13:09:07.
