data_PCOD9199696
_publ_section_title
;
Structure prediction by ZEFSAII (Michael W. Deem and Ramdas Pophale) SiO2 
 PCOD9199696
Probable space group: C 2/M
;
_chemical_formula_sum "Si O2"
_cell_formula_units_Z 56
_cell_length_a 12.541555
_cell_length_b 17.417818
_cell_length_c 13.352404
_cell_angle_alpha 90.000000
_cell_angle_beta 126.987124
_cell_angle_gamma 90.000000
_cell_volume 2329.843472
_symmetry_space_group_name_H-M "C 2/M"
_symmetry_group_IT_number 12
_symmetry_cell_setting 'monoclinic'
loop_
_space_group_symop_operation_xyz
x,y,z
-x,y,-z
-x,-y,-z
x,-y,z
1/2+x,1/2+y,z
1/2-x,1/2+y,-z
1/2-x,1/2-y,-z
1/2+x,1/2-y,z
loop_
_atom_site_type_symbol
_atom_site_label
_atom_site_fract_x
_atom_site_fract_y
_atom_site_fract_z
Si Si1 0.114932 0.092770 0.934141
Si Si2 0.429724 0.704620 0.601824
Si Si3 0.704863 0.305553 0.679211
Si Si4 0.390515 0.090779 0.016341
Si Si5 0.216827 0.414044 0.566250
Si Si6 0.438331 0.131801 0.702507
Si Si7 0.674616 0.349790 0.189755
O O1 0.237300 0.118771 0.931834
O O2 0.161360 0.115863 0.072273
O O3 0.098463 0.000000 0.918569
O O4 0.971057 0.133176 0.843285
O O5 0.358930 0.732003 0.458321
O O6 0.571912 0.667476 0.658821
O O7 0.325292 0.644283 0.583743
O O8 0.454146 0.778491 0.684147
O O9 0.804644 0.370496 0.696304
O O10 0.785065 0.239543 0.783084
O O11 0.447625 0.102333 0.160525
O O12 0.381736 0.000000 0.991152
O O13 0.500000 0.123674 0.000000
O O14 0.267995 0.500000 0.589275
O O15 0.091860 0.407486 0.420650
O O16 0.212143 0.391627 0.680042
#
# Coordination Sequence:
#
# PCOD9199696 Si02
#       7
#     8   8   8   8   8   8   8
#     4  10  22  39  62  90 125 170 208 256 323 378
#     4  10  20  38  60  90 131 169 200 255 320 382
#     4  10  20  36  61  87 124 167 209 248 319 373
#     4  10  23  44  64  85 124 174 219 263 315 378
#     4  11  21  36  64  98 128 162 206 259 319 377
#     4  11  20  41  60  91 124 161 209 262 315 370
#     4  11  19  38  62  96 126 162 205 263 311 383
#
# _framework density 24.035948999999999
#
# number of rings (size 3 to 8) (size 9 to 14) (size 15 to 20)
#    0.000    1.571    2.857    3.857    0.000    1.143 
#    2.571    8.571    0.000    3.429    0.000    0.000 
#    0.000    0.000    0.000    0.000    0.000    0.000 
#
# Total GULP energy -156474.630097 kJ/mol
# GULP energy per Si atom -5588.379646 kJ/mol
# Density = 2.398124 g / cm^3
# Si number density = 24.035949 Si / 1000 Ang^3
#
#
#
# Elastic Constant Matrix: (Units=GPa)
#
#
# Indices 1 2 3 4 5 6 
#
# 1 108.3176 -5.1536 25.6344 0.0000 38.3141 0.0000
# 2 -5.1536 47.3169 10.0944 0.0000 1.0468 0.0000
# 3 25.6344 10.0944 130.2968 0.0000 4.8255 0.0000
# 4 0.0000 0.0000 0.0000 22.0152 0.0000 5.2297
# 5 38.3141 1.0468 4.8255 0.0000 30.9802 0.0000
# 6 0.0000 0.0000 0.0000 5.2297 0.0000 7.5008
#
#
#
# Elastic Compliance Matrix: (Units=1/GPa)
#
#
# Indices 1 2 3 4 5 6 
#
# 1 0.017672 0.003022 -0.002915 0.000000 -0.021503 0.000000
# 2 0.003022 0.022013 -0.002146 0.000000 -0.004147 0.000000
# 3 -0.002915 -0.002146 0.008326 0.000000 0.002380 0.000000
# 4 0.000000 0.000000 0.000000 0.054440 0.000000 -0.037956
# 5 -0.021503 -0.004147 0.002380 0.000000 0.058642 0.000000
# 6 0.000000 0.000000 0.000000 -0.037956 0.000000 0.159783
#
#
# Mechanical properties :
#
#
# Convention : Reuss Voigt Hill
#
# Bulk Modulus (GPa) = 22.76148 38.56462 30.66305
# Shear Modulus (GPa) = 14.72331 29.12298 21.92315
#
# Velocity S-wave (km/s) = 2.47767 3.48464 3.02337
# Velocity P-wave (km/s) = 4.20422 5.68064 4.99726
#
# Compressibility (1/GPa) = 0.04393387
#
# Stress axis : x y z
#
# Youngs Moduli (GPa) = 56.58711 45.42784 120.10098
#
# Poissons Ratio (x) = -0.13730 0.35004
# Poissons Ratio (y) = -0.17102 0.25778
# Poissons Ratio (z) = 0.16492 0.09751
#
# Static dielectric constant tensor:
#      x y z
#    x 2.014340 0.000000 -0.031200 
#    y 0.000000 1.860140 0.000000 
#    z -0.031200 0.000000 1.968350 
# 
# From -- ./inp_files/216434.got.cif
#   From: 2010.05.17/outbox.cif.g08.bks.cpg/sg12_109_cif.got.tgz:216434.got - 2010.06.03 13:09:07.
