data_PCOD9199316
_publ_section_title
;
Structure prediction by ZEFSAII (Michael W. Deem and Ramdas Pophale) SiO2 
 PCOD9199316
Probable space group: C 2/M
;
_chemical_formula_sum "Si O2"
_cell_formula_units_Z 56
_cell_length_a 22.002271
_cell_length_b 19.405144
_cell_length_c 7.902896
_cell_angle_alpha 90.000000
_cell_angle_beta 53.934435
_cell_angle_gamma 90.000000
_cell_volume 2727.512711
_symmetry_space_group_name_H-M "C 2/M"
_symmetry_group_IT_number 12
_symmetry_cell_setting 'monoclinic'
loop_
_space_group_symop_operation_xyz
x,y,z
-x,y,-z
-x,-y,-z
x,-y,z
1/2+x,1/2+y,z
1/2-x,1/2+y,-z
1/2-x,1/2-y,-z
1/2+x,1/2-y,z
loop_
_atom_site_type_symbol
_atom_site_label
_atom_site_fract_x
_atom_site_fract_y
_atom_site_fract_z
Si Si1 0.300378 0.149589 0.530676
Si Si2 0.409769 0.420901 0.854911
Si Si3 0.835236 0.923509 0.349876
Si Si4 0.427114 0.794908 0.508359
Si Si5 0.814137 0.269756 0.168190
Si Si6 0.327563 0.660435 0.709339
Si Si7 0.524757 0.296648 0.140523
O O1 0.251790 0.083423 0.564824
O O2 0.368538 0.146755 0.550286
O O3 0.239074 0.205068 0.698424
O O4 0.327868 0.184290 0.311744
O O5 0.431035 0.500000 0.792016
O O6 0.379438 0.414444 0.099110
O O7 0.349511 0.394863 0.815612
O O8 0.475166 0.363634 0.739663
O O9 0.842762 0.869585 0.493710
O O10 0.853365 0.000000 0.383699
O O11 0.500000 0.813061 0.500000
O O12 0.377264 0.729598 0.652721
O O13 0.466038 0.761893 0.281410
O O14 0.759986 0.316194 0.138732
O O15 0.893308 0.238152 0.985873
O O16 0.500000 0.322457 0.000000
#
# Coordination Sequence:
#
# PCOD9199316 Si02
#       7
#     8   8   8   8   8   8   8
#     4   9  17  34  54  80 109 139 182 232 272 329
#     4  11  23  37  55  81 114 152 190 222 264 328
#     4  10  20  36  60  82 107 148 188 228 272 323
#     4  11  21  33  53  82 111 142 181 226 286 320
#     4   9  18  32  57  79 104 144 179 232 286 311
#     4  10  21  39  57  80 112 144 188 235 271 326
#     4  12  21  35  54  79 113 146 182 228 271 333
#
# _framework density 20.531527000000001
#
# number of rings (size 3 to 8) (size 9 to 14) (size 15 to 20)
#    0.000    1.714    4.286    2.143    0.000    2.000 
#    0.000    2.143    0.000    0.429    0.000    9.000 
#    0.000    0.000    0.000    0.000    0.000    0.000 
#
# Total GULP energy -156134.829850 kJ/mol
# GULP energy per Si atom -5576.243923 kJ/mol
# Density = 2.048480 g / cm^3
# Si number density = 20.531527 Si / 1000 Ang^3
#
#
#
# Elastic Constant Matrix: (Units=GPa)
#
#
# Indices 1 2 3 4 5 6 
#
# 1 129.5102 6.3415 25.9640 0.0000 -0.6860 0.0000
# 2 6.3415 22.0510 6.3855 0.0000 2.4256 0.0000
# 3 25.9640 6.3855 49.9927 0.0000 -0.3481 0.0000
# 4 0.0000 0.0000 0.0000 12.1952 0.0000 7.8030
# 5 -0.6860 2.4256 -0.3481 0.0000 31.7231 0.0000
# 6 0.0000 0.0000 0.0000 7.8030 0.0000 23.6002
#
#
#
# Elastic Compliance Matrix: (Units=1/GPa)
#
#
# Indices 1 2 3 4 5 6 
#
# 1 0.008653 -0.001260 -0.004331 0.000000 0.000236 0.000000
# 2 -0.001260 0.047705 -0.005465 0.000000 -0.003735 0.000000
# 3 -0.004331 -0.005465 0.022954 0.000000 0.000576 0.000000
# 4 0.000000 0.000000 0.000000 0.104001 0.000000 -0.034386
# 5 0.000236 -0.003735 0.000576 0.000000 0.031820 0.000000
# 6 0.000000 0.000000 0.000000 -0.034386 0.000000 0.053742
#
#
# Mechanical properties :
#
#
# Convention : Reuss Voigt Hill
#
# Bulk Modulus (GPa) = 17.48257 30.99286 24.23771
# Shear Modulus (GPa) = 16.12623 24.36124 20.24374
#
# Velocity S-wave (km/s) = 2.80561 3.44834 3.14344
# Velocity P-wave (km/s) = 4.36219 5.56622 5.00057
#
# Compressibility (1/GPa) = 0.05719984
#
# Stress axis : x y z
#
# Youngs Moduli (GPa) = 115.57141 20.96208 43.56463
#
# Poissons Ratio (x) = 0.02641 0.18869
# Poissons Ratio (y) = 0.14563 0.23808
# Poissons Ratio (z) = 0.50056 0.11456
#
# Static dielectric constant tensor:
#      x y z
#    x 1.789870 0.000000 0.022120 
#    y 0.000000 1.703300 0.000000 
#    z 0.022120 0.000000 1.800770 
# 
# From -- ./inp_files/89531.got.cif
#   From: 2010.05.17/outbox.cif.g08.bks.cpg/sg12_45_cif.got.tgz:89531.got - 2010.06.03 13:09:07.
