data_PCOD9199572
_publ_section_title
;
Structure prediction by ZEFSAII (Michael W. Deem and Ramdas Pophale) SiO2 
 PCOD9199572
Probable space group: C 2/M
;
_chemical_formula_sum "Si O2"
_cell_formula_units_Z 56
_cell_length_a 15.069152
_cell_length_b 8.464257
_cell_length_c 22.388058
_cell_angle_alpha 90.000000
_cell_angle_beta 59.767219
_cell_angle_gamma 90.000000
_cell_volume 2467.182172
_symmetry_space_group_name_H-M "C 2/M"
_symmetry_group_IT_number 12
_symmetry_cell_setting 'monoclinic'
loop_
_space_group_symop_operation_xyz
x,y,z
-x,y,-z
-x,-y,-z
x,-y,z
1/2+x,1/2+y,z
1/2-x,1/2+y,-z
1/2-x,1/2-y,-z
1/2+x,1/2-y,z
loop_
_atom_site_type_symbol
_atom_site_label
_atom_site_fract_x
_atom_site_fract_y
_atom_site_fract_z
Si Si1 0.200942 0.312040 0.371018
Si Si2 0.411761 0.185300 0.268604
Si Si3 0.629948 0.313334 0.847504
Si Si4 0.032154 0.690958 0.337955
Si Si5 0.640689 0.688776 0.512772
Si Si6 0.261395 0.687255 0.899746
Si Si7 0.591386 0.691815 0.049907
O O1 0.222044 0.500000 0.364692
O O2 0.306169 0.215746 0.340447
O O3 0.130406 0.266482 0.450987
O O4 0.141701 0.270649 0.329940
O O5 0.390760 0.273375 0.214049
O O6 0.503333 0.243266 0.280686
O O7 0.425271 0.000000 0.251849
O O8 0.635186 0.500000 0.852459
O O9 0.730772 0.247075 0.845038
O O10 0.525861 0.255559 0.915693
O O11 0.023516 0.500000 0.341283
O O12 0.947283 0.759213 0.411732
O O13 0.641495 0.500000 0.507315
O O14 0.750000 0.750000 0.500000
O O15 0.264698 0.500000 0.896937
O O16 0.363428 0.741050 0.900386
O O17 0.168976 0.742470 0.974637
O O18 0.593584 0.500000 0.045290
#
# Coordination Sequence:
#
# PCOD9199572 Si02
#       7
#     8   8   8   8   8   8   8
#     4  11  23  41  64  90 120 156 195 243 300 358
#     4  11  24  42  61  84 117 157 200 246 291 349
#     4  11  23  39  59  83 117 158 198 240 291 349
#     4  10  23  42  63  88 120 155 195 245 300 355
#     4  12  23  37  62  92 122 156 195 245 299 352
#     4  10  20  36  60  90 120 151 192 242 291 345
#     4   9  20  38  59  86 120 156 192 237 291 348
#
# _framework density 22.697959000000001
#
# number of rings (size 3 to 8) (size 9 to 14) (size 15 to 20)
#    0.000    1.429    1.429    3.857    0.000    8.000 
#    0.000    2.857    0.000    0.000    0.000    0.000 
#    0.000    0.000    0.000    0.000    0.000    0.000 
#
# Total GULP energy -156595.253230 kJ/mol
# GULP energy per Si atom -5592.687615 kJ/mol
# Density = 2.264630 g / cm^3
# Si number density = 22.697959 Si / 1000 Ang^3
#
#
#
# Elastic Constant Matrix: (Units=GPa)
#
#
# Indices 1 2 3 4 5 6 
#
# 1 141.0973 23.4590 7.9326 0.0000 33.4764 0.0000
# 2 23.4590 19.6307 -12.5818 0.0000 3.7792 0.0000
# 3 7.9326 -12.5818 41.2525 0.0000 19.5086 0.0000
# 4 0.0000 0.0000 0.0000 31.6808 0.0000 7.0611
# 5 33.4764 3.7792 19.5086 0.0000 36.3935 0.0000
# 6 0.0000 0.0000 0.0000 7.0611 0.0000 23.3231
#
#
#
# Elastic Compliance Matrix: (Units=1/GPa)
#
#
# Indices 1 2 3 4 5 6 
#
# 1 0.011338 -0.014032 -0.002970 0.000000 -0.007381 0.000000
# 2 -0.014032 0.098606 0.042211 0.000000 -0.019959 0.000000
# 3 -0.002970 0.042211 0.051530 0.000000 -0.029274 0.000000
# 4 0.000000 0.000000 0.000000 0.033849 0.000000 -0.010248
# 5 -0.007381 -0.019959 -0.029274 0.000000 0.052031 0.000000
# 6 0.000000 0.000000 0.000000 -0.010248 0.000000 0.045978
#
#
# Mechanical properties :
#
#
# Convention : Reuss Voigt Hill
#
# Bulk Modulus (GPa) = 4.71935 26.62224 15.67080
# Shear Modulus (GPa) = 15.94669 30.49086 23.21877
#
# Velocity S-wave (km/s) = 2.65346 3.66912 3.20182
# Velocity P-wave (km/s) = 3.38696 5.45017 4.53739
#
# Compressibility (1/GPa) = 0.21189350
#
# Stress axis : x y z
#
# Youngs Moduli (GPa) = 88.19640 10.14139 19.40616
#
# Poissons Ratio (x) = 0.14230 0.05763
# Poissons Ratio (y) = 1.23757 -0.81916
# Poissons Ratio (z) = 0.26191 -0.42808
#
# Static dielectric constant tensor:
#      x y z
#    x 1.899760 0.000000 0.035500 
#    y 0.000000 1.767280 0.000000 
#    z 0.035500 0.000000 1.894920 
# 
# From -- ./inp_files/338429.got.cif
#   From: 2010.05.17/outbox.cif.g08.bks.cpg/sg12_170_cif.got.tgz:338429.got - 2010.06.03 13:09:07.
