data_PCOD9199379
_publ_section_title
;
Structure prediction by ZEFSAII (Michael W. Deem and Ramdas Pophale) SiO2 
 PCOD9199379
Probable space group: C 2/M
;
_chemical_formula_sum "Si O2"
_cell_formula_units_Z 48
_cell_length_a 32.224142
_cell_length_b 8.960530
_cell_length_c 20.726246
_cell_angle_alpha 90.000000
_cell_angle_beta 154.565977
_cell_angle_gamma 90.000000
_cell_volume 2570.218400
_symmetry_space_group_name_H-M "C 2/M"
_symmetry_group_IT_number 12
_symmetry_cell_setting 'monoclinic'
loop_
_space_group_symop_operation_xyz
x,y,z
-x,y,-z
-x,-y,-z
x,-y,z
1/2+x,1/2+y,z
1/2-x,1/2+y,-z
1/2-x,1/2-y,-z
1/2+x,1/2-y,z
loop_
_atom_site_type_symbol
_atom_site_label
_atom_site_fract_x
_atom_site_fract_y
_atom_site_fract_z
Si Si1 0.890084 0.677622 0.531425
Si Si2 0.273690 0.821607 0.786057
Si Si3 0.750261 0.177869 0.098874
Si Si4 0.146236 0.321687 0.368710
Si Si5 0.519428 0.323021 0.951257
Si Si6 0.906501 0.822240 0.211592
O O1 0.886713 0.500000 0.517296
O O2 0.801642 0.752801 0.369811
O O3 0.881270 0.707378 0.595457
O O4 0.990944 0.742627 0.647711
O O5 0.240562 0.789314 0.812881
O O6 0.278388 0.000000 0.784751
O O7 0.378964 0.751703 0.923671
O O8 0.845612 0.212497 0.190957
O O9 0.731664 0.000000 0.065628
O O10 0.661394 0.265124 0.941918
O O11 0.150424 0.500000 0.365136
O O12 0.250000 0.250000 0.500000
O O13 0.065857 0.251073 0.209577
O O14 0.522853 0.500000 0.943000
O O15 0.500000 0.302222 0.000000
O O16 0.919259 0.000000 0.225515
#
# Coordination Sequence:
#
# PCOD9199379 Si02
#       6
#     8   8   8   8   8   8
#     4  11  24  40  57  83 119 152 188 237 287 334
#     4  11  23  39  60  85 115 152 193 236 283 337
#     4   9  20  38  58  84 117 149 187 238 288 334
#     4  11  24  41  62  87 116 151 190 235 284 335
#     4  11  24  41  61  87 119 151 186 233 285 337
#     4  10  20  36  60  86 113 150 193 234 282 341
#
# _framework density 18.675456000000001
#
# number of rings (size 3 to 8) (size 9 to 14) (size 15 to 20)
#    0.000    1.500    0.000    4.500    0.000   14.667 
#    0.000    3.333    0.000    0.000    0.000    0.000 
#    0.000    0.000    0.000    0.000    0.000    0.000 
#
# Total GULP energy -134216.530246 kJ/mol
# GULP energy per Si atom -5592.355427 kJ/mol
# Density = 1.863295 g / cm^3
# Si number density = 18.675456 Si / 1000 Ang^3
#
#
#
# Elastic Constant Matrix: (Units=GPa)
#
#
# Indices 1 2 3 4 5 6 
#
# 1 100.1518 81.4484 94.6084 0.0000 0.9222 0.0000
# 2 81.4484 92.7569 95.7794 0.0000 -6.8907 0.0000
# 3 94.6084 95.7794 193.4057 0.0000 7.2512 0.0000
# 4 0.0000 0.0000 0.0000 42.7333 0.0000 3.0128
# 5 0.9222 -6.8907 7.2512 0.0000 34.4807 0.0000
# 6 0.0000 0.0000 0.0000 3.0128 0.0000 34.9677
#
#
#
# Elastic Compliance Matrix: (Units=1/GPa)
#
#
# Indices 1 2 3 4 5 6 
#
# 1 0.037656 -0.030215 -0.003218 0.000000 -0.006369 0.000000
# 2 -0.030215 0.047991 -0.009450 0.000000 0.012386 0.000000
# 3 -0.003218 -0.009450 0.011583 0.000000 -0.004238 0.000000
# 4 0.000000 0.000000 0.000000 0.023544 0.000000 -0.002029
# 5 -0.006369 0.012386 -0.004238 0.000000 0.032539 0.000000
# 6 0.000000 0.000000 0.000000 -0.002029 0.000000 0.028773
#
#
# Mechanical properties :
#
#
# Convention : Reuss Voigt Hill
#
# Bulk Modulus (GPa) = 87.23596 103.33185 95.28390
# Shear Modulus (GPa) = 18.40444 30.06822 24.23633
#
# Velocity S-wave (km/s) = 3.14265 4.01688 3.60636
# Velocity P-wave (km/s) = 7.74476 8.77292 8.27483
#
# Compressibility (1/GPa) = 0.01146316
#
# Stress axis : x y z
#
# Youngs Moduli (GPa) = 26.55617 20.83736 86.32989
#
# Poissons Ratio (x) = 0.62961 0.27781
# Poissons Ratio (y) = 0.80241 0.81583
# Poissons Ratio (z) = 0.08546 0.19692
#
# Static dielectric constant tensor:
#      x y z
#    x 1.636580 0.000000 -0.006650 
#    y 0.000000 1.620510 0.000000 
#    z -0.006650 0.000000 1.595090 
# 
# From -- ./inp_files/295913.got.cif
#   From: 2010.05.17/outbox.cif.g08.bks.cpg/sg12_148_cif.got.tgz:295913.got - 2010.06.03 13:09:07.
