data_PCOD9199253
_publ_section_title
;
Structure prediction by ZEFSAII (Michael W. Deem and Ramdas Pophale) SiO2 
 PCOD9199253
Probable space group: C 2/M
;
_chemical_formula_sum "Si O2"
_cell_formula_units_Z 48
_cell_length_a 8.309243
_cell_length_b 27.555755
_cell_length_c 19.939289
_cell_angle_alpha 90.000000
_cell_angle_beta 147.866141
_cell_angle_gamma 90.000000
_cell_volume 2428.357892
_symmetry_space_group_name_H-M "C 2/M"
_symmetry_group_IT_number 12
_symmetry_cell_setting 'monoclinic'
loop_
_space_group_symop_operation_xyz
x,y,z
-x,y,-z
-x,-y,-z
x,-y,z
1/2+x,1/2+y,z
1/2-x,1/2+y,-z
1/2-x,1/2-y,-z
1/2+x,1/2-y,z
loop_
_atom_site_type_symbol
_atom_site_label
_atom_site_fract_x
_atom_site_fract_y
_atom_site_fract_z
Si Si1 0.668174 0.387344 0.890503
Si Si2 0.750062 0.358534 0.775071
Si Si3 0.213634 0.694082 0.510903
Si Si4 0.709823 0.184686 0.755041
Si Si5 0.865760 0.726596 0.132376
Si Si6 0.695685 0.054784 0.936225
O O1 0.577340 0.379692 0.780462
O O2 0.417868 0.360560 0.845706
O O3 0.738068 0.434151 0.961138
O O4 0.000000 0.363839 0.000000
O O5 0.506619 0.335803 0.638065
O O6 0.987277 0.313157 0.865843
O O7 0.959612 0.404111 0.829173
O O8 0.250000 0.750000 0.500000
O O9 0.000000 0.695437 0.500000
O O10 0.038625 0.670940 0.386801
O O11 0.564428 0.207935 0.768667
O O12 0.952468 0.223883 0.813111
O O13 0.500000 0.730091 0.000000
O O14 0.577758 0.000000 0.888047
O O15 0.000000 0.058415 0.000000
#
# Coordination Sequence:
#
# PCOD9199253 Si02
#       6
#     8   8   8   8   8   8
#     4  10  20  36  59  89 121 158 203 255 317 376
#     4  11  22  38  60  91 125 163 215 257 314 378
#     4  12  24  41  58  84 129 179 225 258 296 364
#     4  12  22  36  56  82 126 171 214 254 307 369
#     4  12  23  36  56  86 126 167 208 263 315 374
#     4  10  22  43  70  98 126 156 202 267 335 391
#
# _framework density 19.766444
#
# number of rings (size 3 to 8) (size 9 to 14) (size 15 to 20)
#    0.000    0.833    3.333    6.500    0.000    3.000 
#    0.000    0.000    0.000    1.500    0.000    3.500 
#    0.000    0.000    0.000    0.000    0.000    0.000 
#
# Total GULP energy -133774.670639 kJ/mol
# GULP energy per Si atom -5573.944610 kJ/mol
# Density = 1.972145 g / cm^3
# Si number density = 19.766444 Si / 1000 Ang^3
#
#
#
# Elastic Constant Matrix: (Units=GPa)
#
#
# Indices 1 2 3 4 5 6 
#
# 1 87.7780 6.5543 21.9584 -0.0001 -6.5558 0.0000
# 2 6.5543 97.5095 47.1404 0.0000 13.6395 -0.0001
# 3 21.9584 47.1404 107.7723 -0.0003 -4.6625 0.0006
# 4 -0.0001 0.0000 -0.0003 19.3048 -0.0001 0.4018
# 5 -6.5558 13.6395 -4.6625 -0.0001 30.0838 0.0001
# 6 0.0000 -0.0001 0.0006 0.4018 0.0001 26.0612
#
#
#
# Elastic Compliance Matrix: (Units=1/GPa)
#
#
# Indices 1 2 3 4 5 6 
#
# 1 0.012158 0.000019 -0.002387 0.000000 0.002271 0.000000
# 2 0.000019 0.014564 -0.006705 0.000000 -0.007638 0.000000
# 3 -0.002387 -0.006705 0.012893 0.000000 0.004518 0.000000
# 4 0.000000 0.000000 0.000000 0.051817 0.000000 -0.000799
# 5 0.002271 -0.007638 0.004518 0.000000 0.037898 0.000000
# 6 0.000000 0.000000 0.000000 -0.000799 0.000000 0.038384
#
#
# Mechanical properties :
#
#
# Convention : Reuss Voigt Hill
#
# Bulk Modulus (GPa) = 46.57769 49.37402 47.97585
# Shear Modulus (GPa) = 25.90458 29.58374 27.74416
#
# Velocity S-wave (km/s) = 3.62406 3.87287 3.75053
# Velocity P-wave (km/s) = 6.41302 6.71057 6.56348
#
# Compressibility (1/GPa) = 0.02146951
#
# Stress axis : x y z
#
# Youngs Moduli (GPa) = 82.25221 68.66326 77.55929
#
# Poissons Ratio (x) = -0.00133 0.18516
# Poissons Ratio (y) = -0.00159 0.52001
# Poissons Ratio (z) = 0.19636 0.46037
#
# Static dielectric constant tensor:
#      x y z
#    x 1.790030 0.000000 -0.057450 
#    y 0.000000 1.682390 0.000000 
#    z -0.057450 0.000000 1.797620 
# 
# From -- ./inp_files/200220.got.cif
#   From: 2010.05.17/outbox.cif.g08.bks.cpg/sg12_101_cif.got.tgz:200220.got - 2010.06.03 13:09:07.
