data_PCOD9199104
_publ_section_title
;
Structure prediction by ZEFSAII (Michael W. Deem and Ramdas Pophale) SiO2 
 PCOD9199104
Probable space group: C 2/M
;
_chemical_formula_sum "Si O2"
_cell_formula_units_Z 56
_cell_length_a 20.920500
_cell_length_b 7.656781
_cell_length_c 15.668858
_cell_angle_alpha 90.000000
_cell_angle_beta 83.967147
_cell_angle_gamma 90.000000
_cell_volume 2495.995131
_symmetry_space_group_name_H-M "C 2/M"
_symmetry_group_IT_number 12
_symmetry_cell_setting 'monoclinic'
loop_
_space_group_symop_operation_xyz
x,y,z
-x,y,-z
-x,-y,-z
x,-y,z
1/2+x,1/2+y,z
1/2-x,1/2+y,-z
1/2-x,1/2-y,-z
1/2+x,1/2-y,z
loop_
_atom_site_type_symbol
_atom_site_label
_atom_site_fract_x
_atom_site_fract_y
_atom_site_fract_z
Si Si1 0.929605 0.294504 0.486960
Si Si2 0.079910 0.202791 0.219056
Si Si3 0.070668 0.288612 0.024492
Si Si4 0.795028 0.291279 0.573286
Si Si5 0.651933 0.790034 0.853518
Si Si6 0.440945 0.709365 0.292266
Si Si7 0.281888 0.296609 0.761133
O O1 0.932058 0.500000 0.507662
O O2 0.867448 0.223112 0.545168
O O3 0.918432 0.275656 0.387353
O O4 0.000000 0.219328 0.500000
O O5 0.079025 0.212916 0.116969
O O6 0.147404 0.284008 0.238240
O O7 0.013203 0.278487 0.263780
O O8 0.079816 0.000000 0.246470
O O9 0.074368 0.500000 0.030934
O O10 0.121205 0.227242 0.946240
O O11 0.000000 0.244764 0.000000
O O12 0.797426 0.500000 0.582927
O O13 0.750000 0.250000 0.500000
O O14 0.766362 0.213499 0.663531
O O15 0.604702 0.754764 0.780609
O O16 0.722750 0.719932 0.822358
O O17 0.656038 0.000000 0.859478
O O18 0.442856 0.500000 0.296598
O O19 0.287348 0.500000 0.786020
#
# Coordination Sequence:
#
# PCOD9199104 Si02
#       7
#     8   8   8   8   8   8   8
#     4  10  22  39  58  81 110 146 188 232 278 330
#     4  10  22  38  57  84 118 151 183 230 289 337
#     4  10  20  36  59  86 113 147 191 233 275 330
#     4  11  23  39  60  85 114 150 190 233 281 335
#     4  10  21  38  59  82 111 148 190 231 273 329
#     4  11  22  35  56  85 113 144 185 232 281 333
#     4  10  22  40  59  82 115 152 188 230 282 337
#
# _framework density 22.435939000000001
#
# number of rings (size 3 to 8) (size 9 to 14) (size 15 to 20)
#    0.000    1.714    1.429    2.571    0.000    8.000 
#    0.000    0.000    0.000    0.000    0.000    0.000 
#    0.000    0.000    0.000    0.000    0.000    0.000 
#
# Total GULP energy -156537.509693 kJ/mol
# GULP energy per Si atom -5590.625346 kJ/mol
# Density = 2.238487 g / cm^3
# Si number density = 22.435939 Si / 1000 Ang^3
#
#
#
# Elastic Constant Matrix: (Units=GPa)
#
#
# Indices 1 2 3 4 5 6 
#
# 1 87.8642 9.6641 -4.3860 0.0000 -24.7146 0.0000
# 2 9.6641 48.3432 -16.2238 0.0000 -4.2234 0.0000
# 3 -4.3860 -16.2238 53.6734 0.0000 -21.7795 0.0000
# 4 0.0000 0.0000 0.0000 14.4001 0.0000 1.3582
# 5 -24.7146 -4.2234 -21.7795 0.0000 46.2538 0.0000
# 6 0.0000 0.0000 0.0000 1.3582 0.0000 12.7301
#
#
#
# Elastic Compliance Matrix: (Units=1/GPa)
#
#
# Indices 1 2 3 4 5 6 
#
# 1 0.014549 -0.000248 0.005265 0.000000 0.010231 0.000000
# 2 -0.000248 0.024807 0.010314 0.000000 0.006989 0.000000
# 3 0.005265 0.010314 0.029302 0.000000 0.017552 0.000000
# 4 0.000000 0.000000 0.000000 0.070150 0.000000 -0.007484
# 5 0.010231 0.006989 0.017552 0.000000 0.035989 0.000000
# 6 0.000000 0.000000 0.000000 -0.007484 0.000000 0.079352
#
#
# Mechanical properties :
#
#
# Convention : Reuss Voigt Hill
#
# Bulk Modulus (GPa) = 10.06829 18.66551 14.36690
# Shear Modulus (GPa) = 19.48616 28.06524 23.77570
#
# Velocity S-wave (km/s) = 2.95027 3.54065 3.25886
# Velocity P-wave (km/s) = 4.01283 5.00524 4.53626
#
# Compressibility (1/GPa) = 0.09932174
#
# Stress axis : x y z
#
# Youngs Moduli (GPa) = 68.73352 40.31119 34.12785
#
# Poissons Ratio (x) = 0.00998 -0.17970
# Poissons Ratio (y) = 0.01702 -0.35201
# Poissons Ratio (z) = -0.36191 -0.41578
#
# Static dielectric constant tensor:
#      x y z
#    x 1.857410 0.000000 -0.014260 
#    y 0.000000 1.851750 0.000000 
#    z -0.014260 0.000000 1.773230 
# 
# From -- ./inp_files/230874.got.cif
#   From: 2010.05.17/outbox.cif.g08.bks.cpg/sg12_116_cif.got.tgz:230874.got - 2010.06.03 13:09:07.
