data_PCOD9199098
_publ_section_title
;
Structure prediction by ZEFSAII (Michael W. Deem and Ramdas Pophale) SiO2 
 PCOD9199098
Probable space group: C 2/M
;
_chemical_formula_sum "Si O2"
_cell_formula_units_Z 58
_cell_length_a 20.272240
_cell_length_b 10.065639
_cell_length_c 23.964827
_cell_angle_alpha 90.000000
_cell_angle_beta 138.892573
_cell_angle_gamma 90.000000
_cell_volume 3215.105724
_symmetry_space_group_name_H-M "C 2/M"
_symmetry_group_IT_number 12
_symmetry_cell_setting 'monoclinic'
loop_
_space_group_symop_operation_xyz
x,y,z
-x,y,-z
-x,-y,-z
x,-y,z
1/2+x,1/2+y,z
1/2-x,1/2+y,-z
1/2-x,1/2-y,-z
1/2+x,1/2-y,z
loop_
_atom_site_type_symbol
_atom_site_label
_atom_site_fract_x
_atom_site_fract_y
_atom_site_fract_z
Si Si1 0.410847 0.730133 0.978574
Si Si2 0.458980 0.341943 0.250847
Si Si3 0.343781 0.653843 0.553656
Si Si4 0.498201 0.340566 0.848287
Si Si5 0.109617 0.844621 0.545528
Si Si6 0.500000 0.000000 0.000000
Si Si7 0.298424 0.150941 0.203247
Si Si8 0.236640 0.156619 0.292967
O O1 0.441462 0.723659 0.062555
O O2 0.500000 0.659836 0.000000
O O3 0.304238 0.669094 0.896618
O O4 0.418286 0.881468 0.962103
O O5 0.439567 0.500000 0.244301
O O6 0.569441 0.317479 0.346437
O O7 0.460195 0.307177 0.186199
O O8 0.379050 0.255907 0.233326
O O9 0.312660 0.500000 0.540959
O O10 0.250000 0.750000 0.500000
O O11 0.389099 0.667669 0.520486
O O12 0.504008 0.500000 0.858713
O O13 0.380372 0.304928 0.776792
O O14 0.193128 0.748639 0.624640
O O15 0.000000 0.811963 0.500000
O O16 0.130506 0.000000 0.572549
O O17 0.270694 0.170748 0.250488
O O18 0.335725 0.000000 0.220280
O O19 0.245113 0.000000 0.313760
#
# Coordination Sequence:
#
# PCOD9199098 Si02
#       8
#     8   8   8   8   8   2   8   8
#     4  10  20  38  60  86 118 151 195 237 286 341
#     4  10  23  40  60  86 120 158 194 239 295 350
#     4  10  21  39  62  84 115 156 195 237 291 349
#     4  10  20  38  61  86 113 151 196 239 288 343
#     4  10  21  37  56  83 113 148 190 234 289 346
#     4   8  20  36  54  92 112 148 196 238 286 340
#     4  11  23  38  60  89 120 157 195 240 297 345
#     4  10  20  36  59  86 112 145 194 243 285 340
#
# _framework density 18.039842
#
# number of rings (size 3 to 8) (size 9 to 14) (size 15 to 20)
#    0.414    1.517    1.379    2.069    0.966    5.241 
#    4.966    0.000    0.000    0.000    0.000    0.000 
#    0.000    0.000    0.000    0.000    0.000    0.000 
#
# Total GULP energy -161592.301095 kJ/mol
# GULP energy per Si atom -5572.148314 kJ/mol
# Density = 1.799878 g / cm^3
# Si number density = 18.039842 Si / 1000 Ang^3
#
#
#
# Elastic Constant Matrix: (Units=GPa)
#
#
# Indices 1 2 3 4 5 6 
#
# 1 42.8612 15.6432 -14.9732 0.0000 1.7000 0.0000
# 2 15.6432 40.2122 8.9835 0.0000 0.4587 0.0000
# 3 -14.9732 8.9835 53.5462 0.0000 -10.8946 0.0000
# 4 0.0000 0.0000 0.0000 14.6799 0.0000 0.6989
# 5 1.7000 0.4587 -10.8946 0.0000 23.5569 0.0000
# 6 0.0000 0.0000 0.0000 0.6989 0.0000 21.6331
#
#
#
# Elastic Compliance Matrix: (Units=1/GPa)
#
#
# Indices 1 2 3 4 5 6 
#
# 1 0.033465 -0.015923 0.012806 0.000000 0.003818 0.000000
# 2 -0.015923 0.033577 -0.011022 0.000000 -0.004602 0.000000
# 3 0.012806 -0.011022 0.026450 0.000000 0.011523 0.000000
# 4 0.000000 0.000000 0.000000 0.068225 0.000000 -0.002204
# 5 0.003818 -0.004602 0.011523 0.000000 0.047594 0.000000
# 6 0.000000 0.000000 0.000000 -0.002204 0.000000 0.046297
#
#
# Mechanical properties :
#
#
# Convention : Reuss Voigt Hill
#
# Bulk Modulus (GPa) = 15.33415 17.32519 16.32967
# Shear Modulus (GPa) = 16.36001 20.43840 18.39920
#
# Velocity S-wave (km/s) = 3.01472 3.36960 3.19708
# Velocity P-wave (km/s) = 4.54275 4.97631 4.76446
#
# Compressibility (1/GPa) = 0.06521391
#
# Stress axis : x y z
#
# Youngs Moduli (GPa) = 29.88225 29.78220 37.80703
#
# Poissons Ratio (x) = 0.47421 -0.48415
# Poissons Ratio (y) = 0.47581 0.41671
# Poissons Ratio (z) = -0.38267 0.32826
#
# Static dielectric constant tensor:
#      x y z
#    x 1.624550 0.000000 -0.010160 
#    y 0.000000 1.592860 0.000000 
#    z -0.010160 0.000000 1.599250 
# 
# From -- ./inp_files/346552.got.cif
#   From: 2010.05.17/outbox.cif.g08.bks.cpg/sg12_174_cif.got.tgz:346552.got - 2010.06.03 13:09:07.
