data_PCOD9199343
_publ_section_title
;
Structure prediction by ZEFSAII (Michael W. Deem and Ramdas Pophale) SiO2 
 PCOD9199343
Probable space group: C 2/M
;
_chemical_formula_sum "Si O2"
_cell_formula_units_Z 56
_cell_length_a 14.822533
_cell_length_b 19.688260
_cell_length_c 19.519042
_cell_angle_alpha 90.000000
_cell_angle_beta 155.026244
_cell_angle_gamma 90.000000
_cell_volume 2404.970016
_symmetry_space_group_name_H-M "C 2/M"
_symmetry_group_IT_number 12
_symmetry_cell_setting 'monoclinic'
loop_
_space_group_symop_operation_xyz
x,y,z
-x,y,-z
-x,-y,-z
x,-y,z
1/2+x,1/2+y,z
1/2-x,1/2+y,-z
1/2-x,1/2-y,-z
1/2+x,1/2-y,z
loop_
_atom_site_type_symbol
_atom_site_label
_atom_site_fract_x
_atom_site_fract_y
_atom_site_fract_z
Si Si1 0.212767 0.352604 0.785153
Si Si2 0.173906 0.136962 0.567564
Si Si3 0.500416 0.749932 0.193404
Si Si4 0.460176 0.617647 0.090784
Si Si5 0.329366 0.574373 0.146672
Si Si6 0.632346 0.707184 0.752645
Si Si7 0.185019 0.426566 0.466226
O O1 0.345220 0.401759 0.825756
O O2 0.259913 0.272037 0.811655
O O3 0.964662 0.368549 0.606814
O O4 0.280546 0.367708 0.910182
O O5 0.355263 0.185441 0.724740
O O6 0.287160 0.084051 0.595740
O O7 0.000000 0.107415 0.500000
O O8 0.027281 0.182112 0.415695
O O9 0.570546 0.682106 0.203791
O O10 0.499968 0.737791 0.274325
O O11 0.250000 0.750000 0.000000
O O12 0.346829 0.580934 0.076370
O O13 0.237408 0.500000 0.101544
O O14 0.246898 0.641859 0.129861
O O15 0.578076 0.574531 0.340539
O O16 0.087209 0.500000 0.413203
#
# Coordination Sequence:
#
# PCOD9199343 Si02
#       7
#     8   8   8   8   8   8   8
#     4  11  21  37  56  88 121 153 195 242 309 356
#     4  11  22  36  58  88 117 154 202 250 302 355
#     4  11  19  36  58  86 120 156 195 243 302 357
#     4  10  22  34  56  88 121 151 191 245 299 362
#     4   9  21  38  57  82 113 155 199 237 294 357
#     4  10  20  36  60  84 120 155 195 249 292 363
#     4  10  22  40  59  80 114 160 199 245 300 362
#
# _framework density 23.285114
#
# number of rings (size 3 to 8) (size 9 to 14) (size 15 to 20)
#    0.000    1.714    2.857    1.286    4.000    2.000 
#    0.000    2.857    0.000    0.000    0.000    2.000 
#    0.000    0.857    0.000    0.000    0.000    0.000 
#
# Total GULP energy -156057.073719 kJ/mol
# GULP energy per Si atom -5573.466919 kJ/mol
# Density = 2.323212 g / cm^3
# Si number density = 23.285114 Si / 1000 Ang^3
#
#
#
# Elastic Constant Matrix: (Units=GPa)
#
#
# Indices 1 2 3 4 5 6 
#
# 1 54.3566 -3.9785 16.5760 0.0256 1.9408 -0.0007
# 2 -3.9785 82.8210 0.3191 -0.0124 3.4333 -0.0070
# 3 16.5760 0.3191 46.4257 -0.0288 -8.4235 -0.0135
# 4 0.0256 -0.0124 -0.0288 -1.2876 -0.0424 0.0640
# 5 1.9408 3.4333 -8.4235 -0.0424 24.1133 -0.0228
# 6 -0.0007 -0.0070 -0.0135 0.0640 -0.0228 12.3906
#
#
#
# Elastic Compliance Matrix: (Units=1/GPa)
#
#
# Indices 1 2 3 4 5 6 
#
# 1 0.021245 0.001254 -0.008473 0.000759 -0.004847 -0.000020
# 2 0.001254 0.012228 -0.000925 -0.000001 -0.002165 0.000002
# 3 -0.008473 -0.000925 0.026391 -0.001077 0.010031 0.000052
# 4 0.000759 -0.000001 -0.001077 -0.776340 -0.001798 0.004007
# 5 -0.004847 -0.002165 0.010031 -0.001798 0.045670 0.000103
# 6 -0.000020 0.000002 0.000052 0.004007 0.000103 0.080686
#
#
# Mechanical properties :
#
#
# Convention : Reuss Voigt Hill
#
# Bulk Modulus (GPa) = 22.94799 23.27073 23.10936
# Shear Modulus (GPa) = -8.93963 18.42238 4.74137
#
# Velocity S-wave (km/s) = -1.96151 2.81582 1.42851
# Velocity P-wave (km/s) = 2.17866 4.53732 3.55906
#
# Compressibility (1/GPa) = 0.04357681
#
# Stress axis : x y z
#
# Youngs Moduli (GPa) = 47.06896 81.78088 37.89200
#
# Poissons Ratio (x) = -0.10257 0.32107
# Poissons Ratio (y) = -0.05904 0.03504
# Poissons Ratio (z) = 0.39882 0.07562
#
# Static dielectric constant tensor:
#      x y z
#    x 1.902470 0.000000 0.003960 
#    y 0.000000 1.951830 -0.000020 
#    z 0.003960 -0.000020 1.866800 
# 
# From -- ./inp_files/344780.got.cif
#   From: 2010.05.17/outbox.cif.g08.bks.cpg/sg12_173_cif.got.tgz:344780.got - 2010.06.03 13:09:07.
