data_PCOD9199553
_publ_section_title
;
Structure prediction by ZEFSAII (Michael W. Deem and Ramdas Pophale) SiO2 
 PCOD9199553
Probable space group: C 2/M
;
_chemical_formula_sum "Si O2"
_cell_formula_units_Z 56
_cell_length_a 27.073104
_cell_length_b 11.673913
_cell_length_c 10.595265
_cell_angle_alpha 90.000000
_cell_angle_beta 127.244315
_cell_angle_gamma 90.000000
_cell_volume 2665.712153
_symmetry_space_group_name_H-M "C 2/M"
_symmetry_group_IT_number 12
_symmetry_cell_setting 'monoclinic'
loop_
_space_group_symop_operation_xyz
x,y,z
-x,y,-z
-x,-y,-z
x,-y,z
1/2+x,1/2+y,z
1/2-x,1/2+y,-z
1/2-x,1/2-y,-z
1/2+x,1/2-y,z
loop_
_atom_site_type_symbol
_atom_site_label
_atom_site_fract_x
_atom_site_fract_y
_atom_site_fract_z
Si Si1 0.791344 0.876501 0.360261
Si Si2 0.644573 0.124771 0.170911
Si Si3 0.927100 0.369231 0.390111
Si Si4 0.480949 0.625360 0.823260
Si Si5 0.883722 0.126999 0.989924
Si Si6 0.180754 0.797712 0.870326
Si Si7 0.619124 0.190567 0.407188
O O1 0.717311 0.871736 0.251269
O O2 0.815112 0.866619 0.253552
O O3 0.820725 0.768732 0.475031
O O4 0.810052 0.000000 0.443014
O O5 0.632487 0.121175 0.301779
O O6 0.620579 0.000000 0.082206
O O7 0.621736 0.251154 0.091358
O O8 0.927118 0.500000 0.342335
O O9 0.875471 0.294372 0.235707
O O10 0.901816 0.368373 0.495482
O O11 0.000000 0.329900 0.500000
O O12 0.452736 0.500000 0.762228
O O13 0.545945 0.628345 0.851390
O O14 0.436274 0.723335 0.711349
O O15 0.500000 0.636506 0.000000
O O16 0.836766 0.132646 0.032754
O O17 0.876387 0.000000 0.914264
O O18 0.250000 0.750000 0.000000
#
# Coordination Sequence:
#
# PCOD9199553 Si02
#       7
#     8   8   8   8   8   8   8
#     4  10  22  39  60  88 124 162 206 259 322 378
#     4  11  23  40  60  90 128 164 204 260 319 382
#     4  10  23  42  64  91 128 174 217 266 329 396
#     4  10  20  36  60  89 123 161 209 262 317 372
#     4  11  23  40  63  94 126 163 210 263 315 380
#     4  11  22  40  64  93 125 166 220 270 323 380
#     4  11  21  39  63  89 122 165 214 258 316 385
#
# _framework density 21.007518999999998
#
# number of rings (size 3 to 8) (size 9 to 14) (size 15 to 20)
#    0.000    1.429    2.857    2.571    0.000    2.286 
#    0.000    2.857    0.000    6.857    0.000    0.000 
#    0.000    0.000    0.000    0.000    0.000    0.000 
#
# Total GULP energy -156059.558136 kJ/mol
# GULP energy per Si atom -5573.555648 kJ/mol
# Density = 2.095970 g / cm^3
# Si number density = 21.007519 Si / 1000 Ang^3
#
#
#
# Elastic Constant Matrix: (Units=GPa)
#
#
# Indices 1 2 3 4 5 6 
#
# 1 89.0983 22.8190 -1.0835 0.0000 7.0916 0.0000
# 2 22.8190 159.8837 42.3796 0.0000 8.9325 0.0000
# 3 -1.0835 42.3796 43.5547 0.0000 10.7943 0.0000
# 4 0.0000 0.0000 0.0000 86.3869 0.0000 40.9818
# 5 7.0916 8.9325 10.7943 0.0000 36.3671 0.0000
# 6 0.0000 0.0000 0.0000 40.9818 0.0000 34.4106
#
#
#
# Elastic Compliance Matrix: (Units=1/GPa)
#
#
# Indices 1 2 3 4 5 6 
#
# 1 0.012119 -0.002475 0.003394 0.000000 -0.002763 0.000000
# 2 -0.002475 0.008939 -0.008997 0.000000 0.000957 0.000000
# 3 0.003394 -0.008997 0.033909 0.000000 -0.008517 0.000000
# 4 0.000000 0.000000 0.000000 0.026611 0.000000 -0.031692
# 5 -0.002763 0.000957 -0.008517 0.000000 0.030329 0.000000
# 6 0.000000 0.000000 0.000000 -0.031692 0.000000 0.066805
#
#
# Mechanical properties :
#
#
# Convention : Reuss Voigt Hill
#
# Bulk Modulus (GPa) = 25.76531 46.75188 36.25860
# Shear Modulus (GPa) = 24.06125 46.66102 35.36114
#
# Velocity S-wave (km/s) = 3.38799 4.71803 4.10721
# Velocity P-wave (km/s) = 5.25320 7.20992 6.30789
#
# Compressibility (1/GPa) = 0.03881187
#
# Stress axis : x y z
#
# Youngs Moduli (GPa) = 82.51777 111.86933 29.49086
#
# Poissons Ratio (x) = 0.27687 -0.10010
# Poissons Ratio (y) = 0.20423 0.26532
# Poissons Ratio (z) = -0.28010 1.00645
#
# Static dielectric constant tensor:
#      x y z
#    x 1.765770 0.000000 -0.016330 
#    y 0.000000 1.829260 0.000000 
#    z -0.016330 0.000000 1.752990 
# 
# From -- ./inp_files/182588.got.cif
#   From: 2010.05.17/outbox.cif.g08.bks.cpg/sg12_92_cif.got.tgz:182588.got - 2010.06.03 13:09:07.
