data_PCOD9199659
_publ_section_title
;
Structure prediction by ZEFSAII (Michael W. Deem and Ramdas Pophale) SiO2 
 PCOD9199659
Probable space group: C 2/M
;
_chemical_formula_sum "Si O2"
_cell_formula_units_Z 32
_cell_length_a 12.103836
_cell_length_b 17.221949
_cell_length_c 12.404019
_cell_angle_alpha 90.000000
_cell_angle_beta 36.495118
_cell_angle_gamma 90.000000
_cell_volume 1537.819402
_symmetry_space_group_name_H-M "C 2/M"
_symmetry_group_IT_number 12
_symmetry_cell_setting 'monoclinic'
loop_
_space_group_symop_operation_xyz
x,y,z
-x,y,-z
-x,-y,-z
x,-y,z
1/2+x,1/2+y,z
1/2-x,1/2+y,-z
1/2-x,1/2-y,-z
1/2+x,1/2-y,z
loop_
_atom_site_type_symbol
_atom_site_label
_atom_site_fract_x
_atom_site_fract_y
_atom_site_fract_z
Si Si1 0.503640 0.209062 0.615637
Si Si2 0.964398 0.500000 0.899455
Si Si3 0.918626 0.853016 0.305412
Si Si4 0.618232 0.500000 0.514953
Si Si5 0.772257 0.912596 0.076750
O O1 0.500000 0.246043 0.500000
O O2 0.701976 0.166386 0.464755
O O3 0.492312 0.275675 0.713802
O O4 0.344810 0.145812 0.759330
O O5 0.846093 0.427841 0.942469
O O6 0.164303 0.500000 0.685370
O O7 0.000000 0.500000 0.000000
O O8 0.931268 0.924741 0.376913
O O9 0.029897 0.878407 0.112195
O O10 0.500000 0.500000 0.500000
O O11 0.785568 0.000000 0.112329
#
# Coordination Sequence:
#
# PCOD9199659 Si02
#       5
#     8   4   8   4   8
#     4  11  25  42  63  92 132 170 203 257 322 375
#     4  10  20  36  60  96 123 159 210 264 312 357
#     4  11  22  43  64  92 126 160 216 262 307 376
#     4  12  20  38  68  92 123 165 210 264 316 363
#     4  10  21  41  63  92 128 161 211 262 304 376
#
# _framework density 20.808686000000002
#
# number of rings (size 3 to 8) (size 9 to 14) (size 15 to 20)
#    0.750    0.500    3.750    3.000    0.000    1.500 
#    0.000    1.250    0.000    0.000    0.000    0.000 
#    0.000    0.000    0.000    0.000    0.000    0.000 
#
# Total GULP energy -89377.628340 kJ/mol
# GULP energy per Si atom -5586.101771 kJ/mol
# Density = 2.076132 g / cm^3
# Si number density = 20.808686 Si / 1000 Ang^3
#
#
#
# Elastic Constant Matrix: (Units=GPa)
#
#
# Indices 1 2 3 4 5 6 
#
# 1 37.3438 0.2472 -12.2358 0.0025 -2.4451 -0.0049
# 2 0.2472 108.3140 55.9462 0.0013 -14.6167 -0.0037
# 3 -12.2358 55.9462 109.5392 -0.0018 -13.5893 -0.0014
# 4 0.0025 0.0013 -0.0018 41.0523 -0.0004 -4.5387
# 5 -2.4451 -14.6167 -13.5893 -0.0004 30.2384 0.0025
# 6 -0.0049 -0.0037 -0.0014 -4.5387 0.0025 -18.5250
#
#
#
# Elastic Compliance Matrix: (Units=1/GPa)
#
#
# Indices 1 2 3 4 5 6 
#
# 1 0.028533 -0.001995 0.004631 -0.000002 0.003424 -0.000006
# 2 -0.001995 0.013013 -0.006470 -0.000001 0.003222 -0.000001
# 3 0.004631 -0.006470 0.013354 0.000000 0.003248 -0.000001
# 4 -0.000002 -0.000001 0.000000 0.023717 0.000000 -0.005811
# 5 0.003424 0.003222 0.003248 0.000000 0.036364 0.000003
# 6 -0.000006 -0.000001 -0.000001 -0.005811 0.000003 -0.052557
#
#
# Mechanical properties :
#
#
# Convention : Reuss Voigt Hill
#
# Bulk Modulus (GPa) = 21.17183 38.12357 29.64770
# Shear Modulus (GPa) = 58.25089 24.63577 41.44333
#
# Velocity S-wave (km/s) = 5.29663 3.44454 4.46762
# Velocity P-wave (km/s) = 6.89945 5.84642 6.39464
#
# Compressibility (1/GPa) = 0.04723258
#
# Stress axis : x y z
#
# Youngs Moduli (GPa) = 35.04722 76.84372 74.88532
#
# Poissons Ratio (x) = 0.15330 -0.34679
# Poissons Ratio (y) = 0.06992 0.48448
# Poissons Ratio (z) = -0.16230 0.49715
#
# Static dielectric constant tensor:
#      x y z
#    x 1.800120 0.000000 -0.001810 
#    y 0.000000 1.692870 0.000000 
#    z -0.001810 0.000000 1.714700 
# 
# From -- ./inp_files/130761.got.cif
#   From: 2010.05.17/outbox.cif.g08.bks.cpg/sg12_66_cif.got.tgz:130761.got - 2010.06.03 13:09:07.
