data_PCOD9199388
_publ_section_title
;
Structure prediction by ZEFSAII (Michael W. Deem and Ramdas Pophale) SiO2 
 PCOD9199388
Probable space group: C 2/M
;
_chemical_formula_sum "Si O2"
_cell_formula_units_Z 64
_cell_length_a 15.999932
_cell_length_b 8.885526
_cell_length_c 26.936329
_cell_angle_alpha 90.000000
_cell_angle_beta 127.606808
_cell_angle_gamma 90.000000
_cell_volume 3033.778859
_symmetry_space_group_name_H-M "C 2/M"
_symmetry_group_IT_number 12
_symmetry_cell_setting 'monoclinic'
loop_
_space_group_symop_operation_xyz
x,y,z
-x,y,-z
-x,-y,-z
x,-y,z
1/2+x,1/2+y,z
1/2-x,1/2+y,-z
1/2-x,1/2-y,-z
1/2+x,1/2-y,z
loop_
_atom_site_type_symbol
_atom_site_label
_atom_site_fract_x
_atom_site_fract_y
_atom_site_fract_z
Si Si1 0.790192 0.823650 0.715335
Si Si2 0.645315 0.178321 0.110576
Si Si3 0.154143 0.827083 0.747774
Si Si4 0.266937 0.317220 0.060385
Si Si5 0.478713 0.172599 0.635988
Si Si6 0.508186 0.679657 0.148210
Si Si7 0.770414 0.174251 0.591040
Si Si8 0.929404 0.169563 0.523019
O O1 0.716973 0.715013 0.720655
O O2 0.909404 0.789907 0.777099
O O3 0.765631 0.808219 0.648679
O O4 0.770173 0.000000 0.721633
O O5 0.759020 0.197832 0.178642
O O6 0.674756 0.232052 0.065610
O O7 0.558751 0.252218 0.115714
O O8 0.621262 0.000000 0.099986
O O9 0.051889 0.724031 0.707916
O O10 0.120672 0.000000 0.737457
O O11 0.262833 0.500000 0.058325
O O12 0.388432 0.273217 0.117323
O O13 0.250000 0.250000 0.000000
O O14 0.359465 0.211598 0.605769
O O15 0.497005 0.272909 0.593853
O O16 0.496414 0.000000 0.630761
O O17 0.505804 0.500000 0.140498
O O18 0.665017 0.217183 0.523769
O O19 0.799220 0.000000 0.592348
O O20 0.000000 0.166097 0.500000
O O21 0.889892 0.000000 0.517943
#
# Coordination Sequence:
#
# PCOD9199388 Si02
#       8
#     8   8   8   8   8   8   8   8
#     4   9  19  36  60  86 114 149 190 235 289 350
#     4   9  20  38  61  87 120 159 199 246 300 357
#     4  10  20  36  60  86 115 149 190 237 291 350
#     4  10  22  39  60  87 121 161 202 245 294 354
#     4  12  25  39  57  83 116 150 190 238 288 344
#     4   9  19  37  61  87 119 158 201 247 296 353
#     4  11  23  38  59  85 114 150 190 235 290 347
#     4  11  24  42  62  82 110 148 190 238 289 344
#
# _framework density 21.095803
#
# number of rings (size 3 to 8) (size 9 to 14) (size 15 to 20)
#    0.000    1.875    0.000    3.375    1.750    6.000 
#    0.000    2.500    0.000    0.000    0.000    0.000 
#    0.000    0.000    0.000    0.000    0.000    0.000 
#
# Total GULP energy -178639.969012 kJ/mol
# GULP energy per Si atom -5582.499032 kJ/mol
# Density = 2.104779 g / cm^3
# Si number density = 21.095803 Si / 1000 Ang^3
#
#
#
# Elastic Constant Matrix: (Units=GPa)
#
#
# Indices 1 2 3 4 5 6 
#
# 1 50.8430 -2.8239 -15.1098 0.0000 -11.6823 0.0000
# 2 -2.8239 20.6007 5.8751 0.0000 -6.6457 0.0000
# 3 -15.1098 5.8751 17.9307 0.0000 0.0369 0.0000
# 4 0.0000 0.0000 0.0000 20.7804 0.0000 5.9472
# 5 -11.6823 -6.6457 0.0369 0.0000 36.8123 0.0000
# 6 0.0000 0.0000 0.0000 5.9472 0.0000 32.9758
#
#
#
# Elastic Compliance Matrix: (Units=1/GPa)
#
#
# Indices 1 2 3 4 5 6 
#
# 1 0.029051 -0.000033 0.024472 0.000000 0.009189 0.000000
# 2 -0.000033 0.057236 -0.018803 0.000000 0.010341 0.000000
# 3 0.024472 -0.018803 0.082545 0.000000 0.004289 0.000000
# 4 0.000000 0.000000 0.000000 0.050741 0.000000 -0.009151
# 5 0.009189 0.010341 0.004289 0.000000 0.031943 0.000000
# 6 0.000000 0.000000 0.000000 -0.009151 0.000000 0.031976
#
#
# Mechanical properties :
#
#
# Convention : Reuss Voigt Hill
#
# Bulk Modulus (GPa) = 5.55232 7.25079 6.40156
# Shear Modulus (GPa) = 15.04875 24.87589 19.96232
#
# Velocity S-wave (km/s) = 2.67376 3.43765 3.07949
# Velocity P-wave (km/s) = 3.48851 4.38191 3.96048
#
# Compressibility (1/GPa) = 0.18010482
#
# Stress axis : x y z
#
# Youngs Moduli (GPa) = 34.42255 17.47150 12.11465
#
# Poissons Ratio (x) = 0.00057 -0.29647
# Poissons Ratio (y) = 0.00113 0.22779
# Poissons Ratio (z) = -0.84240 0.32851
#
# Static dielectric constant tensor:
#      x y z
#    x 1.805840 0.000000 0.012230 
#    y 0.000000 1.708640 0.000000 
#    z 0.012230 0.000000 1.769970 
# 
# From -- ./inp_files/375531.got.cif
#   From: 2010.05.17/outbox.cif.g08.bks.cpg/sg12_188_cif.got.tgz:375531.got - 2010.06.03 13:09:07.
