data_PCOD9199501
_publ_section_title
;
Structure prediction by ZEFSAII (Michael W. Deem and Ramdas Pophale) SiO2 
 PCOD9199501
Probable space group: C 2/M
;
_chemical_formula_sum "Si O2"
_cell_formula_units_Z 56
_cell_length_a 18.504141
_cell_length_b 14.054786
_cell_length_c 11.538293
_cell_angle_alpha 90.000000
_cell_angle_beta 114.666768
_cell_angle_gamma 90.000000
_cell_volume 2726.963595
_symmetry_space_group_name_H-M "C 2/M"
_symmetry_group_IT_number 12
_symmetry_cell_setting 'monoclinic'
loop_
_space_group_symop_operation_xyz
x,y,z
-x,y,-z
-x,-y,-z
x,-y,z
1/2+x,1/2+y,z
1/2-x,1/2+y,-z
1/2-x,1/2-y,-z
1/2+x,1/2-y,z
loop_
_atom_site_type_symbol
_atom_site_label
_atom_site_fract_x
_atom_site_fract_y
_atom_site_fract_z
Si Si1 0.643932 0.110329 0.972382
Si Si2 0.553620 0.697170 0.870008
Si Si3 0.294509 0.611619 0.909445
Si Si4 0.815771 0.110104 0.473830
Si Si5 0.569697 0.609993 0.640800
Si Si6 0.381071 0.307394 0.755115
Si Si7 0.350408 0.896806 0.754101
O O1 0.578709 0.194496 0.919909
O O2 0.715580 0.134443 0.931150
O O3 0.618147 0.000000 0.932415
O O4 0.674243 0.109360 0.126464
O O5 0.550149 0.680805 0.730284
O O6 0.467804 0.655574 0.851606
O O7 0.628137 0.635149 0.962647
O O8 0.290932 0.500000 0.878940
O O9 0.313521 0.668429 0.804056
O O10 0.855043 0.145160 0.381491
O O11 0.848037 0.160259 0.609376
O O12 0.722796 0.110851 0.384103
O O13 0.841067 0.000000 0.502649
O O14 0.500000 0.607702 0.500000
O O15 0.581625 0.500000 0.689788
O O16 0.400327 0.195854 0.763723
O O17 0.388953 0.000000 0.765377
#
# Coordination Sequence:
#
# PCOD9199501 Si02
#       7
#     8   8   8   8   8   8   8
#     4  10  23  44  66  88 119 164 216 255 290 355
#     4  12  23  38  63  91 125 161 201 250 310 367
#     4  11  24  39  59  91 126 161 198 248 312 370
#     4  10  21  39  61  88 120 160 205 250 302 363
#     4  10  20  36  60  88 119 157 199 243 296 365
#     4  12  24  37  59  94 128 159 194 255 319 367
#     4  10  22  41  63  85 116 162 215 256 291 351
#
# _framework density 20.53566
#
# number of rings (size 3 to 8) (size 9 to 14) (size 15 to 20)
#    0.000    1.286    2.857    3.000    2.000    5.143 
#    0.000    1.429    0.000    0.429    0.000    0.000 
#    0.000    0.000    0.000    0.000    0.000    0.000 
#
# Total GULP energy -156134.122059 kJ/mol
# GULP energy per Si atom -5576.218645 kJ/mol
# Density = 2.048892 g / cm^3
# Si number density = 20.535660 Si / 1000 Ang^3
#
#
#
# Elastic Constant Matrix: (Units=GPa)
#
#
# Indices 1 2 3 4 5 6 
#
# 1 32.7712 2.5116 19.2969 0.0000 3.9148 0.0000
# 2 2.5116 69.0244 31.7268 0.0000 -4.7013 0.0000
# 3 19.2969 31.7268 97.5961 0.0000 -6.6539 0.0000
# 4 0.0000 0.0000 0.0000 32.2186 0.0000 -1.0651
# 5 3.9148 -4.7013 -6.6539 0.0000 19.0416 0.0000
# 6 0.0000 0.0000 0.0000 -1.0651 0.0000 -14.8463
#
#
#
# Elastic Compliance Matrix: (Units=1/GPa)
#
#
# Indices 1 2 3 4 5 6 
#
# 1 0.036597 0.001911 -0.008541 0.000000 -0.010037 0.000000
# 2 0.001911 0.017234 -0.005856 0.000000 0.001816 0.000000
# 3 -0.008541 -0.005856 0.014198 0.000000 0.005272 0.000000
# 4 0.000000 0.000000 0.000000 0.030965 0.000000 -0.002221
# 5 -0.010037 0.001816 0.005272 0.000000 0.056870 0.000000
# 6 0.000000 0.000000 0.000000 -0.002221 0.000000 -0.067197
#
#
# Mechanical properties :
#
#
# Convention : Reuss Voigt Hill
#
# Bulk Modulus (GPa) = 23.22632 34.05134 28.63883
# Shear Modulus (GPa) = 39.06507 17.00655 28.03581
#
# Velocity S-wave (km/s) = 4.36627 2.88088 3.69890
# Velocity P-wave (km/s) = 6.06250 5.26151 5.67615
#
# Compressibility (1/GPa) = 0.04305460
#
# Stress axis : x y z
#
# Youngs Moduli (GPa) = 27.32492 58.02614 70.43074
#
# Poissons Ratio (x) = -0.11088 0.60158
# Poissons Ratio (y) = -0.05221 0.41247
# Poissons Ratio (z) = 0.23339 0.33982
#
# Static dielectric constant tensor:
#      x y z
#    x 1.798510 0.000000 -0.000070 
#    y 0.000000 1.758620 0.000000 
#    z -0.000070 0.000000 1.713940 
# 
# From -- ./inp_files/156742.got.cif
#   From: 2010.05.17/outbox.cif.g08.bks.cpg/sg12_79_cif.got.tgz:156742.got - 2010.06.03 13:09:07.
