data_PCOD9199975
_publ_section_title
;
Structure prediction by ZEFSAII (Michael W. Deem and Ramdas Pophale) SiO2 
 PCOD9199975
Probable space group: C 2/M
;
_chemical_formula_sum "Si O2"
_cell_formula_units_Z 56
_cell_length_a 19.781167
_cell_length_b 18.678313
_cell_length_c 12.733186
_cell_angle_alpha 90.000000
_cell_angle_beta 143.507071
_cell_angle_gamma 90.000000
_cell_volume 2797.961902
_symmetry_space_group_name_H-M "C 2/M"
_symmetry_group_IT_number 12
_symmetry_cell_setting 'monoclinic'
loop_
_space_group_symop_operation_xyz
x,y,z
-x,y,-z
-x,-y,-z
x,-y,z
1/2+x,1/2+y,z
1/2-x,1/2+y,-z
1/2-x,1/2-y,-z
1/2+x,1/2-y,z
loop_
_atom_site_type_symbol
_atom_site_label
_atom_site_fract_x
_atom_site_fract_y
_atom_site_fract_z
Si Si1 0.311520 0.173899 0.048941
Si Si2 0.819197 0.000000 0.844462
Si Si3 0.178515 0.751318 0.617365
Si Si4 0.567391 0.761066 0.989400
Si Si5 0.931749 0.000000 0.755878
Si Si6 0.094795 0.135138 0.685899
Si Si7 0.376029 0.111979 0.353589
Si Si8 0.063277 0.843334 0.313565
O O1 0.406358 0.191952 0.080723
O O2 0.353536 0.145121 0.211308
O O3 0.250000 0.250000 0.000000
O O4 0.221379 0.117814 0.884630
O O5 0.870974 0.000000 0.792659
O O6 0.734090 0.065652 0.756962
O O7 0.930671 0.000000 0.057598
O O8 0.124505 0.801428 0.641033
O O9 0.118105 0.675478 0.553392
O O10 0.159181 0.792525 0.484208
O O11 0.309405 0.740620 0.811420
O O12 0.493940 0.692972 0.859165
O O13 0.500000 0.797730 0.000000
O O14 0.901310 0.074924 0.662155
O O15 0.000000 0.091117 0.500000
O O16 0.032544 0.155882 0.715507
O O17 0.500000 0.077120 0.500000
#
# Coordination Sequence:
#
# PCOD9199975 Si02
#       8
#     8   4   8   8   4   8   8   8
#     4  11  18  33  59  88 121 160 200 257 310 361
#     4  11  27  44  62  90 127 173 208 252 315 382
#     4  10  20  36  62  93 124 158 206 268 313 359
#     4  11  22  34  56  91 130 157 201 261 315 378
#     4  11  26  42  61  84 134 177 201 249 314 380
#     4   9  16  31  56  85 116 151 199 257 299 353
#     4  12  22  40  66  94 123 162 210 265 312 363
#     4  11  21  37  60  89 125 165 205 246 314 374
#
# _framework density 20.014569000000002
#
# number of rings (size 3 to 8) (size 9 to 14) (size 15 to 20)
#    0.000    1.286    4.286    4.071    4.000    0.571 
#    2.571    3.214    0.000    4.286    0.000    2.000 
#    0.000    0.000    0.000    0.000    0.000    0.000 
#
# Total GULP energy -156071.893121 kJ/mol
# GULP energy per Si atom -5573.996183 kJ/mol
# Density = 1.996902 g / cm^3
# Si number density = 20.014569 Si / 1000 Ang^3
#
#
#
# Elastic Constant Matrix: (Units=GPa)
#
#
# Indices 1 2 3 4 5 6 
#
# 1 110.4842 30.6424 25.5609 0.0000 4.4194 0.0000
# 2 30.6424 87.9228 48.6920 0.0000 -11.0942 0.0000
# 3 25.5609 48.6920 108.7120 0.0000 -13.1930 0.0000
# 4 0.0000 0.0000 0.0000 115.5617 0.0000 -96.3110
# 5 4.4194 -11.0942 -13.1930 0.0000 23.6482 0.0000
# 6 0.0000 0.0000 0.0000 -96.3110 0.0000 88.9121
#
#
#
# Elastic Compliance Matrix: (Units=1/GPa)
#
#
# Indices 1 2 3 4 5 6 
#
# 1 0.010511 -0.003395 -0.001483 0.000000 -0.004384 0.000000
# 2 -0.003395 0.016506 -0.005983 0.000000 0.005040 0.000000
# 3 -0.001483 -0.005983 0.012786 0.000000 0.004603 0.000000
# 4 0.000000 0.000000 0.000000 0.089000 0.000000 0.096406
# 5 -0.004384 0.005040 0.004603 0.000000 0.048039 0.000000
# 6 0.000000 0.000000 0.000000 0.096406 0.000000 0.115675
#
#
# Mechanical properties :
#
#
# Convention : Reuss Voigt Hill
#
# Bulk Modulus (GPa) = 55.30748 57.43439 56.37093
# Shear Modulus (GPa) = 15.61199 59.10599 37.35899
#
# Velocity S-wave (km/s) = 2.79593 5.44018 4.32509
# Velocity P-wave (km/s) = 6.17386 8.25950 7.29164
#
# Compressibility (1/GPa) = 0.01808074
#
# Stress axis : x y z
#
# Youngs Moduli (GPa) = 95.13681 60.58226 78.21211
#
# Poissons Ratio (x) = 0.20570 0.11597
# Poissons Ratio (y) = 0.32303 0.46796
# Poissons Ratio (z) = 0.14106 0.36248
#
# Static dielectric constant tensor:
#      x y z
#    x 1.695530 0.000000 0.001830 
#    y 0.000000 1.752890 0.000000 
#    z 0.001830 0.000000 1.801580 
# 
# From -- ./inp_files/234755.got.cif
#   From: 2010.05.17/outbox.cif.g08.bks.cpg/sg12_118_cif.got.tgz:234755.got - 2010.06.03 13:09:07.
