data_PCOD9199222
_publ_section_title
;
Structure prediction by ZEFSAII (Michael W. Deem and Ramdas Pophale) SiO2 
 PCOD9199222
Probable space group: C 2/M
;
_chemical_formula_sum "Si O2"
_cell_formula_units_Z 56
_cell_length_a 23.398592
_cell_length_b 8.901224
_cell_length_c 15.141391
_cell_angle_alpha 90.000000
_cell_angle_beta 66.161483
_cell_angle_gamma 90.000000
_cell_volume 2884.551490
_symmetry_space_group_name_H-M "C 2/M"
_symmetry_group_IT_number 12
_symmetry_cell_setting 'monoclinic'
loop_
_space_group_symop_operation_xyz
x,y,z
-x,y,-z
-x,-y,-z
x,-y,z
1/2+x,1/2+y,z
1/2-x,1/2+y,-z
1/2-x,1/2-y,-z
1/2+x,1/2-y,z
loop_
_atom_site_type_symbol
_atom_site_label
_atom_site_fract_x
_atom_site_fract_y
_atom_site_fract_z
Si Si1 0.245318 0.679064 0.636980
Si Si2 0.182759 0.680585 0.027078
Si Si3 0.436999 0.820270 0.793351
Si Si4 0.014568 0.820424 0.592175
Si Si5 0.845840 0.680324 0.155839
Si Si6 0.525016 0.676990 0.884739
Si Si7 0.850895 0.678623 0.461191
O O1 0.257394 0.500000 0.623836
O O2 0.216920 0.714513 0.750304
O O3 0.190300 0.713896 0.600390
O O4 0.307107 0.765782 0.568893
O O5 0.187023 0.500000 0.026706
O O6 0.131753 0.727760 0.131381
O O7 0.250000 0.750000 0.000000
O O8 0.159528 0.721722 0.943367
O O9 0.461813 0.745895 0.688967
O O10 0.483700 0.769385 0.841953
O O11 0.438250 0.000000 0.784418
O O12 0.082095 0.756981 0.578413
O O13 0.000000 0.779602 0.500000
O O14 0.015518 0.000000 0.599037
O O15 0.856137 0.500000 0.156213
O O16 0.904233 0.765340 0.161268
O O17 0.521194 0.500000 0.866709
O O18 0.500000 0.700490 0.000000
O O19 0.859596 0.500000 0.458884
#
# Coordination Sequence:
#
# PCOD9199222 Si02
#       7
#     8   8   8   8   8   8   8
#     4   9  19  35  58  86 117 153 193 240 299 358
#     4  10  23  40  59  83 115 156 198 244 295 351
#     4  11  23  41  64  90 121 158 200 248 303 359
#     4  11  25  43  63  87 118 158 203 251 303 357
#     4  10  20  37  59  85 117 157 202 245 296 357
#     4  11  22  35  58  92 125 158 197 246 299 352
#     4  10  20  36  59  88 119 153 194 244 300 355
#
# _framework density 19.413762999999999
#
# number of rings (size 3 to 8) (size 9 to 14) (size 15 to 20)
#    0.000    1.714    1.429    2.571    0.000    6.857 
#    0.000    4.286    0.000    0.000    0.000    0.000 
#    0.000    0.000    0.000    0.000    0.000    0.000 
#
# Total GULP energy -156500.355056 kJ/mol
# GULP energy per Si atom -5589.298395 kJ/mol
# Density = 1.936958 g / cm^3
# Si number density = 19.413763 Si / 1000 Ang^3
#
#
#
# Elastic Constant Matrix: (Units=GPa)
#
#
# Indices 1 2 3 4 5 6 
#
# 1 84.6239 27.7409 46.9603 0.0000 -20.2921 0.0000
# 2 27.7409 31.8566 44.1535 0.0000 -5.9981 0.0000
# 3 46.9603 44.1535 151.8448 0.0000 -23.8219 0.0000
# 4 0.0000 0.0000 0.0000 33.2178 0.0000 -4.7941
# 5 -20.2921 -5.9981 -23.8219 0.0000 25.2752 0.0000
# 6 0.0000 0.0000 0.0000 -4.7941 0.0000 33.3818
#
#
#
# Elastic Compliance Matrix: (Units=1/GPa)
#
#
# Indices 1 2 3 4 5 6 
#
# 1 0.019590 -0.015116 0.000283 0.000000 0.012408 0.000000
# 2 -0.015116 0.064357 -0.015898 0.000000 -0.011846 0.000000
# 3 0.000283 -0.015898 0.012398 0.000000 0.008140 0.000000
# 4 0.000000 0.000000 0.000000 0.030742 0.000000 0.004415
# 5 0.012408 -0.011846 0.008140 0.000000 0.054387 0.000000
# 6 0.000000 0.000000 0.000000 0.004415 0.000000 0.030591
#
#
# Mechanical properties :
#
#
# Convention : Reuss Voigt Hill
#
# Bulk Modulus (GPa) = 28.66546 56.22606 42.44576
# Shear Modulus (GPa) = 17.53449 28.33965 22.93707
#
# Velocity S-wave (km/s) = 3.00859 3.82484 3.44100
# Velocity P-wave (km/s) = 5.18328 6.96640 6.13991
#
# Compressibility (1/GPa) = 0.03488519
#
# Stress axis : x y z
#
# Youngs Moduli (GPa) = 51.04581 15.53826 80.66023
#
# Poissons Ratio (x) = 0.23488 -0.02286
# Poissons Ratio (y) = 0.77160 1.28230
# Poissons Ratio (z) = -0.01447 0.24702
#
# Static dielectric constant tensor:
#      x y z
#    x 1.643590 0.000000 0.005180 
#    y 0.000000 1.649960 0.000000 
#    z 0.005180 0.000000 1.694020 
# 
# From -- ./inp_files/238279.got.cif
#   From: 2010.05.17/outbox.cif.g08.bks.cpg/sg12_120_cif.got.tgz:238279.got - 2010.06.03 13:09:07.
