data_PCOD9199070
_publ_section_title
;
Structure prediction by ZEFSAII (Michael W. Deem and Ramdas Pophale) SiO2 
 PCOD9199070
Probable space group: C 2/M
;
_chemical_formula_sum "Si O2"
_cell_formula_units_Z 28
_cell_length_a 7.709770
_cell_length_b 14.377697
_cell_length_c 15.393005
_cell_angle_alpha 90.000000
_cell_angle_beta 135.758220
_cell_angle_gamma 90.000000
_cell_volume 1190.461127
_symmetry_space_group_name_H-M "C 2/M"
_symmetry_group_IT_number 12
_symmetry_cell_setting 'monoclinic'
loop_
_space_group_symop_operation_xyz
x,y,z
-x,y,-z
-x,-y,-z
x,-y,z
1/2+x,1/2+y,z
1/2-x,1/2+y,-z
1/2-x,1/2-y,-z
1/2+x,1/2-y,z
loop_
_atom_site_type_symbol
_atom_site_label
_atom_site_fract_x
_atom_site_fract_y
_atom_site_fract_z
Si Si1 0.125349 0.500000 0.306789
Si Si2 0.631543 0.500000 0.415268
Si Si3 0.732081 0.676953 0.913471
Si Si4 0.000000 0.657278 0.500000
Si Si5 0.812076 0.672618 0.249668
O O1 0.335914 0.500000 0.309117
O O2 0.267410 0.500000 0.450023
O O3 0.965032 0.593341 0.254202
O O4 0.762146 0.410138 0.422562
O O5 0.464194 0.631179 0.832795
O O6 0.704366 0.738419 0.817077
O O7 0.750000 0.750000 0.000000
O O8 0.000000 0.626981 0.000000
O O9 0.051583 0.703510 0.611503
#
# Coordination Sequence:
#
# PCOD9199070 Si02
#       5
#     4   4   8   4   8
#     4   9  18  34  58  85 111 150 192 229 272 338
#     4   8  16  32  52  81 126 152 165 219 304 348
#     4   9  20  39  56  74 111 158 189 228 286 328
#     4   9  18  32  56  90 116 143 182 232 288 341
#     4  10  20  36  59  85 115 148 190 233 282 342
#
# _framework density 23.520299000000001
#
# number of rings (size 3 to 8) (size 9 to 14) (size 15 to 20)
#    0.000    2.857    0.000    0.857    0.000    5.714 
#    0.000   10.000    0.000    0.000    0.000    0.000 
#    0.000    0.000    0.000    0.000    0.000    0.000 
#
# Total GULP energy -78130.248105 kJ/mol
# GULP energy per Si atom -5580.732008 kJ/mol
# Density = 2.346677 g / cm^3
# Si number density = 23.520299 Si / 1000 Ang^3
#
#
#
# Elastic Constant Matrix: (Units=GPa)
#
#
# Indices 1 2 3 4 5 6 
#
# 1 130.5469 23.6720 59.4773 0.0000 39.3051 0.0000
# 2 23.6720 33.4625 26.6756 0.0000 10.2478 0.0000
# 3 59.4773 26.6756 112.8134 0.0001 11.9917 0.0001
# 4 0.0000 0.0000 0.0001 16.2496 0.0000 2.4559
# 5 39.3051 10.2478 11.9917 0.0000 80.4794 0.0001
# 6 0.0000 0.0000 0.0001 2.4559 0.0001 0.7028
#
#
#
# Elastic Compliance Matrix: (Units=1/GPa)
#
#
# Indices 1 2 3 4 5 6 
#
# 1 0.011926 -0.002939 -0.005094 0.000000 -0.004691 0.000001
# 2 -0.002939 0.038516 -0.007305 0.000000 -0.002380 0.000001
# 3 -0.005094 -0.007305 0.013122 0.000000 0.001463 -0.000003
# 4 0.000000 0.000000 0.000000 0.130419 0.000000 -0.455750
# 5 -0.004691 -0.002380 0.001463 0.000000 0.014802 -0.000002
# 6 0.000001 0.000001 -0.000003 -0.455750 -0.000002 3.015534
#
#
# Mechanical properties :
#
#
# Convention : Reuss Voigt Hill
#
# Bulk Modulus (GPa) = 30.40663 55.16361 42.78512
# Shear Modulus (GPa) = 1.53094 30.61955 16.07525
#
# Velocity S-wave (km/s) = 0.80766 3.61201 2.61715
# Velocity P-wave (km/s) = 3.71829 6.39531 5.23095
#
# Compressibility (1/GPa) = 0.03288757
#
# Stress axis : x y z
#
# Youngs Moduli (GPa) = 83.84721 25.96348 76.20996
#
# Poissons Ratio (x) = 0.07632 0.38822
# Poissons Ratio (y) = 0.24646 0.55668
# Poissons Ratio (z) = 0.42713 0.18965
#
# Static dielectric constant tensor:
#      x y z
#    x 1.997630 0.000000 0.044240 
#    y 0.000000 1.987140 0.000000 
#    z 0.044240 0.000000 1.916110 
# 
# From -- ./inp_files/117249.got.cif
#   From: 2010.05.17/outbox.cif.g08.bks.cpg/sg12_59_cif.got.tgz:117249.got - 2010.06.03 13:09:07.
