data_PCOD9199185
_publ_section_title
;
Structure prediction by ZEFSAII (Michael W. Deem and Ramdas Pophale) SiO2 
 PCOD9199185
Probable space group: C 2/M
;
_chemical_formula_sum "Si O2"
_cell_formula_units_Z 64
_cell_length_a 16.413177
_cell_length_b 7.550438
_cell_length_c 22.192346
_cell_angle_alpha 90.000000
_cell_angle_beta 85.627910
_cell_angle_gamma 90.000000
_cell_volume 2742.220521
_symmetry_space_group_name_H-M "C 2/M"
_symmetry_group_IT_number 12
_symmetry_cell_setting 'monoclinic'
loop_
_space_group_symop_operation_xyz
x,y,z
-x,y,-z
-x,-y,-z
x,-y,z
1/2+x,1/2+y,z
1/2-x,1/2+y,-z
1/2-x,1/2-y,-z
1/2+x,1/2-y,z
loop_
_atom_site_type_symbol
_atom_site_label
_atom_site_fract_x
_atom_site_fract_y
_atom_site_fract_z
Si Si1 0.155810 0.210276 0.516438
Si Si2 0.564613 0.202969 0.639679
Si Si3 0.325264 0.717049 0.736756
Si Si4 0.891538 0.799949 0.608807
Si Si5 0.271758 0.710604 0.067443
Si Si6 0.059222 0.201486 0.890840
Si Si7 0.894113 0.208644 0.854335
Si Si8 0.638295 0.214809 0.762207
O O1 0.250000 0.250000 0.500000
O O2 0.126609 0.291594 0.580524
O O3 0.112541 0.278787 0.457806
O O4 0.140695 0.000000 0.523224
O O5 0.484528 0.305550 0.624450
O O6 0.603643 0.268117 0.699315
O O7 0.539195 0.000000 0.650974
O O8 0.330116 0.500000 0.734915
O O9 0.344438 0.781627 0.668317
O O10 0.385956 0.778867 0.786362
O O11 0.233350 0.764376 0.759871
O O12 0.858180 0.000000 0.603760
O O13 0.275353 0.500000 0.076980
O O14 0.362078 0.782432 0.079473
O O15 0.195335 0.776404 0.111180
O O16 0.250000 0.750000 0.000000
O O17 0.088835 0.203667 0.819846
O O18 0.968079 0.282671 0.891146
O O19 0.050690 0.000000 0.914944
O O20 0.912503 0.000000 0.848060
O O21 0.633767 0.000000 0.767294
#
# Coordination Sequence:
#
# PCOD9199185 Si02
#       8
#     8   8   8   8   8   8   8   8
#     4  11  23  39  59  81 110 150 196 248 303 364
#     4  11  23  37  55  83 118 152 194 247 300 357
#     4   9  17  33  59  85 112 151 195 240 293 357
#     4  10  21  38  58  81 112 153 200 244 297 362
#     4  11  24  42  63  91 127 162 201 249 297 353
#     4  10  22  39  62  93 125 158 202 256 304 355
#     4  10  20  38  64  90 120 161 203 245 302 362
#     4  10  20  36  59  87 119 157 199 246 298 357
#
# _framework density 23.338749
#
# number of rings (size 3 to 8) (size 9 to 14) (size 15 to 20)
#    0.000    1.750    1.250    3.000    0.000    8.000 
#    0.000    3.750    0.000    0.000    0.000    0.000 
#    0.000    0.000    0.000    0.000    0.000    0.000 
#
# Total GULP energy -178800.754677 kJ/mol
# GULP energy per Si atom -5587.523584 kJ/mol
# Density = 2.328563 g / cm^3
# Si number density = 23.338749 Si / 1000 Ang^3
#
#
#
# Elastic Constant Matrix: (Units=GPa)
#
#
# Indices 1 2 3 4 5 6 
#
# 1 87.6832 0.2104 7.1440 0.0000 43.5383 0.0000
# 2 0.2104 63.8560 -7.1958 0.0000 6.2031 0.0000
# 3 7.1440 -7.1958 101.7115 0.0000 35.2003 0.0000
# 4 0.0000 0.0000 0.0000 9.4862 0.0000 -10.3301
# 5 43.5383 6.2031 35.2003 0.0000 43.6968 0.0000
# 6 0.0000 0.0000 0.0000 -10.3301 0.0000 15.4730
#
#
#
# Elastic Compliance Matrix: (Units=1/GPa)
#
#
# Indices 1 2 3 4 5 6 
#
# 1 0.031425 0.005472 0.012874 0.000000 -0.042458 0.000000
# 2 0.005472 0.017360 0.004969 0.000000 -0.011919 0.000000
# 3 0.012874 0.004969 0.019360 0.000000 -0.029128 0.000000
# 4 0.000000 0.000000 0.000000 0.386169 0.000000 0.257815
# 5 -0.042458 -0.011919 -0.029128 0.000000 0.090345 0.000000
# 6 0.000000 0.000000 0.000000 0.257815 0.000000 0.236752
#
#
# Mechanical properties :
#
#
# Convention : Reuss Voigt Hill
#
# Bulk Modulus (GPa) = 8.71289 28.17420 18.44354
# Shear Modulus (GPa) = 6.46798 30.60399 18.53598
#
# Velocity S-wave (km/s) = 1.66654 3.62511 2.82124
# Velocity P-wave (km/s) = 2.72846 5.44242 4.30491
#
# Compressibility (1/GPa) = 0.11477253
#
# Stress axis : x y z
#
# Youngs Moduli (GPa) = 31.82191 57.60396 51.65417
#
# Poissons Ratio (x) = -0.31519 -0.66499
# Poissons Ratio (y) = -0.17412 -0.25665
# Poissons Ratio (z) = -0.40967 -0.28621
#
# Static dielectric constant tensor:
#      x y z
#    x 1.878170 0.000000 0.026810 
#    y 0.000000 1.978550 0.000000 
#    z 0.026810 0.000000 1.870940 
# 
# From -- ./inp_files/338842.got.cif
#   From: 2010.05.17/outbox.cif.g08.bks.cpg/sg12_170_cif.got.tgz:338842.got - 2010.06.03 13:09:07.
