data_PCOD9199697
_publ_section_title
;
Structure prediction by ZEFSAII (Michael W. Deem and Ramdas Pophale) SiO2 
 PCOD9199697
Probable space group: C 2/M
;
_chemical_formula_sum "Si O2"
_cell_formula_units_Z 48
_cell_length_a 30.753449
_cell_length_b 13.564868
_cell_length_c 7.720901
_cell_angle_alpha 90.000000
_cell_angle_beta 53.179274
_cell_angle_gamma 90.000000
_cell_volume 2578.378422
_symmetry_space_group_name_H-M "C 2/M"
_symmetry_group_IT_number 12
_symmetry_cell_setting 'monoclinic'
loop_
_space_group_symop_operation_xyz
x,y,z
-x,y,-z
-x,-y,-z
x,-y,z
1/2+x,1/2+y,z
1/2-x,1/2+y,-z
1/2-x,1/2-y,-z
1/2+x,1/2-y,z
loop_
_atom_site_type_symbol
_atom_site_label
_atom_site_fract_x
_atom_site_fract_y
_atom_site_fract_z
Si Si1 0.938672 0.771901 0.207771
Si Si2 0.559958 0.612335 0.438240
Si Si3 0.676524 0.112825 0.981232
Si Si4 0.126617 0.204122 0.973045
Si Si5 0.756046 0.781713 0.288023
Si Si6 0.855245 0.613132 0.547839
O O1 0.940870 0.843903 0.367559
O O2 0.906212 0.818707 0.122114
O O3 0.000000 0.748922 0.000000
O O4 0.138962 0.677802 0.943545
O O5 0.500000 0.612633 0.500000
O O6 0.580009 0.500000 0.393458
O O7 0.595124 0.675792 0.220843
O O8 0.730490 0.182205 0.854442
O O9 0.595897 0.178108 0.643833
O O10 0.686696 0.000000 0.906049
O O11 0.647454 0.113418 0.236502
O O12 0.187017 0.159155 0.849462
O O13 0.750000 0.750000 0.500000
O O14 0.702374 0.838428 0.364781
O O15 0.858290 0.500000 0.482046
#
# Coordination Sequence:
#
# PCOD9199697 Si02
#       6
#     8   8   8   8   8   8
#     4  12  23  40  68  94 126 165 212 265 311 374
#     4  11  24  43  65  91 127 166 208 261 318 378
#     4   9  20  38  64  91 127 168 206 255 316 375
#     4  10  22  39  66  93 126 166 212 260 314 371
#     4  10  20  36  61  87 126 164 207 264 309 364
#     4  11  22  40  63  92 129 170 211 258 316 374
#
# _framework density 18.616353
#
# number of rings (size 3 to 8) (size 9 to 14) (size 15 to 20)
#    1.000    0.500    5.000    0.500    0.000    4.667 
#    0.000    2.500    0.000    3.000    0.000    0.000 
#    0.000    0.000    0.000    0.000    0.000    0.000 
#
# Total GULP energy -133674.990006 kJ/mol
# GULP energy per Si atom -5569.791250 kJ/mol
# Density = 1.857398 g / cm^3
# Si number density = 18.616353 Si / 1000 Ang^3
#
#
#
# Elastic Constant Matrix: (Units=GPa)
#
#
# Indices 1 2 3 4 5 6 
#
# 1 93.9045 38.1820 29.1352 0.0000 -0.8940 0.0000
# 2 38.1820 106.9155 27.9125 0.0000 -3.3052 0.0000
# 3 29.1352 27.9125 87.7089 0.0000 -3.3483 0.0000
# 4 0.0000 0.0000 0.0000 8.5425 0.0000 0.1719
# 5 -0.8940 -3.3052 -3.3483 0.0000 41.3296 0.0000
# 6 0.0000 0.0000 0.0000 0.1719 0.0000 19.0379
#
#
#
# Elastic Compliance Matrix: (Units=1/GPa)
#
#
# Indices 1 2 3 4 5 6 
#
# 1 0.013213 -0.003903 -0.003158 0.000000 -0.000282 0.000000
# 2 -0.003903 0.011366 -0.002296 0.000000 0.000639 0.000000
# 3 -0.003158 -0.002296 0.013212 0.000000 0.000818 0.000000
# 4 0.000000 0.000000 0.000000 0.117083 0.000000 -0.001057
# 5 -0.000282 0.000639 0.000818 0.000000 0.024307 0.000000
# 6 0.000000 0.000000 0.000000 -0.001057 0.000000 0.052536
#
#
# Mechanical properties :
#
#
# Convention : Reuss Voigt Hill
#
# Bulk Modulus (GPa) = 52.41795 53.22094 52.81945
# Shear Modulus (GPa) = 19.47104 26.66861 23.06982
#
# Velocity S-wave (km/s) = 3.23756 3.78899 3.52408
# Velocity P-wave (km/s) = 6.49568 6.91320 6.70769
#
# Compressibility (1/GPa) = 0.01907743
#
# Stress axis : x y z
#
# Youngs Moduli (GPa) = 75.68197 87.97948 75.68676
#
# Poissons Ratio (x) = 0.34339 0.23901
# Poissons Ratio (y) = 0.29539 0.17380
# Poissons Ratio (z) = 0.23899 0.20203
#
# Static dielectric constant tensor:
#      x y z
#    x 1.859080 0.000000 -0.091170 
#    y 0.000000 1.646520 0.000000 
#    z -0.091170 0.000000 1.690660 
# 
# From -- ./inp_files/31728.got.cif
#   From: 2010.05.17/outbox.cif.g08.bks.cpg/sg12_16_cif.got.tgz:31728.got - 2010.06.03 13:09:07.
