data_PCOD9199305
_publ_section_title
;
Structure prediction by ZEFSAII (Michael W. Deem and Ramdas Pophale) SiO2 
 PCOD9199305
Probable space group: C 2/M
;
_chemical_formula_sum "Si O2"
_cell_formula_units_Z 52
_cell_length_a 23.554003
_cell_length_b 10.639316
_cell_length_c 22.403822
_cell_angle_alpha 90.000000
_cell_angle_beta 153.110983
_cell_angle_gamma 90.000000
_cell_volume 2539.173224
_symmetry_space_group_name_H-M "C 2/M"
_symmetry_group_IT_number 12
_symmetry_cell_setting 'monoclinic'
loop_
_space_group_symop_operation_xyz
x,y,z
-x,y,-z
-x,-y,-z
x,-y,z
1/2+x,1/2+y,z
1/2-x,1/2+y,-z
1/2-x,1/2-y,-z
1/2+x,1/2-y,z
loop_
_atom_site_type_symbol
_atom_site_label
_atom_site_fract_x
_atom_site_fract_y
_atom_site_fract_z
Si Si1 0.289269 0.142193 0.083601
Si Si2 0.650751 0.731140 0.203678
Si Si3 0.045630 0.000000 0.391491
Si Si4 0.188667 0.862466 0.362223
Si Si5 0.726107 0.500000 0.675217
Si Si6 0.148219 0.230284 0.067161
Si Si7 0.774116 0.000000 0.188839
Si Si8 0.431666 0.767310 0.652496
O O1 0.211474 0.158545 0.071780
O O2 0.435733 0.168563 0.233687
O O3 0.271824 0.000000 0.044082
O O4 0.250000 0.250000 0.000000
O O5 0.714586 0.657957 0.317292
O O6 0.687444 0.690619 0.171210
O O7 0.689339 0.875819 0.248553
O O8 0.501692 0.717825 0.072941
O O9 0.124274 0.000000 0.527046
O O10 0.075553 0.129569 0.385164
O O11 0.896676 0.000000 0.263075
O O12 0.317390 0.847181 0.519118
O O13 0.095457 0.759533 0.303134
O O14 0.132893 0.000000 0.318124
O O15 0.675106 0.500000 0.695191
O O16 0.191560 0.375549 0.102186
#
# Coordination Sequence:
#
# PCOD9199305 Si02
#       8
#     8   8   4   8   4   8   4   8
#     4  12  28  47  68  96 130 168 213 262 323 390
#     4  10  21  39  62  93 127 169 214 266 316 375
#     4  12  19  38  68  94 128 164 218 267 317 382
#     4  11  23  41  64  92 126 169 216 263 321 387
#     4  10  20  36  59  99 128 168 216 263 317 372
#     4  10  22  40  64  92 130 170 212 264 319 378
#     4  10  20  36  65  91 134 171 212 262 318 380
#     4  11  24  42  64  94 129 167 209 268 328 378
#
# _framework density 20.479106000000002
#
# number of rings (size 3 to 8) (size 9 to 14) (size 15 to 20)
#    0.000    1.231    3.846    2.077    2.154    4.308 
#    4.154    2.308    0.000    1.846    0.000    0.000 
#    0.000    0.000    0.000    0.000    0.000    0.000 
#
# Total GULP energy -145275.484736 kJ/mol
# GULP energy per Si atom -5587.518644 kJ/mol
# Density = 2.043249 g / cm^3
# Si number density = 20.479106 Si / 1000 Ang^3
#
#
#
# Elastic Constant Matrix: (Units=GPa)
#
#
# Indices 1 2 3 4 5 6 
#
# 1 104.8556 31.2632 26.5044 -0.0001 -0.7651 -0.0001
# 2 31.2632 88.1848 7.3078 -0.0002 -12.9702 -0.0001
# 3 26.5044 7.3078 39.8742 -0.0002 -1.1301 -0.0002
# 4 -0.0001 -0.0002 -0.0002 12.5251 -0.0001 5.2886
# 5 -0.7651 -12.9702 -1.1301 -0.0001 37.0317 -0.0001
# 6 -0.0001 -0.0001 -0.0002 5.2886 -0.0001 24.2227
#
#
#
# Elastic Compliance Matrix: (Units=1/GPa)
#
#
# Indices 1 2 3 4 5 6 
#
# 1 0.012693 -0.004065 -0.007732 0.000000 -0.001397 0.000000
# 2 -0.004065 0.013431 0.000372 0.000000 0.004632 0.000000
# 3 -0.007732 0.000372 0.030175 0.000000 0.000891 0.000000
# 4 0.000000 0.000000 0.000000 0.087947 0.000000 -0.019202
# 5 -0.001397 0.004632 0.000891 0.000000 0.028624 0.000000
# 6 0.000000 0.000000 0.000000 -0.019202 0.000000 0.045476
#
#
# Mechanical properties :
#
#
# Convention : Reuss Voigt Hill
#
# Bulk Modulus (GPa) = 29.89558 40.34062 35.11810
# Shear Modulus (GPa) = 19.81399 25.94517 22.87958
#
# Velocity S-wave (km/s) = 3.11388 3.56323 3.34610
# Velocity P-wave (km/s) = 5.24958 6.05558 5.66692
#
# Compressibility (1/GPa) = 0.03344976
#
# Stress axis : x y z
#
# Youngs Moduli (GPa) = 78.78356 74.45308 33.13968
#
# Poissons Ratio (x) = 0.30263 0.25623
# Poissons Ratio (y) = 0.32023 -0.01231
# Poissons Ratio (z) = 0.60913 -0.02766
#
# Static dielectric constant tensor:
#      x y z
#    x 1.742780 0.000000 -0.023510 
#    y 0.000000 1.872760 0.000000 
#    z -0.023510 0.000000 1.700770 
# 
# From -- ./inp_files/321610.got.cif
#   From: 2010.05.17/outbox.cif.g08.bks.cpg/sg12_161_cif.got.tgz:321610.got - 2010.06.03 13:09:07.
