data_PCOD9199990
_publ_section_title
;
Structure prediction by ZEFSAII (Michael W. Deem and Ramdas Pophale) SiO2 
 PCOD9199990
Probable space group: C 2/M
;
_chemical_formula_sum "Si O2"
_cell_formula_units_Z 58
_cell_length_a 12.962121
_cell_length_b 20.156710
_cell_length_c 18.604310
_cell_angle_alpha 90.000000
_cell_angle_beta 35.849655
_cell_angle_gamma 90.000000
_cell_volume 2846.787925
_symmetry_space_group_name_H-M "C 2/M"
_symmetry_group_IT_number 12
_symmetry_cell_setting 'monoclinic'
loop_
_space_group_symop_operation_xyz
x,y,z
-x,y,-z
-x,-y,-z
x,-y,z
1/2+x,1/2+y,z
1/2-x,1/2+y,-z
1/2-x,1/2-y,-z
1/2+x,1/2-y,z
loop_
_atom_site_type_symbol
_atom_site_label
_atom_site_fract_x
_atom_site_fract_y
_atom_site_fract_z
Si Si1 0.281860 0.878600 0.051319
Si Si2 0.081223 0.578827 0.298300
Si Si3 0.614904 0.715333 0.255794
Si Si4 0.321667 0.715751 0.619362
Si Si5 0.500000 0.000000 0.000000
Si Si6 0.237077 0.655964 0.445248
Si Si7 0.050618 0.661942 0.187054
Si Si8 0.606229 0.421847 0.771766
O O1 0.239216 0.838167 0.147813
O O2 0.088454 0.891977 0.125381
O O3 0.392184 0.942080 0.014374
O O4 0.380808 0.839061 0.932556
O O5 0.046920 0.500000 0.328571
O O6 0.919946 0.624861 0.418913
O O7 0.103286 0.597082 0.202298
O O8 0.261252 0.596805 0.238660
O O9 0.681956 0.736575 0.295560
O O10 0.419092 0.683134 0.377369
O O11 0.607405 0.775165 0.203169
O O12 0.500000 0.678349 0.500000
O O13 0.320403 0.780395 0.569278
O O14 0.158383 0.669185 0.697402
O O15 0.293268 0.599745 0.357235
O O16 0.584490 0.500000 0.787261
#
# Coordination Sequence:
#
# PCOD9199990 Si02
#       8
#     8   8   8   8   2   8   8   8
#     4  11  24  42  65  92 123 173 223 268 322 387
#     4  11  23  38  62  94 134 172 208 267 331 390
#     4  10  22  41  64  94 128 168 222 274 328 381
#     4  11  21  37  64  92 127 166 213 267 328 390
#     4  12  24  44  68  86 128 176 216 264 318 398
#     4  10  20  36  62  94 126 165 209 265 325 389
#     4  11  24  41  63  94 131 172 222 275 328 391
#     4  10  20  37  59  89 121 159 214 261 316 382
#
# _framework density 20.373840000000001
#
# number of rings (size 3 to 8) (size 9 to 14) (size 15 to 20)
#    0.000    1.379    0.690    5.379    0.966    3.862 
#    0.000    4.138    0.000    1.241    0.000    0.000 
#    0.000    0.000    0.000    0.000    0.000    0.000 
#
# Total GULP energy -161658.100875 kJ/mol
# GULP energy per Si atom -5574.417272 kJ/mol
# Density = 2.032747 g / cm^3
# Si number density = 20.373840 Si / 1000 Ang^3
#
#
#
# Elastic Constant Matrix: (Units=GPa)
#
#
# Indices 1 2 3 4 5 6 
#
# 1 82.6958 20.9352 27.9073 0.0036 10.0687 -0.0038
# 2 20.9352 62.0476 21.1139 -0.0062 2.9882 0.0016
# 3 27.9073 21.1139 71.8153 -0.0173 -1.8945 0.0014
# 4 0.0036 -0.0062 -0.0173 9.6097 0.0001 7.1352
# 5 10.0687 2.9882 -1.8945 0.0001 22.1730 0.0034
# 6 -0.0038 0.0016 0.0014 7.1352 0.0034 41.6770
#
#
#
# Elastic Compliance Matrix: (Units=1/GPa)
#
#
# Indices 1 2 3 4 5 6 
#
# 1 0.015532 -0.003091 -0.005314 -0.000022 -0.007090 0.000006
# 2 -0.003091 0.018707 -0.004338 0.000007 -0.001488 -0.000002
# 3 -0.005314 -0.004338 0.017383 0.000036 0.004483 -0.000007
# 4 -0.000022 0.000007 0.000036 0.119216 0.000015 -0.020410
# 5 -0.007090 -0.001488 0.004483 0.000015 0.048903 -0.000007
# 6 0.000006 -0.000002 -0.000007 -0.020410 -0.000007 0.027488
#
#
# Mechanical properties :
#
#
# Convention : Reuss Voigt Hill
#
# Bulk Modulus (GPa) = 38.26063 39.60796 38.93429
# Shear Modulus (GPa) = 17.76659 24.46545 21.11602
#
# Velocity S-wave (km/s) = 2.95622 3.46905 3.22285
# Velocity P-wave (km/s) = 5.52018 5.96059 5.74460
#
# Compressibility (1/GPa) = 0.02613653
#
# Stress axis : x y z
#
# Youngs Moduli (GPa) = 64.38525 53.45481 57.52653
#
# Poissons Ratio (x) = 0.16521 0.30569
# Poissons Ratio (y) = 0.19900 0.24956
# Poissons Ratio (z) = 0.34214 0.23190
#
# Static dielectric constant tensor:
#      x y z
#    x 1.765280 0.000000 -0.032050 
#    y 0.000000 1.716710 0.000000 
#    z -0.032050 0.000000 1.740500 
# 
# From -- ./inp_files/265254.got.cif
#   From: 2010.05.17/outbox.cif.g08.bks.cpg/sg12_133_cif.got.tgz:265254.got - 2010.06.03 13:09:07.
