data_PCOD9199140
_publ_section_title
;
Structure prediction by ZEFSAII (Michael W. Deem and Ramdas Pophale) SiO2 
 PCOD9199140
Probable space group: C 2/M
;
_chemical_formula_sum "Si O2"
_cell_formula_units_Z 64
_cell_length_a 15.932507
_cell_length_b 8.547941
_cell_length_c 29.248315
_cell_angle_alpha 90.000000
_cell_angle_beta 56.948048
_cell_angle_gamma 90.000000
_cell_volume 3338.734646
_symmetry_space_group_name_H-M "C 2/M"
_symmetry_group_IT_number 12
_symmetry_cell_setting 'monoclinic'
loop_
_space_group_symop_operation_xyz
x,y,z
-x,y,-z
-x,-y,-z
x,-y,z
1/2+x,1/2+y,z
1/2-x,1/2+y,-z
1/2-x,1/2-y,-z
1/2+x,1/2-y,z
loop_
_atom_site_type_symbol
_atom_site_label
_atom_site_fract_x
_atom_site_fract_y
_atom_site_fract_z
Si Si1 0.884486 0.809048 0.240361
Si Si2 0.164169 0.684606 0.058377
Si Si3 0.030770 0.309605 0.439530
Si Si4 0.477725 0.311215 0.058925
Si Si5 0.712361 0.311763 0.826467
Si Si6 0.613929 0.313565 0.170502
Si Si7 0.238621 0.810288 0.633773
Si Si8 0.837032 0.688267 0.440664
O O1 0.831026 0.759716 0.209369
O O2 0.823741 0.760627 0.303217
O O3 0.999581 0.755789 0.206797
O O4 0.885748 0.000000 0.239446
O O5 0.175321 0.500000 0.058029
O O6 0.164719 0.753469 0.108940
O O7 0.059247 0.732803 0.067042
O O8 0.250000 0.750000 0.000000
O O9 0.030723 0.500000 0.439042
O O10 0.944914 0.260199 0.429187
O O11 0.000000 0.260946 0.500000
O O12 0.145064 0.259660 0.396885
O O13 0.488202 0.500000 0.059551
O O14 0.368464 0.269398 0.110318
O O15 0.500000 0.267708 0.000000
O O16 0.719649 0.500000 0.823840
O O17 0.818962 0.242296 0.807492
O O18 0.611613 0.500000 0.169690
O O19 0.188306 0.748399 0.602379
O O20 0.238231 0.000000 0.631830
O O21 0.835238 0.500000 0.441544
O O22 0.750000 0.750000 0.500000
#
# Coordination Sequence:
#
# PCOD9199140 Si02
#       8
#     8   8   8   8   8   8   8   8
#     4   9  20  39  62  84 116 161 199 237 296 361
#     4  12  24  38  59  88 120 156 198 246 301 359
#     4   9  17  32  55  82 112 150 191 233 284 347
#     4  10  20  36  59  86 119 153 190 242 302 359
#     4  10  20  38  61  87 118 157 201 242 295 358
#     4  11  22  40  62  88 120 157 199 247 300 357
#     4  10  20  38  61  84 114 157 202 241 290 354
#     4  11  21  35  57  87 119 154 194 245 299 350
#
# _framework density 19.168939000000002
#
# number of rings (size 3 to 8) (size 9 to 14) (size 15 to 20)
#    0.000    1.750    2.500    2.625    0.000    2.750 
#    0.000    5.000    0.000    0.000    0.000    0.000 
#    0.000    0.000    0.000    0.000    0.000    0.000 
#
# Total GULP energy -178752.444232 kJ/mol
# GULP energy per Si atom -5586.013882 kJ/mol
# Density = 1.912531 g / cm^3
# Si number density = 19.168939 Si / 1000 Ang^3
#
#
#
# Elastic Constant Matrix: (Units=GPa)
#
#
# Indices 1 2 3 4 5 6 
#
# 1 196.9728 32.5308 90.4658 0.0000 1.6525 0.0000
# 2 32.5308 13.1046 16.5804 0.0000 4.3754 0.0000
# 3 90.4658 16.5804 149.9968 0.0000 6.6985 0.0000
# 4 0.0000 0.0000 0.0000 12.6792 0.0000 10.3698
# 5 1.6525 4.3754 6.6985 0.0000 27.2080 0.0000
# 6 0.0000 0.0000 0.0000 10.3698 0.0000 29.4142
#
#
#
# Elastic Compliance Matrix: (Units=1/GPa)
#
#
# Indices 1 2 3 4 5 6 
#
# 1 0.010666 -0.022610 -0.004112 0.000000 0.004001 0.000000
# 2 -0.022610 0.140688 -0.000976 -0.000001 -0.021011 0.000000
# 3 -0.004112 -0.000976 0.009339 0.000000 -0.001893 0.000000
# 4 0.000000 -0.000001 0.000000 0.110823 0.000000 -0.039070
# 5 0.004001 -0.021011 -0.001893 0.000000 0.040356 0.000000
# 6 0.000000 0.000000 0.000000 -0.039070 0.000000 0.047771
#
#
# Mechanical properties :
#
#
# Convention : Reuss Voigt Hill
#
# Bulk Modulus (GPa) = 9.49709 71.02535 40.26122
# Shear Modulus (GPa) = 11.10766 28.56011 19.83388
#
# Velocity S-wave (km/s) = 2.40981 3.86413 3.22015
# Velocity P-wave (km/s) = 3.56484 7.55258 5.90549
#
# Compressibility (1/GPa) = 0.10529540
#
# Stress axis : x y z
#
# Youngs Moduli (GPa) = 93.75426 7.10793 107.07255
#
# Poissons Ratio (x) = 0.16071 0.44032
# Poissons Ratio (y) = 2.11983 0.10454
# Poissons Ratio (z) = 0.38555 0.00694
#
# Static dielectric constant tensor:
#      x y z
#    x 1.665270 0.000000 -0.008180 
#    y 0.000000 1.666500 0.000000 
#    z -0.008180 0.000000 1.654810 
# 
# From -- ./inp_files/374978.got.cif
#   From: 2010.05.17/outbox.cif.g08.bks.cpg/sg12_188_cif.got.tgz:374978.got - 2010.06.03 13:09:07.
