data_PCOD9199756
_publ_section_title
;
Structure prediction by ZEFSAII (Michael W. Deem and Ramdas Pophale) SiO2 
 PCOD9199756
Probable space group: C 2/M
;
_chemical_formula_sum "Si O2"
_cell_formula_units_Z 56
_cell_length_a 17.240708
_cell_length_b 10.466270
_cell_length_c 16.650045
_cell_angle_alpha 90.000000
_cell_angle_beta 69.722239
_cell_angle_gamma 90.000000
_cell_volume 2818.228305
_symmetry_space_group_name_H-M "C 2/M"
_symmetry_group_IT_number 12
_symmetry_cell_setting 'monoclinic'
loop_
_space_group_symop_operation_xyz
x,y,z
-x,y,-z
-x,-y,-z
x,-y,z
1/2+x,1/2+y,z
1/2-x,1/2+y,-z
1/2-x,1/2-y,-z
1/2+x,1/2-y,z
loop_
_atom_site_type_symbol
_atom_site_label
_atom_site_fract_x
_atom_site_fract_y
_atom_site_fract_z
Si Si1 0.847054 0.851417 0.179785
Si Si2 0.855736 0.642218 0.426001
Si Si3 0.181134 0.147045 0.999368
Si Si4 0.250238 0.357600 0.689606
Si Si5 0.041463 0.639175 0.305849
Si Si6 0.912010 0.215228 0.559452
Si Si7 0.966652 0.851654 0.821545
O O1 0.781427 0.752232 0.240159
O O2 0.939652 0.825761 0.180849
O O3 0.827347 0.000000 0.206808
O O4 0.843731 0.838545 0.084874
O O5 0.837071 0.500000 0.464399
O O6 0.790321 0.674675 0.381782
O O7 0.868511 0.737930 0.494076
O O8 0.942438 0.636552 0.347982
O O9 0.099273 0.161338 0.083105
O O10 0.211110 0.000000 0.999765
O O11 0.250000 0.250000 0.000000
O O12 0.222414 0.500000 0.724386
O O13 0.347407 0.361324 0.636208
O O14 0.072572 0.500000 0.268292
O O15 0.067845 0.667403 0.387918
O O16 0.059937 0.753370 0.238286
O O17 0.000000 0.158070 0.500000
O O18 0.964903 0.000000 0.794537
#
# Coordination Sequence:
#
# PCOD9199756 Si02
#       7
#     8   8   8   8   8   8   8
#     4  10  22  42  66  91 120 161 207 246 298 367
#     4   9  18  37  60  85 116 154 202 254 304 356
#     4  10  23  42  64  93 126 162 202 245 296 359
#     4  11  23  39  62  90 123 158 200 260 310 354
#     4  10  20  36  61  90 120 156 202 251 299 359
#     4  10  22  38  58  85 123 163 205 247 307 366
#     4  10  21  40  65  90 122 162 202 250 301 354
#
# _framework density 19.870640999999999
#
# number of rings (size 3 to 8) (size 9 to 14) (size 15 to 20)
#    0.000    2.000    1.429    1.286    2.000    6.571 
#    0.000    2.857    0.000    2.571    0.000    0.000 
#    0.000    0.000    0.000    0.000    0.000    0.000 
#
# Total GULP energy -156153.223383 kJ/mol
# GULP energy per Si atom -5576.900835 kJ/mol
# Density = 1.982541 g / cm^3
# Si number density = 19.870641 Si / 1000 Ang^3
#
#
#
# Elastic Constant Matrix: (Units=GPa)
#
#
# Indices 1 2 3 4 5 6 
#
# 1 18.7363 23.2076 18.3206 0.0000 -4.5096 0.0000
# 2 23.2076 110.6666 72.5147 0.0000 -2.0239 0.0000
# 3 18.3206 72.5147 91.0086 0.0000 -9.7002 0.0000
# 4 0.0000 0.0000 0.0000 -335.9622 0.0000 -129.6073
# 5 -4.5096 -2.0239 -9.7002 0.0000 28.8312 0.0000
# 6 0.0000 0.0000 0.0000 -129.6073 0.0000 -30.6096
#
#
#
# Elastic Compliance Matrix: (Units=1/GPa)
#
#
# Indices 1 2 3 4 5 6 
#
# 1 0.075760 -0.013381 -0.003553 0.000000 0.009715 0.000000
# 2 -0.013381 0.021700 -0.015202 0.000000 -0.005685 0.000000
# 3 -0.003553 -0.015202 0.024523 0.000000 0.006628 0.000000
# 4 0.000000 0.000000 0.000000 0.004699 0.000000 -0.019896
# 5 0.009715 -0.005685 0.006628 0.000000 0.038035 0.000000
# 6 0.000000 0.000000 0.000000 -0.019896 0.000000 0.051572
#
#
# Mechanical properties :
#
#
# Convention : Reuss Voigt Hill
#
# Bulk Modulus (GPa) = 17.32854 49.83302 33.58078
# Shear Modulus (GPa) = 16.67791 -60.45688 -21.88949
#
# Velocity S-wave (km/s) = 2.90025 -5.52189 -3.32264
# Velocity P-wave (km/s) = 4.46709 3.93978 1.48879
#
# Compressibility (1/GPa) = 0.05770828
#
# Stress axis : x y z
#
# Youngs Moduli (GPa) = 13.19965 46.08369 40.77869
#
# Poissons Ratio (x) = 0.61666 0.14489
# Poissons Ratio (y) = 0.17663 0.61993
# Poissons Ratio (z) = 0.04690 0.70057
#
# Static dielectric constant tensor:
#      x y z
#    x 1.721360 0.000000 -0.019310 
#    y 0.000000 1.720270 0.000000 
#    z -0.019310 0.000000 1.668250 
# 
# From -- ./inp_files/275055.got.cif
#   From: 2010.05.17/outbox.cif.g08.bks.cpg/sg12_138_cif.got.tgz:275055.got - 2010.06.03 13:09:07.
