data_PCOD9199628
_publ_section_title
;
Structure prediction by ZEFSAII (Michael W. Deem and Ramdas Pophale) SiO2 
 PCOD9199628
Probable space group: C 2/M
;
_chemical_formula_sum "Si O2"
_cell_formula_units_Z 56
_cell_length_a 18.124518
_cell_length_b 22.418139
_cell_length_c 7.794937
_cell_angle_alpha 90.000000
_cell_angle_beta 61.102319
_cell_angle_gamma 90.000000
_cell_volume 2772.853274
_symmetry_space_group_name_H-M "C 2/M"
_symmetry_group_IT_number 12
_symmetry_cell_setting 'monoclinic'
loop_
_space_group_symop_operation_xyz
x,y,z
-x,y,-z
-x,-y,-z
x,-y,z
1/2+x,1/2+y,z
1/2-x,1/2+y,-z
1/2-x,1/2-y,-z
1/2+x,1/2-y,z
loop_
_atom_site_type_symbol
_atom_site_label
_atom_site_fract_x
_atom_site_fract_y
_atom_site_fract_z
Si Si1 0.288653 0.652591 0.113501
Si Si2 0.744308 0.725233 0.311975
Si Si3 0.043217 0.225209 0.134224
Si Si4 0.577840 0.353075 0.522558
Si Si5 0.413186 0.157601 0.996933
Si Si6 0.783779 0.568531 0.099359
Si Si7 0.299707 0.568933 0.429207
O O1 0.241275 0.715789 0.196185
O O2 0.275830 0.612895 0.299836
O O3 0.383353 0.677029 0.976441
O O4 0.264808 0.611225 0.979862
O O5 0.750000 0.750000 0.500000
O O6 0.663658 0.682424 0.370208
O O7 0.832393 0.689407 0.182842
O O8 0.971716 0.199485 0.330853
O O9 0.070339 0.291006 0.162099
O O10 0.000000 0.234279 0.000000
O O11 0.500000 0.379284 0.500000
O O12 0.610956 0.405157 0.607773
O O13 0.377738 0.094275 0.980901
O O14 0.500000 0.147860 0.000000
O O15 0.774285 0.500000 0.058661
O O16 0.754936 0.571727 0.332496
O O17 0.301863 0.500000 0.372091
#
# Coordination Sequence:
#
# PCOD9199628 Si02
#       7
#     8   8   8   8   8   8   8
#     4  11  22  40  66  92 129 169 217 268 322 379
#     4  11  20  39  65  94 128 168 209 269 333 384
#     4  10  20  36  60  92 126 157 206 267 320 389
#     4  12  23  37  60  97 129 166 214 260 324 389
#     4  10  21  37  63  92 122 163 211 269 332 376
#     4  11  24  41  64  93 126 172 223 262 310 388
#     4  11  23  43  65  89 132 180 216 258 317 383
#
# _framework density 20.195803999999999
#
# number of rings (size 3 to 8) (size 9 to 14) (size 15 to 20)
#    0.000    1.143    4.286    3.000    2.000    1.714 
#    0.000    2.143    0.000    0.000    0.000    7.000 
#    0.000    0.000    0.000    0.000    0.000    0.000 
#
# Total GULP energy -155887.901264 kJ/mol
# GULP energy per Si atom -5567.425045 kJ/mol
# Density = 2.014984 g / cm^3
# Si number density = 20.195804 Si / 1000 Ang^3
#
#
#
# Elastic Constant Matrix: (Units=GPa)
#
#
# Indices 1 2 3 4 5 6 
#
# 1 106.3272 34.0937 13.2523 0.0000 -3.2703 0.0000
# 2 34.0937 105.9018 32.6444 0.0000 -4.4913 0.0000
# 3 13.2523 32.6444 42.0241 0.0000 2.4395 0.0000
# 4 0.0000 0.0000 0.0000 24.8069 0.0000 1.7926
# 5 -3.2703 -4.4913 2.4395 0.0000 35.1196 0.0000
# 6 0.0000 0.0000 0.0000 1.7926 0.0000 30.9908
#
#
#
# Elastic Compliance Matrix: (Units=1/GPa)
#
#
# Indices 1 2 3 4 5 6 
#
# 1 0.010528 -0.003059 -0.000982 0.000000 0.000657 0.000000
# 2 -0.003059 0.013487 -0.009634 0.000000 0.002109 0.000000
# 3 -0.000982 -0.009634 0.031795 0.000000 -0.003532 0.000000
# 4 0.000000 0.000000 0.000000 0.040481 0.000000 -0.002341
# 5 0.000657 0.002109 -0.003532 0.000000 0.029050 0.000000
# 6 0.000000 0.000000 0.000000 -0.002341 0.000000 0.032403
#
#
# Mechanical properties :
#
#
# Convention : Reuss Voigt Hill
#
# Bulk Modulus (GPa) = 35.13829 46.02599 40.58214
# Shear Modulus (GPa) = 25.69629 29.80098 27.74864
#
# Velocity S-wave (km/s) = 3.57088 3.84552 3.71075
# Velocity P-wave (km/s) = 5.86841 6.52355 6.20463
#
# Compressibility (1/GPa) = 0.02845898
#
# Stress axis : x y z
#
# Youngs Moduli (GPa) = 94.98138 74.14720 31.45195
#
# Poissons Ratio (x) = 0.22680 0.03089
# Poissons Ratio (y) = 0.29053 0.30302
# Poissons Ratio (z) = 0.09329 0.71436
#
# Static dielectric constant tensor:
#      x y z
#    x 1.834560 0.000000 0.008290 
#    y 0.000000 1.750350 0.000000 
#    z 0.008290 0.000000 1.769610 
# 
# From -- ./inp_files/77359.got.cif
#   From: 2010.05.17/outbox.cif.g08.bks.cpg/sg12_39_cif.got.tgz:77359.got - 2010.06.03 13:09:07.
