data_PCOD9199760
_publ_section_title
;
Structure prediction by ZEFSAII (Michael W. Deem and Ramdas Pophale) SiO2 
 PCOD9199760
Probable space group: C 2/M
;
_chemical_formula_sum "Si O2"
_cell_formula_units_Z 56
_cell_length_a 18.658655
_cell_length_b 19.230608
_cell_length_c 16.786869
_cell_angle_alpha 90.000000
_cell_angle_beta 27.202634
_cell_angle_gamma 90.000000
_cell_volume 2753.538475
_symmetry_space_group_name_H-M "C 2/M"
_symmetry_group_IT_number 12
_symmetry_cell_setting 'monoclinic'
loop_
_space_group_symop_operation_xyz
x,y,z
-x,y,-z
-x,-y,-z
x,-y,z
1/2+x,1/2+y,z
1/2-x,1/2+y,-z
1/2-x,1/2-y,-z
1/2+x,1/2-y,z
loop_
_atom_site_type_symbol
_atom_site_label
_atom_site_fract_x
_atom_site_fract_y
_atom_site_fract_z
Si Si1 0.181784 0.278038 0.319232
Si Si2 0.334007 0.421353 0.118905
Si Si3 0.519762 0.918025 0.152233
Si Si4 0.316571 0.279661 0.352023
Si Si5 0.810823 0.918457 0.428563
Si Si6 0.573282 0.786294 0.011381
Si Si7 0.340834 0.582304 0.921903
O O1 0.238998 0.356556 0.246679
O O2 0.234235 0.251257 0.354481
O O3 0.000000 0.277469 0.500000
O O4 0.247892 0.230760 0.182088
O O5 0.267593 0.500000 0.194204
O O6 0.500000 0.420885 0.000000
O O7 0.351714 0.408551 0.006499
O O8 0.346146 0.909805 0.362868
O O9 0.532251 0.866069 0.066008
O O10 0.535731 0.000000 0.118890
O O11 0.670898 0.893709 0.056498
O O12 0.250000 0.250000 0.500000
O O13 0.291211 0.362279 0.378508
O O14 0.495595 0.256504 0.160047
O O15 0.987384 0.898177 0.284768
O O16 0.816649 0.000000 0.399499
O O17 0.500000 0.760079 0.000000
O O18 0.333362 0.500000 0.915431
#
# Coordination Sequence:
#
# PCOD9199760 Si02
#       7
#     8   8   8   8   8   8   8
#     4  11  25  39  57  88 125 159 203 249 301 366
#     4  10  20  38  60  84 122 168 200 239 303 361
#     4  10  21  38  63  93 119 154 207 257 304 360
#     4  11  22  40  62  87 117 159 200 246 303 365
#     4  10  20  36  61  90 121 155 197 248 301 357
#     4  10  22  43  62  83 124 161 197 252 310 366
#     4   9  19  35  58  89 124 155 196 248 296 357
#
# _framework density 20.337468999999999
#
# number of rings (size 3 to 8) (size 9 to 14) (size 15 to 20)
#    0.000    1.857    1.429    3.000    2.000    3.429 
#    0.000    2.143    0.000    0.857    0.000    0.000 
#    0.000    0.000    0.000    0.000    0.000    0.000 
#
# Total GULP energy -155889.833613 kJ/mol
# GULP energy per Si atom -5567.494058 kJ/mol
# Density = 2.029118 g / cm^3
# Si number density = 20.337469 Si / 1000 Ang^3
#
#
#
# Elastic Constant Matrix: (Units=GPa)
#
#
# Indices 1 2 3 4 5 6 
#
# 1 44.1551 7.0481 48.6337 -0.0010 1.1220 0.0003
# 2 7.0481 99.9439 59.4608 0.0024 10.2959 0.0004
# 3 48.6337 59.4608 174.1593 0.0005 -5.0082 0.0017
# 4 -0.0010 0.0024 0.0005 2.9479 0.0022 21.1241
# 5 1.1220 10.2959 -5.0082 0.0022 27.7536 -0.0013
# 6 0.0003 0.0004 0.0017 21.1241 -0.0013 12.9324
#
#
#
# Elastic Compliance Matrix: (Units=1/GPa)
#
#
# Indices 1 2 3 4 5 6 
#
# 1 0.034699 0.004967 -0.011538 -0.000001 -0.005327 0.000002
# 2 0.004967 0.014148 -0.006407 0.000000 -0.006605 -0.000001
# 3 -0.011538 -0.006407 0.011292 0.000000 0.004881 -0.000001
# 4 -0.000001 0.000000 0.000000 -0.031689 0.000005 0.051761
# 5 -0.005327 -0.006605 0.004881 0.000005 0.039578 -0.000005
# 6 0.000002 -0.000001 -0.000001 0.051761 -0.000005 -0.007223
#
#
# Mechanical properties :
#
#
# Convention : Reuss Voigt Hill
#
# Bulk Modulus (GPa) = 29.25661 60.94928 45.10294
# Shear Modulus (GPa) = 50.93949 22.26782 36.60365
#
# Velocity S-wave (km/s) = 5.01014 3.31254 4.24702
# Velocity P-wave (km/s) = 6.91993 6.68316 6.80257
#
# Compressibility (1/GPa) = 0.03418031
#
# Stress axis : x y z
#
# Youngs Moduli (GPa) = 28.81943 70.68288 88.55977
#
# Poissons Ratio (x) = -0.35105 1.02184
# Poissons Ratio (y) = -0.14313 0.56741
# Poissons Ratio (z) = 0.33253 0.45287
#
# Static dielectric constant tensor:
#      x y z
#    x 1.774830 0.000000 -0.060970 
#    y 0.000000 1.747490 0.000000 
#    z -0.060970 0.000000 1.804050 
# 
# From -- ./inp_files/227573.got.cif
#   From: 2010.05.17/outbox.cif.g08.bks.cpg/sg12_114_cif.got.tgz:227573.got - 2010.06.03 13:09:07.
