data_PCOD9199272
_publ_section_title
;
Structure prediction by ZEFSAII (Michael W. Deem and Ramdas Pophale) SiO2 
 PCOD9199272
Probable space group: C 2/M
;
_chemical_formula_sum "Si O2"
_cell_formula_units_Z 64
_cell_length_a 19.328850
_cell_length_b 13.762890
_cell_length_c 17.120086
_cell_angle_alpha 90.000000
_cell_angle_beta 138.340083
_cell_angle_gamma 90.000000
_cell_volume 3027.278732
_symmetry_space_group_name_H-M "C 2/M"
_symmetry_group_IT_number 12
_symmetry_cell_setting 'monoclinic'
loop_
_space_group_symop_operation_xyz
x,y,z
-x,y,-z
-x,-y,-z
x,-y,z
1/2+x,1/2+y,z
1/2-x,1/2+y,-z
1/2-x,1/2-y,-z
1/2+x,1/2-y,z
loop_
_atom_site_type_symbol
_atom_site_label
_atom_site_fract_x
_atom_site_fract_y
_atom_site_fract_z
Si Si1 0.757590 0.751239 0.209840
Si Si2 0.053681 0.266417 0.120893
Si Si3 0.675877 0.382580 0.446150
Si Si4 0.764667 0.885359 0.069448
Si Si5 0.621388 0.884571 0.797830
Si Si6 0.382153 0.610262 0.429037
Si Si7 0.014293 0.115820 0.822735
Si Si8 0.903177 0.382467 0.686056
O O1 0.656850 0.717399 0.172067
O O2 0.731543 0.820032 0.113915
O O3 0.829651 0.668155 0.234789
O O4 0.819960 0.817990 0.322275
O O5 0.980982 0.183690 0.097670
O O6 0.084055 0.339714 0.216015
O O7 0.000000 0.314254 0.000000
O O8 0.679408 0.500000 0.442533
O O9 0.625815 0.360029 0.487749
O O10 0.594028 0.353810 0.310580
O O11 0.796065 0.350479 0.553662
O O12 0.885463 0.868006 0.147899
O O13 0.754023 0.000000 0.078880
O O14 0.694249 0.864267 0.934526
O O15 0.504695 0.854345 0.721942
O O16 0.622096 0.000000 0.786617
O O17 0.500000 0.608294 0.500000
O O18 0.339584 0.500000 0.387085
O O19 0.012815 0.000000 0.838424
O O20 0.901754 0.500000 0.690607
#
# Coordination Sequence:
#
# PCOD9199272 Si02
#       8
#     8   8   8   8   8   8   8   8
#     4  12  22  36  57  88 122 154 193 247 301 362
#     4  12  25  38  58  92 126 158 195 246 307 361
#     4   9  18  37  62  86 114 151 199 244 295 356
#     4  10  20  37  62  88 115 153 207 258 301 352
#     4  10  22  39  59  83 117 167 210 243 286 350
#     4  10  20  36  59  90 122 147 184 247 312 358
#     4  10  22  41  64  88 116 159 206 251 298 353
#     4  10  21  40  61  85 119 160 201 244 293 360
#
# _framework density 21.141098
#
# number of rings (size 3 to 8) (size 9 to 14) (size 15 to 20)
#    0.000    1.625    1.250    3.750    0.000    4.000 
#    2.250    0.000    0.000    0.375    0.000    0.000 
#    0.000    0.000    0.000    0.000    0.000    0.000 
#
# Total GULP energy -178945.631970 kJ/mol
# GULP energy per Si atom -5592.050999 kJ/mol
# Density = 2.109298 g / cm^3
# Si number density = 21.141098 Si / 1000 Ang^3
#
#
#
# Elastic Constant Matrix: (Units=GPa)
#
#
# Indices 1 2 3 4 5 6 
#
# 1 95.2968 10.6319 2.3654 0.0000 8.5777 0.0000
# 2 10.6319 59.6871 16.0382 0.0000 -6.3402 0.0000
# 3 2.3654 16.0382 64.9400 0.0000 7.1263 0.0000
# 4 0.0000 0.0000 0.0000 27.4473 0.0000 3.0311
# 5 8.5777 -6.3402 7.1263 0.0000 32.1305 0.0000
# 6 0.0000 0.0000 0.0000 3.0311 0.0000 5.1044
#
#
#
# Elastic Compliance Matrix: (Units=1/GPa)
#
#
# Indices 1 2 3 4 5 6 
#
# 1 0.011083 -0.002520 0.000613 0.000000 -0.003592 0.000000
# 2 -0.002520 0.019218 -0.005273 0.000000 0.005635 0.000000
# 3 0.000613 -0.005273 0.017230 0.000000 -0.005026 0.000000
# 4 0.000000 0.000000 0.000000 0.038990 0.000000 -0.023154
# 5 -0.003592 0.005635 -0.005026 0.000000 0.034309 0.000000
# 6 0.000000 0.000000 0.000000 -0.023154 0.000000 0.209660
#
#
# Mechanical properties :
#
#
# Convention : Reuss Voigt Hill
#
# Bulk Modulus (GPa) = 30.14702 30.88832 30.51767
# Shear Modulus (GPa) = 14.04858 25.66233 19.85546
#
# Velocity S-wave (km/s) = 2.58062 3.48783 3.06794
# Velocity P-wave (km/s) = 4.81355 5.55538 5.19772
#
# Compressibility (1/GPa) = 0.03317077
#
# Stress axis : x y z
#
# Youngs Moduli (GPa) = 90.22964 52.03353 58.03755
#
# Poissons Ratio (x) = 0.13115 -0.03557
# Poissons Ratio (y) = 0.22742 0.30602
# Poissons Ratio (z) = -0.05531 0.27437
#
# Static dielectric constant tensor:
#      x y z
#    x 1.757060 0.000000 0.026360 
#    y 0.000000 1.778510 0.000000 
#    z 0.026360 0.000000 1.768860 
# 
# From -- ./inp_files/225735.got.cif
#   From: 2010.05.17/outbox.cif.g08.bks.cpg/sg12_113_cif.got.tgz:225735.got - 2010.06.03 13:09:07.
