data_PCOD9199421
_publ_section_title
;
Structure prediction by ZEFSAII (Michael W. Deem and Ramdas Pophale) SiO2 
 PCOD9199421
Probable space group: C 2/M
;
_chemical_formula_sum "Si O2"
_cell_formula_units_Z 56
_cell_length_a 16.817355
_cell_length_b 8.467766
_cell_length_c 25.184935
_cell_angle_alpha 90.000000
_cell_angle_beta 136.540271
_cell_angle_gamma 90.000000
_cell_volume 2466.934884
_symmetry_space_group_name_H-M "C 2/M"
_symmetry_group_IT_number 12
_symmetry_cell_setting 'monoclinic'
loop_
_space_group_symop_operation_xyz
x,y,z
-x,y,-z
-x,-y,-z
x,-y,z
1/2+x,1/2+y,z
1/2-x,1/2+y,-z
1/2-x,1/2-y,-z
1/2+x,1/2-y,z
loop_
_atom_site_type_symbol
_atom_site_label
_atom_site_fract_x
_atom_site_fract_y
_atom_site_fract_z
Si Si1 0.271060 0.813635 0.098429
Si Si2 0.008668 0.182450 0.173138
Si Si3 0.818922 0.190129 0.459302
Si Si4 0.663481 0.185471 0.754212
Si Si5 0.925052 0.187096 0.617263
Si Si6 0.534865 0.814437 0.957463
Si Si7 0.250303 0.813629 0.685732
O O1 0.398899 0.783165 0.138365
O O2 0.273653 0.762422 0.161500
O O3 0.244703 0.000000 0.082470
O O4 0.172076 0.717786 0.020433
O O5 0.025485 0.218910 0.118785
O O6 0.126872 0.226902 0.259531
O O7 0.981254 0.000000 0.168192
O O8 0.914315 0.231955 0.549482
O O9 0.699322 0.270740 0.419074
O O10 0.832633 0.227898 0.403953
O O11 0.805586 0.000000 0.457600
O O12 0.527240 0.218462 0.694480
O O13 0.699703 0.273112 0.718429
O O14 0.684772 0.000000 0.757709
O O15 0.947438 0.000000 0.632688
O O16 0.509549 0.000000 0.939059
O O17 0.500000 0.764162 0.000000
O O18 0.272237 0.000000 0.693780
#
# Coordination Sequence:
#
# PCOD9199421 Si02
#       7
#     8   8   8   8   8   8   8
#     4  11  24  42  63  87 119 157 197 242 291 344
#     4  12  25  41  63  90 121 155 195 241 290 347
#     4   9  20  38  59  85 117 154 195 242 296 349
#     4  11  24  40  59  86 120 156 195 242 296 349
#     4  10  20  36  60  87 116 153 197 243 292 349
#     4  11  24  42  65  92 122 156 195 239 289 345
#     4  11  23  40  61  85 118 156 196 243 294 349
#
# _framework density 22.700236
#
# number of rings (size 3 to 8) (size 9 to 14) (size 15 to 20)
#    0.000    1.286    0.000    5.571    0.000   11.429 
#    0.000    2.857    0.000    0.000    0.000    0.000 
#    0.000    0.000    0.000    0.000    0.000    0.000 
#
# Total GULP energy -156721.522760 kJ/mol
# GULP energy per Si atom -5597.197241 kJ/mol
# Density = 2.264857 g / cm^3
# Si number density = 22.700236 Si / 1000 Ang^3
#
#
#
# Elastic Constant Matrix: (Units=GPa)
#
#
# Indices 1 2 3 4 5 6 
#
# 1 53.2403 -11.0891 -10.0567 0.0000 -12.9789 0.0000
# 2 -11.0891 28.4984 12.6211 0.0000 -12.4059 0.0000
# 3 -10.0567 12.6211 84.7911 0.0000 -19.9176 0.0000
# 4 0.0000 0.0000 0.0000 24.3704 0.0000 1.8385
# 5 -12.9789 -12.4059 -19.9176 0.0000 39.1632 0.0000
# 6 0.0000 0.0000 0.0000 1.8385 0.0000 31.0706
#
#
#
# Elastic Compliance Matrix: (Units=1/GPa)
#
#
# Indices 1 2 3 4 5 6 
#
# 1 0.026804 0.015381 0.004680 0.000000 0.016135 0.000000
# 2 0.015381 0.050433 -0.000832 0.000000 0.020650 0.000000
# 3 0.004680 -0.000832 0.014508 0.000000 0.008666 0.000000
# 4 0.000000 0.000000 0.000000 0.041217 0.000000 -0.002439
# 5 0.016135 0.020650 0.008666 0.000000 0.041830 0.000000
# 6 0.000000 0.000000 0.000000 -0.002439 0.000000 0.032329
#
#
# Mechanical properties :
#
#
# Convention : Reuss Voigt Hill
#
# Bulk Modulus (GPa) = 7.68029 16.60893 12.14461
# Shear Modulus (GPa) = 23.57779 30.59115 27.08447
#
# Velocity S-wave (km/s) = 3.22632 3.67497 3.45793
# Velocity P-wave (km/s) = 4.15566 5.03386 4.61569
#
# Compressibility (1/GPa) = 0.13020344
#
# Stress axis : x y z
#
# Youngs Moduli (GPa) = 37.30795 19.82844 68.92653
#
# Poissons Ratio (x) = -0.30499 -0.32256
# Poissons Ratio (y) = -0.57385 0.05733
# Poissons Ratio (z) = -0.17459 0.01649
#
# Static dielectric constant tensor:
#      x y z
#    x 1.888130 0.000000 -0.033200 
#    y 0.000000 1.757280 0.000000 
#    z -0.033200 0.000000 1.832530 
# 
# From -- ./inp_files/363140.got.cif
#   From: 2010.05.17/outbox.cif.g08.bks.cpg/sg12_182_cif.got.tgz:363140.got - 2010.06.03 13:09:07.
