data_PCOD9199621
_publ_section_title
;
Structure prediction by ZEFSAII (Michael W. Deem and Ramdas Pophale) SiO2 
 PCOD9199621
Probable space group: C 2/M
;
_chemical_formula_sum "Si O2"
_cell_formula_units_Z 44
_cell_length_a 11.494879
_cell_length_b 30.499615
_cell_length_c 5.382796
_cell_angle_alpha 90.000000
_cell_angle_beta 93.956104
_cell_angle_gamma 90.000000
_cell_volume 1882.654430
_symmetry_space_group_name_H-M "C 2/M"
_symmetry_group_IT_number 12
_symmetry_cell_setting 'monoclinic'
loop_
_space_group_symop_operation_xyz
x,y,z
-x,y,-z
-x,-y,-z
x,-y,z
1/2+x,1/2+y,z
1/2-x,1/2+y,-z
1/2-x,1/2-y,-z
1/2+x,1/2-y,z
loop_
_atom_site_type_symbol
_atom_site_label
_atom_site_fract_x
_atom_site_fract_y
_atom_site_fract_z
Si Si1 0.634684 0.833566 0.985629
Si Si2 0.500000 0.299083 0.000000
Si Si3 0.266086 0.547585 0.627963
Si Si4 0.867482 0.431932 0.886894
Si Si5 0.309263 0.280010 0.298448
Si Si6 0.822332 0.144063 0.653574
O O1 0.652695 0.879554 0.133115
O O2 0.708761 0.792598 0.090798
O O3 0.500000 0.824885 0.000000
O O4 0.689290 0.846431 0.726733
O O5 0.567940 0.268999 0.810578
O O6 0.405658 0.331534 0.862337
O O7 0.325009 0.500000 0.613163
O O8 0.171699 0.550217 0.387462
O O9 0.339902 0.592483 0.622568
O O10 0.209013 0.550550 0.893935
O O11 0.000000 0.439302 0.000000
O O12 0.250000 0.250000 0.500000
O O13 0.341131 0.327463 0.415410
#
# Coordination Sequence:
#
# PCOD9199621 Si02
#       6
#     8   4   8   8   8   8
#     4   9  20  39  64  97 136 178 222 280 348 423
#     4  10  24  46  73  96 132 182 227 290 346 422
#     4  11  22  37  63  96 135 180 233 294 348 413
#     4  10  20  36  60  91 137 186 230 280 350 422
#     4  11  23  45  71  99 131 175 231 283 353 421
#     4  10  22  44  65  95 135 181 230 282 352 415
#
# _framework density 23.371255999999999
#
# number of rings (size 3 to 8) (size 9 to 14) (size 15 to 20)
#    0.000    1.818    1.818    1.636    0.000    5.818 
#    9.818    0.455    0.000    2.182    0.000    0.000 
#    0.000    0.000    0.000    0.000    0.000    0.000 
#
# Total GULP energy -122806.138961 kJ/mol
# GULP energy per Si atom -5582.097226 kJ/mol
# Density = 2.331806 g / cm^3
# Si number density = 23.371256 Si / 1000 Ang^3
#
#
#
# Elastic Constant Matrix: (Units=GPa)
#
#
# Indices 1 2 3 4 5 6 
#
# 1 97.3557 32.2872 33.7126 0.0000 -25.9648 0.0000
# 2 32.2872 158.3925 31.1288 0.0000 -14.0763 0.0000
# 3 33.7126 31.1288 95.5750 0.0000 -7.8802 0.0000
# 4 0.0000 0.0000 0.0000 3.5588 0.0000 -1.4704
# 5 -25.9648 -14.0763 -7.8802 0.0000 34.4406 0.0000
# 6 0.0000 0.0000 0.0000 -1.4704 0.0000 10.6255
#
#
#
# Elastic Compliance Matrix: (Units=1/GPa)
#
#
# Indices 1 2 3 4 5 6 
#
# 1 0.014639 -0.001360 -0.003931 0.000000 0.009581 0.000000
# 2 -0.001360 0.007055 -0.001697 0.000000 0.001470 0.000000
# 3 -0.003931 -0.001697 0.012333 0.000000 -0.000835 0.000000
# 4 0.000000 0.000000 0.000000 0.298030 0.000000 0.041241
# 5 0.009581 0.001470 -0.000835 0.000000 0.036668 0.000000
# 6 0.000000 0.000000 0.000000 0.041241 0.000000 0.099820
#
#
# Mechanical properties :
#
#
# Convention : Reuss Voigt Hill
#
# Bulk Modulus (GPa) = 49.87067 60.62006 55.24537
# Shear Modulus (GPa) = 10.22067 26.67130 18.44599
#
# Velocity S-wave (km/s) = 2.09348 3.38183 2.81242
# Velocity P-wave (km/s) = 5.21808 6.42209 5.85114
#
# Compressibility (1/GPa) = 0.02005187
#
# Stress axis : x y z
#
# Youngs Moduli (GPa) = 68.31005 141.74814 81.08124
#
# Poissons Ratio (x) = 0.19279 0.31871
# Poissons Ratio (y) = 0.09291 0.13758
# Poissons Ratio (z) = 0.26851 0.24052
#
# Static dielectric constant tensor:
#      x y z
#    x 1.894770 0.000000 -0.000320 
#    y 0.000000 1.918180 0.000000 
#    z -0.000320 0.000000 1.959000 
# 
# From -- ./inp_files/8489.got.cif
#   From: 2010.05.17/outbox.cif.g08.bks.cpg/sg12_5_cif.got.tgz:8489.got - 2010.06.03 13:09:07.
