data_PCOD9199178
_publ_section_title
;
Structure prediction by ZEFSAII (Michael W. Deem and Ramdas Pophale) SiO2 
 PCOD9199178
Probable space group: C 2/M
;
_chemical_formula_sum "Si O2"
_cell_formula_units_Z 48
_cell_length_a 16.271024
_cell_length_b 8.417830
_cell_length_c 15.244669
_cell_angle_alpha 90.000000
_cell_angle_beta 109.874149
_cell_angle_gamma 90.000000
_cell_volume 1963.653563
_symmetry_space_group_name_H-M "C 2/M"
_symmetry_group_IT_number 12
_symmetry_cell_setting 'monoclinic'
loop_
_space_group_symop_operation_xyz
x,y,z
-x,y,-z
-x,-y,-z
x,-y,z
1/2+x,1/2+y,z
1/2-x,1/2+y,-z
1/2-x,1/2-y,-z
1/2+x,1/2-y,z
loop_
_atom_site_type_symbol
_atom_site_label
_atom_site_fract_x
_atom_site_fract_y
_atom_site_fract_z
Si Si1 0.112777 0.817749 0.785230
Si Si2 0.830351 0.684671 0.727155
Si Si3 0.701338 0.679399 0.106535
Si Si4 0.312786 0.192114 0.443950
Si Si5 0.033236 0.687692 0.383621
Si Si6 0.063002 0.684333 0.943108
O O1 0.198275 0.712832 0.833825
O O2 0.056472 0.785245 0.852791
O O3 0.054064 0.771468 0.680592
O O4 0.139238 0.000000 0.789765
O O5 0.833016 0.500000 0.753087
O O6 0.846916 0.788008 0.818641
O O7 0.734214 0.729021 0.655623
O O8 0.898488 0.707633 0.672835
O O9 0.688438 0.500000 0.072061
O O10 0.659629 0.794217 0.019239
O O11 0.250000 0.250000 0.500000
O O12 0.410285 0.237109 0.510703
O O13 0.309549 0.000000 0.435693
O O14 0.014613 0.500000 0.385874
O O15 0.045454 0.500000 0.915522
O O16 0.000000 0.732826 0.000000
#
# Coordination Sequence:
#
# PCOD9199178 Si02
#       6
#     8   8   8   8   8   8
#     4  12  25  40  60  86 118 154 194 238 286 343
#     4  10  20  36  59  87 119 153 194 242 291 344
#     4  12  25  41  61  85 118 155 193 237 287 345
#     4   9  17  31  54  84 117 153 194 241 291 340
#     4   9  19  36  58  85 118 154 192 238 290 341
#     4  11  24  43  66  90 118 150 187 234 286 340
#
# _framework density 24.444230000000001
#
# number of rings (size 3 to 8) (size 9 to 14) (size 15 to 20)
#    0.000    1.500    0.000    7.000    0.000    9.333 
#    0.000    0.833    0.000    5.000    0.000    0.000 
#    0.000    0.000    0.000    0.000    0.000    0.000 
#
# Total GULP energy -134389.443561 kJ/mol
# GULP energy per Si atom -5599.560148 kJ/mol
# Density = 2.438859 g / cm^3
# Si number density = 24.444230 Si / 1000 Ang^3
#
#
#
# Elastic Constant Matrix: (Units=GPa)
#
#
# Indices 1 2 3 4 5 6 
#
# 1 86.6096 3.1083 6.9826 0.0000 12.8529 0.0000
# 2 3.1083 50.2965 6.3340 0.0000 2.5234 0.0000
# 3 6.9826 6.3340 120.3649 0.0000 17.0847 0.0000
# 4 0.0000 0.0000 0.0000 32.8697 0.0000 3.2295
# 5 12.8529 2.5234 17.0847 0.0000 42.3208 0.0000
# 6 0.0000 0.0000 0.0000 3.2295 0.0000 22.7539
#
#
#
# Elastic Compliance Matrix: (Units=1/GPa)
#
#
# Indices 1 2 3 4 5 6 
#
# 1 0.012110 -0.000548 -0.000166 0.000000 -0.003578 0.000000
# 2 -0.000548 0.020066 -0.000931 0.000000 -0.000654 0.000000
# 3 -0.000166 -0.000931 0.008859 0.000000 -0.003471 0.000000
# 4 0.000000 0.000000 0.000000 0.030853 0.000000 -0.004379
# 5 -0.003578 -0.000654 -0.003471 0.000000 0.026156 0.000000
# 6 0.000000 0.000000 0.000000 -0.004379 0.000000 0.044570
#
#
# Mechanical properties :
#
#
# Convention : Reuss Voigt Hill
#
# Bulk Modulus (GPa) = 26.49338 32.23564 29.36451
# Shear Modulus (GPa) = 31.54840 35.64530 33.59685
#
# Velocity S-wave (km/s) = 3.59643 3.82282 3.71135
# Velocity P-wave (km/s) = 5.30166 5.71851 5.51402
#
# Compressibility (1/GPa) = 0.03774528
#
# Stress axis : x y z
#
# Youngs Moduli (GPa) = 82.57567 49.83538 112.87550
#
# Poissons Ratio (x) = 0.02731 0.01871
# Poissons Ratio (y) = 0.04525 0.10512
# Poissons Ratio (z) = 0.01369 0.04641
#
# Static dielectric constant tensor:
#      x y z
#    x 2.012240 0.000000 0.018450 
#    y 0.000000 1.814110 0.000000 
#    z 0.018450 0.000000 1.905570 
# 
# From -- ./inp_files/274592.got.cif
#   From: 2010.05.17/outbox.cif.g08.bks.cpg/sg12_138_cif.got.tgz:274592.got - 2010.06.03 13:09:07.
