data_PCOD9199062
_publ_section_title
;
Structure prediction by ZEFSAII (Michael W. Deem and Ramdas Pophale) SiO2 
 PCOD9199062
Probable space group: C 2/M
;
_chemical_formula_sum "Si O2"
_cell_formula_units_Z 42
_cell_length_a 14.045023
_cell_length_b 10.581873
_cell_length_c 15.193765
_cell_angle_alpha 90.000000
_cell_angle_beta 62.088269
_cell_angle_gamma 90.000000
_cell_volume 1995.448025
_symmetry_space_group_name_H-M "C 2/M"
_symmetry_group_IT_number 12
_symmetry_cell_setting 'monoclinic'
loop_
_space_group_symop_operation_xyz
x,y,z
-x,y,-z
-x,-y,-z
x,-y,z
1/2+x,1/2+y,z
1/2-x,1/2+y,-z
1/2-x,1/2-y,-z
1/2+x,1/2-y,z
loop_
_atom_site_type_symbol
_atom_site_label
_atom_site_fract_x
_atom_site_fract_y
_atom_site_fract_z
Si Si1 0.191551 0.500000 0.404909
Si Si2 0.485436 0.500000 0.355070
Si Si3 0.500000 0.500000 0.000000
Si Si4 0.008970 0.740013 0.899845
Si Si5 0.234916 0.257358 0.707023
Si Si6 0.524571 0.000000 0.623327
Si Si7 0.565105 0.240960 0.246481
Si Si8 0.825518 0.000000 0.578163
O O1 0.255285 0.625572 0.349660
O O2 0.137981 0.500000 0.524203
O O3 0.080166 0.500000 0.395553
O O4 0.505598 0.373657 0.290566
O O5 0.375784 0.500000 0.458995
O O6 0.576314 0.500000 0.392799
O O7 0.502924 0.388062 0.924486
O O8 0.122927 0.717096 0.803987
O O9 0.920542 0.713681 0.863253
O O10 0.000000 0.676068 0.000000
O O11 0.325324 0.246958 0.744971
O O12 0.263562 0.372293 0.630000
O O13 0.507368 0.127504 0.684908
#
# Coordination Sequence:
#
# PCOD9199062 Si02
#       8
#     4   4   2   8   8   4   8   4
#     4   9  17  33  58  84 117 155 189 223 273 337
#     4   9  17  33  58  84 117 155 189 223 273 337
#     4   8  20  40  60  78 104 142 184 242 288 328
#     4  10  22  39  59  80 110 145 192 244 287 324
#     4  10  20  36  59  85 114 151 190 229 280 341
#     4   9  18  33  55  87 121 150 181 230 283 335
#     4  10  20  36  59  85 114 151 190 229 280 341
#     4   9  18  33  55  87 121 150 181 230 283 335
#
# _framework density 21.047903999999999
#
# number of rings (size 3 to 8) (size 9 to 14) (size 15 to 20)
#    0.571    1.905    0.000    2.286    0.000    6.095 
#    0.000    7.619    0.000    0.000    0.000    0.000 
#    0.000    0.000    0.000    0.000    0.000    0.000 
#
# Total GULP energy -116938.577230 kJ/mol
# GULP energy per Si atom -5568.503678 kJ/mol
# Density = 2.100000 g / cm^3
# Si number density = 21.047904 Si / 1000 Ang^3
#
#
#
# Elastic Constant Matrix: (Units=GPa)
#
#
# Indices 1 2 3 4 5 6 
#
# 1 76.2911 4.0268 14.4880 0.0000 13.6509 0.0000
# 2 4.0268 118.6683 24.9111 0.0000 10.1448 0.0000
# 3 14.4880 24.9111 81.2372 0.0000 33.2769 0.0000
# 4 0.0000 0.0000 0.0000 18.9125 0.0000 -7.1921
# 5 13.6509 10.1448 33.2769 0.0000 25.2044 0.0000
# 6 0.0000 0.0000 0.0000 -7.1921 0.0000 -12.6694
#
#
#
# Elastic Compliance Matrix: (Units=1/GPa)
#
#
# Indices 1 2 3 4 5 6 
#
# 1 0.014585 0.000049 0.001367 0.000000 -0.009724 0.000000
# 2 0.000049 0.009007 -0.002776 0.000000 0.000013 0.000000
# 3 0.001367 -0.002776 0.027795 0.000000 -0.036320 0.000000
# 4 0.000000 0.000000 0.000000 0.043487 0.000000 -0.024687
# 5 -0.009724 0.000013 -0.036320 0.000000 0.092889 0.000000
# 6 0.000000 0.000000 0.000000 -0.024687 0.000000 -0.064917
#
#
# Mechanical properties :
#
#
# Convention : Reuss Voigt Hill
#
# Bulk Modulus (GPa) = 20.54763 40.33872 30.44318
# Shear Modulus (GPa) = 35.26368 21.80754 28.53561
#
# Velocity S-wave (km/s) = 4.09761 3.22233 3.68604
# Velocity P-wave (km/s) = 5.67192 5.74903 5.71061
#
# Compressibility (1/GPa) = 0.04866741
#
# Stress axis : x y z
#
# Youngs Moduli (GPa) = 68.56126 111.02698 35.97819
#
# Poissons Ratio (x) = -0.00549 -0.04918
# Poissons Ratio (y) = -0.00339 0.09988
# Poissons Ratio (z) = -0.09372 0.30823
#
# Static dielectric constant tensor:
#      x y z
#    x 1.843520 0.000000 0.037880 
#    y 0.000000 1.696610 0.000000 
#    z 0.037880 0.000000 1.748590 
# 
# From -- ./inp_files/212494.got.cif
#   From: 2010.05.17/outbox.cif.g08.bks.cpg/sg12_107_cif.got.tgz:212494.got - 2010.06.03 13:09:07.
