data_PCOD9199242
_publ_section_title
;
Structure prediction by ZEFSAII (Michael W. Deem and Ramdas Pophale) SiO2 
 PCOD9199242
Probable space group: C 2/M
;
_chemical_formula_sum "Si O2"
_cell_formula_units_Z 48
_cell_length_a 18.500872
_cell_length_b 18.016372
_cell_length_c 15.545815
_cell_angle_alpha 90.000000
_cell_angle_beta 29.804294
_cell_angle_gamma 90.000000
_cell_volume 2575.511513
_symmetry_space_group_name_H-M "C 2/M"
_symmetry_group_IT_number 12
_symmetry_cell_setting 'monoclinic'
loop_
_space_group_symop_operation_xyz
x,y,z
-x,y,-z
-x,-y,-z
x,-y,z
1/2+x,1/2+y,z
1/2-x,1/2+y,-z
1/2-x,1/2-y,-z
1/2+x,1/2-y,z
loop_
_atom_site_type_symbol
_atom_site_label
_atom_site_fract_x
_atom_site_fract_y
_atom_site_fract_z
Si Si1 0.558076 0.413201 0.343205
Si Si2 0.462491 0.915884 0.290368
Si Si3 0.307236 0.801991 0.020993
Si Si4 0.113286 0.583636 0.319257
Si Si5 0.875657 0.087236 0.361274
Si Si6 0.578437 0.662590 0.009733
O O1 0.500000 0.401156 0.500000
O O2 0.608961 0.500000 0.285418
O O3 0.679947 0.353918 0.189979
O O4 0.434097 0.405069 0.398189
O O5 0.530598 0.919844 0.314790
O O6 0.294054 0.893083 0.468330
O O7 0.468878 0.000000 0.246858
O O8 0.564001 0.856871 0.139398
O O9 0.250000 0.750000 0.000000
O O10 0.374008 0.746441 0.021476
O O11 0.138866 0.500000 0.326279
O O12 0.000000 0.623078 0.500000
O O13 0.269620 0.618961 0.146783
O O14 0.974930 0.133656 0.193321
O O15 0.889444 0.000000 0.323203
O O16 0.500000 0.652638 0.000000
#
# Coordination Sequence:
#
# PCOD9199242 Si02
#       6
#     8   8   8   8   8   8
#     4  10  22  43  70  94 122 169 223 265 311 375
#     4  10  21  39  65  89 118 164 211 254 310 375
#     4  12  23  42  61  90 127 169 205 257 321 379
#     4  10  20  36  59  88 122 163 206 249 304 378
#     4  10  21  40  65  94 125 164 212 263 316 376
#     4  12  25  39  59  92 129 167 207 259 319 388
#
# _framework density 18.637073999999998
#
# number of rings (size 3 to 8) (size 9 to 14) (size 15 to 20)
#    0.000    1.333    3.333    2.000    0.000    8.000 
#    3.000    0.000    0.000    5.000    0.000    0.000 
#    0.000    0.000    0.000    0.000    0.000    0.000 
#
# Total GULP energy -133954.772957 kJ/mol
# GULP energy per Si atom -5581.448873 kJ/mol
# Density = 1.859466 g / cm^3
# Si number density = 18.637074 Si / 1000 Ang^3
#
#
#
# Elastic Constant Matrix: (Units=GPa)
#
#
# Indices 1 2 3 4 5 6 
#
# 1 114.5666 41.2914 71.2999 0.0132 -8.1924 0.0057
# 2 41.2914 97.2838 92.0447 0.0153 -8.7094 0.0070
# 3 71.2999 92.0447 162.2626 -0.0061 -23.8136 0.0001
# 4 0.0132 0.0153 -0.0061 478.0677 -0.0096 155.2570
# 5 -8.1924 -8.7094 -23.8136 -0.0096 31.5695 -0.0051
# 6 0.0057 0.0070 0.0001 155.2570 -0.0051 74.1801
#
#
#
# Elastic Compliance Matrix: (Units=1/GPa)
#
#
# Indices 1 2 3 4 5 6 
#
# 1 0.012041 -0.000125 -0.005360 0.000000 -0.000953 0.000000
# 2 -0.000125 0.022600 -0.013331 -0.000001 -0.003853 -0.000001
# 3 -0.005360 -0.013331 0.017245 0.000001 0.007940 0.000001
# 4 0.000000 -0.000001 0.000001 0.006531 0.000000 -0.013669
# 5 -0.000953 -0.003853 0.007940 0.000000 0.036355 0.000003
# 6 0.000000 -0.000001 0.000001 -0.013669 0.000003 0.042089
#
#
# Mechanical properties :
#
#
# Convention : Reuss Voigt Hill
#
# Bulk Modulus (GPa) = 70.14838 87.04278 78.59558
# Shear Modulus (GPa) = 27.89482 128.06194 77.97838
#
# Velocity S-wave (km/s) = 3.87297 8.29836 6.47544
# Velocity P-wave (km/s) = 7.59741 11.77380 9.90816
#
# Compressibility (1/GPa) = 0.01425550
#
# Stress axis : x y z
#
# Youngs Moduli (GPa) = 83.04822 44.24794 57.98648
#
# Poissons Ratio (x) = 0.00551 0.31082
# Poissons Ratio (y) = 0.01034 0.77300
# Poissons Ratio (z) = 0.44516 0.58986
#
# Static dielectric constant tensor:
#      x y z
#    x 1.652700 0.000000 0.041920 
#    y 0.000000 1.709260 0.000000 
#    z 0.041920 0.000000 1.680420 
# 
# From -- ./inp_files/75050.got.cif
#   From: 2010.05.17/outbox.cif.g08.bks.cpg/sg12_38_cif.got.tgz:75050.got - 2010.06.03 13:09:07.
