data_PCOD9199669
_publ_section_title
;
Structure prediction by ZEFSAII (Michael W. Deem and Ramdas Pophale) SiO2 
 PCOD9199669
Probable space group: C 2/M
;
_chemical_formula_sum "Si O2"
_cell_formula_units_Z 32
_cell_length_a 12.014452
_cell_length_b 14.156315
_cell_length_c 15.748335
_cell_angle_alpha 90.000000
_cell_angle_beta 27.376965
_cell_angle_gamma 90.000000
_cell_volume 1231.680973
_symmetry_space_group_name_H-M "C 2/M"
_symmetry_group_IT_number 12
_symmetry_cell_setting 'monoclinic'
loop_
_space_group_symop_operation_xyz
x,y,z
-x,y,-z
-x,-y,-z
x,-y,z
1/2+x,1/2+y,z
1/2-x,1/2+y,-z
1/2-x,1/2-y,-z
1/2+x,1/2-y,z
loop_
_atom_site_type_symbol
_atom_site_label
_atom_site_fract_x
_atom_site_fract_y
_atom_site_fract_z
Si Si1 0.174894 0.315819 0.800139
Si Si2 0.425433 0.397177 0.163664
Si Si3 0.531402 0.852231 0.242073
Si Si4 0.569114 0.367108 0.646381
O O1 0.050761 0.357374 0.800356
O O2 0.401843 0.377649 0.676707
O O3 0.216642 0.202847 0.752258
O O4 0.000000 0.319422 0.000000
O O5 0.321548 0.500000 0.209829
O O6 0.479137 0.404862 0.227792
O O7 0.690033 0.381993 0.941703
O O8 0.489093 0.743258 0.295813
O O9 0.335602 0.896695 0.437084
#
# Coordination Sequence:
#
# PCOD9199669 Si02
#       4
#     8   8   8   8
#     4  11  18  37  64  88 113 154 210 243 283 351
#     4  11  23  38  59  92 129 153 187 249 311 356
#     4  10  20  36  61  84 117 161 206 240 286 354
#     4  10  20  38  61  83 117 162 206 242 284 352
#
# _framework density 25.980754000000001
#
# number of rings (size 3 to 8) (size 9 to 14) (size 15 to 20)
#    0.000    1.500    5.000    2.250    0.000    1.500 
#    0.000    2.500    0.000    9.000    0.000    0.000 
#    0.000    0.000    0.000    0.000    0.000    0.000 
#
# Total GULP energy -89349.582167 kJ/mol
# GULP energy per Si atom -5584.348885 kJ/mol
# Density = 2.592162 g / cm^3
# Si number density = 25.980754 Si / 1000 Ang^3
#
#
#
# Elastic Constant Matrix: (Units=GPa)
#
#
# Indices 1 2 3 4 5 6 
#
# 1 126.4568 -1.1255 26.9893 0.0007 6.4878 -0.0043
# 2 -1.1255 112.6712 23.2255 -0.0268 -3.7623 0.0015
# 3 26.9893 23.2255 127.8517 -0.0656 -1.0418 0.0029
# 4 0.0007 -0.0268 -0.0656 -58.6200 0.0091 -11.8006
# 5 6.4878 -3.7623 -1.0418 0.0091 33.3188 0.0021
# 6 -0.0043 0.0015 0.0029 -11.8006 0.0021 6.5038
#
#
#
# Elastic Compliance Matrix: (Units=1/GPa)
#
#
# Indices 1 2 3 4 5 6 
#
# 1 0.008393 0.000412 -0.001860 0.000000 -0.001646 0.000007
# 2 0.000412 0.009274 -0.001764 -0.000001 0.000912 -0.000004
# 3 -0.001860 -0.001764 0.008538 -0.000006 0.000430 -0.000015
# 4 0.000000 -0.000001 -0.000006 -0.012495 0.000004 -0.022671
# 5 -0.001646 0.000912 0.000430 0.000004 0.030450 -0.000003
# 6 0.000007 -0.000004 -0.000015 -0.022671 -0.000003 0.112621
#
#
# Mechanical properties :
#
#
# Convention : Reuss Voigt Hill
#
# Bulk Modulus (GPa) = 50.55412 51.68423 51.11917
# Shear Modulus (GPa) = 29.44665 17.43322 23.43993
#
# Velocity S-wave (km/s) = 3.37026 2.59319 3.00693
# Velocity P-wave (km/s) = 5.88603 5.37612 5.63684
#
# Compressibility (1/GPa) = 0.01978078
#
# Stress axis : x y z
#
# Youngs Moduli (GPa) = 119.14783 107.83280 117.12061
#
# Poissons Ratio (x) = -0.04446 0.21785
# Poissons Ratio (y) = -0.04912 0.20663
# Poissons Ratio (z) = 0.22162 0.19024
#
# Static dielectric constant tensor:
#      x y z
#    x 2.138660 0.000000 -0.091610 
#    y 0.000000 2.110510 0.000000 
#    z -0.091610 0.000000 2.031300 
# 
# From -- ./inp_files/44946.got.cif
#   From: 2010.05.17/outbox.cif.g08.bks.cpg/sg12_23_cif.got.tgz:44946.got - 2010.06.03 13:09:07.
