data_PCOD9199792
_publ_section_title
;
Structure prediction by ZEFSAII (Michael W. Deem and Ramdas Pophale) SiO2 
 PCOD9199792
Probable space group: C 2/M
;
_chemical_formula_sum "Si O2"
_cell_formula_units_Z 56
_cell_length_a 29.821912
_cell_length_b 8.573280
_cell_length_c 11.252673
_cell_angle_alpha 90.000000
_cell_angle_beta 112.308183
_cell_angle_gamma 90.000000
_cell_volume 2661.662174
_symmetry_space_group_name_H-M "C 2/M"
_symmetry_group_IT_number 12
_symmetry_cell_setting 'monoclinic'
loop_
_space_group_symop_operation_xyz
x,y,z
-x,y,-z
-x,-y,-z
x,-y,z
1/2+x,1/2+y,z
1/2-x,1/2+y,-z
1/2-x,1/2-y,-z
1/2+x,1/2-y,z
loop_
_atom_site_type_symbol
_atom_site_label
_atom_site_fract_x
_atom_site_fract_y
_atom_site_fract_z
Si Si1 0.275531 0.816742 0.644492
Si Si2 0.734601 0.816124 0.854206
Si Si3 0.128235 0.815310 0.719116
Si Si4 0.419300 0.688290 0.082693
Si Si5 0.629021 0.681939 0.188463
Si Si6 0.451176 0.817851 0.515913
Si Si7 0.527051 0.682900 0.214120
O O1 0.250000 0.750000 0.500000
O O2 0.259180 0.749297 0.757309
O O3 0.332665 0.777210 0.697372
O O4 0.266548 0.000000 0.637525
O O5 0.678014 0.776627 0.779508
O O6 0.743777 0.000000 0.866545
O O7 0.750000 0.750000 0.000000
O O8 0.094353 0.772140 0.797036
O O9 0.096254 0.773983 0.573084
O O10 0.138513 0.000000 0.734035
O O11 0.417277 0.500000 0.068686
O O12 0.474711 0.732481 0.111563
O O13 0.377687 0.745946 0.951896
O O14 0.644614 0.500000 0.205106
O O15 0.573905 0.687166 0.178707
O O16 0.500000 0.760110 0.500000
O O17 0.460781 0.789660 0.662698
O O18 0.444752 0.000000 0.480864
O O19 0.521430 0.500000 0.245671
#
# Coordination Sequence:
#
# PCOD9199792 Si02
#       7
#     8   8   8   8   8   8   8
#     4  12  27  48  71  97 132 177 228 283 344 404
#     4  12  26  47  73 103 137 173 222 280 340 408
#     4  11  22  38  65  95 127 168 216 265 323 389
#     4   9  18  35  61  94 128 164 206 255 308 377
#     4  10  21  39  65  94 127 164 209 264 324 388
#     4  11  23  38  56  84 125 170 214 267 323 377
#     4  10  20  36  61  91 124 166 212 257 311 385
#
# _framework density 21.039484000000002
#
# number of rings (size 3 to 8) (size 9 to 14) (size 15 to 20)
#    0.000    1.286    1.429    4.714    2.000    4.000 
#    0.000    1.429    0.000    1.714    0.000    0.000 
#    0.000    0.000    0.000    0.000    0.000    0.000 
#
# Total GULP energy -156374.647457 kJ/mol
# GULP energy per Si atom -5584.808838 kJ/mol
# Density = 2.099160 g / cm^3
# Si number density = 21.039484 Si / 1000 Ang^3
#
#
#
# Elastic Constant Matrix: (Units=GPa)
#
#
# Indices 1 2 3 4 5 6 
#
# 1 68.9247 23.2148 29.1253 0.0000 11.1333 0.0000
# 2 23.2148 89.3944 38.1966 0.0000 -4.8730 0.0000
# 3 29.1253 38.1966 140.5606 0.0000 18.0993 0.0000
# 4 0.0000 0.0000 0.0000 27.2146 0.0000 0.7621
# 5 11.1333 -4.8730 18.0993 0.0000 33.9242 0.0000
# 6 0.0000 0.0000 0.0000 0.7621 0.0000 21.5928
#
#
#
# Elastic Compliance Matrix: (Units=1/GPa)
#
#
# Indices 1 2 3 4 5 6 
#
# 1 0.017515 -0.004055 -0.001839 0.000000 -0.005350 0.000000
# 2 -0.004055 0.014100 -0.003676 0.000000 0.005317 0.000000
# 3 -0.001839 -0.003676 0.009110 0.000000 -0.004785 0.000000
# 4 0.000000 0.000000 0.000000 0.036781 0.000000 -0.001298
# 5 -0.005350 0.005317 -0.004785 0.000000 0.034550 0.000000
# 6 0.000000 0.000000 0.000000 -0.001298 0.000000 0.046357
#
#
# Mechanical properties :
#
#
# Convention : Reuss Voigt Hill
#
# Bulk Modulus (GPa) = 46.32404 53.32810 49.82607
# Shear Modulus (GPa) = 27.06379 30.43586 28.74982
#
# Velocity S-wave (km/s) = 3.59044 3.80755 3.70059
# Velocity P-wave (km/s) = 6.26529 6.68817 6.48018
#
# Compressibility (1/GPa) = 0.02158706
#
# Stress axis : x y z
#
# Youngs Moduli (GPa) = 57.09297 70.92255 109.76350
#
# Poissons Ratio (x) = 0.28756 0.20182
# Poissons Ratio (y) = 0.23148 0.40350
# Poissons Ratio (z) = 0.10498 0.26072
#
# Static dielectric constant tensor:
#      x y z
#    x 1.790490 0.000000 -0.031720 
#    y 0.000000 1.736520 0.000000 
#    z -0.031720 0.000000 1.756980 
# 
# From -- ./inp_files/187750.got.cif
#   From: 2010.05.17/outbox.cif.g08.bks.cpg/sg12_94_cif.got.tgz:187750.got - 2010.06.03 13:09:07.
