data_PCOD9199210
_publ_section_title
;
Structure prediction by ZEFSAII (Michael W. Deem and Ramdas Pophale) SiO2 
 PCOD9199210
Probable space group: C 2/M
;
_chemical_formula_sum "Si O2"
_cell_formula_units_Z 46
_cell_length_a 8.221343
_cell_length_b 23.965052
_cell_length_c 13.942744
_cell_angle_alpha 90.000000
_cell_angle_beta 62.624702
_cell_angle_gamma 90.000000
_cell_volume 2439.433970
_symmetry_space_group_name_H-M "C 2/M"
_symmetry_group_IT_number 12
_symmetry_cell_setting 'monoclinic'
loop_
_space_group_symop_operation_xyz
x,y,z
-x,y,-z
-x,-y,-z
x,-y,z
1/2+x,1/2+y,z
1/2-x,1/2+y,-z
1/2-x,1/2-y,-z
1/2+x,1/2-y,z
loop_
_atom_site_type_symbol
_atom_site_label
_atom_site_fract_x
_atom_site_fract_y
_atom_site_fract_z
Si Si1 0.943862 0.089622 0.843390
Si Si2 0.444421 0.500000 0.675163
Si Si3 0.500000 0.500000 0.000000
Si Si4 0.748123 0.667182 0.682334
Si Si5 0.002074 0.270786 0.755940
Si Si6 0.805277 0.500000 0.442689
Si Si7 0.316311 0.191681 0.108600
Si Si8 0.500000 0.092565 0.500000
O O1 0.930318 0.053066 0.749634
O O2 0.777167 0.133474 0.894254
O O3 0.959187 0.048694 0.928988
O O4 0.124348 0.127851 0.782999
O O5 0.638905 0.500000 0.565904
O O6 0.287784 0.500000 0.636015
O O7 0.622429 0.719081 0.685348
O O8 0.915484 0.692280 0.697048
O O9 0.830409 0.630531 0.575880
O O10 0.123710 0.306130 0.796280
O O11 0.833345 0.241094 0.858198
O O12 0.933310 0.447091 0.431631
O O13 0.500000 0.201721 0.000000
#
# Coordination Sequence:
#
# PCOD9199210 Si02
#       8
#     8   4   2   8   8   4   8   4
#     4  10  22  40  61  85 123 156 196 242 305 340
#     4  10  20  42  57  86 116 155 194 253 286 351
#     4  10  24  40  60  86 116 166 190 246 300 354
#     4  10  21  39  60  86 122 154 195 244 292 357
#     4   9  21  38  58  85 121 152 192 246 293 342
#     4  10  22  37  63  89 114 152 209 243 285 358
#     4  10  20  36  59  88 113 154 198 239 288 356
#     4  11  22  38  62  94 112 158 198 241 302 350
#
# _framework density 18.856833000000002
#
# number of rings (size 3 to 8) (size 9 to 14) (size 15 to 20)
#    0.000    2.087    1.739    0.522    4.870    0.696 
#    3.130    3.478    0.000    0.000    0.000    0.000 
#    0.000    0.000    0.000    0.000    0.000    0.000 
#
# Total GULP energy -128063.629956 kJ/mol
# GULP energy per Si atom -5567.983911 kJ/mol
# Density = 1.881391 g / cm^3
# Si number density = 18.856833 Si / 1000 Ang^3
#
#
#
# Elastic Constant Matrix: (Units=GPa)
#
#
# Indices 1 2 3 4 5 6 
#
# 1 91.6553 38.8966 23.6795 0.0000 15.6092 0.0000
# 2 38.8966 96.8700 23.7211 0.0000 17.8810 0.0000
# 3 23.6795 23.7211 51.0520 0.0000 9.4171 0.0000
# 4 0.0000 0.0000 0.0000 3.9847 0.0000 4.0702
# 5 15.6092 17.8810 9.4171 0.0000 33.8224 0.0000
# 6 0.0000 0.0000 0.0000 4.0702 0.0000 11.7453
#
#
#
# Elastic Compliance Matrix: (Units=1/GPa)
#
#
# Indices 1 2 3 4 5 6 
#
# 1 0.014277 -0.004125 -0.004103 0.000000 -0.003266 0.000000
# 2 -0.004125 0.013666 -0.003642 0.000000 -0.004307 0.000000
# 3 -0.004103 -0.003642 0.023696 0.000000 -0.002779 0.000000
# 4 0.000000 0.000000 0.000000 0.388463 0.000000 -0.134617
# 5 -0.003266 -0.004307 -0.002779 0.000000 0.034124 0.000000
# 6 0.000000 0.000000 0.000000 -0.134617 0.000000 0.131791
#
#
# Mechanical properties :
#
#
# Convention : Reuss Voigt Hill
#
# Bulk Modulus (GPa) = 35.84401 45.79685 40.82043
# Shear Modulus (GPa) = 7.82402 20.12916 13.97659
#
# Velocity S-wave (km/s) = 2.03916 3.27077 2.72544
# Velocity P-wave (km/s) = 4.95923 6.21315 5.62126
#
# Compressibility (1/GPa) = 0.02789866
#
# Stress axis : x y z
#
# Youngs Moduli (GPa) = 70.04105 73.17179 42.20155
#
# Poissons Ratio (x) = 0.30185 0.17316
# Poissons Ratio (y) = 0.28894 0.15370
# Poissons Ratio (z) = 0.28738 0.26650
#
# Static dielectric constant tensor:
#      x y z
#    x 1.654540 0.000000 -0.007670 
#    y 0.000000 1.640940 0.000000 
#    z -0.007670 0.000000 1.657290 
# 
# From -- ./inp_files/123558.got.cif
#   From: 2010.05.17/outbox.cif.g08.bks.cpg/sg12_62_cif.got.tgz:123558.got - 2010.06.03 13:09:07.
