data_PCOD9199020
_publ_section_title
;
Structure prediction by ZEFSAII (Michael W. Deem and Ramdas Pophale) SiO2 
 PCOD9199020
Probable space group: C 2/M
;
_chemical_formula_sum "Si O2"
_cell_formula_units_Z 56
_cell_length_a 19.105293
_cell_length_b 7.720389
_cell_length_c 18.115210
_cell_angle_alpha 90.000000
_cell_angle_beta 111.556842
_cell_angle_gamma 90.000000
_cell_volume 2485.101866
_symmetry_space_group_name_H-M "C 2/M"
_symmetry_group_IT_number 12
_symmetry_cell_setting 'monoclinic'
loop_
_space_group_symop_operation_xyz
x,y,z
-x,y,-z
-x,-y,-z
x,-y,z
1/2+x,1/2+y,z
1/2-x,1/2+y,-z
1/2-x,1/2-y,-z
1/2+x,1/2-y,z
loop_
_atom_site_type_symbol
_atom_site_label
_atom_site_fract_x
_atom_site_fract_y
_atom_site_fract_z
Si Si1 0.770477 0.207513 0.424251
Si Si2 0.436178 0.199664 0.029891
Si Si3 0.930880 0.787976 0.522595
Si Si4 0.660994 0.203343 0.254428
Si Si5 0.791254 0.800396 0.887576
Si Si6 0.973995 0.794275 0.701915
Si Si7 0.880843 0.709030 0.164263
O O1 0.750000 0.250000 0.500000
O O2 0.855609 0.270340 0.452582
O O3 0.713322 0.274514 0.340915
O O4 0.769120 0.000000 0.416330
O O5 0.419862 0.277274 0.104178
O O6 0.459926 0.000000 0.051575
O O7 0.500000 0.276762 0.000000
O O8 0.355296 0.204019 0.958590
O O9 0.941400 0.728484 0.611069
O O10 0.000000 0.734053 0.500000
O O11 0.929162 0.000000 0.524573
O O12 0.681431 0.293401 0.186300
O O13 0.576126 0.221089 0.250808
O O14 0.676144 0.000000 0.248636
O O15 0.705669 0.731701 0.861066
O O16 0.791135 0.000000 0.913076
O O17 0.061785 0.754520 0.747974
O O18 0.964623 0.000000 0.699144
O O19 0.877376 0.500000 0.158622
#
# Coordination Sequence:
#
# PCOD9199020 Si02
#       7
#     8   8   8   8   8   8   8
#     4  10  20  36  59  84 114 153 197 248 300 352
#     4  10  21  40  66  91 118 158 199 239 293 355
#     4   9  19  35  56  83 117 152 194 247 296 346
#     4  11  23  38  60  86 119 160 203 249 301 361
#     4  11  24  40  61  90 124 159 197 248 295 345
#     4  11  22  37  62  89 118 158 203 250 296 353
#     4  10  23  41  60  88 128 161 192 242 299 352
#
# _framework density 22.534288
#
# number of rings (size 3 to 8) (size 9 to 14) (size 15 to 20)
#    0.000    1.714    1.429    2.571    2.000    3.714 
#    0.000    0.000    0.000    2.143    0.000    0.000 
#    0.000    0.000    0.000    0.000    0.000    0.000 
#
# Total GULP energy -156461.254576 kJ/mol
# GULP energy per Si atom -5587.901949 kJ/mol
# Density = 2.248300 g / cm^3
# Si number density = 22.534288 Si / 1000 Ang^3
#
#
#
# Elastic Constant Matrix: (Units=GPa)
#
#
# Indices 1 2 3 4 5 6 
#
# 1 107.6546 -3.6827 5.9014 0.0000 13.3562 0.0000
# 2 -3.6827 46.8881 -7.9613 0.0000 -1.2347 0.0000
# 3 5.9014 -7.9613 78.2546 0.0000 12.9657 0.0000
# 4 0.0000 0.0000 0.0000 4.5651 0.0000 12.2261
# 5 13.3562 -1.2347 12.9657 0.0000 41.3024 0.0000
# 6 0.0000 0.0000 0.0000 12.2261 0.0000 12.1358
#
#
#
# Elastic Compliance Matrix: (Units=1/GPa)
#
#
# Indices 1 2 3 4 5 6 
#
# 1 0.009701 0.000655 -0.000157 0.000000 -0.003068 0.000000
# 2 0.000655 0.021747 0.002205 0.000000 -0.000254 0.000000
# 3 -0.000157 0.002205 0.013709 0.000000 -0.004187 0.000000
# 4 0.000000 0.000000 0.000000 -0.129001 0.000000 0.129960
# 5 -0.003068 -0.000254 -0.004187 0.000000 0.026511 0.000000
# 6 0.000000 0.000000 0.000000 0.129960 0.000000 -0.048526
#
#
# Mechanical properties :
#
#
# Convention : Reuss Voigt Hill
#
# Bulk Modulus (GPa) = 19.77777 24.59023 22.18400
# Shear Modulus (GPa) = -52.95864 27.50333 -12.72765
#
# Velocity S-wave (km/s) = -4.85308 3.49737 -2.37916
# Velocity P-wave (km/s) = 4.75472 5.21966 1.52274
#
# Compressibility (1/GPa) = 0.05056181
#
# Stress axis : x y z
#
# Youngs Moduli (GPa) = 103.08641 45.98441 72.94657
#
# Poissons Ratio (x) = -0.03010 0.01142
# Poissons Ratio (y) = -0.06747 -0.16085
# Poissons Ratio (z) = 0.01614 -0.10140
#
# Static dielectric constant tensor:
#      x y z
#    x 1.870060 0.000000 0.033340 
#    y 0.000000 1.398170 0.000000 
#    z 0.033340 0.000000 1.833130 
# 
# From -- ./inp_files/275671.got.cif
#   From: 2010.05.17/outbox.cif.g08.bks.cpg/sg12_138_cif.got.tgz:275671.got - 2010.06.03 13:09:07.
