data_PCOD9199105
_publ_section_title
;
Structure prediction by ZEFSAII (Michael W. Deem and Ramdas Pophale) SiO2 
 PCOD9199105
Probable space group: C 2/M
;
_chemical_formula_sum "Si O2"
_cell_formula_units_Z 64
_cell_length_a 25.521188
_cell_length_b 7.633518
_cell_length_c 19.776841
_cell_angle_alpha 90.000000
_cell_angle_beta 130.771473
_cell_angle_gamma 90.000000
_cell_volume 2917.844458
_symmetry_space_group_name_H-M "C 2/M"
_symmetry_group_IT_number 12
_symmetry_cell_setting 'monoclinic'
loop_
_space_group_symop_operation_xyz
x,y,z
-x,y,-z
-x,-y,-z
x,-y,z
1/2+x,1/2+y,z
1/2-x,1/2+y,-z
1/2-x,1/2-y,-z
1/2+x,1/2-y,z
loop_
_atom_site_type_symbol
_atom_site_label
_atom_site_fract_x
_atom_site_fract_y
_atom_site_fract_z
Si Si1 0.311322 0.791222 0.604963
Si Si2 0.297226 0.296836 0.748509
Si Si3 0.683983 0.712889 0.863300
Si Si4 0.352991 0.788227 0.388505
Si Si5 0.592226 0.794995 0.425111
Si Si6 0.061093 0.792674 0.664310
Si Si7 0.921572 0.784640 0.947003
Si Si8 0.161871 0.794702 0.996681
O O1 0.250000 0.750000 0.500000
O O2 0.303631 0.710921 0.672598
O O3 0.379843 0.726824 0.622684
O O4 0.313014 0.000000 0.617629
O O5 0.294104 0.500000 0.766627
O O6 0.221119 0.220051 0.700217
O O7 0.364672 0.225413 0.843574
O O8 0.685784 0.500000 0.865095
O O9 0.624867 0.773910 0.762986
O O10 0.760592 0.774772 0.909210
O O11 0.666144 0.777243 0.924179
O O12 0.367973 0.719220 0.476359
O O13 0.416381 0.743433 0.393262
O O14 0.349190 0.000000 0.388261
O O15 0.511568 0.780884 0.372564
O O16 0.610458 0.000000 0.438876
O O17 0.056187 0.000000 0.669396
O O18 0.892678 0.724829 0.995472
O O19 0.922552 0.000000 0.947298
O O20 0.000000 0.727484 0.000000
O O21 0.146540 0.000000 0.976258
#
# Coordination Sequence:
#
# PCOD9199105 Si02
#       8
#     8   8   8   8   8   8   8   8
#     4  11  22  39  61  84 111 144 187 233 279 331
#     4  10  20  36  59  86 113 147 191 234 280 332
#     4   9  19  34  52  78 110 138 173 226 277 321
#     4  10  20  37  57  77 107 148 190 228 270 328
#     4  10  22  39  56  76 107 146 185 226 272 327
#     4  11  23  35  51  82 116 143 178 227 283 332
#     4   9  18  32  54  84 113 143 185 232 273 323
#     4   9  17  33  57  78 101 141 186 221 263 323
#
# _framework density 21.934000000000001
#
# number of rings (size 3 to 8) (size 9 to 14) (size 15 to 20)
#    0.000    2.125    1.250    1.875    0.000    6.500 
#    0.000    3.125    0.000    1.500    0.000    0.000 
#    0.000    0.000    0.000    0.000    0.000    0.000 
#
# Total GULP energy -178698.691258 kJ/mol
# GULP energy per Si atom -5584.334102 kJ/mol
# Density = 2.188408 g / cm^3
# Si number density = 21.934000 Si / 1000 Ang^3
#
#
#
# Elastic Constant Matrix: (Units=GPa)
#
#
# Indices 1 2 3 4 5 6 
#
# 1 147.9092 -12.9993 14.6976 0.0000 14.6058 0.0000
# 2 -12.9993 43.3478 -8.3021 0.0000 0.0186 -0.0001
# 3 14.6976 -8.3021 38.3334 0.0000 8.7600 0.0000
# 4 0.0000 0.0000 0.0000 10.2262 0.0000 -1.4306
# 5 14.6058 0.0186 8.7600 0.0000 27.1998 0.0000
# 6 0.0000 -0.0001 0.0000 -1.4306 0.0000 16.3774
#
#
#
# Elastic Compliance Matrix: (Units=1/GPa)
#
#
# Indices 1 2 3 4 5 6 
#
# 1 0.007435 0.001916 -0.001644 0.000000 -0.003464 0.000000
# 2 0.001916 0.024646 0.005227 0.000000 -0.002729 0.000000
# 3 -0.001644 0.005227 0.029845 0.000000 -0.008733 0.000000
# 4 0.000000 0.000000 0.000000 0.098998 0.000000 0.008648
# 5 -0.003464 -0.002729 -0.008733 0.000000 0.041440 0.000000
# 6 0.000000 0.000000 0.000000 0.008648 0.000000 0.061815
#
#
# Mechanical properties :
#
#
# Convention : Reuss Voigt Hill
#
# Bulk Modulus (GPa) = 13.71296 24.04253 18.87774
# Shear Modulus (GPa) = 18.01878 26.50694 22.26286
#
# Velocity S-wave (km/s) = 2.86929 3.48010 3.18935
# Velocity P-wave (km/s) = 4.15242 5.20896 4.71041
#
# Compressibility (1/GPa) = 0.07292372
#
# Stress axis : x y z
#
# Youngs Moduli (GPa) = 134.50338 40.57439 33.50660
#
# Poissons Ratio (x) = -0.07775 0.05508
# Poissons Ratio (y) = -0.25773 -0.17513
# Poissons Ratio (z) = 0.22112 -0.21207
#
# Static dielectric constant tensor:
#      x y z
#    x 1.804670 0.000000 -0.007010 
#    y 0.000000 1.834680 0.000000 
#    z -0.007010 0.000000 1.802430 
# 
# From -- ./inp_files/324226.got.cif
#   From: 2010.05.17/outbox.cif.g08.bks.cpg/sg12_163_cif.got.tgz:324226.got - 2010.06.03 13:09:07.
