data_PCOD9199944
_publ_section_title
;
Structure prediction by ZEFSAII (Michael W. Deem and Ramdas Pophale) SiO2 
 PCOD9199944
Probable space group: C 2/M
;
_chemical_formula_sum "Si O2"
_cell_formula_units_Z 58
_cell_length_a 17.050959
_cell_length_b 16.172047
_cell_length_c 11.492359
_cell_angle_alpha 90.000000
_cell_angle_beta 87.969737
_cell_angle_gamma 90.000000
_cell_volume 3167.016141
_symmetry_space_group_name_H-M "C 2/M"
_symmetry_group_IT_number 12
_symmetry_cell_setting 'monoclinic'
loop_
_space_group_symop_operation_xyz
x,y,z
-x,y,-z
-x,-y,-z
x,-y,z
1/2+x,1/2+y,z
1/2-x,1/2+y,-z
1/2-x,1/2-y,-z
1/2+x,1/2-y,z
loop_
_atom_site_type_symbol
_atom_site_label
_atom_site_fract_x
_atom_site_fract_y
_atom_site_fract_z
Si Si1 0.915006 0.260085 0.063444
Si Si2 0.335799 0.593107 0.142406
Si Si3 0.914766 0.309239 0.332277
Si Si4 0.127839 0.131499 0.588471
Si Si5 0.500000 0.500000 0.500000
Si Si6 0.704820 0.099081 0.521336
Si Si7 0.926466 0.403457 0.658803
Si Si8 0.652611 0.094085 0.087535
O O1 0.876141 0.168958 0.072284
O O2 0.921347 0.289510 0.195947
O O3 0.867115 0.330991 0.997483
O O4 0.000000 0.254230 0.000000
O O5 0.362835 0.500000 0.108254
O O6 0.351196 0.604269 0.279768
O O7 0.243081 0.597384 0.122294
O O8 0.904704 0.223632 0.400038
O O9 0.837744 0.363295 0.364285
O O10 0.993455 0.355537 0.365152
O O11 0.063596 0.071360 0.538039
O O12 0.208263 0.130087 0.510895
O O13 0.645791 0.122447 0.419112
O O14 0.708377 0.000000 0.527621
O O15 0.940743 0.500000 0.634261
O O16 0.899548 0.395519 0.793870
O O17 0.637889 0.000000 0.042191
#
# Coordination Sequence:
#
# PCOD9199944 Si02
#       8
#     8   8   8   8   2   8   8   8
#     4  11  23  39  59  91 125 162 210 262 314 365
#     4  10  20  41  66  86 118 163 216 256 305 369
#     4  11  24  38  60  93 130 163 205 258 313 369
#     4  11  23  41  62  91 124 168 205 253 311 377
#     4  12  24  40  68  88 126 168 208 248 308 374
#     4  11  21  40  63  88 124 162 208 250 312 381
#     4  10  20  36  62  91 121 164 204 250 311 382
#     4  10  20  37  65  89 118 166 209 253 310 375
#
# _framework density 18.313769000000001
#
# number of rings (size 3 to 8) (size 9 to 14) (size 15 to 20)
#    0.000    1.379    4.138    1.655    1.931    2.759 
#    0.000    0.000    3.034    0.000    0.000    0.000 
#    0.000    0.000    0.000    0.000    0.000    0.000 
#
# Total GULP energy -161684.817197 kJ/mol
# GULP energy per Si atom -5575.338524 kJ/mol
# Density = 1.827209 g / cm^3
# Si number density = 18.313769 Si / 1000 Ang^3
#
#
#
# Elastic Constant Matrix: (Units=GPa)
#
#
# Indices 1 2 3 4 5 6 
#
# 1 151.3549 80.6894 55.8978 0.0000 -5.3152 0.0000
# 2 80.6894 104.1659 51.2877 0.0000 -4.0826 0.0000
# 3 55.8978 51.2877 63.1903 0.0000 -19.4849 0.0000
# 4 0.0000 0.0000 0.0000 -10.1657 0.0000 -16.6932
# 5 -5.3152 -4.0826 -19.4849 0.0000 20.2763 0.0000
# 6 0.0000 0.0000 0.0000 -16.6932 0.0000 23.4642
#
#
#
# Elastic Compliance Matrix: (Units=1/GPa)
#
#
# Indices 1 2 3 4 5 6 
#
# 1 0.012557 -0.006058 -0.007890 0.000000 -0.005510 0.000000
# 2 -0.006058 0.021829 -0.016332 0.000000 -0.012888 0.000000
# 3 -0.007890 -0.016332 0.048898 0.000000 0.041633 0.000000
# 4 0.000000 0.000000 0.000000 -0.045368 0.000000 -0.032277
# 5 -0.005510 -0.012888 0.041633 0.000000 0.085287 0.000000
# 6 0.000000 0.000000 0.000000 -0.032277 0.000000 0.019655
#
#
# Mechanical properties :
#
#
# Convention : Reuss Voigt Hill
#
# Bulk Modulus (GPa) = 44.00718 77.16234 60.58476
# Shear Modulus (GPa) = 23.69728 15.43736 19.56732
#
# Velocity S-wave (km/s) = 3.60107 2.90649 3.27226
# Velocity P-wave (km/s) = 6.43211 7.31359 6.88696
#
# Compressibility (1/GPa) = 0.02272356
#
# Stress axis : x y z
#
# Youngs Moduli (GPa) = 79.63617 45.80986 20.45070
#
# Poissons Ratio (x) = 0.27753 0.16135
# Poissons Ratio (y) = 0.48246 0.33401
# Poissons Ratio (z) = 0.62832 0.74818
#
# Static dielectric constant tensor:
#      x y z
#    x 1.601370 0.000000 -0.000360 
#    y 0.000000 1.642510 0.000000 
#    z -0.000360 0.000000 1.632270 
# 
# From -- ./inp_files/156068.got.cif
#   From: 2010.05.17/outbox.cif.g08.bks.cpg/sg12_79_cif.got.tgz:156068.got - 2010.06.03 13:09:07.
