data_PCOD9199985
_publ_section_title
;
Structure prediction by ZEFSAII (Michael W. Deem and Ramdas Pophale) SiO2 
 PCOD9199985
Probable space group: C 2/M
;
_chemical_formula_sum "Si O2"
_cell_formula_units_Z 52
_cell_length_a 14.184377
_cell_length_b 20.412441
_cell_length_c 9.996215
_cell_angle_alpha 90.000000
_cell_angle_beta 131.137797
_cell_angle_gamma 90.000000
_cell_volume 2179.769121
_symmetry_space_group_name_H-M "C 2/M"
_symmetry_group_IT_number 12
_symmetry_cell_setting 'monoclinic'
loop_
_space_group_symop_operation_xyz
x,y,z
-x,y,-z
-x,-y,-z
x,-y,z
1/2+x,1/2+y,z
1/2-x,1/2+y,-z
1/2-x,1/2-y,-z
1/2+x,1/2-y,z
loop_
_atom_site_type_symbol
_atom_site_label
_atom_site_fract_x
_atom_site_fract_y
_atom_site_fract_z
Si Si1 0.791287 0.824369 0.533797
Si Si2 0.965148 0.500000 0.311450
Si Si3 0.236446 0.364698 0.201918
Si Si4 0.938843 0.209740 0.217820
Si Si5 0.306172 0.360081 0.853614
Si Si6 0.118806 0.000000 0.704776
Si Si7 0.444313 0.860827 0.202281
Si Si8 0.662009 0.500000 0.037751
O O1 0.750000 0.750000 0.500000
O O2 0.716892 0.854306 0.340232
O O3 0.780824 0.846083 0.676389
O O4 0.937925 0.831620 0.633747
O O5 0.012191 0.430002 0.297046
O O6 0.813408 0.500000 0.147867
O O7 0.000000 0.500000 0.500000
O O8 0.329085 0.309929 0.219862
O O9 0.301586 0.434521 0.242908
O O10 0.111795 0.363477 0.998506
O O11 0.983460 0.285288 0.262200
O O12 0.889570 0.188919 0.023454
O O13 0.174931 0.362639 0.808443
O O14 0.362611 0.432508 0.912607
O O15 0.000000 0.000000 0.500000
O O16 0.085810 0.000000 0.829827
#
# Coordination Sequence:
#
# PCOD9199985 Si02
#       8
#     8   4   8   8   8   4   8   4
#     4  12  25  38  55  90 129 161 204 263 309 365
#     4  10  20  36  62  94 118 151 204 264 310 351
#     4  11  22  39  63  90 125 159 209 255 306 369
#     4  11  21  38  62  87 116 167 215 246 306 371
#     4  10  21  39  61  89 126 159 199 255 317 364
#     4  12  20  37  66  94 124 164 207 255 307 371
#     4  10  20  40  65  89 117 162 207 262 305 365
#     4  10  20  41  63  90 130 159 204 261 306 377
#
# _framework density 23.855737000000001
#
# number of rings (size 3 to 8) (size 9 to 14) (size 15 to 20)
#    0.000    1.231    4.615    5.538    0.000    4.308 
#    0.000    2.308    0.000    0.923    0.000    8.615 
#    0.000    0.000    0.000    0.000    0.000    0.000 
#
# Total GULP energy -145365.220710 kJ/mol
# GULP energy per Si atom -5590.970027 kJ/mol
# Density = 2.380144 g / cm^3
# Si number density = 23.855737 Si / 1000 Ang^3
#
#
#
# Elastic Constant Matrix: (Units=GPa)
#
#
# Indices 1 2 3 4 5 6 
#
# 1 62.4372 16.7347 27.8910 0.0000 -11.2290 0.0000
# 2 16.7347 176.8632 50.7712 0.0000 -20.5537 0.0000
# 3 27.8910 50.7712 173.5557 0.0000 -44.7575 0.0000
# 4 0.0000 0.0000 0.0000 34.8294 0.0000 -10.2241
# 5 -11.2290 -20.5537 -44.7575 0.0000 34.9816 0.0000
# 6 0.0000 0.0000 0.0000 -10.2241 0.0000 11.4718
#
#
#
# Elastic Compliance Matrix: (Units=1/GPa)
#
#
# Indices 1 2 3 4 5 6 
#
# 1 0.017566 -0.000802 -0.001874 0.000000 0.002770 0.000000
# 2 -0.000802 0.006301 -0.001233 0.000000 0.001867 0.000000
# 3 -0.001874 -0.001233 0.009077 0.000000 0.010287 0.000000
# 4 0.000000 0.000000 0.000000 0.038884 0.000000 0.034655
# 5 0.002770 0.001867 0.010287 0.000000 0.043735 0.000000
# 6 0.000000 0.000000 0.000000 0.034655 0.000000 0.118055
#
#
# Mechanical properties :
#
#
# Convention : Reuss Voigt Hill
#
# Bulk Modulus (GPa) = 39.79989 67.07218 53.43603
# Shear Modulus (GPa) = 20.01510 37.42052 28.71781
#
# Velocity S-wave (km/s) = 2.89970 3.96487 3.47336
# Velocity P-wave (km/s) = 5.28496 7.00978 6.20757
#
# Compressibility (1/GPa) = 0.02512570
#
# Stress axis : x y z
#
# Youngs Moduli (GPa) = 56.92694 158.70783 110.17414
#
# Poissons Ratio (x) = 0.12733 0.20647
# Poissons Ratio (y) = 0.04567 0.13582
# Poissons Ratio (z) = 0.10668 0.19564
#
# Static dielectric constant tensor:
#      x y z
#    x 2.003340 0.000000 0.062810 
#    y 0.000000 1.914000 0.000000 
#    z 0.062810 0.000000 1.884180 
# 
# From -- ./inp_files/78106.got.cif
#   From: 2010.05.17/outbox.cif.g08.bks.cpg/sg12_40_cif.got.tgz:78106.got - 2010.06.03 13:09:07.
