data_PCOD9199173
_publ_section_title
;
Structure prediction by ZEFSAII (Michael W. Deem and Ramdas Pophale) SiO2 
 PCOD9199173
Probable space group: C 2/M
;
_chemical_formula_sum "Si O2"
_cell_formula_units_Z 64
_cell_length_a 14.355253
_cell_length_b 26.793970
_cell_length_c 9.672422
_cell_angle_alpha 90.000000
_cell_angle_beta 106.446260
_cell_angle_gamma 90.000000
_cell_volume 3568.129193
_symmetry_space_group_name_H-M "C 2/M"
_symmetry_group_IT_number 12
_symmetry_cell_setting 'monoclinic'
loop_
_space_group_symop_operation_xyz
x,y,z
-x,y,-z
-x,-y,-z
x,-y,z
1/2+x,1/2+y,z
1/2-x,1/2+y,-z
1/2-x,1/2-y,-z
1/2+x,1/2-y,z
loop_
_atom_site_type_symbol
_atom_site_label
_atom_site_fract_x
_atom_site_fract_y
_atom_site_fract_z
Si Si1 0.401014 0.178426 0.120190
Si Si2 0.913067 0.145441 0.725507
Si Si3 0.886463 0.353597 0.801067
Si Si4 0.279536 0.696520 0.447478
Si Si5 0.246336 0.441279 0.156286
Si Si6 0.899152 0.791621 0.217346
Si Si7 0.540273 0.444805 0.670562
Si Si8 0.797695 0.865129 0.954965
O O1 0.501406 0.150246 0.196402
O O2 0.398873 0.235017 0.167600
O O3 0.306827 0.152276 0.142864
O O4 0.386340 0.175618 0.947858
O O5 0.828987 0.160365 0.581780
O O6 0.871283 0.137408 0.860110
O O7 0.990712 0.189850 0.747296
O O8 0.976973 0.096956 0.717219
O O9 0.815528 0.327956 0.661781
O O10 0.840971 0.407611 0.820309
O O11 0.250000 0.750000 0.500000
O O12 0.355573 0.703545 0.352769
O O13 0.224327 0.500000 0.141377
O O14 0.345054 0.433262 0.285595
O O15 0.278545 0.417678 0.022730
O O16 0.836036 0.826863 0.088871
O O17 0.500000 0.446754 0.500000
O O18 0.530850 0.500000 0.731159
#
# Coordination Sequence:
#
# PCOD9199173 Si02
#       8
#     8   8   8   8   8   8   8   8
#     4  10  22  36  61  79 118 158 205 246 296 352
#     4  12  24  36  59  87 124 159 197 244 306 371
#     4  10  21  39  57  89 117 154 207 254 296 360
#     4  12  24  38  58  88 125 161 204 250 301 360
#     4  10  20  39  64  87 120 156 201 263 310 357
#     4  12  22  38  59  84 122 163 203 241 300 372
#     4  10  20  36  59  87 118 155 195 247 312 370
#     4  11  23  39  56  88 119 158 201 248 299 361
#
# _framework density 17.93657
#
# number of rings (size 3 to 8) (size 9 to 14) (size 15 to 20)
#    0.000    1.125    3.750    4.125    5.250    0.500 
#    0.000    8.125    0.000    0.000    0.000    0.000 
#    0.000   17.000    0.000    0.000    0.000    0.000 
#
# Total GULP energy -178631.085411 kJ/mol
# GULP energy per Si atom -5582.221419 kJ/mol
# Density = 1.789575 g / cm^3
# Si number density = 17.936570 Si / 1000 Ang^3
#
#
#
# Elastic Constant Matrix: (Units=GPa)
#
#
# Indices 1 2 3 4 5 6 
#
# 1 60.2871 9.6652 25.4088 0.0000 5.3809 0.0000
# 2 9.6652 86.8745 38.9419 0.0000 -3.1886 0.0000
# 3 25.4088 38.9419 55.5803 0.0000 8.8701 0.0000
# 4 0.0000 0.0000 0.0000 28.9544 0.0000 8.0891
# 5 5.3809 -3.1886 8.8701 0.0000 35.8882 0.0000
# 6 0.0000 0.0000 0.0000 8.0891 0.0000 27.2073
#
#
#
# Elastic Compliance Matrix: (Units=1/GPa)
#
#
# Indices 1 2 3 4 5 6 
#
# 1 0.021026 0.002867 -0.011617 0.000000 -0.000027 0.000000
# 2 0.002867 0.017927 -0.014634 0.000000 0.004780 0.000000
# 3 -0.011617 -0.014634 0.034860 0.000000 -0.008175 0.000000
# 4 0.000000 0.000000 0.000000 0.037666 0.000000 -0.011199
# 5 -0.000027 0.004780 -0.008175 0.000000 0.030313 0.000000
# 6 0.000000 0.000000 0.000000 -0.011199 0.000000 0.040084
#
#
# Mechanical properties :
#
#
# Convention : Reuss Voigt Hill
#
# Bulk Modulus (GPa) = 36.97368 38.97484 37.97426
# Shear Modulus (GPa) = 21.03853 26.99171 24.01512
#
# Velocity S-wave (km/s) = 3.42854 3.88344 3.66306
# Velocity P-wave (km/s) = 6.02756 6.47183 6.25364
#
# Compressibility (1/GPa) = 0.02704627
#
# Stress axis : x y z
#
# Youngs Moduli (GPa) = 47.56013 55.78169 28.68597
#
# Poissons Ratio (x) = -0.15992 0.33323
# Poissons Ratio (y) = -0.13635 0.41979
# Poissons Ratio (z) = 0.55249 0.81630
#
# Static dielectric constant tensor:
#      x y z
#    x 1.633270 0.000000 0.015930 
#    y 0.000000 1.667970 0.000000 
#    z 0.015930 0.000000 1.623180 
# 
# From -- ./inp_files/67026.got.cif
#   From: 2010.05.17/outbox.cif.g08.bks.cpg/sg12_34_cif.got.tgz:67026.got - 2010.06.03 13:09:07.
