data_PCOD9199348
_publ_section_title
;
Structure prediction by ZEFSAII (Michael W. Deem and Ramdas Pophale) SiO2 
 PCOD9199348
Probable space group: C 2/M
;
_chemical_formula_sum "Si O2"
_cell_formula_units_Z 48
_cell_length_a 18.912109
_cell_length_b 11.834674
_cell_length_c 11.298979
_cell_angle_alpha 90.000000
_cell_angle_beta 126.672407
_cell_angle_gamma 90.000000
_cell_volume 2028.355812
_symmetry_space_group_name_H-M "C 2/M"
_symmetry_group_IT_number 12
_symmetry_cell_setting 'monoclinic'
loop_
_space_group_symop_operation_xyz
x,y,z
-x,y,-z
-x,-y,-z
x,-y,z
1/2+x,1/2+y,z
1/2-x,1/2+y,-z
1/2-x,1/2-y,-z
1/2+x,1/2-y,z
loop_
_atom_site_type_symbol
_atom_site_label
_atom_site_fract_x
_atom_site_fract_y
_atom_site_fract_z
Si Si1 0.297914 0.185189 0.441296
Si Si2 0.855958 0.229902 0.859346
Si Si3 0.452793 0.875369 0.757876
Si Si4 0.241828 0.869530 0.917511
Si Si5 0.417961 0.380693 0.505491
Si Si6 0.558189 0.322952 0.817459
O O1 0.250000 0.250000 0.500000
O O2 0.217410 0.150171 0.276729
O O3 0.373824 0.115940 0.583080
O O4 0.354674 0.276604 0.426965
O O5 0.918042 0.292146 0.826311
O O6 0.801627 0.333366 0.866388
O O7 0.908340 0.164256 0.014632
O O8 0.536838 0.811318 0.785357
O O9 0.474739 0.000000 0.822774
O O10 0.135149 0.870530 0.810985
O O11 0.265859 0.000000 0.978049
O O12 0.250000 0.750000 0.000000
O O13 0.500000 0.375008 0.500000
O O14 0.370019 0.500000 0.447200
O O15 0.465532 0.373894 0.681779
#
# Coordination Sequence:
#
# PCOD9199348 Si02
#       6
#     8   8   8   8   8   8
#     4   9  20  36  55  83 117 151 193 246 304 360
#     4  10  20  37  62  89 117 154 207 262 309 361
#     4  10  21  38  60  86 119 161 209 257 308 372
#     4  10  21  37  60  90 124 160 202 255 313 370
#     4  10  20  36  60  85 110 146 191 238 292 358
#     4  10  21  35  57  89 122 151 193 250 310 363
#
# _framework density 23.664486
#
# number of rings (size 3 to 8) (size 9 to 14) (size 15 to 20)
#    0.000    2.167    0.000    2.500    0.000    8.667 
#    0.000    4.167    0.000   67.000    0.000    0.000 
#    0.000    0.000    0.000    0.000    0.000    0.000 
#
# Total GULP energy -133632.484327 kJ/mol
# GULP energy per Si atom -5568.020180 kJ/mol
# Density = 2.361062 g / cm^3
# Si number density = 23.664486 Si / 1000 Ang^3
#
#
#
# Elastic Constant Matrix: (Units=GPa)
#
#
# Indices 1 2 3 4 5 6 
#
# 1 73.5083 38.2630 -9.8232 0.0000 -7.0177 0.0000
# 2 38.2630 87.6641 6.8657 0.0000 -10.8965 0.0000
# 3 -9.8232 6.8657 137.6442 0.0000 7.2961 0.0000
# 4 0.0000 0.0000 0.0000 3.7920 0.0000 -9.8792
# 5 -7.0177 -10.8965 7.2961 0.0000 30.3391 0.0000
# 6 0.0000 0.0000 0.0000 -9.8792 0.0000 -6.9543
#
#
#
# Elastic Compliance Matrix: (Units=1/GPa)
#
#
# Indices 1 2 3 4 5 6 
#
# 1 0.018008 -0.007870 0.001628 0.000000 0.000948 0.000000
# 2 -0.007870 0.015475 -0.001551 0.000000 0.004111 0.000000
# 3 0.001628 -0.001551 0.007565 0.000000 -0.002000 0.000000
# 4 0.000000 0.000000 0.000000 0.056097 0.000000 -0.079690
# 5 0.000948 0.004111 -0.002000 0.000000 0.035137 0.000000
# 6 0.000000 0.000000 0.000000 -0.079690 0.000000 -0.030588
#
#
# Mechanical properties :
#
#
# Convention : Reuss Voigt Hill
#
# Bulk Modulus (GPa) = 39.27711 41.04750 40.16230
# Shear Modulus (GPa) = 39.75593 23.00277 31.37935
#
# Velocity S-wave (km/s) = 4.10321 3.12113 3.64539
# Velocity P-wave (km/s) = 6.25155 5.51107 5.89295
#
# Compressibility (1/GPa) = 0.02546012
#
# Stress axis : x y z
#
# Youngs Moduli (GPa) = 55.52998 64.62211 132.19378
#
# Poissons Ratio (x) = 0.50856 -0.21515
# Poissons Ratio (y) = 0.43701 0.20509
# Poissons Ratio (z) = -0.09038 0.10025
#
# Static dielectric constant tensor:
#      x y z
#    x 1.860210 0.000000 0.008110 
#    y 0.000000 1.902110 0.000000 
#    z 0.008110 0.000000 2.035540 
# 
# From -- ./inp_files/165822.got.cif
#   From: 2010.05.17/outbox.cif.g08.bks.cpg/sg12_83_cif.got.tgz:165822.got - 2010.06.03 13:09:07.
