data_PCOD9199270
_publ_section_title
;
Structure prediction by ZEFSAII (Michael W. Deem and Ramdas Pophale) SiO2 
 PCOD9199270
Probable space group: C 2/M
;
_chemical_formula_sum "Si O2"
_cell_formula_units_Z 60
_cell_length_a 8.964904
_cell_length_b 21.403568
_cell_length_c 16.640054
_cell_angle_alpha 90.000000
_cell_angle_beta 115.201421
_cell_angle_gamma 90.000000
_cell_volume 2888.996791
_symmetry_space_group_name_H-M "C 2/M"
_symmetry_group_IT_number 12
_symmetry_cell_setting 'monoclinic'
loop_
_space_group_symop_operation_xyz
x,y,z
-x,y,-z
-x,-y,-z
x,-y,z
1/2+x,1/2+y,z
1/2-x,1/2+y,-z
1/2-x,1/2-y,-z
1/2+x,1/2-y,z
loop_
_atom_site_type_symbol
_atom_site_label
_atom_site_fract_x
_atom_site_fract_y
_atom_site_fract_z
Si Si1 0.845359 0.396810 0.409204
Si Si2 0.522427 0.788936 0.668035
Si Si3 0.538595 0.881593 0.816035
Si Si4 0.104892 0.500000 0.715259
Si Si5 0.775351 0.926908 0.170211
Si Si6 0.680955 0.425641 0.005666
Si Si7 0.993038 0.072240 0.371911
Si Si8 0.855731 0.188342 0.405426
O O1 0.833746 0.446265 0.335042
O O2 0.675140 0.398991 0.418453
O O3 0.000000 0.414504 0.500000
O O4 0.886603 0.330849 0.378331
O O5 0.550798 0.821953 0.760261
O O6 0.325927 0.792415 0.610059
O O7 0.594345 0.720705 0.667677
O O8 0.544643 0.944044 0.762747
O O9 0.368765 0.885050 0.826072
O O10 0.687470 0.887504 0.912879
O O11 0.930443 0.924206 0.265582
O O12 0.720604 0.000000 0.157420
O O13 0.815812 0.910741 0.087922
O O14 0.719583 0.500000 0.023349
O O15 0.500000 0.416350 0.000000
O O16 0.868224 0.113940 0.394922
O O17 0.993408 0.000000 0.396175
O O18 0.000000 0.206639 0.500000
#
# Coordination Sequence:
#
# PCOD9199270 Si02
#       8
#     8   8   8   4   8   8   8   8
#     4  11  22  39  58  90 127 176 216 263 327 382
#     4  11  25  41  69  91 124 176 219 279 321 389
#     4  11  20  38  58  93 125 170 213 261 329 377
#     4  10  21  30  60  81 134 163 215 257 313 380
#     4  10  20  36  59  89 132 169 207 256 323 384
#     4  10  21  33  61  96 134 171 213 264 316 396
#     4  11  24  39  63  97 133 169 211 268 334 392
#     4  12  24  46  67  95 127 169 230 278 323 389
#
# _framework density 20.768456
#
# number of rings (size 3 to 8) (size 9 to 14) (size 15 to 20)
#    0.000    1.200    3.333    3.000    3.733    1.333 
#    0.000    0.000    0.000    0.800    0.000    0.000 
#    0.000    0.000    0.000    0.000    0.000    0.000 
#
# Total GULP energy -167232.002633 kJ/mol
# GULP energy per Si atom -5574.400088 kJ/mol
# Density = 2.072119 g / cm^3
# Si number density = 20.768456 Si / 1000 Ang^3
#
#
#
# Elastic Constant Matrix: (Units=GPa)
#
#
# Indices 1 2 3 4 5 6 
#
# 1 81.6220 27.6732 35.4770 0.0000 -4.5219 0.0000
# 2 27.6732 65.8557 14.5913 0.0000 -2.8034 0.0000
# 3 35.4770 14.5913 85.0020 0.0000 2.0818 0.0000
# 4 0.0000 0.0000 0.0000 17.5691 0.0000 -4.3651
# 5 -4.5219 -2.8034 2.0818 0.0000 38.6860 0.0000
# 6 0.0000 0.0000 0.0000 -4.3651 0.0000 22.9277
#
#
#
# Elastic Compliance Matrix: (Units=1/GPa)
#
#
# Indices 1 2 3 4 5 6 
#
# 1 0.016955 -0.005682 -0.006148 0.000000 0.001901 0.000000
# 2 -0.005682 0.017754 -0.000692 0.000000 0.000660 0.000000
# 3 -0.006148 -0.000692 0.014487 0.000000 -0.001548 0.000000
# 4 0.000000 0.000000 0.000000 0.059744 0.000000 0.011374
# 5 0.001901 0.000660 -0.001548 0.000000 0.026202 0.000000
# 6 0.000000 0.000000 0.000000 0.011374 0.000000 0.045781
#
#
# Mechanical properties :
#
#
# Convention : Reuss Voigt Hill
#
# Bulk Modulus (GPa) = 41.40392 43.10697 42.25545
# Shear Modulus (GPa) = 23.36246 26.15244 24.75745
#
# Velocity S-wave (km/s) = 3.35759 3.55242 3.45638
# Velocity P-wave (km/s) = 5.91697 6.13411 6.02652
#
# Compressibility (1/GPa) = 0.02415230
#
# Stress axis : x y z
#
# Youngs Moduli (GPa) = 58.97818 56.32625 69.02682
#
# Poissons Ratio (x) = 0.32003 0.42437
# Poissons Ratio (y) = 0.33510 0.04779
# Poissons Ratio (z) = 0.36259 0.03900
#
# Static dielectric constant tensor:
#      x y z
#    x 1.732740 0.000000 0.005970 
#    y 0.000000 1.775710 0.000000 
#    z 0.005970 0.000000 1.766290 
# 
# From -- ./inp_files/258507.got.cif
#   From: 2010.05.17/outbox.cif.g08.bks.cpg/sg12_130_cif.got.tgz:258507.got - 2010.06.03 13:09:07.
