data_PCOD9199615
_publ_section_title
;
Structure prediction by ZEFSAII (Michael W. Deem and Ramdas Pophale) SiO2 
 PCOD9199615
Probable space group: C 2/M
;
_chemical_formula_sum "Si O2"
_cell_formula_units_Z 64
_cell_length_a 24.405083
_cell_length_b 13.978859
_cell_length_c 7.569084
_cell_angle_alpha 90.000000
_cell_angle_beta 96.701475
_cell_angle_gamma 90.000000
_cell_volume 2564.589746
_symmetry_space_group_name_H-M "C 2/M"
_symmetry_group_IT_number 12
_symmetry_cell_setting 'monoclinic'
loop_
_space_group_symop_operation_xyz
x,y,z
-x,y,-z
-x,-y,-z
x,-y,z
1/2+x,1/2+y,z
1/2-x,1/2+y,-z
1/2-x,1/2-y,-z
1/2+x,1/2-y,z
loop_
_atom_site_type_symbol
_atom_site_label
_atom_site_fract_x
_atom_site_fract_y
_atom_site_fract_z
Si Si1 0.788649 0.116112 0.645109
Si Si2 0.670932 0.891062 0.691903
Si Si3 0.058943 0.105383 0.424332
Si Si4 0.140526 0.114431 0.007199
Si Si5 0.418651 0.256173 0.269461
Si Si6 0.763158 0.883711 0.238272
Si Si7 0.142454 0.389964 0.262717
Si Si8 0.968352 0.268264 0.809705
O O1 0.733001 0.147469 0.724704
O O2 0.784874 0.148071 0.440720
O O3 0.785381 0.000000 0.641385
O O4 0.840108 0.140289 0.787596
O O5 0.625433 0.826940 0.764981
O O6 0.657239 0.891668 0.477184
O O7 0.669717 0.000000 0.756920
O O8 0.091391 0.178889 0.561175
O O9 0.045816 0.157857 0.237750
O O10 0.000000 0.095280 0.500000
O O11 0.084228 0.000000 0.421542
O O12 0.091197 0.172976 0.898964
O O13 0.192913 0.136397 0.897728
O O14 0.130430 0.000000 0.994952
O O15 0.480237 0.214314 0.304818
O O16 0.699149 0.853254 0.192757
O O17 0.759981 0.000000 0.245696
O O18 0.132759 0.500000 0.203698
O O19 0.086676 0.330225 0.221925
O O20 0.000000 0.287933 0.000000
#
# Coordination Sequence:
#
# PCOD9199615 Si02
#       8
#     8   8   8   8   8   8   8   8
#     4   8  16  33  55  84 123 160 199 249 302 369
#     4   9  18  35  61  88 118 160 204 253 310 363
#     4   9  19  39  63  80 107 153 204 256 305 354
#     4  10  20  36  60  91 127 162 205 260 310 367
#     4  11  22  38  60  89 118 159 211 253 302 374
#     4   8  16  34  61  90 122 164 205 247 312 378
#     4   9  18  37  64  91 125 164 202 251 310 369
#     4  11  24  40  58  88 125 160 206 258 309 368
#
# _framework density 24.955258000000001
#
# number of rings (size 3 to 8) (size 9 to 14) (size 15 to 20)
#    0.000    2.625    1.250    1.875    0.000    3.000 
#    2.250    5.000    0.000    0.000    0.000    0.000 
#    0.000    0.000    0.000    0.000    0.000    0.000 
#
# Total GULP energy -179114.215270 kJ/mol
# GULP energy per Si atom -5597.319227 kJ/mol
# Density = 2.489846 g / cm^3
# Si number density = 24.955258 Si / 1000 Ang^3
#
#
#
# Elastic Constant Matrix: (Units=GPa)
#
#
# Indices 1 2 3 4 5 6 
#
# 1 176.4222 41.1187 21.0767 0.0000 18.1938 0.0000
# 2 41.1187 92.8213 7.7909 0.0000 3.7330 0.0000
# 3 21.0767 7.7909 102.3163 0.0000 15.6884 0.0000
# 4 0.0000 0.0000 0.0000 14.4318 0.0000 13.1744
# 5 18.1938 3.7330 15.6884 0.0000 32.8647 0.0000
# 6 0.0000 0.0000 0.0000 13.1744 0.0000 36.4221
#
#
#
# Elastic Compliance Matrix: (Units=1/GPa)
#
#
# Indices 1 2 3 4 5 6 
#
# 1 0.006720 -0.002795 -0.000701 0.000000 -0.003068 0.000000
# 2 -0.002795 0.012030 -0.000397 0.000000 0.000370 0.000000
# 3 -0.000701 -0.000397 0.010662 0.000000 -0.004657 0.000000
# 4 0.000000 0.000000 0.000000 0.103451 0.000000 -0.037420
# 5 -0.003068 0.000370 -0.004657 0.000000 0.034307 0.000000
# 6 0.000000 0.000000 0.000000 -0.037420 0.000000 0.040991
#
#
# Mechanical properties :
#
#
# Convention : Reuss Voigt Hill
#
# Bulk Modulus (GPa) = 46.23975 56.83693 51.53834
# Shear Modulus (GPa) = 22.40590 36.84861 29.62725
#
# Velocity S-wave (km/s) = 2.99965 3.84681 3.44934
# Velocity P-wave (km/s) = 5.52870 6.52346 6.04657
#
# Compressibility (1/GPa) = 0.02162642
#
# Stress axis : x y z
#
# Youngs Moduli (GPa) = 148.81679 83.12710 93.78873
#
# Poissons Ratio (x) = 0.23230 0.06575
# Poissons Ratio (y) = 0.41587 0.03724
# Poissons Ratio (z) = 0.10432 0.03301
#
# Static dielectric constant tensor:
#      x y z
#    x 2.035480 0.000000 -0.084930 
#    y 0.000000 1.942300 0.000000 
#    z -0.084930 0.000000 2.016580 
# 
# From -- ./inp_files/104679.got.cif
#   From: 2010.05.17/outbox.cif.g08.bks.cpg/sg12_53_cif.got.tgz:104679.got - 2010.06.03 13:09:07.
