data_PCOD9199241
_publ_section_title
;
Structure prediction by ZEFSAII (Michael W. Deem and Ramdas Pophale) SiO2 
 PCOD9199241
Probable space group: C 2/M
;
_chemical_formula_sum "Si O2"
_cell_formula_units_Z 48
_cell_length_a 21.605805
_cell_length_b 14.345474
_cell_length_c 13.198579
_cell_angle_alpha 90.000000
_cell_angle_beta 145.033915
_cell_angle_gamma 90.000000
_cell_volume 2344.425655
_symmetry_space_group_name_H-M "C 2/M"
_symmetry_group_IT_number 12
_symmetry_cell_setting 'monoclinic'
loop_
_space_group_symop_operation_xyz
x,y,z
-x,y,-z
-x,-y,-z
x,-y,z
1/2+x,1/2+y,z
1/2-x,1/2+y,-z
1/2-x,1/2-y,-z
1/2+x,1/2-y,z
loop_
_atom_site_type_symbol
_atom_site_label
_atom_site_fract_x
_atom_site_fract_y
_atom_site_fract_z
Si Si1 0.342418 0.703706 0.306042
Si Si2 0.465545 0.203302 0.307638
Si Si3 0.537725 0.307431 0.211198
Si Si4 0.836623 0.000000 0.216919
Si Si5 0.326961 0.307293 0.792099
Si Si6 0.266199 0.500000 0.786153
Si Si7 0.482620 0.500000 0.217397
Si Si8 0.120839 0.500000 0.786795
O O1 0.437242 0.751005 0.498490
O O2 0.359221 0.749518 0.216730
O O3 0.347546 0.593747 0.296371
O O4 0.237977 0.732557 0.229277
O O5 0.495684 0.232536 0.235008
O O6 0.448129 0.093567 0.293293
O O7 0.640423 0.284092 0.279155
O O8 0.548870 0.406333 0.283556
O O9 0.438060 0.320757 0.001489
O O10 0.931081 0.000000 0.259446
O O11 0.721989 0.000000 0.001887
O O12 0.265779 0.406213 0.719756
O O13 0.172610 0.500000 0.744121
O O14 0.377470 0.500000 0.001722
#
# Coordination Sequence:
#
# PCOD9199241 Si02
#       8
#     8   8   8   4   8   4   4   4
#     4  11  24  39  60  91 126 166 205 256 315 373
#     4  11  24  39  60  91 126 166 205 256 315 373
#     4  10  20  36  59  88 122 162 210 261 311 368
#     4  11  22  39  66  95 124 161 213 263 305 365
#     4  10  20  36  59  88 122 162 210 261 311 368
#     4   9  17  31  57  88 117 150 199 262 307 349
#     4   9  17  31  57  88 117 150 199 262 307 349
#     4  11  22  39  66  95 124 161 213 263 305 365
#
# _framework density 20.474097
#
# number of rings (size 3 to 8) (size 9 to 14) (size 15 to 20)
#    0.000    1.667    3.333    1.500    0.000    8.000 
#    0.000    0.833    0.000    3.000    0.000    0.000 
#    0.000    0.000    0.000    0.000    0.000    0.000 
#
# Total GULP energy -133972.282478 kJ/mol
# GULP energy per Si atom -5582.178437 kJ/mol
# Density = 2.042750 g / cm^3
# Si number density = 20.474097 Si / 1000 Ang^3
#
#
#
# Elastic Constant Matrix: (Units=GPa)
#
#
# Indices 1 2 3 4 5 6 
#
# 1 213.7548 97.2802 15.9505 0.0000 0.7766 0.0000
# 2 97.2802 179.0922 21.6603 0.0000 -5.7336 0.0000
# 3 15.9505 21.6603 53.1950 0.0000 -7.2077 0.0000
# 4 0.0000 0.0000 0.0000 9.5137 0.0000 -7.4079
# 5 0.7766 -5.7336 -7.2077 0.0000 -0.4064 0.0000
# 6 0.0000 0.0000 0.0000 -7.4079 0.0000 -78.2285
#
#
#
# Elastic Compliance Matrix: (Units=1/GPa)
#
#
# Indices 1 2 3 4 5 6 
#
# 1 0.005737 -0.002767 0.001816 0.000000 0.017786 0.000000
# 2 -0.002767 0.007018 -0.004749 0.000000 -0.020079 0.000000
# 3 0.001816 -0.004749 0.008738 0.000000 -0.084503 0.000000
# 4 0.000000 0.000000 0.000000 0.097894 0.000000 -0.009270
# 5 0.017786 -0.020079 -0.084503 0.000000 -0.644642 0.000000
# 6 0.000000 0.000000 0.000000 -0.009270 0.000000 -0.011905
#
#
# Mechanical properties :
#
#
# Convention : Reuss Voigt Hill
#
# Bulk Modulus (GPa) = 99.06024 79.53599 89.29812
# Shear Modulus (GPa) = -9.57126 6.91915 -1.32606
#
# Velocity S-wave (km/s) = -2.16448 1.84033 -0.80566
# Velocity P-wave (km/s) = 6.49936 6.59145 6.54556
#
# Compressibility (1/GPa) = 0.01009487
#
# Stress axis : x y z
#
# Youngs Moduli (GPa) = 174.30059 142.49064 114.44285
#
# Poissons Ratio (x) = 0.39422 -0.20784
# Poissons Ratio (y) = 0.48222 0.54345
# Poissons Ratio (z) = -0.31655 0.67664
#
# Static dielectric constant tensor:
#      x y z
#    x 1.770010 0.000000 -0.006040 
#    y 0.000000 1.720530 0.000000 
#    z -0.006040 0.000000 1.852850 
# 
# From -- ./inp_files/232905.got.cif
#   From: 2010.05.17/outbox.cif.g08.bks.cpg/sg12_117_cif.got.tgz:232905.got - 2010.06.03 13:09:07.
