data_PCOD9199030
_publ_section_title
;
Structure prediction by ZEFSAII (Michael W. Deem and Ramdas Pophale) SiO2 
 PCOD9199030
Probable space group: C 2/M
;
_chemical_formula_sum "Si O2"
_cell_formula_units_Z 48
_cell_length_a 23.016013
_cell_length_b 18.164083
_cell_length_c 11.085759
_cell_angle_alpha 90.000000
_cell_angle_beta 28.328745
_cell_angle_gamma 90.000000
_cell_volume 2199.239713
_symmetry_space_group_name_H-M "C 2/M"
_symmetry_group_IT_number 12
_symmetry_cell_setting 'monoclinic'
loop_
_space_group_symop_operation_xyz
x,y,z
-x,y,-z
-x,-y,-z
x,-y,z
1/2+x,1/2+y,z
1/2-x,1/2+y,-z
1/2-x,1/2-y,-z
1/2+x,1/2-y,z
loop_
_atom_site_type_symbol
_atom_site_label
_atom_site_fract_x
_atom_site_fract_y
_atom_site_fract_z
Si Si1 0.112326 0.579190 0.705074
Si Si2 0.686299 0.802447 0.960605
Si Si3 0.255046 0.299075 0.368224
Si Si4 0.778958 0.917658 0.628537
Si Si5 0.560488 0.587811 0.073054
Si Si6 0.611350 0.335285 0.212110
O O1 0.107274 0.500000 0.651972
O O2 0.136069 0.649082 0.581188
O O3 0.225158 0.579869 0.592738
O O4 0.000000 0.586318 0.000000
O O5 0.746537 0.751848 0.746001
O O6 0.679968 0.876264 0.893072
O O7 0.772379 0.824697 0.914533
O O8 0.587512 0.745484 0.194970
O O9 0.250000 0.250000 0.500000
O O10 0.372420 0.354433 0.139306
O O11 0.918946 0.890620 0.358803
O O12 0.790403 0.000000 0.655719
O O13 0.566567 0.500000 0.029103
O O14 0.627566 0.605272 0.077153
O O15 0.500000 0.357263 0.500000
#
# Coordination Sequence:
#
# PCOD9199030 Si02
#       6
#     8   8   8   8   8   8
#     4  10  22  39  57  81 117 162 204 243 293 360
#     4  10  21  36  55  89 116 154 200 239 303 363
#     4  11  22  38  60  87 121 161 199 251 303 364
#     4  10  20  37  59  87 120 154 200 253 303 360
#     4  10  22  38  62  92 122 158 202 254 308 365
#     4  10  20  36  59  84 121 155 195 253 300 355
#
# _framework density 21.825726
#
# number of rings (size 3 to 8) (size 9 to 14) (size 15 to 20)
#    0.000    1.833    3.333    0.500    0.000    4.333 
#    0.000    2.500    0.000    0.500    0.000    0.000 
#    0.000    0.000    0.000    0.000    0.000    0.000 
#
# Total GULP energy -133668.664846 kJ/mol
# GULP energy per Si atom -5569.527702 kJ/mol
# Density = 2.177605 g / cm^3
# Si number density = 21.825726 Si / 1000 Ang^3
#
#
#
# Elastic Constant Matrix: (Units=GPa)
#
#
# Indices 1 2 3 4 5 6 
#
# 1 58.3126 -0.8790 10.5239 0.0000 9.8235 0.0000
# 2 -0.8790 87.3816 34.5712 0.0000 5.9470 0.0000
# 3 10.5239 34.5712 52.6670 0.0000 14.0131 0.0000
# 4 0.0000 0.0000 0.0000 24.4416 0.0000 2.0445
# 5 9.8235 5.9470 14.0131 0.0000 29.4460 0.0000
# 6 0.0000 0.0000 0.0000 2.0445 0.0000 8.6244
#
#
#
# Elastic Compliance Matrix: (Units=1/GPa)
#
#
# Indices 1 2 3 4 5 6 
#
# 1 0.018674 0.002004 -0.003758 0.000000 -0.004846 0.000000
# 2 0.002004 0.015773 -0.011139 0.000000 0.001447 0.000000
# 3 -0.003758 -0.011139 0.029904 0.000000 -0.010728 0.000000
# 4 0.000000 0.000000 0.000000 0.041742 0.000000 -0.009895
# 5 -0.004846 0.001447 -0.010728 0.000000 0.040390 0.000000
# 6 0.000000 0.000000 0.000000 -0.009895 0.000000 0.118297
#
#
# Mechanical properties :
#
#
# Convention : Reuss Voigt Hill
#
# Bulk Modulus (GPa) = 25.92932 31.86593 28.89763
# Shear Modulus (GPa) = 16.47891 22.77876 19.62883
#
# Velocity S-wave (km/s) = 2.75075 3.23409 3.00216
# Velocity P-wave (km/s) = 4.68986 5.34580 5.02854
#
# Compressibility (1/GPa) = 0.03856638
#
# Stress axis : x y z
#
# Youngs Moduli (GPa) = 53.55119 63.40103 33.44040
#
# Poissons Ratio (x) = -0.12707 0.12565
# Poissons Ratio (y) = -0.10733 0.37248
# Poissons Ratio (z) = 0.20122 0.70621
#
# Static dielectric constant tensor:
#      x y z
#    x 1.822320 0.000000 -0.000460 
#    y 0.000000 1.915850 0.000000 
#    z -0.000460 0.000000 1.834440 
# 
# From -- ./inp_files/184157.got.cif
#   From: 2010.05.17/outbox.cif.g08.bks.cpg/sg12_93_cif.got.tgz:184157.got - 2010.06.03 13:09:07.
