data_PCOD9199706
_publ_section_title
;
Structure prediction by ZEFSAII (Michael W. Deem and Ramdas Pophale) SiO2 
 PCOD9199706
Probable space group: C 2/M
;
_chemical_formula_sum "Si O2"
_cell_formula_units_Z 48
_cell_length_a 28.717452
_cell_length_b 9.232130
_cell_length_c 10.193654
_cell_angle_alpha 90.000000
_cell_angle_beta 89.750755
_cell_angle_gamma 90.000000
_cell_volume 2702.549108
_symmetry_space_group_name_H-M "C 2/M"
_symmetry_group_IT_number 12
_symmetry_cell_setting 'monoclinic'
loop_
_space_group_symop_operation_xyz
x,y,z
-x,y,-z
-x,-y,-z
x,-y,z
1/2+x,1/2+y,z
1/2-x,1/2+y,-z
1/2-x,1/2-y,-z
1/2+x,1/2-y,z
loop_
_atom_site_type_symbol
_atom_site_label
_atom_site_fract_x
_atom_site_fract_y
_atom_site_fract_z
Si Si1 0.221872 0.828100 0.113630
Si Si2 0.030865 0.666669 0.130963
Si Si3 0.475730 0.326480 0.361849
Si Si4 0.370707 0.674083 0.287406
Si Si5 0.276666 0.173845 0.380434
Si Si6 0.620658 0.673374 0.023484
O O1 0.245390 0.797166 0.251963
O O2 0.168024 0.787923 0.098271
O O3 0.224652 0.000000 0.091549
O O4 0.250000 0.750000 0.000000
O O5 0.039453 0.500000 0.167222
O O6 0.078128 0.746858 0.091935
O O7 0.003104 0.746877 0.245935
O O8 0.000000 0.669488 0.000000
O O9 0.500000 0.291301 0.500000
O O10 0.479340 0.500000 0.342304
O O11 0.420692 0.291200 0.352369
O O12 0.363064 0.500000 0.297896
O O13 0.327535 0.757933 0.352444
O O14 0.374272 0.709709 0.131559
O O15 0.250000 0.250000 0.500000
O O16 0.279972 0.000000 0.398907
O O17 0.613498 0.500000 0.030183
#
# Coordination Sequence:
#
# PCOD9199706 Si02
#       6
#     8   8   8   8   8   8
#     4  10  21  37  59  87 114 146 190 240 288 337
#     4  11  23  37  57  87 120 153 193 241 288 340
#     4  10  22  40  62  87 117 155 196 240 290 346
#     4  10  20  37  62  87 114 152 195 239 291 346
#     4  11  24  40  60  86 120 157 192 236 290 348
#     4  10  20  36  61  88 115 151 196 242 287 341
#
# _framework density 17.761009999999999
#
# number of rings (size 3 to 8) (size 9 to 14) (size 15 to 20)
#    0.000    1.667    3.333    1.000    0.000    5.000 
#    0.000    6.667    0.000    0.000    0.000    0.000 
#    0.000    0.000    0.000    0.000    0.000    0.000 
#
# Total GULP energy -134022.037931 kJ/mol
# GULP energy per Si atom -5584.251580 kJ/mol
# Density = 1.772059 g / cm^3
# Si number density = 17.761010 Si / 1000 Ang^3
#
#
#
# Elastic Constant Matrix: (Units=GPa)
#
#
# Indices 1 2 3 4 5 6 
#
# 1 199.0159 85.3255 95.3090 0.0000 -8.0661 0.0000
# 2 85.3255 59.1517 75.3753 0.0000 -8.7776 0.0000
# 3 95.3090 75.3753 128.8586 0.0000 -8.2500 0.0000
# 4 0.0000 0.0000 0.0000 25.3641 0.0000 -2.8124
# 5 -8.0661 -8.7776 -8.2500 0.0000 30.7854 0.0000
# 6 0.0000 0.0000 0.0000 -2.8124 0.0000 31.5325
#
#
#
# Elastic Compliance Matrix: (Units=1/GPa)
#
#
# Indices 1 2 3 4 5 6 
#
# 1 0.014431 -0.029087 0.006158 0.000000 -0.002862 0.000000
# 2 -0.029087 0.127383 -0.052053 0.000000 0.014749 0.000000
# 3 0.006158 -0.052053 0.033380 0.000000 -0.004283 0.000000
# 4 0.000000 0.000000 0.000000 0.039820 0.000000 0.003552
# 5 -0.002862 0.014749 -0.004283 0.000000 0.034791 0.000000
# 6 0.000000 0.000000 0.000000 0.003552 0.000000 0.032030
#
#
# Mechanical properties :
#
#
# Convention : Reuss Voigt Hill
#
# Bulk Modulus (GPa) = 39.63954 99.89398 69.76676
# Shear Modulus (GPa) = 11.35827 26.27083 18.81455
#
# Velocity S-wave (km/s) = 2.53159 3.85012 3.25825
# Velocity P-wave (km/s) = 5.55986 8.72525 7.31581
#
# Compressibility (1/GPa) = 0.02522733
#
# Stress axis : x y z
#
# Youngs Moduli (GPa) = 69.29750 7.85037 29.95806
#
# Poissons Ratio (x) = 0.22835 -0.18448
# Poissons Ratio (y) = 2.01568 1.55942
# Poissons Ratio (z) = -0.42673 0.40864
#
# Static dielectric constant tensor:
#      x y z
#    x 1.575320 0.000000 0.022430 
#    y 0.000000 1.576330 0.000000 
#    z 0.022430 0.000000 1.575160 
# 
# From -- ./inp_files/108662.got.cif
#   From: 2010.05.17/outbox.cif.g08.bks.cpg/sg12_55_cif.got.tgz:108662.got - 2010.06.03 13:09:07.
