data_PCOD9199335
_publ_section_title
;
Structure prediction by ZEFSAII (Michael W. Deem and Ramdas Pophale) SiO2 
 PCOD9199335
Probable space group: C 2/M
;
_chemical_formula_sum "Si O2"
_cell_formula_units_Z 56
_cell_length_a 19.099253
_cell_length_b 15.034998
_cell_length_c 15.878824
_cell_angle_alpha 90.000000
_cell_angle_beta 144.381798
_cell_angle_gamma 90.000000
_cell_volume 2655.494927
_symmetry_space_group_name_H-M "C 2/M"
_symmetry_group_IT_number 12
_symmetry_cell_setting 'monoclinic'
loop_
_space_group_symop_operation_xyz
x,y,z
-x,y,-z
-x,-y,-z
x,-y,z
1/2+x,1/2+y,z
1/2-x,1/2+y,-z
1/2-x,1/2-y,-z
1/2+x,1/2-y,z
loop_
_atom_site_type_symbol
_atom_site_label
_atom_site_fract_x
_atom_site_fract_y
_atom_site_fract_z
Si Si1 0.631928 0.097991 0.085478
Si Si2 0.405305 0.688019 0.831436
Si Si3 0.738682 0.283185 0.158059
Si Si4 0.178034 0.905366 0.576754
Si Si5 0.491471 0.735131 0.337721
Si Si6 0.925693 0.102080 0.122521
Si Si7 0.151330 0.681383 0.369190
O O1 0.668506 0.188600 0.073709
O O2 0.736032 0.096331 0.258367
O O3 0.634890 0.000000 0.045081
O O4 0.500000 0.103552 0.000000
O O5 0.284991 0.685141 0.768797
O O6 0.454019 0.611216 0.818305
O O7 0.401223 0.772580 0.766167
O O8 0.500000 0.695139 0.000000
O O9 0.877555 0.267510 0.277208
O O10 0.679582 0.354120 0.036684
O O11 0.269884 0.899452 0.587268
O O12 0.089052 0.822046 0.485036
O O13 0.112017 0.000000 0.510089
O O14 0.446934 0.664017 0.223797
O O15 0.552503 0.816192 0.345175
O O16 0.903200 0.000000 0.121307
O O17 0.250000 0.750000 0.500000
#
# Coordination Sequence:
#
# PCOD9199335 Si02
#       7
#     8   8   8   8   8   8   8
#     4  10  21  36  57  87 118 155 200 246 299 363
#     4   9  18  33  58  80 113 155 202 247 293 350
#     4  11  21  36  59  87 125 159 195 252 314 360
#     4  10  20  36  60  84 112 153 202 245 294 364
#     4  10  22  37  57  87 121 158 197 248 313 372
#     4  10  21  38  61  89 122 164 211 256 301 359
#     4   9  18  35  54  78 110 153 198 239 292 363
#
# _framework density 21.088349000000001
#
# number of rings (size 3 to 8) (size 9 to 14) (size 15 to 20)
#    0.000    2.143    1.429    2.143    2.000    4.286 
#    0.000    2.143    0.000    0.000    0.000    2.000 
#    0.000    0.000    0.000    0.000    0.000    0.000 
#
# Total GULP energy -156077.419670 kJ/mol
# GULP energy per Si atom -5574.193560 kJ/mol
# Density = 2.104035 g / cm^3
# Si number density = 21.088349 Si / 1000 Ang^3
#
#
#
# Elastic Constant Matrix: (Units=GPa)
#
#
# Indices 1 2 3 4 5 6 
#
# 1 98.1718 -1.3252 34.2494 0.0000 30.6486 0.0000
# 2 -1.3252 54.6563 -1.1949 0.0000 6.3851 0.0000
# 3 34.2494 -1.1949 72.3066 0.0000 10.6408 0.0000
# 4 0.0000 0.0000 0.0000 17.2930 0.0000 1.9997
# 5 30.6486 6.3851 10.6408 0.0000 36.6354 0.0000
# 6 0.0000 0.0000 0.0000 1.9997 0.0000 10.5353
#
#
#
# Elastic Compliance Matrix: (Units=1/GPa)
#
#
# Indices 1 2 3 4 5 6 
#
# 1 0.015956 0.001658 -0.005770 0.000000 -0.011962 0.000000
# 2 0.001658 0.018896 0.000225 0.000000 -0.004746 0.000000
# 3 -0.005770 0.000225 0.016571 0.000000 -0.000025 0.000000
# 4 0.000000 0.000000 0.000000 0.059125 0.000000 -0.011222
# 5 -0.011962 -0.004746 -0.000025 0.000000 0.038137 0.000000
# 6 0.000000 0.000000 0.000000 -0.011222 0.000000 0.097049
#
#
# Mechanical properties :
#
#
# Convention : Reuss Voigt Hill
#
# Bulk Modulus (GPa) = 22.91018 32.06591 27.48804
# Shear Modulus (GPa) = 18.65280 25.78644 22.21962
#
# Velocity S-wave (km/s) = 2.97729 3.50062 3.24951
# Velocity P-wave (km/s) = 4.76514 5.61940 5.20981
#
# Compressibility (1/GPa) = 0.04364873
#
# Stress axis : x y z
#
# Youngs Moduli (GPa) = 62.67245 52.92207 60.34809
#
# Poissons Ratio (x) = -0.08775 0.34822
# Poissons Ratio (y) = -0.10392 -0.01360
# Poissons Ratio (z) = 0.36163 -0.01192
#
# Static dielectric constant tensor:
#      x y z
#    x 1.832140 0.000000 0.017120 
#    y 0.000000 1.781330 0.000000 
#    z 0.017120 0.000000 1.817190 
# 
# From -- ./inp_files/284611.got.cif
#   From: 2010.05.17/outbox.cif.g08.bks.cpg/sg12_143_cif.got.tgz:284611.got - 2010.06.03 13:09:07.
