data_PCOD9199080
_publ_section_title
;
Structure prediction by ZEFSAII (Michael W. Deem and Ramdas Pophale) SiO2 
 PCOD9199080
Probable space group: C 2/M
;
_chemical_formula_sum "Si O2"
_cell_formula_units_Z 42
_cell_length_a 22.181999
_cell_length_b 7.737552
_cell_length_c 22.296769
_cell_angle_alpha 90.000000
_cell_angle_beta 33.101192
_cell_angle_gamma 90.000000
_cell_volume 2089.939875
_symmetry_space_group_name_H-M "C 2/M"
_symmetry_group_IT_number 12
_symmetry_cell_setting 'monoclinic'
loop_
_space_group_symop_operation_xyz
x,y,z
-x,y,-z
-x,-y,-z
x,-y,z
1/2+x,1/2+y,z
1/2-x,1/2+y,-z
1/2-x,1/2-y,-z
1/2+x,1/2-y,z
loop_
_atom_site_type_symbol
_atom_site_label
_atom_site_fract_x
_atom_site_fract_y
_atom_site_fract_z
Si Si1 0.404722 0.299019 0.648537
Si Si2 0.604794 0.706360 0.566309
Si Si3 0.326838 0.697464 0.115662
Si Si4 0.000000 0.500000 0.500000
Si Si5 0.648934 0.791797 0.663045
Si Si6 0.955726 0.704074 0.126321
O O1 0.420911 0.500000 0.616900
O O2 0.503580 0.235067 0.609881
O O3 0.289168 0.290916 0.779529
O O4 0.409881 0.156196 0.592144
O O5 0.607240 0.500000 0.558048
O O6 0.593490 0.747074 0.645902
O O7 0.724629 0.774467 0.445728
O O8 0.304797 0.500000 0.118564
O O9 0.388657 0.708587 0.128354
O O10 0.415091 0.771038 0.994963
O O11 0.584459 0.731902 0.775569
O O12 0.654047 0.000000 0.661751
O O13 0.930982 0.500000 0.142390
#
# Coordination Sequence:
#
# PCOD9199080 Si02
#       6
#     8   8   8   2   8   8
#     4  11  24  42  61  87 125 157 197 243 296 355
#     4   9  20  37  57  84 117 155 190 241 296 346
#     4  11  22  38  57  86 118 155 199 247 297 352
#     4  12  26  40  60  96 116 164 198 234 304 354
#     4   9  19  35  58  84 113 149 197 241 292 354
#     4  10  20  36  59  85 115 157 198 243 304 353
#
# _framework density 20.096271999999999
#
# number of rings (size 3 to 8) (size 9 to 14) (size 15 to 20)
#    0.000    1.905    0.952    3.714    4.000    1.524 
#    0.000    0.952    0.000    0.000    0.000    0.000 
#    0.000    0.000    0.000    0.000    0.000    0.000 
#
# Total GULP energy -116978.193068 kJ/mol
# GULP energy per Si atom -5570.390146 kJ/mol
# Density = 2.005053 g / cm^3
# Si number density = 20.096272 Si / 1000 Ang^3
#
#
#
# Elastic Constant Matrix: (Units=GPa)
#
#
# Indices 1 2 3 4 5 6 
#
# 1 61.5477 -1.7683 53.1871 -0.0001 0.3217 -0.0003
# 2 -1.7683 80.7123 -2.4335 0.0001 -0.6046 -0.0005
# 3 53.1871 -2.4335 136.2375 -0.0017 14.7427 0.0002
# 4 -0.0001 0.0001 -0.0017 36.4489 0.0005 3.3432
# 5 0.3217 -0.6046 14.7427 0.0005 32.0102 0.0000
# 6 -0.0003 -0.0005 0.0002 3.3432 0.0000 20.7184
#
#
#
# Elastic Compliance Matrix: (Units=1/GPa)
#
#
# Indices 1 2 3 4 5 6 
#
# 1 0.025124 0.000274 -0.010289 -0.000001 0.004492 0.000001
# 2 0.000274 0.012400 0.000094 0.000000 0.000188 0.000000
# 3 -0.010289 0.000094 0.011943 0.000001 -0.005395 0.000000
# 4 -0.000001 0.000000 0.000001 0.027848 -0.000001 -0.004494
# 5 0.004492 0.000188 -0.005395 -0.000001 0.033683 0.000000
# 6 0.000001 0.000000 0.000000 -0.004494 0.000000 0.048991
#
#
# Mechanical properties :
#
#
# Convention : Reuss Voigt Hill
#
# Bulk Modulus (GPa) = 33.75696 41.82978 37.79337
# Shear Modulus (GPa) = 26.35658 33.13632 29.74645
#
# Velocity S-wave (km/s) = 3.62541 4.06504 3.85151
# Velocity P-wave (km/s) = 5.86165 6.54925 6.21497
#
# Compressibility (1/GPa) = 0.02962352
#
# Stress axis : x y z
#
# Youngs Moduli (GPa) = 39.80311 80.64561 83.73376
#
# Poissons Ratio (x) = -0.02208 0.86157
# Poissons Ratio (y) = -0.01090 -0.00789
# Poissons Ratio (z) = 0.40955 -0.00760
#
# Static dielectric constant tensor:
#      x y z
#    x 1.718940 0.000000 0.007940 
#    y 0.000000 1.737310 0.000000 
#    z 0.007940 0.000000 1.738080 
# 
# From -- ./inp_files/348410.got.cif
#   From: 2010.05.17/outbox.cif.g08.bks.cpg/sg12_175_cif.got.tgz:348410.got - 2010.06.03 13:09:07.
