data_PCOD9199446
_publ_section_title
;
Structure prediction by ZEFSAII (Michael W. Deem and Ramdas Pophale) SiO2 
 PCOD9199446
Probable space group: C 2/M
;
_chemical_formula_sum "Si O2"
_cell_formula_units_Z 56
_cell_length_a 30.480721
_cell_length_b 7.624609
_cell_length_c 12.759037
_cell_angle_alpha 90.000000
_cell_angle_beta 58.908311
_cell_angle_gamma 90.000000
_cell_volume 2539.264583
_symmetry_space_group_name_H-M "C 2/M"
_symmetry_group_IT_number 12
_symmetry_cell_setting 'monoclinic'
loop_
_space_group_symop_operation_xyz
x,y,z
-x,y,-z
-x,-y,-z
x,-y,z
1/2+x,1/2+y,z
1/2-x,1/2+y,-z
1/2-x,1/2-y,-z
1/2+x,1/2-y,z
loop_
_atom_site_type_symbol
_atom_site_label
_atom_site_fract_x
_atom_site_fract_y
_atom_site_fract_z
Si Si1 0.358708 0.792675 0.520068
Si Si2 0.056676 0.297376 0.427983
Si Si3 0.744866 0.295455 0.684144
Si Si4 0.053540 0.785519 0.984685
Si Si5 0.641218 0.712721 0.715421
Si Si6 0.592960 0.705124 0.157388
Si Si7 0.709266 0.208155 0.959613
O O1 0.400893 0.717412 0.547004
O O2 0.301348 0.716527 0.602079
O O3 0.374706 0.770476 0.380262
O O4 0.354187 0.000000 0.550947
O O5 0.050415 0.500000 0.470640
O O6 0.077983 0.294157 0.284131
O O7 0.000000 0.216760 0.500000
O O8 0.748598 0.500000 0.649499
O O9 0.698226 0.220818 0.673075
O O10 0.727696 0.284485 0.826169
O O11 0.100924 0.730138 0.853292
O O12 0.053924 0.000000 0.986047
O O13 0.062982 0.727193 0.092027
O O14 0.000000 0.730121 0.000000
O O15 0.642031 0.500000 0.716658
O O16 0.580823 0.500000 0.184916
O O17 0.653260 0.723125 0.059326
O O18 0.705743 0.000000 0.951992
O O19 0.750000 0.250000 0.000000
#
# Coordination Sequence:
#
# PCOD9199446 Si02
#       7
#     8   8   8   8   8   8   8
#     4  10  22  38  58  83 117 158 198 246 301 359
#     4  10  23  42  60  83 121 163 203 253 310 361
#     4  10  20  38  59  85 120 157 198 246 300 357
#     4   9  19  36  59  88 121 156 194 247 310 358
#     4  10  20  36  60  87 120 155 195 248 301 360
#     4  11  22  40  65  91 121 155 204 255 303 366
#     4  12  24  38  61  90 123 160 200 247 301 362
#
# _framework density 22.053629000000001
#
# number of rings (size 3 to 8) (size 9 to 14) (size 15 to 20)
#    0.000    1.714    1.429    3.000    2.000    3.143 
#    0.000    0.000    0.000    2.143    0.000    0.000 
#    0.000    0.000    0.000    0.000    0.000    0.000 
#
# Total GULP energy -156547.756556 kJ/mol
# GULP energy per Si atom -5590.991306 kJ/mol
# Density = 2.200343 g / cm^3
# Si number density = 22.053629 Si / 1000 Ang^3
#
#
#
# Elastic Constant Matrix: (Units=GPa)
#
#
# Indices 1 2 3 4 5 6 
#
# 1 192.1892 6.3074 54.2268 0.0000 25.4964 0.0000
# 2 6.3074 50.8363 -13.8438 0.0000 -10.4861 0.0000
# 3 54.2268 -13.8438 81.9397 0.0000 21.9468 0.0000
# 4 0.0000 0.0000 0.0000 24.0868 0.0000 11.6103
# 5 25.4964 -10.4861 21.9468 0.0000 31.3710 0.0000
# 6 0.0000 0.0000 0.0000 11.6103 0.0000 8.0001
#
#
#
# Elastic Compliance Matrix: (Units=1/GPa)
#
#
# Indices 1 2 3 4 5 6 
#
# 1 0.006928 -0.002728 -0.004053 0.000000 -0.003707 0.000000
# 2 -0.002728 0.022490 0.003689 0.000000 0.007154 0.000000
# 3 -0.004053 0.003689 0.017594 0.000000 -0.007781 0.000000
# 4 0.000000 0.000000 0.000000 0.138178 0.000000 -0.200534
# 5 -0.003707 0.007154 -0.007781 0.000000 0.042725 0.000000
# 6 0.000000 0.000000 0.000000 -0.200534 0.000000 0.416030
#
#
# Mechanical properties :
#
#
# Convention : Reuss Voigt Hill
#
# Bulk Modulus (GPa) = 24.49332 46.48289 35.48811
# Shear Modulus (GPa) = 7.53310 31.24324 19.38817
#
# Velocity S-wave (km/s) = 1.85020 3.76798 2.96824
# Velocity P-wave (km/s) = 3.96165 6.32876 5.27958
#
# Compressibility (1/GPa) = 0.04082745
#
# Stress axis : x y z
#
# Youngs Moduli (GPa) = 144.34028 44.46491 56.83870
#
# Poissons Ratio (x) = 0.12130 0.23036
# Poissons Ratio (y) = 0.39375 -0.20967
# Poissons Ratio (z) = 0.58499 -0.16403
#
# Static dielectric constant tensor:
#      x y z
#    x 1.817650 0.000000 -0.010770 
#    y 0.000000 1.811810 0.000000 
#    z -0.010770 0.000000 1.749740 
# 
# From -- ./inp_files/180750.got.cif
#   From: 2010.05.17/outbox.cif.g08.bks.cpg/sg12_91_cif.got.tgz:180750.got - 2010.06.03 13:09:07.
