data_PCOD9199588
_publ_section_title
;
Structure prediction by ZEFSAII (Michael W. Deem and Ramdas Pophale) SiO2 
 PCOD9199588
Probable space group: C 2/M
;
_chemical_formula_sum "Si O2"
_cell_formula_units_Z 64
_cell_length_a 12.313379
_cell_length_b 15.249770
_cell_length_c 15.697132
_cell_angle_alpha 90.000000
_cell_angle_beta 84.323812
_cell_angle_gamma 90.000000
_cell_volume 2933.095230
_symmetry_space_group_name_H-M "C 2/M"
_symmetry_group_IT_number 12
_symmetry_cell_setting 'monoclinic'
loop_
_space_group_symop_operation_xyz
x,y,z
-x,y,-z
-x,-y,-z
x,-y,z
1/2+x,1/2+y,z
1/2-x,1/2+y,-z
1/2-x,1/2-y,-z
1/2+x,1/2-y,z
loop_
_atom_site_type_symbol
_atom_site_label
_atom_site_fract_x
_atom_site_fract_y
_atom_site_fract_z
Si Si1 0.976946 0.861817 0.403231
Si Si2 0.994859 0.713099 0.876209
Si Si3 0.111450 0.101253 0.108988
Si Si4 0.724350 0.896384 0.393796
Si Si5 0.814593 0.902690 0.713308
Si Si6 0.965548 0.678223 0.679940
Si Si7 0.183808 0.337377 0.986612
Si Si8 0.339307 0.899252 0.415875
O O1 0.853752 0.883776 0.388072
O O2 0.000000 0.881218 0.500000
O O3 0.067709 0.908675 0.339487
O O4 0.999886 0.761116 0.379314
O O5 0.971034 0.816764 0.901345
O O6 0.993550 0.697763 0.775479
O O7 0.105726 0.679736 0.911482
O O8 0.899180 0.655268 0.927970
O O9 0.163674 0.132809 0.195098
O O10 0.216319 0.097690 0.038898
O O11 0.067873 0.000000 0.119657
O O12 0.659996 0.845709 0.325260
O O13 0.676163 0.862561 0.488461
O O14 0.702179 0.000000 0.386640
O O15 0.737298 0.856201 0.650495
O O16 0.767634 0.000000 0.731969
O O17 0.040368 0.603557 0.631673
O O18 0.250000 0.250000 0.000000
O O19 0.301103 0.000000 0.427898
#
# Coordination Sequence:
#
# PCOD9199588 Si02
#       8
#     8   8   8   8   8   8   8   8
#     4  12  24  37  61  89 125 167 218 265 313 365
#     4  10  21  41  63  94 126 164 198 250 312 382
#     4  10  20  39  65  96 125 157 204 253 302 366
#     4  11  25  43  61  86 125 171 217 266 318 372
#     4  10  20  36  60  90 122 164 211 257 311 367
#     4  12  25  38  62  92 128 162 208 260 319 374
#     4   9  20  40  68  91 122 160 201 245 309 375
#     4  10  21  39  62  84 119 168 218 263 312 371
#
# _framework density 21.819953999999999
#
# number of rings (size 3 to 8) (size 9 to 14) (size 15 to 20)
#    0.000    1.500    2.500    2.625    1.750    4.500 
#    0.000    8.125    0.000    0.000    0.000    0.000 
#    0.000    0.000    0.000    0.000    0.000    0.000 
#
# Total GULP energy -178486.093724 kJ/mol
# GULP energy per Si atom -5577.690429 kJ/mol
# Density = 2.177029 g / cm^3
# Si number density = 21.819954 Si / 1000 Ang^3
#
#
#
# Elastic Constant Matrix: (Units=GPa)
#
#
# Indices 1 2 3 4 5 6 
#
# 1 87.8058 -4.5000 3.4187 0.0000 -1.3184 0.0000
# 2 -4.5000 59.4931 -2.4911 0.0000 -0.3803 0.0000
# 3 3.4187 -2.4911 41.7575 0.0000 -4.6672 0.0000
# 4 0.0000 0.0000 0.0000 82.1742 0.0000 25.3871
# 5 -1.3184 -0.3803 -4.6672 0.0000 28.8572 0.0000
# 6 0.0000 0.0000 0.0000 25.3871 0.0000 36.6208
#
#
#
# Elastic Compliance Matrix: (Units=1/GPa)
#
#
# Indices 1 2 3 4 5 6 
#
# 1 0.011470 0.000835 -0.000845 0.000000 0.000398 0.000000
# 2 0.000835 0.016916 0.000988 0.000000 0.000421 0.000000
# 3 -0.000845 0.000988 0.024516 0.000000 0.003939 0.000000
# 4 0.000000 0.000000 0.000000 0.015486 0.000000 -0.010736
# 5 0.000398 0.000421 0.003939 0.000000 0.035314 0.000000
# 6 0.000000 0.000000 0.000000 -0.010736 0.000000 0.034749
#
#
# Mechanical properties :
#
#
# Convention : Reuss Voigt Hill
#
# Bulk Modulus (GPa) = 18.22883 20.21241 19.22062
# Shear Modulus (GPa) = 32.30345 42.37236 37.33790
#
# Velocity S-wave (km/s) = 3.85184 4.41149 4.14113
# Velocity P-wave (km/s) = 5.30609 5.93563 5.62967
#
# Compressibility (1/GPa) = 0.05485816
#
# Stress axis : x y z
#
# Youngs Moduli (GPa) = 87.18074 59.11607 40.78937
#
# Poissons Ratio (x) = -0.04935 0.03446
# Poissons Ratio (y) = -0.07278 -0.04029
# Poissons Ratio (z) = 0.07365 -0.05840
#
# Static dielectric constant tensor:
#      x y z
#    x 1.815740 0.000000 0.013300 
#    y 0.000000 1.930050 0.000000 
#    z 0.013300 0.000000 1.816060 
# 
# From -- ./inp_files/206675.got.cif
#   From: 2010.05.17/outbox.cif.g08.bks.cpg/sg12_104_cif.got.tgz:206675.got - 2010.06.03 13:09:07.
