data_PCOD9199893
_publ_section_title
;
Structure prediction by ZEFSAII (Michael W. Deem and Ramdas Pophale) SiO2 
 PCOD9199893
Probable space group: C 2/M
;
_chemical_formula_sum "Si O2"
_cell_formula_units_Z 64
_cell_length_a 25.684634
_cell_length_b 8.991467
_cell_length_c 14.646957
_cell_angle_alpha 90.000000
_cell_angle_beta 101.734448
_cell_angle_gamma 90.000000
_cell_volume 3311.911392
_symmetry_space_group_name_H-M "C 2/M"
_symmetry_group_IT_number 12
_symmetry_cell_setting 'monoclinic'
loop_
_space_group_symop_operation_xyz
x,y,z
-x,y,-z
-x,-y,-z
x,-y,z
1/2+x,1/2+y,z
1/2-x,1/2+y,-z
1/2-x,1/2-y,-z
1/2+x,1/2-y,z
loop_
_atom_site_type_symbol
_atom_site_label
_atom_site_fract_x
_atom_site_fract_y
_atom_site_fract_z
Si Si1 0.535037 0.829695 0.640979
Si Si2 0.131126 0.176453 0.577510
Si Si3 0.145970 0.678309 0.916944
Si Si4 0.819643 0.321457 0.874372
Si Si5 0.704179 0.679129 0.766857
Si Si6 0.971934 0.672407 0.140808
Si Si7 0.413786 0.176214 0.608722
Si Si8 0.418485 0.323216 0.809018
O O1 0.578088 0.719662 0.615193
O O2 0.534801 0.823076 0.751189
O O3 0.473965 0.799909 0.592646
O O4 0.548745 0.000000 0.619099
O O5 0.179879 0.221562 0.660359
O O6 0.126547 0.261880 0.480510
O O7 0.132835 0.000000 0.562539
O O8 0.144504 0.500000 0.901989
O O9 0.168360 0.753776 0.834628
O O10 0.085073 0.724290 0.916261
O O11 0.181593 0.710716 0.017977
O O12 0.826146 0.500000 0.866620
O O13 0.764964 0.276072 0.806270
O O14 0.870355 0.241472 0.850395
O O15 0.701484 0.500000 0.772154
O O16 0.980654 0.500000 0.118028
O O17 0.024259 0.764349 0.136133
O O18 0.410883 0.259712 0.703786
O O19 0.407702 0.000000 0.621561
O O20 0.418157 0.500000 0.807833
#
# Coordination Sequence:
#
# PCOD9199893 Si02
#       8
#     8   8   8   8   8   8   8   8
#     4   9  17  31  51  77 112 149 185 223 274 335
#     4  11  21  32  51  83 117 148 184 228 282 337
#     4  10  20  36  62  89 113 148 194 236 278 337
#     4  10  22  41  61  81 111 155 198 235 281 336
#     4  10  22  38  57  85 121 153 185 235 290 334
#     4   9  18  34  56  84 117 152 187 229 281 338
#     4  10  21  37  57  80 110 149 190 230 277 337
#     4  11  23  39  59  84 114 148 190 238 286 337
#
# _framework density 19.324186999999998
#
# number of rings (size 3 to 8) (size 9 to 14) (size 15 to 20)
#    0.000    2.000    1.250    3.375    0.000    6.500 
#    0.000    3.125    0.000    0.000    0.000    0.000 
#    0.000    0.000    0.000    0.000    0.000    0.000 
#
# Total GULP energy -178756.776385 kJ/mol
# GULP energy per Si atom -5586.149262 kJ/mol
# Density = 1.928020 g / cm^3
# Si number density = 19.324187 Si / 1000 Ang^3
#
#
#
# Elastic Constant Matrix: (Units=GPa)
#
#
# Indices 1 2 3 4 5 6 
#
# 1 68.5463 24.4542 14.7600 0.0000 15.2383 0.0000
# 2 24.4542 38.6380 14.4121 0.0000 8.2538 0.0000
# 3 14.7600 14.4121 51.4756 0.0000 25.7613 0.0000
# 4 0.0000 0.0000 0.0000 -9.9586 0.0000 3.6172
# 5 15.2383 8.2538 25.7613 0.0000 31.0809 0.0000
# 6 0.0000 0.0000 0.0000 3.6172 0.0000 25.3216
#
#
#
# Elastic Compliance Matrix: (Units=1/GPa)
#
#
# Indices 1 2 3 4 5 6 
#
# 1 0.020205 -0.011624 0.001493 0.000000 -0.008057 0.000000
# 2 -0.011624 0.035636 -0.008135 0.000000 0.002978 0.000000
# 3 0.001493 -0.008135 0.035136 0.000000 -0.027694 0.000000
# 4 0.000000 0.000000 0.000000 -0.095462 0.000000 0.013637
# 5 -0.008057 0.002978 -0.027694 0.000000 0.058287 0.000000
# 6 0.000000 0.000000 0.000000 0.013637 0.000000 0.037544
#
#
# Mechanical properties :
#
#
# Convention : Reuss Voigt Hill
#
# Bulk Modulus (GPa) = 18.36688 29.54584 23.95636
# Shear Modulus (GPa) = 34.24073 16.29101 25.26587
#
# Velocity S-wave (km/s) = 4.21397 2.90666 3.61982
# Velocity P-wave (km/s) = 5.76212 5.15632 5.46762
#
# Compressibility (1/GPa) = 0.05444582
#
# Stress axis : x y z
#
# Youngs Moduli (GPa) = 49.49254 28.06151 28.46121
#
# Poissons Ratio (x) = 0.32618 -0.04249
# Poissons Ratio (y) = 0.57528 0.23152
# Poissons Ratio (z) = -0.07388 0.22827
#
# Static dielectric constant tensor:
#      x y z
#    x 1.658440 0.000000 0.027130 
#    y 0.000000 1.642030 0.000000 
#    z 0.027130 0.000000 1.703580 
# 
# From -- ./inp_files/244269.got.cif
#   From: 2010.05.17/outbox.cif.g08.bks.cpg/sg12_123_cif.got.tgz:244269.got - 2010.06.03 13:09:07.
