data_PCOD9199258
_publ_section_title
;
Structure prediction by ZEFSAII (Michael W. Deem and Ramdas Pophale) SiO2 
 PCOD9199258
Probable space group: C 2/M
;
_chemical_formula_sum "Si O2"
_cell_formula_units_Z 56
_cell_length_a 31.316205
_cell_length_b 8.629598
_cell_length_c 12.660701
_cell_angle_alpha 90.000000
_cell_angle_beta 48.510305
_cell_angle_gamma 90.000000
_cell_volume 2562.965033
_symmetry_space_group_name_H-M "C 2/M"
_symmetry_group_IT_number 12
_symmetry_cell_setting 'monoclinic'
loop_
_space_group_symop_operation_xyz
x,y,z
-x,y,-z
-x,-y,-z
x,-y,z
1/2+x,1/2+y,z
1/2-x,1/2+y,-z
1/2-x,1/2-y,-z
1/2+x,1/2-y,z
loop_
_atom_site_type_symbol
_atom_site_label
_atom_site_fract_x
_atom_site_fract_y
_atom_site_fract_z
Si Si1 0.242326 0.675721 0.803287
Si Si2 0.944540 0.818391 0.399172
Si Si3 0.618328 0.184707 0.939434
Si Si4 0.198806 0.822552 0.519222
Si Si5 0.560756 0.816796 0.258095
Si Si6 0.851681 0.684332 0.707044
Si Si7 0.082308 0.319186 0.771558
O O1 0.230487 0.500000 0.860309
O O2 0.181454 0.746529 0.867130
O O3 0.279175 0.670041 0.635824
O O4 0.286978 0.754830 0.808872
O O5 0.891271 0.737203 0.544011
O O6 0.951988 0.764899 0.265191
O O7 0.001800 0.772755 0.366846
O O8 0.933808 0.000000 0.418537
O O9 0.586691 0.241835 0.885017
O O10 0.627186 0.000000 0.903272
O O11 0.581169 0.201285 0.104475
O O12 0.250000 0.750000 0.500000
O O13 0.146454 0.709246 0.625421
O O14 0.184531 0.000000 0.574935
O O15 0.611857 0.764890 0.250615
O O16 0.550366 0.000000 0.294744
O O17 0.848960 0.500000 0.710678
O O18 0.065783 0.500000 0.799462
#
# Coordination Sequence:
#
# PCOD9199258 Si02
#       7
#     8   8   8   8   8   8   8
#     4  10  20  36  59  89 124 159 196 240 296 355
#     4  12  25  41  62  90 121 154 197 252 310 357
#     4   9  20  40  63  88 121 162 200 236 290 360
#     4  11  20  32  54  87 124 160 196 244 299 352
#     4  10  23  44  65  85 116 159 206 250 291 351
#     4  11  23  39  63  93 119 152 202 252 299 351
#     4  11  21  37  62  90 120 156 200 244 297 360
#
# _framework density 21.849695000000001
#
# number of rings (size 3 to 8) (size 9 to 14) (size 15 to 20)
#    0.000    1.429    2.857    3.000    0.000    4.571 
#    0.000    5.000    0.000    0.000    0.000    0.000 
#    0.000    0.000    0.000    0.000    0.000    0.000 
#
# Total GULP energy -156337.554816 kJ/mol
# GULP energy per Si atom -5583.484101 kJ/mol
# Density = 2.179996 g / cm^3
# Si number density = 21.849695 Si / 1000 Ang^3
#
#
#
# Elastic Constant Matrix: (Units=GPa)
#
#
# Indices 1 2 3 4 5 6 
#
# 1 114.7959 14.8532 12.4861 0.0000 30.7413 0.0000
# 2 14.8532 27.5650 -3.2646 0.0000 8.6045 0.0000
# 3 12.4861 -3.2646 24.4988 0.0000 12.8066 0.0000
# 4 0.0000 0.0000 0.0000 5.1922 0.0000 1.5383
# 5 30.7413 8.6045 12.8066 0.0000 21.3139 0.0000
# 6 0.0000 0.0000 0.0000 1.5383 0.0000 28.4594
#
#
#
# Elastic Compliance Matrix: (Units=1/GPa)
#
#
# Indices 1 2 3 4 5 6 
#
# 1 0.014639 0.000414 0.005422 0.000000 -0.024539 0.000000
# 2 0.000414 0.050370 0.025431 0.000000 -0.036212 0.000000
# 3 0.005422 0.025431 0.074207 0.000000 -0.062674 0.000000
# 4 0.000000 0.000000 0.000000 0.195733 0.000000 -0.010580
# 5 -0.024539 -0.036212 -0.062674 0.000000 0.134587 0.000000
# 6 0.000000 0.000000 0.000000 -0.010580 0.000000 0.035710
#
#
# Mechanical properties :
#
#
# Convention : Reuss Voigt Hill
#
# Bulk Modulus (GPa) = 4.95665 23.88991 14.42328
# Shear Modulus (GPa) = 9.80464 20.51210 15.15837
#
# Velocity S-wave (km/s) = 2.12063 3.06728 2.63678
# Velocity P-wave (km/s) = 2.87568 4.84786 3.98568
#
# Compressibility (1/GPa) = 0.20174908
#
# Stress axis : x y z
#
# Youngs Moduli (GPa) = 68.30990 19.85293 13.47589
#
# Poissons Ratio (x) = -0.00821 -0.07306
# Poissons Ratio (y) = -0.02827 -0.34270
# Poissons Ratio (z) = -0.37036 -0.50488
#
# Static dielectric constant tensor:
#      x y z
#    x 1.699950 0.000000 0.040820 
#    y 0.000000 1.783670 0.000000 
#    z 0.040820 0.000000 1.798160 
# 
# From -- ./inp_files/181055.got.cif
#   From: 2010.05.17/outbox.cif.g08.bks.cpg/sg12_91_cif.got.tgz:181055.got - 2010.06.03 13:09:07.
