data_PCOD9199282
_publ_section_title
;
Structure prediction by ZEFSAII (Michael W. Deem and Ramdas Pophale) SiO2 
 PCOD9199282
Probable space group: C 2/M
;
_chemical_formula_sum "Si O2"
_cell_formula_units_Z 60
_cell_length_a 12.280380
_cell_length_b 16.093673
_cell_length_c 16.735488
_cell_angle_alpha 90.000000
_cell_angle_beta 118.041934
_cell_angle_gamma 90.000000
_cell_volume 2919.248938
_symmetry_space_group_name_H-M "C 2/M"
_symmetry_group_IT_number 12
_symmetry_cell_setting 'monoclinic'
loop_
_space_group_symop_operation_xyz
x,y,z
-x,y,-z
-x,-y,-z
x,-y,z
1/2+x,1/2+y,z
1/2-x,1/2+y,-z
1/2-x,1/2-y,-z
1/2+x,1/2-y,z
loop_
_atom_site_type_symbol
_atom_site_label
_atom_site_fract_x
_atom_site_fract_y
_atom_site_fract_z
Si Si1 0.414620 0.902228 0.181985
Si Si2 0.812267 0.314589 0.301803
Si Si3 0.223157 0.598474 0.473025
Si Si4 0.133303 0.398764 0.012876
Si Si5 0.853506 0.094392 0.198526
Si Si6 0.114890 0.901552 0.331269
Si Si7 0.000000 0.336050 0.500000
Si Si8 0.803312 0.644297 0.716231
O O1 0.371104 0.846444 0.240605
O O2 0.560806 0.889621 0.220843
O O3 0.392200 0.000000 0.191188
O O4 0.354050 0.879767 0.076301
O O5 0.727086 0.386581 0.309682
O O6 0.721686 0.237003 0.262158
O O7 0.916088 0.291505 0.403962
O O8 0.237525 0.500000 0.464867
O O9 0.335085 0.631612 0.566683
O O10 0.216731 0.640829 0.385307
O O11 0.098017 0.612512 0.480503
O O12 0.131063 0.500000 0.019301
O O13 0.249194 0.368120 0.104880
O O14 0.000000 0.369953 0.000000
O O15 0.794372 0.092479 0.266155
O O16 0.987336 0.135571 0.254655
O O17 0.873713 0.000000 0.176274
O O18 0.096175 0.000000 0.335818
#
# Coordination Sequence:
#
# PCOD9199282 Si02
#       8
#     8   8   8   8   8   8   4   8
#     4  11  22  42  69  93 119 160 216 261 299 361
#     4  11  25  39  59  89 127 164 209 250 309 366
#     4  10  20  36  59  91 119 158 211 256 300 360
#     4   9  17  34  64  95 116 147 209 266 302 352
#     4  10  20  37  61  90 121 159 200 254 313 367
#     4   9  21  39  60  84 124 164 201 249 309 369
#     4  10  21  38  60  84 117 166 208 258 299 354
#     4  12  24  35  61  91 126 159 199 262 307 365
#
# _framework density 20.553232999999999
#
# number of rings (size 3 to 8) (size 9 to 14) (size 15 to 20)
#    0.000    1.733    2.667    1.800    1.867    4.800 
#    0.000    3.333    2.933    3.200    0.000    0.000 
#    0.000    0.000    0.000    0.000    0.000    0.000 
#
# Total GULP energy -167408.577115 kJ/mol
# GULP energy per Si atom -5580.285904 kJ/mol
# Density = 2.050645 g / cm^3
# Si number density = 20.553233 Si / 1000 Ang^3
#
#
#
# Elastic Constant Matrix: (Units=GPa)
#
#
# Indices 1 2 3 4 5 6 
#
# 1 91.0395 -1.4558 50.8013 0.0000 10.4006 0.0000
# 2 -1.4558 30.8755 12.4548 0.0000 -7.7960 0.0000
# 3 50.8013 12.4548 122.2749 0.0000 10.1542 0.0000
# 4 0.0000 0.0000 0.0000 3.9350 0.0000 3.7054
# 5 10.4006 -7.7960 10.1542 0.0000 37.2638 0.0000
# 6 0.0000 0.0000 0.0000 3.7054 0.0000 22.4706
#
#
#
# Elastic Compliance Matrix: (Units=1/GPa)
#
#
# Indices 1 2 3 4 5 6 
#
# 1 0.014722 0.002751 -0.006245 0.000000 -0.001832 0.000000
# 2 0.002751 0.036923 -0.005608 0.000000 0.008485 0.000000
# 3 -0.006245 -0.005608 0.011558 0.000000 -0.002580 0.000000
# 4 0.000000 0.000000 0.000000 0.300842 0.000000 -0.049609
# 5 -0.001832 0.008485 -0.002580 0.000000 0.029825 0.000000
# 6 0.000000 0.000000 0.000000 -0.049609 0.000000 0.052683
#
#
# Mechanical properties :
#
#
# Convention : Reuss Voigt Hill
#
# Bulk Modulus (GPa) = 22.22302 40.86560 31.54431
# Shear Modulus (GPa) = 10.42194 24.89317 17.65756
#
# Velocity S-wave (km/s) = 2.25427 3.48394 2.93424
# Velocity P-wave (km/s) = 4.19661 6.00914 5.18273
#
# Compressibility (1/GPa) = 0.04499839
#
# Stress axis : x y z
#
# Youngs Moduli (GPa) = 67.92507 27.08357 86.51830
#
# Poissons Ratio (x) = -0.07450 0.54027
# Poissons Ratio (y) = -0.18684 0.48523
# Poissons Ratio (z) = 0.42417 0.15189
#
# Static dielectric constant tensor:
#      x y z
#    x 1.710790 0.000000 0.032590 
#    y 0.000000 1.777950 0.000000 
#    z 0.032590 0.000000 1.764390 
# 
# From -- ./inp_files/206727.got.cif
#   From: 2010.05.17/outbox.cif.g08.bks.cpg/sg12_104_cif.got.tgz:206727.got - 2010.06.03 13:09:07.
