data_PCOD9199581
_publ_section_title
;
Structure prediction by ZEFSAII (Michael W. Deem and Ramdas Pophale) SiO2 
 PCOD9199581
Probable space group: C 2/M
;
_chemical_formula_sum "Si O2"
_cell_formula_units_Z 48
_cell_length_a 12.167177
_cell_length_b 14.834672
_cell_length_c 14.093433
_cell_angle_alpha 90.000000
_cell_angle_beta 51.206558
_cell_angle_gamma 90.000000
_cell_volume 1982.669678
_symmetry_space_group_name_H-M "C 2/M"
_symmetry_group_IT_number 12
_symmetry_cell_setting 'monoclinic'
loop_
_space_group_symop_operation_xyz
x,y,z
-x,y,-z
-x,-y,-z
x,-y,z
1/2+x,1/2+y,z
1/2-x,1/2+y,-z
1/2-x,1/2-y,-z
1/2+x,1/2-y,z
loop_
_atom_site_type_symbol
_atom_site_label
_atom_site_fract_x
_atom_site_fract_y
_atom_site_fract_z
Si Si1 0.582634 0.398272 0.366160
Si Si2 0.662136 0.154639 0.445929
Si Si3 0.609125 0.610545 0.143029
Si Si4 0.664151 0.841744 0.662504
Si Si5 0.658217 0.399318 0.819785
Si Si6 0.355852 0.889848 0.879803
O O1 0.500000 0.357244 0.500000
O O2 0.526816 0.500000 0.386473
O O3 0.572583 0.355179 0.268229
O O4 0.742564 0.398425 0.314548
O O5 0.500000 0.161106 0.500000
O O6 0.664984 0.123327 0.553524
O O7 0.753353 0.246816 0.388200
O O8 0.746941 0.094986 0.325603
O O9 0.601430 0.500000 0.150267
O O10 0.490869 0.640616 0.131781
O O11 0.765494 0.631517 0.022429
O O12 0.505767 0.843752 0.785776
O O13 0.628986 0.500000 0.870972
O O14 0.755620 0.357421 0.847606
O O15 0.374751 0.000000 0.863816
#
# Coordination Sequence:
#
# PCOD9199581 Si02
#       6
#     8   8   8   8   8   8
#     4  10  20  36  60  90 121 157 202 246 295 360
#     4  11  23  40  59  86 120 160 205 247 308 360
#     4   9  19  36  61  92 124 159 195 242 304 359
#     4  11  23  38  59  85 120 160 199 250 303 363
#     4  10  20  37  63  90 119 156 204 255 298 352
#     4  10  20  37  63  93 123 157 201 250 301 356
#
# _framework density 24.209783000000002
#
# number of rings (size 3 to 8) (size 9 to 14) (size 15 to 20)
#    0.000    1.833    1.667    2.500    0.000    7.000 
#    0.000    3.333    3.667    0.000    0.000    0.000 
#    0.000    0.000    0.000    0.000    0.000    0.000 
#
# Total GULP energy -134129.938409 kJ/mol
# GULP energy per Si atom -5588.747434 kJ/mol
# Density = 2.415468 g / cm^3
# Si number density = 24.209783 Si / 1000 Ang^3
#
#
#
# Elastic Constant Matrix: (Units=GPa)
#
#
# Indices 1 2 3 4 5 6 
#
# 1 135.6938 4.5712 54.6303 0.0000 -22.5005 0.0000
# 2 4.5712 54.7828 9.8990 0.0000 -4.1110 0.0000
# 3 54.6303 9.8990 128.3821 0.0000 -35.5791 0.0000
# 4 0.0000 0.0000 0.0000 12.0733 0.0000 -5.7603
# 5 -22.5005 -4.1110 -35.5791 0.0000 47.8538 0.0000
# 6 0.0000 0.0000 0.0000 -5.7603 0.0000 10.3136
#
#
#
# Elastic Compliance Matrix: (Units=1/GPa)
#
#
# Indices 1 2 3 4 5 6 
#
# 1 0.009007 -0.000016 -0.003348 0.000000 0.001744 0.000000
# 2 -0.000016 0.018529 -0.001238 0.000000 0.000664 0.000000
# 3 -0.003348 -0.001238 0.011139 0.000000 0.006601 0.000000
# 4 0.000000 0.000000 0.000000 0.112918 0.000000 0.063067
# 5 0.001744 0.000664 0.006601 0.000000 0.026682 0.000000
# 6 0.000000 0.000000 0.000000 0.063067 0.000000 0.132183
#
#
# Mechanical properties :
#
#
# Convention : Reuss Voigt Hill
#
# Bulk Modulus (GPa) = 33.93154 50.78442 42.35798
# Shear Modulus (GPa) = 15.17517 30.69867 22.93692
#
# Velocity S-wave (km/s) = 2.50635 3.56480 3.08136
# Velocity P-wave (km/s) = 4.73517 6.16166 5.49490
#
# Compressibility (1/GPa) = 0.02947110
#
# Stress axis : x y z
#
# Youngs Moduli (GPa) = 111.02091 53.97018 89.77592
#
# Poissons Ratio (x) = 0.00085 0.30059
# Poissons Ratio (y) = 0.00174 0.11114
# Poissons Ratio (z) = 0.37172 0.06682
#
# Static dielectric constant tensor:
#      x y z
#    x 1.907430 0.000000 0.004390 
#    y 0.000000 1.974290 0.000000 
#    z 0.004390 0.000000 1.931130 
# 
# From -- ./inp_files/131248.got.cif
#   From: 2010.05.17/outbox.cif.g08.bks.cpg/sg12_66_cif.got.tgz:131248.got - 2010.06.03 13:09:07.
