data_PCOD9199805
_publ_section_title
;
Structure prediction by ZEFSAII (Michael W. Deem and Ramdas Pophale) SiO2 
 PCOD9199805
Probable space group: C 2/M
;
_chemical_formula_sum "Si O2"
_cell_formula_units_Z 64
_cell_length_a 24.855599
_cell_length_b 9.666866
_cell_length_c 15.039499
_cell_angle_alpha 90.000000
_cell_angle_beta 78.649629
_cell_angle_gamma 90.000000
_cell_volume 3542.951568
_symmetry_space_group_name_H-M "C 2/M"
_symmetry_group_IT_number 12
_symmetry_cell_setting 'monoclinic'
loop_
_space_group_symop_operation_xyz
x,y,z
-x,y,-z
-x,-y,-z
x,-y,z
1/2+x,1/2+y,z
1/2-x,1/2+y,-z
1/2-x,1/2-y,-z
1/2+x,1/2-y,z
loop_
_atom_site_type_symbol
_atom_site_label
_atom_site_fract_x
_atom_site_fract_y
_atom_site_fract_z
Si Si1 0.064720 0.663638 0.688488
Si Si2 0.868433 0.162924 0.191205
Si Si3 0.904471 0.843781 0.978169
Si Si4 0.874601 0.339359 0.658120
Si Si5 0.563683 0.337786 0.508448
Si Si6 0.737511 0.843189 0.228044
Si Si7 0.943721 0.660429 0.810802
Si Si8 0.214277 0.844940 0.074274
O O1 0.076233 0.500000 0.672807
O O2 0.103238 0.735687 0.748705
O O3 0.070179 0.749040 0.595807
O O4 0.002505 0.676377 0.744825
O O5 0.802311 0.173874 0.222219
O O6 0.881971 0.000000 0.202354
O O7 0.889583 0.197070 0.084218
O O8 0.940358 0.747559 0.902576
O O9 0.846418 0.847482 0.945708
O O10 0.927135 0.000000 0.973285
O O11 0.891275 0.500000 0.635106
O O12 0.900627 0.235189 0.579608
O O13 0.808271 0.335350 0.680182
O O14 0.898894 0.305421 0.748684
O O15 0.500000 0.331248 0.500000
O O16 0.577871 0.500000 0.516077
O O17 0.718749 0.725311 0.167446
O O18 0.731099 0.000000 0.191768
O O19 0.935045 0.500000 0.836801
O O20 0.235961 0.000000 0.068942
O O21 0.250000 0.750000 0.000000
#
# Coordination Sequence:
#
# PCOD9199805 Si02
#       8
#     8   8   8   8   8   8   8   8
#     4  11  24  42  62  86 116 154 199 241 290 354
#     4  10  22  41  59  81 118 162 203 241 284 341
#     4  10  21  35  55  84 119 158 199 243 291 343
#     4  10  20  36  61  92 122 152 185 239 303 350
#     4  11  23  39  64  94 120 149 187 238 297 355
#     4  10  20  37  59  85 119 156 196 240 294 347
#     4  10  21  36  58  87 120 153 190 243 297 346
#     4  11  20  31  51  81 115 152 197 245 291 339
#
# _framework density 18.064036000000002
#
# number of rings (size 3 to 8) (size 9 to 14) (size 15 to 20)
#    0.000    1.625    3.750    1.125    0.000    4.500 
#    0.000    3.125    0.000    0.000    0.000    0.000 
#    0.000    0.000    0.000    0.000    0.000    0.000 
#
# Total GULP energy -178472.063545 kJ/mol
# GULP energy per Si atom -5577.251986 kJ/mol
# Density = 1.802292 g / cm^3
# Si number density = 18.064036 Si / 1000 Ang^3
#
#
#
# Elastic Constant Matrix: (Units=GPa)
#
#
# Indices 1 2 3 4 5 6 
#
# 1 46.7686 49.3830 44.4866 0.0000 2.7077 0.0000
# 2 49.3830 141.1606 91.9624 0.0000 -0.0277 0.0000
# 3 44.4866 91.9624 116.7850 0.0000 -4.3783 0.0000
# 4 0.0000 0.0000 0.0000 29.8860 0.0000 1.2226
# 5 2.7077 -0.0277 -4.3783 0.0000 26.4090 0.0000
# 6 0.0000 0.0000 0.0000 1.2226 0.0000 26.2661
#
#
#
# Elastic Compliance Matrix: (Units=1/GPa)
#
#
# Indices 1 2 3 4 5 6 
#
# 1 0.038005 -0.007669 -0.008638 0.000000 -0.005337 0.000000
# 2 -0.007669 0.016189 -0.009858 0.000000 -0.000831 0.000000
# 3 -0.008638 -0.009858 0.019772 0.000000 0.004153 0.000000
# 4 0.000000 0.000000 0.000000 0.033524 0.000000 -0.001560
# 5 -0.005337 -0.000831 0.004153 0.000000 0.039101 0.000000
# 6 0.000000 0.000000 0.000000 -0.001560 0.000000 0.038145
#
#
# Mechanical properties :
#
#
# Convention : Reuss Voigt Hill
#
# Bulk Modulus (GPa) = 46.22032 75.15313 60.68672
# Shear Modulus (GPa) = 20.46849 24.43772 22.45310
#
# Velocity S-wave (km/s) = 3.36982 3.68208 3.52941
# Velocity P-wave (km/s) = 6.38619 7.73117 7.09064
#
# Compressibility (1/GPa) = 0.02163550
#
# Stress axis : x y z
#
# Youngs Moduli (GPa) = 26.31204 61.77038 50.57749
#
# Poissons Ratio (x) = 0.47372 0.43691
# Poissons Ratio (y) = 0.20179 0.49859
# Poissons Ratio (z) = 0.22729 0.60892
#
# Static dielectric constant tensor:
#      x y z
#    x 1.624630 0.000000 -0.030460 
#    y 0.000000 1.609830 0.000000 
#    z -0.030460 0.000000 1.584220 
# 
# From -- ./inp_files/243759.got.cif
#   From: 2010.05.17/outbox.cif.g08.bks.cpg/sg12_122_cif.got.tgz:243759.got - 2010.06.03 13:09:07.
