data_PCOD9199327
_publ_section_title
;
Structure prediction by ZEFSAII (Michael W. Deem and Ramdas Pophale) SiO2 
 PCOD9199327
Probable space group: C 2/M
;
_chemical_formula_sum "Si O2"
_cell_formula_units_Z 56
_cell_length_a 10.252856
_cell_length_b 13.939052
_cell_length_c 32.752247
_cell_angle_alpha 90.000000
_cell_angle_beta 146.301409
_cell_angle_gamma 90.000000
_cell_volume 2597.014717
_symmetry_space_group_name_H-M "C 2/M"
_symmetry_group_IT_number 12
_symmetry_cell_setting 'monoclinic'
loop_
_space_group_symop_operation_xyz
x,y,z
-x,y,-z
-x,-y,-z
x,-y,z
1/2+x,1/2+y,z
1/2-x,1/2+y,-z
1/2-x,1/2-y,-z
1/2+x,1/2-y,z
loop_
_atom_site_type_symbol
_atom_site_label
_atom_site_fract_x
_atom_site_fract_y
_atom_site_fract_z
Si Si1 0.630066 0.617025 0.094513
Si Si2 0.988806 0.114454 0.335620
Si Si3 0.248397 0.770514 0.547628
Si Si4 0.127866 0.883956 0.789560
Si Si5 0.990075 0.384112 0.742236
Si Si6 0.131097 0.615294 0.689898
Si Si7 0.348101 0.883060 0.063647
O O1 0.630478 0.500000 0.095367
O O2 0.790284 0.649054 0.173565
O O3 0.756640 0.644046 0.085021
O O4 0.357446 0.646707 0.021142
O O5 0.926951 0.135871 0.272326
O O6 0.756297 0.139148 0.301260
O O7 0.192169 0.176866 0.409258
O O8 0.033216 0.000000 0.349915
O O9 0.250000 0.750000 0.500000
O O10 0.461406 0.843432 0.611485
O O11 0.000000 0.808879 0.500000
O O12 0.383763 0.850916 0.871254
O O13 0.900141 0.851787 0.755341
O O14 0.135739 0.000000 0.794528
O O15 0.999481 0.500000 0.744405
O O16 0.021191 0.352565 0.704125
O O17 0.131377 0.500000 0.688235
O O18 0.350894 0.000000 0.063568
#
# Coordination Sequence:
#
# PCOD9199327 Si02
#       7
#     8   8   8   8   8   8   8
#     4   8  12  20  40  74 111 142 180 229 267 299
#     4  10  20  36  60  84 106 136 177 224 270 320
#     4  12  26  42  60  84 109 136 175 222 278 338
#     4   9  16  30  51  78 109 143 183 223 267 315
#     4   9  16  30  51  78 109 145 185 219 260 319
#     4  10  22  38  56  78 110 148 181 218 266 325
#     4   8  12  20  40  74 111 142 179 230 270 297
#
# _framework density 21.563220000000001
#
# number of rings (size 3 to 8) (size 9 to 14) (size 15 to 20)
#    0.000    2.571    1.429    2.571    0.000    1.143 
#    0.000    0.714    0.000    4.286    0.000    6.000 
#    0.000    0.000    0.000    0.000    0.000    0.000 
#
# Total GULP energy -156388.838356 kJ/mol
# GULP energy per Si atom -5585.315656 kJ/mol
# Density = 2.151414 g / cm^3
# Si number density = 21.563220 Si / 1000 Ang^3
#
#
#
# Elastic Constant Matrix: (Units=GPa)
#
#
# Indices 1 2 3 4 5 6 
#
# 1 49.8638 -24.0308 -6.7411 0.0000 7.2992 0.0000
# 2 -24.0308 62.8600 -10.1628 0.0000 14.6862 0.0000
# 3 -6.7411 -10.1628 89.5781 -0.0001 7.2985 0.0000
# 4 0.0000 0.0000 -0.0001 11.8102 0.0000 8.8681
# 5 7.2992 14.6862 7.2985 0.0000 37.5180 0.0000
# 6 0.0000 0.0000 0.0000 8.8681 0.0000 -6.2682
#
#
#
# Elastic Compliance Matrix: (Units=1/GPa)
#
#
# Indices 1 2 3 4 5 6 
#
# 1 0.029951 0.015247 0.005024 0.000000 -0.012773 0.000000
# 2 0.015247 0.025881 0.005234 0.000000 -0.014115 0.000000
# 3 0.005024 0.005234 0.012581 0.000000 -0.005474 0.000000
# 4 0.000000 0.000000 0.000000 0.041057 0.000000 0.058086
# 5 -0.012773 -0.014115 -0.005474 0.000000 0.035729 0.000000
# 6 0.000000 0.000000 0.000000 0.058086 0.000000 -0.077356
#
#
# Mechanical properties :
#
#
# Convention : Reuss Voigt Hill
#
# Bulk Modulus (GPa) = 8.37361 13.38139 10.87750
# Shear Modulus (GPa) = 88.27464 24.82775 56.55120
#
# Velocity S-wave (km/s) = 6.40519 3.39690 5.12667
# Velocity P-wave (km/s) = 7.65465 4.64805 6.33238
#
# Compressibility (1/GPa) = 0.11942282
#
# Stress axis : x y z
#
# Youngs Moduli (GPa) = 33.38748 38.63844 79.48313
#
# Poissons Ratio (x) = -0.58910 -0.39935
# Poissons Ratio (y) = -0.50904 -0.41599
# Poissons Ratio (z) = -0.16775 -0.20222
#
# Static dielectric constant tensor:
#      x y z
#    x 1.750390 0.000000 0.016160 
#    y 0.000000 1.831310 0.000000 
#    z 0.016160 0.000000 1.756770 
# 
# From -- ./inp_files/372805.got.cif
#   From: 2010.05.17/outbox.cif.g08.bks.cpg/sg12_187_cif.got.tgz:372805.got - 2010.06.03 13:09:07.
