data_PCOD9199462
_publ_section_title
;
Structure prediction by ZEFSAII (Michael W. Deem and Ramdas Pophale) SiO2 
 PCOD9199462
Probable space group: C 2/M
;
_chemical_formula_sum "Si O2"
_cell_formula_units_Z 56
_cell_length_a 10.485689
_cell_length_b 15.302704
_cell_length_c 17.762087
_cell_angle_alpha 90.000000
_cell_angle_beta 116.813157
_cell_angle_gamma 90.000000
_cell_volume 2543.658093
_symmetry_space_group_name_H-M "C 2/M"
_symmetry_group_IT_number 12
_symmetry_cell_setting 'monoclinic'
loop_
_space_group_symop_operation_xyz
x,y,z
-x,y,-z
-x,-y,-z
x,-y,z
1/2+x,1/2+y,z
1/2-x,1/2+y,-z
1/2-x,1/2-y,-z
1/2+x,1/2-y,z
loop_
_atom_site_type_symbol
_atom_site_label
_atom_site_fract_x
_atom_site_fract_y
_atom_site_fract_z
Si Si1 0.658850 0.846706 0.061057
Si Si2 0.840006 0.138547 0.970190
Si Si3 0.694624 0.101794 0.779968
Si Si4 0.842647 0.327912 0.489623
Si Si5 0.194590 0.106393 0.745070
Si Si6 0.386419 0.897618 0.662387
Si Si7 0.375122 0.605192 0.693351
O O1 0.656075 0.743246 0.042032
O O2 0.707832 0.863710 0.159034
O O3 0.500000 0.880646 0.000000
O O4 0.776340 0.883753 0.034441
O O5 0.736200 0.105925 0.877392
O O6 0.000000 0.105356 0.000000
O O7 0.540365 0.142655 0.723327
O O8 0.819634 0.138109 0.759795
O O9 0.683378 0.000000 0.755123
O O10 0.750000 0.250000 0.500000
O O11 0.862536 0.389246 0.567547
O O12 0.746621 0.369656 0.398689
O O13 0.000000 0.304666 0.500000
O O14 0.262905 0.137882 0.684360
O O15 0.032234 0.138046 0.713205
O O16 0.191501 0.000000 0.745377
O O17 0.392417 0.000000 0.682789
O O18 0.387245 0.500000 0.697820
#
# Coordination Sequence:
#
# PCOD9199462 Si02
#       7
#     8   8   8   8   8   8   8
#     4  10  21  37  56  80 119 163 201 241 300 366
#     4  10  21  35  54  82 115 157 201 245 301 360
#     4  10  20  36  60  88 113 150 205 252 297 353
#     4  12  27  43  64  94 126 158 200 248 298 362
#     4  10  22  38  60  92 121 154 203 255 305 356
#     4  10  22  41  65  89 119 160 204 248 301 362
#     4  10  22  41  65  89 121 162 201 250 307 358
#
# _framework density 22.015536999999998
#
# number of rings (size 3 to 8) (size 9 to 14) (size 15 to 20)
#    0.000    1.714    1.429    2.143    2.000    4.000 
#    0.000    2.143    0.000    0.000    0.000    0.000 
#    0.000    0.000    0.000    0.000    0.000    0.000 
#
# Total GULP energy -156439.596205 kJ/mol
# GULP energy per Si atom -5587.128436 kJ/mol
# Density = 2.196543 g / cm^3
# Si number density = 22.015537 Si / 1000 Ang^3
#
#
#
# Elastic Constant Matrix: (Units=GPa)
#
#
# Indices 1 2 3 4 5 6 
#
# 1 165.7199 18.2891 23.2698 0.0000 -4.3487 0.0000
# 2 18.2891 31.4864 -17.1497 0.0000 -0.4453 0.0000
# 3 23.2698 -17.1497 79.1941 0.0000 -2.6008 0.0000
# 4 0.0000 0.0000 0.0000 23.3871 0.0000 1.6979
# 5 -4.3487 -0.4453 -2.6008 0.0000 44.6517 0.0000
# 6 0.0000 0.0000 0.0000 1.6979 0.0000 3.2729
#
#
#
# Elastic Compliance Matrix: (Units=1/GPa)
#
#
# Indices 1 2 3 4 5 6 
#
# 1 0.007188 -0.006022 -0.003402 0.000000 0.000442 0.000000
# 2 -0.006022 0.041081 0.010680 0.000000 0.000445 0.000000
# 3 -0.003402 0.010680 0.015963 0.000000 0.000705 0.000000
# 4 0.000000 0.000000 0.000000 0.044432 0.000000 -0.023051
# 5 0.000442 0.000445 0.000705 0.000000 0.022484 0.000000
# 6 0.000000 0.000000 0.000000 -0.023051 0.000000 0.317499
#
#
# Mechanical properties :
#
#
# Convention : Reuss Voigt Hill
#
# Bulk Modulus (GPa) = 14.98231 36.13543 25.55887
# Shear Modulus (GPa) = 10.67505 31.06176 20.86840
#
# Velocity S-wave (km/s) = 2.20440 3.76027 3.08213
# Velocity P-wave (km/s) = 3.64682 5.94156 4.92957
#
# Compressibility (1/GPa) = 0.06674537
#
# Stress axis : x y z
#
# Youngs Moduli (GPa) = 139.11923 24.34221 62.64610
#
# Poissons Ratio (x) = 0.14658 0.21310
# Poissons Ratio (y) = 0.83774 -0.66907
# Poissons Ratio (z) = 0.47323 -0.25998
#
# Static dielectric constant tensor:
#      x y z
#    x 1.849630 0.000000 -0.016140 
#    y 0.000000 1.841520 0.000000 
#    z -0.016140 0.000000 1.779850 
# 
# From -- ./inp_files/257209.got.cif
#   From: 2010.05.17/outbox.cif.g08.bks.cpg/sg12_129_cif.got.tgz:257209.got - 2010.06.03 13:09:07.
