data_PCOD9199326
_publ_section_title
;
Structure prediction by ZEFSAII (Michael W. Deem and Ramdas Pophale) SiO2 
 PCOD9199326
Probable space group: C 2/M
;
_chemical_formula_sum "Si O2"
_cell_formula_units_Z 56
_cell_length_a 8.859212
_cell_length_b 13.499511
_cell_length_c 30.456672
_cell_angle_alpha 90.000000
_cell_angle_beta 132.180525
_cell_angle_gamma 90.000000
_cell_volume 2699.187488
_symmetry_space_group_name_H-M "C 2/M"
_symmetry_group_IT_number 12
_symmetry_cell_setting 'monoclinic'
loop_
_space_group_symop_operation_xyz
x,y,z
-x,y,-z
-x,-y,-z
x,-y,z
1/2+x,1/2+y,z
1/2-x,1/2+y,-z
1/2-x,1/2-y,-z
1/2+x,1/2-y,z
loop_
_atom_site_type_symbol
_atom_site_label
_atom_site_fract_x
_atom_site_fract_y
_atom_site_fract_z
Si Si1 0.940802 0.889649 0.620524
Si Si2 0.370277 0.115546 0.654675
Si Si3 0.604525 0.304518 0.737419
Si Si4 0.380294 0.889060 0.022738
Si Si5 0.995718 0.190636 0.906383
Si Si6 0.053945 0.755253 0.823205
Si Si7 0.724526 0.289203 0.544298
O O1 0.759857 0.812630 0.577817
O O2 0.143329 0.864186 0.630995
O O3 0.007458 0.878918 0.683946
O O4 0.879908 0.000000 0.596974
O O5 0.521564 0.195207 0.706354
O O6 0.362424 0.137594 0.600619
O O7 0.416572 0.000000 0.672098
O O8 0.555820 0.317195 0.778796
O O9 0.846995 0.306259 0.781341
O O10 0.445811 0.803561 0.068756
O O11 0.423623 0.000000 0.046358
O O12 0.500000 0.872316 0.000000
O O13 0.141394 0.875448 0.964724
O O14 0.049480 0.178416 0.865909
O O15 0.754019 0.186701 0.864271
O O16 0.500000 0.333147 0.500000
O O17 0.750000 0.250000 0.500000
#
# Coordination Sequence:
#
# PCOD9199326 Si02
#       7
#     8   8   8   8   8   8   8
#     4  10  21  38  60  85 115 151 191 232 285 342
#     4  10  21  38  61  85 113 153 192 228 285 348
#     4  10  20  39  58  83 113 154 184 240 280 341
#     4  10  20  37  60  85 118 153 189 232 287 342
#     4  10  20  38  58  85 116 156 183 238 278 345
#     4  10  20  36  60  83 117 149 191 232 291 322
#     4  11  22  38  59  86 118 150 187 238 284 335
#
# _framework density 20.746984000000001
#
# number of rings (size 3 to 8) (size 9 to 14) (size 15 to 20)
#    0.000    1.857    4.286    0.000    0.000    1.143 
#    0.000   12.143    0.000    0.000    0.000    0.000 
#    0.000    0.000    0.000    0.000    0.000    0.000 
#
# Total GULP energy -156107.823985 kJ/mol
# GULP energy per Si atom -5575.279428 kJ/mol
# Density = 2.069976 g / cm^3
# Si number density = 20.746984 Si / 1000 Ang^3
#
#
#
# Elastic Constant Matrix: (Units=GPa)
#
#
# Indices 1 2 3 4 5 6 
#
# 1 51.2863 0.3418 13.1696 0.0000 -12.6831 0.0000
# 2 0.3418 76.8206 15.2243 0.0000 1.4129 0.0000
# 3 13.1696 15.2243 94.2408 0.0000 -4.2519 0.0000
# 4 0.0000 0.0000 0.0000 5.8182 0.0000 -0.0494
# 5 -12.6831 1.4129 -4.2519 0.0000 34.7074 0.0000
# 6 0.0000 0.0000 0.0000 -0.0494 0.0000 9.2783
#
#
#
# Elastic Compliance Matrix: (Units=1/GPa)
#
#
# Indices 1 2 3 4 5 6 
#
# 1 0.022125 0.000313 -0.002794 0.000000 0.007730 0.000000
# 2 0.000313 0.013475 -0.002253 0.000000 -0.000710 0.000000
# 3 -0.002794 -0.002253 0.011386 0.000000 0.000466 0.000000
# 4 0.000000 0.000000 0.000000 0.171881 0.000000 0.000915
# 5 0.007730 -0.000710 0.000466 0.000000 0.031723 0.000000
# 6 0.000000 0.000000 0.000000 0.000915 0.000000 0.107783
#
#
# Mechanical properties :
#
#
# Convention : Reuss Voigt Hill
#
# Bulk Modulus (GPa) = 26.65202 31.09099 28.87151
# Shear Modulus (GPa) = 13.14585 22.86827 18.00706
#
# Velocity S-wave (km/s) = 2.51993 3.32361 2.94927
# Velocity P-wave (km/s) = 4.61961 5.45407 5.05409
#
# Compressibility (1/GPa) = 0.03752061
#
# Stress axis : x y z
#
# Youngs Moduli (GPa) = 45.19692 74.20906 87.82373
#
# Poissons Ratio (x) = -0.02323 0.24535
# Poissons Ratio (y) = -0.01415 0.19784
# Poissons Ratio (z) = 0.12627 0.16717
#
# Static dielectric constant tensor:
#      x y z
#    x 1.815880 0.000000 -0.023230 
#    y 0.000000 1.685740 0.000000 
#    z -0.023230 0.000000 1.758560 
# 
# From -- ./inp_files/332580.got.cif
#   From: 2010.05.17/outbox.cif.g08.bks.cpg/sg12_167_cif.got.tgz:332580.got - 2010.06.03 13:09:07.
