data_PCOD9199232
_publ_section_title
;
Structure prediction by ZEFSAII (Michael W. Deem and Ramdas Pophale) SiO2 
 PCOD9199232
Probable space group: C 2/M
;
_chemical_formula_sum "Si O2"
_cell_formula_units_Z 60
_cell_length_a 9.312719
_cell_length_b 28.493980
_cell_length_c 11.111684
_cell_angle_alpha 90.000000
_cell_angle_beta 112.975273
_cell_angle_gamma 90.000000
_cell_volume 2714.657785
_symmetry_space_group_name_H-M "C 2/M"
_symmetry_group_IT_number 12
_symmetry_cell_setting 'monoclinic'
loop_
_space_group_symop_operation_xyz
x,y,z
-x,y,-z
-x,-y,-z
x,-y,z
1/2+x,1/2+y,z
1/2-x,1/2+y,-z
1/2-x,1/2-y,-z
1/2+x,1/2-y,z
loop_
_atom_site_type_symbol
_atom_site_label
_atom_site_fract_x
_atom_site_fract_y
_atom_site_fract_z
Si Si1 0.376627 0.052864 0.228632
Si Si2 0.686028 0.102370 0.034105
Si Si3 0.187249 0.292142 0.060586
Si Si4 0.251518 0.054082 0.698528
Si Si5 0.105242 0.647207 0.653244
Si Si6 0.860924 0.707710 0.684147
Si Si7 0.625010 0.692892 0.384577
Si Si8 0.500000 0.383934 0.500000
O O1 0.564740 0.053780 0.273157
O O2 0.345001 0.093827 0.312638
O O3 0.330574 0.000000 0.245110
O O4 0.299605 0.070292 0.079067
O O5 0.739159 0.156095 0.033766
O O6 0.761637 0.078125 0.174977
O O7 0.500000 0.104569 0.000000
O O8 0.219075 0.289663 0.213414
O O9 0.250000 0.250000 0.000000
O O10 0.000000 0.289378 0.000000
O O11 0.151068 0.084132 0.571800
O O12 0.199242 0.000000 0.684750
O O13 0.257485 0.678129 0.682694
O O14 0.000000 0.651656 0.500000
O O15 0.991787 0.667038 0.720294
O O16 0.731500 0.699926 0.539215
O O17 0.941508 0.756847 0.673867
O O18 0.519862 0.649723 0.390785
#
# Coordination Sequence:
#
# PCOD9199232 Si02
#       8
#     8   8   8   8   8   8   8   4
#     4  10  20  36  63  90 116 155 205 264 314 357
#     4   9  18  36  60  86 116 155 206 258 303 360
#     4  11  24  37  59  91 126 167 200 259 317 375
#     4  10  20  36  59  88 121 158 205 255 308 367
#     4  10  20  38  58  89 120 156 200 265 308 363
#     4  10  22  39  60  84 121 159 209 250 299 366
#     4  10  24  36  62  86 119 163 206 245 301 376
#     4  12  23  38  56  92 124 164 195 252 312 376
#
# _framework density 22.102233999999999
#
# number of rings (size 3 to 8) (size 9 to 14) (size 15 to 20)
#    0.000    1.867    0.000    5.400    8.400    2.933 
#    0.000    1.333    0.000    0.000    0.000    1.867 
#    0.000    0.000    0.000    0.000    0.000    0.000 
#
# Total GULP energy -167722.338138 kJ/mol
# GULP energy per Si atom -5590.744605 kJ/mol
# Density = 2.205193 g / cm^3
# Si number density = 22.102234 Si / 1000 Ang^3
#
#
#
# Elastic Constant Matrix: (Units=GPa)
#
#
# Indices 1 2 3 4 5 6 
#
# 1 30.2716 24.8410 14.6916 0.0000 -7.4598 0.0000
# 2 24.8410 174.3404 21.9400 0.0000 1.4343 0.0000
# 3 14.6916 21.9400 46.3650 0.0000 1.2687 0.0000
# 4 0.0000 0.0000 0.0000 31.7400 0.0000 -6.1755
# 5 -7.4598 1.4343 1.2687 0.0000 15.8856 0.0000
# 6 0.0000 0.0000 0.0000 -6.1755 0.0000 15.4172
#
#
#
# Elastic Compliance Matrix: (Units=1/GPa)
#
#
# Indices 1 2 3 4 5 6 
#
# 1 0.050830 -0.005676 -0.014119 0.000000 0.025510 0.000000
# 2 -0.005676 0.006734 -0.001302 0.000000 -0.003169 0.000000
# 3 -0.014119 -0.001302 0.026895 0.000000 -0.008661 0.000000
# 4 0.000000 0.000000 0.000000 0.034169 0.000000 0.013687
# 5 0.025510 -0.003169 -0.008661 0.000000 0.075907 0.000000
# 6 0.000000 0.000000 0.000000 0.013687 0.000000 0.070345
#
#
# Mechanical properties :
#
#
# Convention : Reuss Voigt Hill
#
# Bulk Modulus (GPa) = 23.65894 41.54691 32.60292
# Shear Modulus (GPa) = 15.56847 25.24220 20.40533
#
# Velocity S-wave (km/s) = 2.65690 3.38311 3.04176
# Velocity P-wave (km/s) = 4.48773 5.83944 5.20763
#
# Compressibility (1/GPa) = 0.04226732
#
# Stress axis : x y z
#
# Youngs Moduli (GPa) = 19.67327 148.48952 37.18205
#
# Poissons Ratio (x) = 0.84278 0.52497
# Poissons Ratio (y) = 0.11166 0.04840
# Poissons Ratio (z) = 0.27776 0.19327
#
# Static dielectric constant tensor:
#      x y z
#    x 1.819990 0.000000 0.019580 
#    y 0.000000 1.817080 0.000000 
#    z 0.019580 0.000000 1.860780 
# 
# From -- ./inp_files/136990.got.cif
#   From: 2010.05.17/outbox.cif.g08.bks.cpg/sg12_69_cif.got.tgz:136990.got - 2010.06.03 13:09:07.
