data_PCOD9199107
_publ_section_title
;
Structure prediction by ZEFSAII (Michael W. Deem and Ramdas Pophale) SiO2 
 PCOD9199107
Probable space group: C 2/M
;
_chemical_formula_sum "Si O2"
_cell_formula_units_Z 56
_cell_length_a 18.604784
_cell_length_b 8.788302
_cell_length_c 23.183337
_cell_angle_alpha 90.000000
_cell_angle_beta 126.893372
_cell_angle_gamma 90.000000
_cell_volume 3031.531140
_symmetry_space_group_name_H-M "C 2/M"
_symmetry_group_IT_number 12
_symmetry_cell_setting 'monoclinic'
loop_
_space_group_symop_operation_xyz
x,y,z
-x,y,-z
-x,-y,-z
x,-y,z
1/2+x,1/2+y,z
1/2-x,1/2+y,-z
1/2-x,1/2-y,-z
1/2+x,1/2-y,z
loop_
_atom_site_type_symbol
_atom_site_label
_atom_site_fract_x
_atom_site_fract_y
_atom_site_fract_z
Si Si1 0.035983 0.816525 0.771634
Si Si2 0.486144 0.682680 0.927421
Si Si3 0.620795 0.182001 0.224133
Si Si4 0.841105 0.181253 0.067443
Si Si5 0.332168 0.317589 0.503101
Si Si6 0.020200 0.318545 0.637176
Si Si7 0.179489 0.817492 0.638289
O O1 0.121764 0.769511 0.852100
O O2 0.038434 0.745635 0.709821
O O3 0.947933 0.760511 0.764093
O O4 0.033904 0.000000 0.767423
O O5 0.471215 0.500000 0.918663
O O6 0.408195 0.763333 0.853446
O O7 0.577834 0.715864 0.937309
O O8 0.500000 0.729743 0.000000
O O9 0.723151 0.221619 0.288675
O O10 0.610694 0.000000 0.224063
O O11 0.830814 0.000000 0.064582
O O12 0.750000 0.250000 0.000000
O O13 0.333298 0.500000 0.510036
O O14 0.250000 0.250000 0.500000
O O15 0.425838 0.249607 0.570193
O O16 0.320963 0.282062 0.429921
O O17 0.014581 0.500000 0.636045
O O18 0.099466 0.265348 0.632936
O O19 0.166679 0.000000 0.638238
#
# Coordination Sequence:
#
# PCOD9199107 Si02
#       7
#     8   8   8   8   8   8   8
#     4  10  21  39  60  82 113 152 192 234 286 345
#     4   9  19  36  55  77 109 149 192 234 281 339
#     4  10  20  36  59  86 114 145 190 241 286 340
#     4   9  19  34  54  80 109 144 184 230 282 336
#     4  11  23  41  65  89 118 155 192 232 281 338
#     4  12  25  39  59  88 118 150 192 238 284 335
#     4  10  23  41  59  84 118 152 186 231 286 338
#
# _framework density 18.472514
#
# number of rings (size 3 to 8) (size 9 to 14) (size 15 to 20)
#    0.000    1.857    0.000    4.714    0.000    9.429 
#    0.000    2.857    0.000    0.000    0.000    0.000 
#    0.000    0.000    0.000    0.000    0.000    0.000 
#
# Total GULP energy -156430.490561 kJ/mol
# GULP energy per Si atom -5586.803234 kJ/mol
# Density = 1.843047 g / cm^3
# Si number density = 18.472514 Si / 1000 Ang^3
#
#
#
# Elastic Constant Matrix: (Units=GPa)
#
#
# Indices 1 2 3 4 5 6 
#
# 1 123.1848 68.5634 112.0481 0.0000 -1.8224 0.0000
# 2 68.5634 70.9176 83.7206 0.0000 -1.9833 0.0000
# 3 112.0481 83.7206 216.7750 0.0000 2.9583 0.0000
# 4 0.0000 0.0000 0.0000 33.3482 0.0000 1.0833
# 5 -1.8224 -1.9833 2.9583 0.0000 37.4748 0.0000
# 6 0.0000 0.0000 0.0000 1.0833 0.0000 34.7669
#
#
#
# Elastic Compliance Matrix: (Units=1/GPa)
#
#
# Indices 1 2 3 4 5 6 
#
# 1 0.020556 -0.013415 -0.005454 0.000000 0.000720 0.000000
# 2 -0.013415 0.034849 -0.006548 0.000000 0.001709 0.000000
# 3 -0.005454 -0.006548 0.009980 0.000000 -0.001400 0.000000
# 4 0.000000 0.000000 0.000000 0.030017 0.000000 -0.000935
# 5 0.000720 0.001709 -0.001400 0.000000 0.026921 0.000000
# 6 0.000000 0.000000 0.000000 -0.000935 0.000000 0.028792
#
#
# Mechanical properties :
#
#
# Convention : Reuss Voigt Hill
#
# Bulk Modulus (GPa) = 68.72519 104.39352 86.55936
# Shear Modulus (GPa) = 24.17804 30.88767 27.53286
#
# Velocity S-wave (km/s) = 3.62175 4.09355 3.86486
# Velocity P-wave (km/s) = 7.40096 8.88698 8.17780
#
# Compressibility (1/GPa) = 0.01455070
#
# Stress axis : x y z
#
# Youngs Moduli (GPa) = 48.64738 28.69554 100.19763
#
# Poissons Ratio (x) = 0.38495 0.54648
# Poissons Ratio (y) = 0.65260 0.65611
# Poissons Ratio (z) = 0.26532 0.18790
#
# Static dielectric constant tensor:
#      x y z
#    x 1.605800 0.000000 -0.004990 
#    y 0.000000 1.624480 0.000000 
#    z -0.004990 0.000000 1.633710 
# 
# From -- ./inp_files/342576.got.cif
#   From: 2010.05.17/outbox.cif.g08.bks.cpg/sg12_172_cif.got.tgz:342576.got - 2010.06.03 13:09:07.
