data_PCOD9199041
_publ_section_title
;
Structure prediction by ZEFSAII (Michael W. Deem and Ramdas Pophale) SiO2 
 PCOD9199041
Probable space group: C 2/M
;
_chemical_formula_sum "Si O2"
_cell_formula_units_Z 64
_cell_length_a 24.438472
_cell_length_b 8.998905
_cell_length_c 18.550123
_cell_angle_alpha 90.000000
_cell_angle_beta 50.622219
_cell_angle_gamma 90.000000
_cell_volume 3153.396459
_symmetry_space_group_name_H-M "C 2/M"
_symmetry_group_IT_number 12
_symmetry_cell_setting 'monoclinic'
loop_
_space_group_symop_operation_xyz
x,y,z
-x,y,-z
-x,-y,-z
x,-y,z
1/2+x,1/2+y,z
1/2-x,1/2+y,-z
1/2-x,1/2-y,-z
1/2+x,1/2-y,z
loop_
_atom_site_type_symbol
_atom_site_label
_atom_site_fract_x
_atom_site_fract_y
_atom_site_fract_z
Si Si1 0.720228 0.677085 0.816435
Si Si2 0.808192 0.829084 0.862927
Si Si3 0.078564 0.674404 0.953940
Si Si4 0.092114 0.325763 0.114181
Si Si5 0.650608 0.822680 0.395689
Si Si6 0.824468 0.321071 0.459001
Si Si7 0.965889 0.179752 0.307600
Si Si8 0.558125 0.329944 0.359918
O O1 0.719427 0.500000 0.823444
O O2 0.747680 0.747645 0.868358
O O3 0.642678 0.737915 0.864145
O O4 0.778273 0.719674 0.707781
O O5 0.838301 0.745502 0.907507
O O6 0.875262 0.828965 0.751522
O O7 0.789192 0.000000 0.894253
O O8 0.083231 0.500000 0.930381
O O9 0.089342 0.686982 0.030753
O O10 0.000000 0.727555 0.000000
O O11 0.089028 0.500000 0.136545
O O12 0.024040 0.241420 0.203667
O O13 0.660355 0.780990 0.470223
O O14 0.584421 0.754190 0.408386
O O15 0.644016 0.000000 0.397149
O O16 0.823056 0.500000 0.453159
O O17 0.750000 0.250000 0.500000
O O18 0.889238 0.250348 0.360378
O O19 0.994731 0.228079 0.362950
O O20 0.964446 0.000000 0.306867
O O21 0.543410 0.500000 0.390809
#
# Coordination Sequence:
#
# PCOD9199041 Si02
#       8
#     8   8   8   8   8   8   8   8
#     4  10  20  36  59  85 112 145 184 228 280 332
#     4   9  17  32  55  84 116 147 180 222 275 333
#     4  10  23  41  57  78 110 147 190 235 277 329
#     4  10  20  36  59  85 113 147 185 227 278 331
#     4   9  20  37  57  83 114 145 180 227 278 327
#     4  11  24  41  58  80 111 148 192 236 277 325
#     4  10  21  38  59  85 116 148 183 226 277 332
#     4   8  16  31  54  83 112 143 178 218 270 333
#
# _framework density 20.295577000000002
#
# number of rings (size 3 to 8) (size 9 to 14) (size 15 to 20)
#    0.000    2.375    0.000    2.625    0.000    8.250 
#    0.000    5.000    0.000    0.000    0.000    0.000 
#    0.000    0.000    0.000    0.000    0.000    0.000 
#
# Total GULP energy -178773.445509 kJ/mol
# GULP energy per Si atom -5586.670172 kJ/mol
# Density = 2.024938 g / cm^3
# Si number density = 20.295577 Si / 1000 Ang^3
#
#
#
# Elastic Constant Matrix: (Units=GPa)
#
#
# Indices 1 2 3 4 5 6 
#
# 1 59.0218 20.6112 15.4167 0.0000 -29.6050 0.0004
# 2 20.6112 57.4663 23.4803 0.0019 -9.1458 -0.0032
# 3 15.4167 23.4803 58.5995 -0.0001 -20.3681 0.0000
# 4 0.0000 0.0019 -0.0001 15.5292 -0.0002 -3.2838
# 5 -29.6050 -9.1458 -20.3681 -0.0002 37.6217 0.0006
# 6 0.0004 -0.0032 0.0000 -3.2838 0.0006 33.7358
#
#
#
# Elastic Compliance Matrix: (Units=1/GPa)
#
#
# Indices 1 2 3 4 5 6 
#
# 1 0.031410 -0.008929 0.003881 0.000001 0.024648 -0.000002
# 2 -0.008929 0.023360 -0.009213 -0.000002 -0.006335 0.000002
# 3 0.003881 -0.009213 0.024659 0.000001 0.014165 -0.000001
# 4 0.000001 -0.000002 0.000001 0.065748 0.000001 0.006400
# 5 0.024648 -0.006335 0.014165 0.000001 0.052104 -0.000002
# 6 -0.000002 0.000002 -0.000001 0.006400 -0.000002 0.030265
#
#
# Mechanical properties :
#
#
# Convention : Reuss Voigt Hill
#
# Bulk Modulus (GPa) = 19.64345 32.67823 26.16084
# Shear Modulus (GPa) = 18.31245 25.08263 21.69754
#
# Velocity S-wave (km/s) = 3.00707 3.51930 3.27322
# Velocity P-wave (km/s) = 4.66437 5.71403 5.21567
#
# Compressibility (1/GPa) = 0.05090756
#
# Stress axis : x y z
#
# Youngs Moduli (GPa) = 31.83659 42.80788 40.55341
#
# Poissons Ratio (x) = 0.38223 -0.15740
# Poissons Ratio (y) = 0.28427 0.37363
# Poissons Ratio (z) = -0.12356 0.39440
#
# Static dielectric constant tensor:
#      x y z
#    x 1.706300 0.000000 -0.003810 
#    y 0.000000 1.684280 0.000000 
#    z -0.003810 0.000000 1.755140 
# 
# From -- ./inp_files/324117.got.cif
#   From: 2010.05.17/outbox.cif.g08.bks.cpg/sg12_163_cif.got.tgz:324117.got - 2010.06.03 13:09:07.
