data_PCOD9199078
_publ_section_title
;
Structure prediction by ZEFSAII (Michael W. Deem and Ramdas Pophale) SiO2 
 PCOD9199078
Probable space group: C 2/M
;
_chemical_formula_sum "Si O2"
_cell_formula_units_Z 56
_cell_length_a 24.302656
_cell_length_b 8.768098
_cell_length_c 14.983812
_cell_angle_alpha 90.000000
_cell_angle_beta 110.229119
_cell_angle_gamma 90.000000
_cell_volume 2995.926995
_symmetry_space_group_name_H-M "C 2/M"
_symmetry_group_IT_number 12
_symmetry_cell_setting 'monoclinic'
loop_
_space_group_symop_operation_xyz
x,y,z
-x,y,-z
-x,-y,-z
x,-y,z
1/2+x,1/2+y,z
1/2-x,1/2+y,-z
1/2-x,1/2-y,-z
1/2+x,1/2-y,z
loop_
_atom_site_type_symbol
_atom_site_label
_atom_site_fract_x
_atom_site_fract_y
_atom_site_fract_z
Si Si1 0.428988 0.317236 0.297658
Si Si2 0.940653 0.184251 0.679717
Si Si3 0.851804 0.681596 0.767602
Si Si4 0.676794 0.817749 0.874201
Si Si5 0.244121 0.681717 0.595814
Si Si6 0.811145 0.817623 0.924218
Si Si7 0.880466 0.182452 0.458186
O O1 0.423868 0.500000 0.283289
O O2 0.491707 0.269966 0.293799
O O3 0.374672 0.239432 0.218146
O O4 0.424270 0.287549 0.400932
O O5 0.907751 0.258415 0.744320
O O6 0.906833 0.225121 0.568963
O O7 0.938020 0.000000 0.686036
O O8 0.849792 0.500000 0.764273
O O9 0.795086 0.749239 0.685107
O O10 0.847953 0.741541 0.866242
O O11 0.741891 0.777931 0.874538
O O12 0.674711 0.000000 0.882363
O O13 0.671296 0.741386 0.968298
O O14 0.250099 0.500000 0.596625
O O15 0.250000 0.750000 0.500000
O O16 0.180020 0.730577 0.592983
O O17 0.816653 0.000000 0.922849
O O18 0.868863 0.000000 0.453568
#
# Coordination Sequence:
#
# PCOD9199078 Si02
#       7
#     8   8   8   8   8   8   8
#     4  10  21  37  59  86 115 154 198 238 286 343
#     4  10  21  38  58  81 116 158 199 240 283 340
#     4  12  24  38  58  86 119 155 193 237 290 345
#     4  10  21  38  61  90 119 148 186 238 292 342
#     4  12  23  36  55  82 116 152 191 236 286 339
#     4  10  21  39  64  90 117 150 187 234 290 349
#     4  10  20  36  59  85 115 153 197 243 288 340
#
# _framework density 18.692043000000002
#
# number of rings (size 3 to 8) (size 9 to 14) (size 15 to 20)
#    0.000    1.429    1.429    4.714    0.000    6.857 
#    0.000    0.714    0.000    6.857    0.000    0.000 
#    0.000    0.000    0.000    0.000    0.000    0.000 
#
# Total GULP energy -156539.688255 kJ/mol
# GULP energy per Si atom -5590.703152 kJ/mol
# Density = 1.864950 g / cm^3
# Si number density = 18.692043 Si / 1000 Ang^3
#
#
#
# Elastic Constant Matrix: (Units=GPa)
#
#
# Indices 1 2 3 4 5 6 
#
# 1 115.7136 47.8204 44.5686 0.0000 -27.1707 0.0000
# 2 47.8204 68.3083 29.8029 0.0000 -16.9936 0.0000
# 3 44.5686 29.8029 63.5098 0.0000 -24.6912 0.0000
# 4 0.0000 0.0000 0.0000 28.4814 0.0000 0.1583
# 5 -27.1707 -16.9936 -24.6912 0.0000 30.7681 0.0000
# 6 0.0000 0.0000 0.0000 0.1583 0.0000 26.7690
#
#
#
# Elastic Compliance Matrix: (Units=1/GPa)
#
#
# Indices 1 2 3 4 5 6 
#
# 1 0.014573 -0.006714 -0.005108 0.000000 0.005061 0.000000
# 2 -0.006714 0.021982 -0.004635 0.000000 0.002493 0.000000
# 3 -0.005108 -0.004635 0.027262 0.000000 0.014807 0.000000
# 4 0.000000 0.000000 0.000000 0.035112 0.000000 -0.000208
# 5 0.005061 0.002493 0.014807 0.000000 0.050230 0.000000
# 6 0.000000 0.000000 0.000000 -0.000208 0.000000 0.037358
#
#
# Mechanical properties :
#
#
# Convention : Reuss Voigt Hill
#
# Bulk Modulus (GPa) = 32.35958 54.65725 43.50842
# Shear Modulus (GPa) = 21.76469 25.55969 23.66219
#
# Velocity S-wave (km/s) = 3.41601 3.70186 3.56180
# Velocity P-wave (km/s) = 5.73658 6.89754 6.34368
#
# Compressibility (1/GPa) = 0.03090275
#
# Stress axis : x y z
#
# Youngs Moduli (GPa) = 68.62207 45.49182 36.68162
#
# Poissons Ratio (x) = 0.30543 0.18737
# Poissons Ratio (y) = 0.46073 0.17001
# Poissons Ratio (z) = 0.35053 0.21084
#
# Static dielectric constant tensor:
#      x y z
#    x 1.645430 0.000000 -0.014430 
#    y 0.000000 1.624740 0.000000 
#    z -0.014430 0.000000 1.623970 
# 
# From -- ./inp_files/237886.got.cif
#   From: 2010.05.17/outbox.cif.g08.bks.cpg/sg12_119_cif.got.tgz:237886.got - 2010.06.03 13:09:07.
