data_PCOD9199217
_publ_section_title
;
Structure prediction by ZEFSAII (Michael W. Deem and Ramdas Pophale) SiO2 
 PCOD9199217
Probable space group: C 2/M
;
_chemical_formula_sum "Si O2"
_cell_formula_units_Z 42
_cell_length_a 8.978408
_cell_length_b 25.506346
_cell_length_c 14.131175
_cell_angle_alpha 90.000000
_cell_angle_beta 146.767321
_cell_angle_gamma 90.000000
_cell_volume 1773.529528
_symmetry_space_group_name_H-M "C 2/M"
_symmetry_group_IT_number 12
_symmetry_cell_setting 'monoclinic'
loop_
_space_group_symop_operation_xyz
x,y,z
-x,y,-z
-x,-y,-z
x,-y,z
1/2+x,1/2+y,z
1/2-x,1/2+y,-z
1/2-x,1/2-y,-z
1/2+x,1/2-y,z
loop_
_atom_site_type_symbol
_atom_site_label
_atom_site_fract_x
_atom_site_fract_y
_atom_site_fract_z
Si Si1 0.187944 0.291538 0.300545
Si Si2 0.892527 0.380771 0.600098
Si Si3 0.500000 0.000000 0.500000
Si Si4 0.429650 0.315518 0.238550
Si Si5 0.001458 0.113485 0.887647
Si Si6 0.267836 0.500000 0.457574
Si Si7 0.502126 0.500000 0.888147
O O1 0.500000 0.287017 0.500000
O O2 0.070078 0.341308 0.292776
O O3 0.209507 0.300260 0.200227
O O4 0.053028 0.238901 0.266787
O O5 0.650142 0.353849 0.409828
O O6 0.835648 0.439051 0.608469
O O7 0.175095 0.384156 0.692429
O O8 0.781136 0.000000 0.580914
O O9 0.686859 0.000000 0.691610
O O10 0.355458 0.345509 0.103488
O O11 0.117725 0.056280 0.923593
O O12 0.000000 0.120775 0.000000
O O13 0.500000 0.500000 0.500000
O O14 0.500000 0.500000 0.000000
#
# Coordination Sequence:
#
# PCOD9199217 Si02
#       7
#     8   8   2   8   8   4   4
#     4  10  20  36  59  88 117 155 199 262 318 373
#     4  11  21  38  60  89 122 158 199 260 317 371
#     4  12  20  40  68  96 124 180 216 260 332 378
#     4  11  21  37  60  87 115 155 207 256 313 380
#     4  11  22  38  59  87 123 162 203 252 308 379
#     4  12  24  38  62 102 130 158 218 274 318 394
#     4  10  22  38  62  96 132 168 222 266 320 398
#
# _framework density 23.68159
#
# number of rings (size 3 to 8) (size 9 to 14) (size 15 to 20)
#    0.000    1.143    1.905    8.000    0.000    0.000 
#    0.000    4.762    0.000    0.571    0.000    0.000 
#    0.000    0.000    0.000    0.000    0.000    0.000 
#
# Total GULP energy -116929.005911 kJ/mol
# GULP energy per Si atom -5568.047901 kJ/mol
# Density = 2.362769 g / cm^3
# Si number density = 23.681590 Si / 1000 Ang^3
#
#
#
# Elastic Constant Matrix: (Units=GPa)
#
#
# Indices 1 2 3 4 5 6 
#
# 1 163.2891 88.4397 26.0796 0.0000 -9.7765 0.0000
# 2 88.4397 216.5958 27.7686 0.0000 -7.3837 0.0000
# 3 26.0796 27.7686 84.4314 0.0000 -20.4386 0.0000
# 4 0.0000 0.0000 0.0000 6.9000 0.0000 -31.5549
# 5 -9.7765 -7.3837 -20.4386 0.0000 36.7979 0.0000
# 6 0.0000 0.0000 0.0000 -31.5549 0.0000 -110.6085
#
#
#
# Elastic Compliance Matrix: (Units=1/GPa)
#
#
# Indices 1 2 3 4 5 6 
#
# 1 0.008054 -0.003098 -0.001272 0.000000 0.000811 0.000000
# 2 -0.003098 0.006012 -0.001072 0.000000 -0.000212 0.000000
# 3 -0.001272 -0.001072 0.014390 0.000000 0.007440 0.000000
# 4 0.000000 0.000000 0.000000 0.062884 0.000000 -0.017940
# 5 0.000811 -0.000212 0.007440 0.000000 0.031481 0.000000
# 6 0.000000 0.000000 0.000000 -0.017940 0.000000 -0.003923
#
#
# Mechanical properties :
#
#
# Convention : Reuss Voigt Hill
#
# Bulk Modulus (GPa) = 56.90771 83.21021 70.05896
# Shear Modulus (GPa) = 36.86246 8.08644 22.47445
#
# Velocity S-wave (km/s) = 3.94964 1.84988 3.08397
# Velocity P-wave (km/s) = 6.69941 6.30683 6.50608
#
# Compressibility (1/GPa) = 0.01757231
#
# Stress axis : x y z
#
# Youngs Moduli (GPa) = 124.16744 166.33700 69.49059
#
# Poissons Ratio (x) = 0.51525 0.08842
# Poissons Ratio (y) = 0.38463 0.07448
# Poissons Ratio (z) = 0.15800 0.17827
#
# Static dielectric constant tensor:
#      x y z
#    x 1.839070 0.000000 0.050530 
#    y 0.000000 1.878100 0.000000 
#    z 0.050530 0.000000 2.057670 
# 
# From -- ./inp_files/200053.got.cif
#   From: 2010.05.17/outbox.cif.g08.bks.cpg/sg12_101_cif.got.tgz:200053.got - 2010.06.03 13:09:07.
