data_PCOD9199652
_publ_section_title
;
Structure prediction by ZEFSAII (Michael W. Deem and Ramdas Pophale) SiO2 
 PCOD9199652
Probable space group: C 2/M
;
_chemical_formula_sum "Si O2"
_cell_formula_units_Z 52
_cell_length_a 16.666135
_cell_length_b 20.006872
_cell_length_c 13.416359
_cell_angle_alpha 90.000000
_cell_angle_beta 34.165170
_cell_angle_gamma 90.000000
_cell_volume 2512.237961
_symmetry_space_group_name_H-M "C 2/M"
_symmetry_group_IT_number 12
_symmetry_cell_setting 'monoclinic'
loop_
_space_group_symop_operation_xyz
x,y,z
-x,y,-z
-x,-y,-z
x,-y,z
1/2+x,1/2+y,z
1/2-x,1/2+y,-z
1/2-x,1/2-y,-z
1/2+x,1/2-y,z
loop_
_atom_site_type_symbol
_atom_site_label
_atom_site_fract_x
_atom_site_fract_y
_atom_site_fract_z
Si Si1 0.474878 0.500000 0.143902
Si Si2 0.082003 0.737956 0.689862
Si Si3 0.653728 0.369312 0.297996
Si Si4 0.673759 0.770400 0.180234
Si Si5 0.603076 0.890444 0.800568
Si Si6 0.429428 0.643936 0.962568
Si Si7 0.548467 0.500000 0.334149
Si Si8 0.255833 0.000000 0.471405
O O1 0.548451 0.569094 0.100420
O O2 0.309119 0.500000 0.350256
O O3 0.500000 0.500000 0.000000
O O4 0.250000 0.750000 0.500000
O O5 0.059517 0.679444 0.794974
O O6 0.991341 0.720122 0.682993
O O7 0.016140 0.805806 0.802167
O O8 0.500000 0.358202 0.500000
O O9 0.699363 0.296930 0.214974
O O10 0.750241 0.387810 0.291053
O O11 0.640731 0.431271 0.233831
O O12 0.750000 0.750000 0.000000
O O13 0.765101 0.831154 0.131532
O O14 0.644159 0.938950 0.666883
O O15 0.500000 0.910222 0.000000
O O16 0.500000 0.648464 0.000000
O O17 0.500000 0.500000 0.500000
O O18 0.400237 0.500000 0.425122
#
# Coordination Sequence:
#
# PCOD9199652 Si02
#       8
#     4   8   8   8   8   8   4   4
#     4  10  24  43  71  94 118 169 233 289 339 400
#     4  11  22  37  59  92 129 174 219 262 316 388
#     4  11  20  38  61  89 127 172 214 260 316 388
#     4  10  22  36  56  89 125 160 213 264 315 383
#     4  12  23  38  60  94 139 178 209 267 338 400
#     4  10  21  42  63  88 118 158 213 277 330 384
#     4  10  20  36  60  94 125 163 218 256 304 394
#     4  12  23  41  64  96 129 175 222 267 334 419
#
# _framework density 20.698678000000001
#
# number of rings (size 3 to 8) (size 9 to 14) (size 15 to 20)
#    0.000    1.231    3.077    5.308    4.308    0.000 
#    0.000    0.769    0.000    0.000    0.000    5.923 
#    0.000    0.000    0.000    0.000    0.000    0.000 
#
# Total GULP energy -144877.685308 kJ/mol
# GULP energy per Si atom -5572.218666 kJ/mol
# Density = 2.065157 g / cm^3
# Si number density = 20.698678 Si / 1000 Ang^3
#
#
#
# Elastic Constant Matrix: (Units=GPa)
#
#
# Indices 1 2 3 4 5 6 
#
# 1 67.2779 16.6572 17.7810 -0.0002 -10.5422 -0.0003
# 2 16.6572 167.5965 44.3606 -0.0005 -2.9228 -0.0001
# 3 17.7810 44.3606 97.3157 -0.0014 -2.7585 -0.0003
# 4 -0.0002 -0.0005 -0.0014 19.3539 0.0006 0.2692
# 5 -10.5422 -2.9228 -2.7585 0.0006 37.7556 0.0003
# 6 -0.0003 -0.0001 -0.0003 0.2692 0.0003 4.4639
#
#
#
# Elastic Compliance Matrix: (Units=1/GPa)
#
#
# Indices 1 2 3 4 5 6 
#
# 1 0.016418 -0.000904 -0.002465 0.000000 0.004334 0.000000
# 2 -0.000904 0.006839 -0.002950 0.000000 0.000061 0.000000
# 3 -0.002465 -0.002950 0.012070 0.000001 -0.000035 0.000001
# 4 0.000000 0.000000 0.000001 0.051712 -0.000001 -0.003119
# 5 0.004334 0.000061 -0.000035 -0.000001 0.027699 -0.000002
# 6 0.000000 0.000000 0.000001 -0.003119 -0.000002 0.224206
#
#
# Mechanical properties :
#
#
# Convention : Reuss Voigt Hill
#
# Bulk Modulus (GPa) = 44.07522 54.42085 49.24804
# Shear Modulus (GPa) = 13.92194 29.20745 21.56470
#
# Velocity S-wave (km/s) = 2.59627 3.76051 3.23126
# Velocity P-wave (km/s) = 5.50704 6.72341 6.14539
#
# Compressibility (1/GPa) = 0.02268848
#
# Stress axis : x y z
#
# Youngs Moduli (GPa) = 60.90837 146.22992 82.84885
#
# Poissons Ratio (x) = 0.13215 0.20422
# Poissons Ratio (y) = 0.05504 0.24444
# Poissons Ratio (z) = 0.15014 0.43144
#
# Static dielectric constant tensor:
#      x y z
#    x 1.786210 0.000000 0.011710 
#    y 0.000000 1.760480 0.000000 
#    z 0.011710 0.000000 1.779440 
# 
# From -- ./inp_files/227408.got.cif
#   From: 2010.05.17/outbox.cif.g08.bks.cpg/sg12_114_cif.got.tgz:227408.got - 2010.06.03 13:09:07.
