data_PCOD9199694
_publ_section_title
;
Structure prediction by ZEFSAII (Michael W. Deem and Ramdas Pophale) SiO2 
 PCOD9199694
Probable space group: C 2/M
;
_chemical_formula_sum "Si O2"
_cell_formula_units_Z 48
_cell_length_a 14.583529
_cell_length_b 14.747210
_cell_length_c 14.747658
_cell_angle_alpha 90.000000
_cell_angle_beta 131.960381
_cell_angle_gamma 90.000000
_cell_volume 2358.518133
_symmetry_space_group_name_H-M "C 2/M"
_symmetry_group_IT_number 12
_symmetry_cell_setting 'monoclinic'
loop_
_space_group_symop_operation_xyz
x,y,z
-x,y,-z
-x,-y,-z
x,-y,z
1/2+x,1/2+y,z
1/2-x,1/2+y,-z
1/2-x,1/2-y,-z
1/2+x,1/2-y,z
loop_
_atom_site_type_symbol
_atom_site_label
_atom_site_fract_x
_atom_site_fract_y
_atom_site_fract_z
Si Si1 0.888851 0.401948 0.197147
Si Si2 0.659845 0.393309 0.714330
Si Si3 0.680826 0.180797 0.021907
Si Si4 0.770313 0.759313 0.661997
Si Si5 0.046797 0.750081 0.388709
Si Si6 0.867531 0.852189 0.899302
O O1 0.942645 0.500000 0.252465
O O2 0.743108 0.401182 0.121703
O O3 0.945010 0.324251 0.296706
O O4 0.903673 0.377243 0.100916
O O5 0.649760 0.500000 0.686979
O O6 0.727345 0.378268 0.856208
O O7 0.741200 0.335442 0.695521
O O8 0.527934 0.341591 0.635926
O O9 0.619047 0.252411 0.047291
O O10 0.750000 0.250000 0.000000
O O11 0.869010 0.755980 0.645929
O O12 0.638560 0.780329 0.528854
O O13 0.820964 0.832199 0.767136
O O14 0.000000 0.896426 0.000000
#
# Coordination Sequence:
#
# PCOD9199694 Si02
#       6
#     8   8   8   8   8   8
#     4  11  22  37  61  90 124 169 210 255 317 383
#     4  11  22  39  69  99 126 165 219 271 321 382
#     4   9  17  36  58  87 122 162 199 256 320 373
#     4  10  23  40  64  90 128 169 206 262 328 379
#     4  11  22  42  64  89 131 170 210 262 327 389
#     4  10  20  36  61  87 122 160 209 259 315 374
#
# _framework density 20.351761
#
# number of rings (size 3 to 8) (size 9 to 14) (size 15 to 20)
#    0.000    1.667    5.000    2.000    2.333    2.333 
#    0.000    5.000    0.000    5.500    0.000    0.000 
#    0.000    0.000    0.000    0.000    0.000    0.000 
#
# Total GULP energy -133829.194624 kJ/mol
# GULP energy per Si atom -5576.216443 kJ/mol
# Density = 2.030544 g / cm^3
# Si number density = 20.351761 Si / 1000 Ang^3
#
#
#
# Elastic Constant Matrix: (Units=GPa)
#
#
# Indices 1 2 3 4 5 6 
#
# 1 67.3286 11.4190 20.6273 0.0000 3.6854 0.0000
# 2 11.4190 88.0391 22.1818 0.0000 6.7597 0.0000
# 3 20.6273 22.1818 106.4061 0.0000 -6.2331 0.0000
# 4 0.0000 0.0000 0.0000 3.9062 0.0000 -2.1019
# 5 3.6854 6.7597 -6.2331 0.0000 34.1314 0.0000
# 6 0.0000 0.0000 0.0000 -2.1019 0.0000 7.0310
#
#
#
# Elastic Compliance Matrix: (Units=1/GPa)
#
#
# Indices 1 2 3 4 5 6 
#
# 1 0.016081 -0.001174 -0.002993 0.000000 -0.002050 0.000000
# 2 -0.001174 0.012357 -0.002511 0.000000 -0.002779 0.000000
# 3 -0.002993 -0.002511 0.010664 0.000000 0.002768 0.000000
# 4 0.000000 0.000000 0.000000 0.305081 0.000000 0.091202
# 5 -0.002050 -0.002779 0.002768 0.000000 0.030576 0.000000
# 6 0.000000 0.000000 0.000000 0.091202 0.000000 0.169492
#
#
# Mechanical properties :
#
#
# Convention : Reuss Voigt Hill
#
# Bulk Modulus (GPa) = 38.84202 41.13666 39.98934
# Shear Modulus (GPa) = 8.83099 22.85009 15.84054
#
# Velocity S-wave (km/s) = 2.08533 3.35439 2.79290
# Velocity P-wave (km/s) = 4.99248 5.93795 5.48563
#
# Compressibility (1/GPa) = 0.02574531
#
# Stress axis : x y z
#
# Youngs Moduli (GPa) = 62.18611 80.92596 93.77598
#
# Poissons Ratio (x) = 0.09503 0.28064
# Poissons Ratio (y) = 0.07303 0.23548
# Poissons Ratio (z) = 0.18610 0.20322
#
# Static dielectric constant tensor:
#      x y z
#    x 1.881660 0.000000 -0.022090 
#    y 0.000000 1.712050 0.000000 
#    z -0.022090 0.000000 1.759360 
# 
# From -- ./inp_files/215016.got.cif
#   From: 2010.05.17/outbox.cif.g08.bks.cpg/sg12_108_cif.got.tgz:215016.got - 2010.06.03 13:09:07.
