data_PCOD9199827
_publ_section_title
;
Structure prediction by ZEFSAII (Michael W. Deem and Ramdas Pophale) SiO2 
 PCOD9199827
Probable space group: C 2/M
;
_chemical_formula_sum "Si O2"
_cell_formula_units_Z 48
_cell_length_a 18.540035
_cell_length_b 27.351504
_cell_length_c 9.216993
_cell_angle_alpha 90.000000
_cell_angle_beta 32.092434
_cell_angle_gamma 90.000000
_cell_volume 2483.190126
_symmetry_space_group_name_H-M "C 2/M"
_symmetry_group_IT_number 12
_symmetry_cell_setting 'monoclinic'
loop_
_space_group_symop_operation_xyz
x,y,z
-x,y,-z
-x,-y,-z
x,-y,z
1/2+x,1/2+y,z
1/2-x,1/2+y,-z
1/2-x,1/2-y,-z
1/2+x,1/2-y,z
loop_
_atom_site_type_symbol
_atom_site_label
_atom_site_fract_x
_atom_site_fract_y
_atom_site_fract_z
Si Si1 0.603571 0.394632 0.717126
Si Si2 0.131102 0.442056 0.860695
Si Si3 0.548221 0.056003 0.580913
Si Si4 0.900191 0.737712 0.307058
Si Si5 0.271413 0.849440 0.677493
Si Si6 0.468986 0.324201 0.724864
O O1 0.732479 0.422013 0.436206
O O2 0.662590 0.354840 0.731028
O O3 0.532313 0.371226 0.699032
O O4 0.500000 0.423141 0.000000
O O5 0.135447 0.500000 0.835863
O O6 0.000000 0.422110 0.000000
O O7 0.088239 0.431432 0.097136
O O8 0.500000 0.055138 0.500000
O O9 0.662150 0.097282 0.410360
O O10 0.591081 0.000000 0.550222
O O11 0.750000 0.750000 0.500000
O O12 0.882700 0.688268 0.429779
O O13 0.960692 0.778741 0.311823
O O14 0.000000 0.732045 0.000000
O O15 0.189141 0.828288 0.956025
O O16 0.500000 0.323416 0.500000
#
# Coordination Sequence:
#
# PCOD9199827 Si02
#       6
#     8   8   8   8   8   8
#     4  10  21  39  61  86 122 168 206 254 313 378
#     4  10  20  36  61  93 120 155 211 264 310 371
#     4  10  23  41  63  95 134 166 211 276 327 377
#     4  12  23  44  68  94 130 173 212 262 322 386
#     4  11  23  41  67  93 125 175 216 255 328 386
#     4  11  25  43  62  92 132 165 212 270 312 382
#
# _framework density 19.329975000000001
#
# number of rings (size 3 to 8) (size 9 to 14) (size 15 to 20)
#    0.000    1.333    5.000    0.500    4.667    1.667 
#    0.000    2.500    0.000    1.000    0.000    0.000 
#    0.000    0.000    0.000    0.000    0.000    0.000 
#
# Total GULP energy -133784.105717 kJ/mol
# GULP energy per Si atom -5574.337738 kJ/mol
# Density = 1.928598 g / cm^3
# Si number density = 19.329975 Si / 1000 Ang^3
#
#
#
# Elastic Constant Matrix: (Units=GPa)
#
#
# Indices 1 2 3 4 5 6 
#
# 1 85.6527 32.6364 70.7171 0.0000 31.9096 0.0000
# 2 32.6364 77.8154 61.9781 0.0000 3.4624 0.0000
# 3 70.7171 61.9781 212.1062 0.0000 30.9354 0.0000
# 4 0.0000 0.0000 0.0000 46.6397 0.0000 -13.8485
# 5 31.9096 3.4624 30.9354 0.0000 42.3924 0.0000
# 6 0.0000 0.0000 0.0000 -13.8485 0.0000 34.0483
#
#
#
# Elastic Compliance Matrix: (Units=1/GPa)
#
#
# Indices 1 2 3 4 5 6 
#
# 1 0.021803 -0.005610 -0.003697 0.000000 -0.013256 0.000000
# 2 -0.005610 0.018426 -0.004376 0.000000 0.005911 0.000000
# 3 -0.003697 -0.004376 0.007574 0.000000 -0.002387 0.000000
# 4 0.000000 0.000000 0.000000 0.024386 0.000000 0.009919
# 5 -0.013256 0.005911 -0.002387 0.000000 0.034826 0.000000
# 6 0.000000 0.000000 0.000000 0.009919 0.000000 0.033404
#
#
# Mechanical properties :
#
#
# Convention : Reuss Voigt Hill
#
# Bulk Modulus (GPa) = 48.92915 78.47081 63.69998
# Shear Modulus (GPa) = 28.63724 38.63226 33.63475
#
# Velocity S-wave (km/s) = 3.85319 4.47538 4.17589
# Velocity P-wave (km/s) = 6.72039 8.20908 7.50175
#
# Compressibility (1/GPa) = 0.02043771
#
# Stress axis : x y z
#
# Youngs Moduli (GPa) = 45.86484 54.27063 132.03346
#
# Poissons Ratio (x) = 0.30448 0.48807
# Poissons Ratio (y) = 0.25732 0.57775
# Poissons Ratio (z) = 0.16954 0.23748
#
# Static dielectric constant tensor:
#      x y z
#    x 1.740610 0.000000 0.037940 
#    y 0.000000 1.709480 0.000000 
#    z 0.037940 0.000000 1.742330 
# 
# From -- ./inp_files/80614.got.cif
#   From: 2010.05.17/outbox.cif.g08.bks.cpg/sg12_41_cif.got.tgz:80614.got - 2010.06.03 13:09:07.
