data_PCOD9199418
_publ_section_title
;
Structure prediction by ZEFSAII (Michael W. Deem and Ramdas Pophale) SiO2 
 PCOD9199418
Probable space group: C 2/M
;
_chemical_formula_sum "Si O2"
_cell_formula_units_Z 40
_cell_length_a 13.762878
_cell_length_b 7.648939
_cell_length_c 15.043851
_cell_angle_alpha 90.000000
_cell_angle_beta 88.897614
_cell_angle_gamma 90.000000
_cell_volume 1583.394349
_symmetry_space_group_name_H-M "C 2/M"
_symmetry_group_IT_number 12
_symmetry_cell_setting 'monoclinic'
loop_
_space_group_symop_operation_xyz
x,y,z
-x,y,-z
-x,-y,-z
x,-y,z
1/2+x,1/2+y,z
1/2-x,1/2+y,-z
1/2-x,1/2-y,-z
1/2+x,1/2-y,z
loop_
_atom_site_type_symbol
_atom_site_label
_atom_site_fract_x
_atom_site_fract_y
_atom_site_fract_z
Si Si1 0.653381 0.297117 0.884052
Si Si2 0.876460 0.213983 0.925398
Si Si3 0.438745 0.700648 0.735192
Si Si4 0.066120 0.304174 0.574492
Si Si5 0.777701 0.204984 0.299343
O O1 0.623663 0.500000 0.880619
O O2 0.768531 0.283119 0.905265
O O3 0.654605 0.227232 0.783643
O O4 0.603044 0.225701 0.974209
O O5 0.940536 0.260820 0.838232
O O6 0.873096 0.000000 0.925985
O O7 0.473931 0.500000 0.730180
O O8 0.497002 0.806597 0.661642
O O9 0.325892 0.704416 0.707507
O O10 0.089355 0.500000 0.542708
O O11 0.165702 0.224758 0.609497
O O12 0.000000 0.216134 0.500000
O O13 0.760585 0.000000 0.283286
#
# Coordination Sequence:
#
# PCOD9199418 Si02
#       5
#     8   8   8   8   8
#     4   8  14  26  47  77 111 145 179 214 257 313
#     4   8  14  26  47  77 111 145 179 214 257 313
#     4  10  20  36  60  87 115 148 184 225 274 328
#     4  11  25  43  60  79 106 142 187 239 288 333
#     4  10  20  36  60  87 115 148 184 225 274 328
#
# _framework density 25.262187000000001
#
# number of rings (size 3 to 8) (size 9 to 14) (size 15 to 20)
#    0.000    2.600    0.000    1.800    0.000    4.000 
#    0.000    1.000    0.000    6.000    0.000    0.000 
#    0.000    0.000    0.000    0.000    0.000    0.000 
#
# Total GULP energy -111718.559276 kJ/mol
# GULP energy per Si atom -5585.927964 kJ/mol
# Density = 2.520469 g / cm^3
# Si number density = 25.262187 Si / 1000 Ang^3
#
#
#
# Elastic Constant Matrix: (Units=GPa)
#
#
# Indices 1 2 3 4 5 6 
#
# 1 69.4589 -0.3900 21.0177 0.0000 15.2040 0.0000
# 2 -0.3900 66.0880 1.6746 0.0000 5.3236 0.0000
# 3 21.0177 1.6746 100.6431 0.0000 46.3823 0.0000
# 4 0.0000 0.0000 0.0000 8.3789 0.0000 -11.6256
# 5 15.2040 5.3236 46.3823 0.0000 48.0124 0.0000
# 6 0.0000 0.0000 0.0000 -11.6256 0.0000 -0.6986
#
#
#
# Elastic Compliance Matrix: (Units=1/GPa)
#
#
# Indices 1 2 3 4 5 6 
#
# 1 0.015654 0.000403 -0.001750 0.000000 -0.003312 0.000000
# 2 0.000403 0.015328 0.000906 0.000000 -0.002703 0.000000
# 3 -0.001750 0.000906 0.018164 0.000000 -0.017094 0.000000
# 4 0.000000 0.000000 0.000000 0.004954 0.000000 -0.082446
# 5 -0.003312 -0.002703 -0.017094 0.000000 0.038690 0.000000
# 6 0.000000 0.000000 0.000000 -0.082446 0.000000 -0.059421
#
#
# Mechanical properties :
#
#
# Convention : Reuss Voigt Hill
#
# Bulk Modulus (GPa) = 20.71803 31.19939 25.95871
# Shear Modulus (GPa) = 99.32759 25.39770 62.36265
#
# Velocity S-wave (km/s) = 6.27726 3.17419 4.97391
# Velocity P-wave (km/s) = 7.79472 5.08045 6.57909
#
# Compressibility (1/GPa) = 0.04826713
#
# Stress axis : x y z
#
# Youngs Moduli (GPa) = 63.88326 65.23798 55.05273
#
# Poissons Ratio (x) = -0.02632 0.09632
# Poissons Ratio (y) = -0.02577 -0.04990
# Poissons Ratio (z) = 0.11177 -0.05913
#
# Static dielectric constant tensor:
#      x y z
#    x 2.032130 0.000000 0.018270 
#    y 0.000000 1.945530 0.000000 
#    z 0.018270 0.000000 2.026820 
# 
# From -- ./inp_files/194608.got.cif
#   From: 2010.05.17/outbox.cif.g08.bks.cpg/sg12_98_cif.got.tgz:194608.got - 2010.06.03 13:09:07.
