data_PCOD9199986
_publ_section_title
;
Structure prediction by ZEFSAII (Michael W. Deem and Ramdas Pophale) SiO2 
 PCOD9199986
Probable space group: C 2/M
;
_chemical_formula_sum "Si O2"
_cell_formula_units_Z 56
_cell_length_a 11.016456
_cell_length_b 16.627734
_cell_length_c 18.806371
_cell_angle_alpha 90.000000
_cell_angle_beta 45.896904
_cell_angle_gamma 90.000000
_cell_volume 2473.762833
_symmetry_space_group_name_H-M "C 2/M"
_symmetry_group_IT_number 12
_symmetry_cell_setting 'monoclinic'
loop_
_space_group_symop_operation_xyz
x,y,z
-x,y,-z
-x,-y,-z
x,-y,z
1/2+x,1/2+y,z
1/2-x,1/2+y,-z
1/2-x,1/2-y,-z
1/2+x,1/2-y,z
loop_
_atom_site_type_symbol
_atom_site_label
_atom_site_fract_x
_atom_site_fract_y
_atom_site_fract_z
Si Si1 0.160441 0.909357 0.380733
Si Si2 0.080122 0.836079 0.112516
Si Si3 0.353705 0.189975 0.404628
Si Si4 0.467834 0.332416 0.708476
Si Si5 0.059356 0.000000 0.057661
Si Si6 0.464333 0.000000 0.928925
Si Si7 0.467204 0.825881 0.928937
Si Si8 0.323203 0.906290 0.545525
O O1 0.275224 0.836629 0.362230
O O2 0.000000 0.908270 0.500000
O O3 0.096715 0.888030 0.328209
O O4 0.231501 0.000000 0.353230
O O5 0.980451 0.755091 0.132621
O O6 0.117411 0.840358 0.181030
O O7 0.995610 0.918067 0.120311
O O8 0.264311 0.831815 0.000689
O O9 0.250000 0.250000 0.500000
O O10 0.522304 0.240014 0.321240
O O11 0.342017 0.107766 0.453688
O O12 0.662161 0.360407 0.641386
O O13 0.263756 0.000000 0.990381
O O14 0.000000 0.000000 0.000000
O O15 0.534429 0.086880 0.876294
O O16 0.500000 0.000000 0.000000
O O17 0.500000 0.816603 0.000000
O O18 0.500000 0.871256 0.500000
O O19 0.309847 0.000000 0.568342
#
# Coordination Sequence:
#
# PCOD9199986 Si02
#       8
#     8   8   8   8   4   4   8   8
#     4  11  21  37  61  87 114 159 211 259 311 375
#     4  10  22  37  60  93 126 156 209 256 318 373
#     4  10  21  34  57  83 119 155 202 249 316 365
#     4  11  24  36  62  92 122 158 211 267 305 369
#     4  10  20  36  62  94 122 159 209 259 317 382
#     4   8  16  34  64  90 116 161 209 239 309 390
#     4   9  18  38  64  88 120 167 199 249 317 388
#     4  10  21  37  60  80 115 161 204 246 314 378
#
# _framework density 22.637575999999999
#
# number of rings (size 3 to 8) (size 9 to 14) (size 15 to 20)
#    0.000    2.000    2.857    1.286    6.000    1.143 
#    0.000    0.000    6.286    0.000    0.000    0.000 
#    0.000    0.000    0.000    0.000    0.000    0.000 
#
# Total GULP energy -156130.315528 kJ/mol
# GULP energy per Si atom -5576.082697 kJ/mol
# Density = 2.258605 g / cm^3
# Si number density = 22.637576 Si / 1000 Ang^3
#
#
#
# Elastic Constant Matrix: (Units=GPa)
#
#
# Indices 1 2 3 4 5 6 
#
# 1 75.5898 26.3399 9.8827 -0.0001 10.8434 0.0000
# 2 26.3399 168.7123 29.3211 -0.0001 18.8160 0.0001
# 3 9.8827 29.3211 56.1072 -0.0003 8.3834 0.0001
# 4 -0.0001 -0.0001 -0.0003 13.0251 0.0002 8.5509
# 5 10.8434 18.8160 8.3834 0.0002 36.8593 -0.0001
# 6 0.0000 0.0001 0.0001 8.5509 -0.0001 30.3197
#
#
#
# Elastic Compliance Matrix: (Units=1/GPa)
#
#
# Indices 1 2 3 4 5 6 
#
# 1 0.014422 -0.001699 -0.001189 0.000000 -0.003105 0.000000
# 2 -0.001699 0.006978 -0.002992 0.000000 -0.002382 0.000000
# 3 -0.001189 -0.002992 0.019995 0.000001 -0.002671 0.000000
# 4 0.000000 0.000000 0.000001 0.094219 -0.000001 -0.026572
# 5 -0.003105 -0.002382 -0.002671 -0.000001 0.029867 0.000000
# 6 0.000000 0.000000 0.000000 -0.026572 0.000000 0.040476
#
#
# Mechanical properties :
#
#
# Convention : Reuss Voigt Hill
#
# Bulk Modulus (GPa) = 33.74135 47.94407 40.84271
# Shear Modulus (GPa) = 21.96899 31.69854 26.83376
#
# Velocity S-wave (km/s) = 3.11861 3.74607 3.44665
# Velocity P-wave (km/s) = 5.28252 6.31947 5.82412
#
# Compressibility (1/GPa) = 0.02963722
#
# Stress axis : x y z
#
# Youngs Moduli (GPa) = 69.33814 143.30693 50.01297
#
# Poissons Ratio (x) = 0.24344 0.05944
# Poissons Ratio (y) = 0.11779 0.14962
# Poissons Ratio (z) = 0.08241 0.42871
#
# Static dielectric constant tensor:
#      x y z
#    x 1.291720 0.000000 0.518400 
#    y 0.000000 1.897850 0.000000 
#    z 0.518400 0.000000 1.431810 
# 
# From -- ./inp_files/305962.got.cif
#   From: 2010.05.17/outbox.cif.g08.bks.cpg/sg12_153_cif.got.tgz:305962.got - 2010.06.03 13:09:07.
