data_PCOD9199770
_publ_section_title
;
Structure prediction by ZEFSAII (Michael W. Deem and Ramdas Pophale) SiO2 
 PCOD9199770
Probable space group: C 2/M
;
_chemical_formula_sum "Si O2"
_cell_formula_units_Z 36
_cell_length_a 14.959271
_cell_length_b 10.030278
_cell_length_c 11.562712
_cell_angle_alpha 90.000000
_cell_angle_beta 105.042214
_cell_angle_gamma 90.000000
_cell_volume 1675.486847
_symmetry_space_group_name_H-M "C 2/M"
_symmetry_group_IT_number 12
_symmetry_cell_setting 'monoclinic'
loop_
_space_group_symop_operation_xyz
x,y,z
-x,y,-z
-x,-y,-z
x,-y,z
1/2+x,1/2+y,z
1/2-x,1/2+y,-z
1/2-x,1/2-y,-z
1/2+x,1/2-y,z
loop_
_atom_site_type_symbol
_atom_site_label
_atom_site_fract_x
_atom_site_fract_y
_atom_site_fract_z
Si Si1 0.483504 0.851634 0.239804
Si Si2 0.321188 0.847111 0.830740
Si Si3 0.597791 0.653259 0.962531
Si Si4 0.500000 0.749137 0.500000
Si Si5 0.296999 0.650671 0.426377
O O1 0.585079 0.841945 0.215401
O O2 0.423479 0.736151 0.160217
O O3 0.493190 0.832789 0.379793
O O4 0.447163 0.000000 0.200706
O O5 0.238555 0.818527 0.714397
O O6 0.314393 0.000000 0.871436
O O7 0.333278 0.738866 0.934685
O O8 0.625073 0.500000 0.951982
O O9 0.500000 0.650936 0.000000
O O10 0.406650 0.663904 0.473771
O O11 0.266706 0.500000 0.441650
O O12 0.250000 0.750000 0.500000
#
# Coordination Sequence:
#
# PCOD9199770 Si02
#       5
#     8   8   8   4   8
#     4  10  20  36  61  90 125 167 210 256 310 377
#     4   9  18  37  61  87 120 163 210 255 309 373
#     4   9  18  33  57  90 123 158 205 261 317 369
#     4  12  24  40  64  98 130 166 212 264 314 370
#     4  11  24  42  64  93 129 170 212 260 315 375
#
# _framework density 21.486291000000001
#
# number of rings (size 3 to 8) (size 9 to 14) (size 15 to 20)
#    0.000    2.000    2.222    1.333    0.000    6.222 
#    0.000    1.111    0.000    0.000    0.000    0.000 
#    0.000    0.000    0.000    0.000    0.000    0.000 
#
# Total GULP energy -100645.297200 kJ/mol
# GULP energy per Si atom -5591.405400 kJ/mol
# Density = 2.143739 g / cm^3
# Si number density = 21.486291 Si / 1000 Ang^3
#
#
#
# Elastic Constant Matrix: (Units=GPa)
#
#
# Indices 1 2 3 4 5 6 
#
# 1 85.6848 47.7974 46.2015 0.0000 1.8369 0.0000
# 2 47.7974 164.9385 112.9043 0.0000 13.0142 0.0000
# 3 46.2015 112.9043 152.0585 0.0000 14.7614 0.0000
# 4 0.0000 0.0000 0.0000 34.8608 0.0000 11.0782
# 5 1.8369 13.0142 14.7614 0.0000 38.7826 0.0000
# 6 0.0000 0.0000 0.0000 11.0782 0.0000 2.4366
#
#
#
# Elastic Compliance Matrix: (Units=1/GPa)
#
#
# Indices 1 2 3 4 5 6 
#
# 1 0.014459 -0.002435 -0.002698 0.000000 0.001159 0.000000
# 2 -0.002435 0.012757 -0.008647 0.000000 -0.000874 0.000000
# 3 -0.002698 -0.008647 0.014042 0.000000 -0.002315 0.000000
# 4 0.000000 0.000000 0.000000 -0.064491 0.000000 0.293206
# 5 0.001159 -0.000874 -0.002315 0.000000 0.026904 0.000000
# 6 0.000000 0.000000 0.000000 0.293206 0.000000 -0.922661
#
#
# Mechanical properties :
#
#
# Convention : Reuss Voigt Hill
#
# Bulk Modulus (GPa) = 73.00772 90.72091 81.86432
# Shear Modulus (GPa) = -5.63784 28.26790 11.31503
#
# Velocity S-wave (km/s) = -1.62161 3.63109 2.29730
# Velocity P-wave (km/s) = 5.52688 7.73913 6.72460
#
# Compressibility (1/GPa) = 0.01369718
#
# Stress axis : x y z
#
# Youngs Moduli (GPa) = 69.16270 78.39054 71.21727
#
# Poissons Ratio (x) = 0.19085 0.19214
# Poissons Ratio (y) = 0.16839 0.61584
# Poissons Ratio (z) = 0.18659 0.67787
#
# Static dielectric constant tensor:
#      x y z
#    x 1.800920 0.000000 -0.007120 
#    y 0.000000 1.747650 0.000000 
#    z -0.007120 0.000000 1.743410 
# 
# From -- ./inp_files/152080.got.cif
#   From: 2010.05.17/outbox.cif.g08.bks.cpg/sg12_77_cif.got.tgz:152080.got - 2010.06.03 13:09:07.
