data_PCOD9199035
_publ_section_title
;
Structure prediction by ZEFSAII (Michael W. Deem and Ramdas Pophale) SiO2 
 PCOD9199035
Probable space group: C 2/M
;
_chemical_formula_sum "Si O2"
_cell_formula_units_Z 48
_cell_length_a 22.124747
_cell_length_b 13.560278
_cell_length_c 18.906387
_cell_angle_alpha 90.000000
_cell_angle_beta 153.218345
_cell_angle_gamma 90.000000
_cell_volume 2555.869439
_symmetry_space_group_name_H-M "C 2/M"
_symmetry_group_IT_number 12
_symmetry_cell_setting 'monoclinic'
loop_
_space_group_symop_operation_xyz
x,y,z
-x,y,-z
-x,-y,-z
x,-y,z
1/2+x,1/2+y,z
1/2-x,1/2+y,-z
1/2-x,1/2-y,-z
1/2+x,1/2-y,z
loop_
_atom_site_type_symbol
_atom_site_label
_atom_site_fract_x
_atom_site_fract_y
_atom_site_fract_z
Si Si1 0.008437 0.226845 0.672245
Si Si2 0.240879 0.885903 0.831237
Si Si3 0.845616 0.247967 0.818207
Si Si4 0.767603 0.674640 0.583048
Si Si5 0.959216 0.607331 0.181975
Si Si6 0.613589 0.110245 0.558717
O O1 0.122815 0.173026 0.747444
O O2 0.061210 0.293658 0.792718
O O3 0.888358 0.149789 0.564738
O O4 0.936779 0.310979 0.550593
O O5 0.281882 0.831985 0.801802
O O6 0.204096 0.000000 0.780358
O O7 0.367201 0.884366 0.016496
O O8 0.828224 0.279272 0.718354
O O9 0.754758 0.151053 0.734616
O O10 0.000000 0.234448 0.000000
O O11 0.750000 0.750000 0.500000
O O12 0.885041 0.604996 0.678009
O O13 0.925595 0.500000 0.180907
O O14 0.500000 0.109045 0.500000
O O15 0.628027 0.000000 0.544881
#
# Coordination Sequence:
#
# PCOD9199035 Si02
#       6
#     8   8   8   8   8   8
#     4  10  20  38  59  83 120 156 196 250 303 348
#     4  11  23  37  57  89 122 156 203 246 296 360
#     4  11  21  38  61  84 123 157 195 247 305 353
#     4   9  20  36  57  84 114 155 198 238 294 351
#     4  10  20  36  59  86 116 157 201 242 295 362
#     4  10  20  36  59  85 111 147 195 243 296 357
#
# _framework density 18.780301999999999
#
# number of rings (size 3 to 8) (size 9 to 14) (size 15 to 20)
#    0.000    1.833    3.333    1.000    0.000    2.000 
#    0.000    5.833    0.000    1.000    0.000    0.000 
#    0.000    0.000    0.000    0.000    0.000    0.000 
#
# Total GULP energy -133682.840751 kJ/mol
# GULP energy per Si atom -5570.118365 kJ/mol
# Density = 1.873756 g / cm^3
# Si number density = 18.780302 Si / 1000 Ang^3
#
#
#
# Elastic Constant Matrix: (Units=GPa)
#
#
# Indices 1 2 3 4 5 6 
#
# 1 88.0148 34.9838 42.3731 0.0000 7.4016 0.0000
# 2 34.9838 102.6252 39.6111 0.0000 12.3626 -0.0001
# 3 42.3731 39.6111 86.8860 -0.0002 1.7906 -0.0001
# 4 0.0000 0.0000 -0.0002 -53.7721 0.0000 51.6430
# 5 7.4016 12.3626 1.7906 0.0000 34.2826 -0.0001
# 6 0.0000 -0.0001 -0.0001 51.6430 -0.0001 -23.0548
#
#
#
# Elastic Compliance Matrix: (Units=1/GPa)
#
#
# Indices 1 2 3 4 5 6 
#
# 1 0.015660 -0.002614 -0.006402 0.000000 -0.002104 0.000000
# 2 -0.002614 0.012832 -0.004496 0.000000 -0.003828 0.000000
# 3 -0.006402 -0.004496 0.016637 0.000000 0.002135 0.000000
# 4 0.000000 0.000000 0.000000 0.016153 0.000000 0.036182
# 5 -0.002104 -0.003828 0.002135 0.000000 0.030893 0.000000
# 6 0.000000 0.000000 0.000000 0.036182 0.000000 0.037674
#
#
# Mechanical properties :
#
#
# Convention : Reuss Voigt Hill
#
# Bulk Modulus (GPa) = 55.23468 56.82912 56.03190
# Shear Modulus (GPa) = 30.69223 2.19500 16.44362
#
# Velocity S-wave (km/s) = 4.04701 1.08227 2.96223
# Velocity P-wave (km/s) = 7.16327 5.64689 6.44980
#
# Compressibility (1/GPa) = 0.01810457
#
# Stress axis : x y z
#
# Youngs Moduli (GPa) = 63.85815 77.93096 60.10532
#
# Poissons Ratio (x) = 0.20369 0.38480
# Poissons Ratio (y) = 0.16691 0.27026
# Poissons Ratio (z) = 0.40882 0.35041
#
# Static dielectric constant tensor:
#      x y z
#    x 1.682710 0.000000 0.008700 
#    y 0.000000 1.651180 0.000000 
#    z 0.008700 0.000000 1.660780 
# 
# From -- ./inp_files/284092.got.cif
#   From: 2010.05.17/outbox.cif.g08.bks.cpg/sg12_143_cif.got.tgz:284092.got - 2010.06.03 13:09:07.
