data_PCOD9199808
_publ_section_title
;
Structure prediction by ZEFSAII (Michael W. Deem and Ramdas Pophale) SiO2 
 PCOD9199808
Probable space group: C 2/M
;
_chemical_formula_sum "Si O2"
_cell_formula_units_Z 48
_cell_length_a 19.373814
_cell_length_b 11.561668
_cell_length_c 26.421087
_cell_angle_alpha 90.000000
_cell_angle_beta 21.017129
_cell_angle_gamma 90.000000
_cell_volume 2122.528573
_symmetry_space_group_name_H-M "C 2/M"
_symmetry_group_IT_number 12
_symmetry_cell_setting 'monoclinic'
loop_
_space_group_symop_operation_xyz
x,y,z
-x,y,-z
-x,-y,-z
x,-y,z
1/2+x,1/2+y,z
1/2-x,1/2+y,-z
1/2-x,1/2-y,-z
1/2+x,1/2-y,z
loop_
_atom_site_type_symbol
_atom_site_label
_atom_site_fract_x
_atom_site_fract_y
_atom_site_fract_z
Si Si1 0.006664 0.166917 0.053304
Si Si2 0.711005 0.636087 0.156496
Si Si3 0.621089 0.245780 0.683403
Si Si4 0.209946 0.377392 0.052015
Si Si5 0.028566 0.863440 0.389765
Si Si6 0.804890 0.319292 0.655638
O O1 0.808373 0.138593 0.217694
O O2 0.090839 0.298993 0.993311
O O3 0.165697 0.117250 0.982214
O O4 0.000000 0.128571 0.000000
O O5 0.726246 0.500000 0.138346
O O6 0.528243 0.688407 0.250755
O O7 0.658530 0.656994 0.251190
O O8 0.509929 0.133960 0.780136
O O9 0.663566 0.319756 0.704782
O O10 0.827553 0.206584 0.520843
O O11 0.240819 0.500000 0.002690
O O12 0.250000 0.250000 0.000000
O O13 0.133201 0.808296 0.366831
O O14 0.995326 0.000000 0.417388
O O15 0.000000 0.372620 0.500000
#
# Coordination Sequence:
#
# PCOD9199808 Si02
#       6
#     8   8   8   8   8   8
#     4  11  22  42  63  93 126 170 213 271 326 389
#     4  10  22  37  62  94 126 167 215 272 333 388
#     4  10  21  39  59  89 128 166 211 268 326 393
#     4  11  24  42  67  99 132 176 223 274 330 390
#     4  10  20  36  61  92 123 164 214 270 328 391
#     4  10  21  38  59  89 127 166 210 266 329 391
#
# _framework density 22.614536000000001
#
# number of rings (size 3 to 8) (size 9 to 14) (size 15 to 20)
#    0.000    1.667    3.333    1.000    0.000    7.667 
#    0.000    0.000    0.000    9.000    0.000    0.000 
#    0.000    0.000    0.000    0.000    0.000    0.000 
#
# Total GULP energy -133776.619252 kJ/mol
# GULP energy per Si atom -5574.025802 kJ/mol
# Density = 2.256306 g / cm^3
# Si number density = 22.614536 Si / 1000 Ang^3
#
#
#
# Elastic Constant Matrix: (Units=GPa)
#
#
# Indices 1 2 3 4 5 6 
#
# 1 125.2162 23.4724 23.0014 0.0127 7.9185 0.0030
# 2 23.4724 143.5135 18.5857 0.0052 6.3895 -0.0068
# 3 23.0014 18.5857 128.0451 -0.0079 21.3988 -0.0090
# 4 0.0127 0.0052 -0.0079 -10.4259 0.0027 10.2912
# 5 7.9185 6.3895 21.3988 0.0027 44.2763 -0.0070
# 6 0.0030 -0.0068 -0.0090 10.2912 -0.0070 -5.0064
#
#
#
# Elastic Compliance Matrix: (Units=1/GPa)
#
#
# Indices 1 2 3 4 5 6 
#
# 1 0.008483 -0.001195 -0.001225 -0.000020 -0.000753 -0.000031
# 2 -0.001195 0.007283 -0.000764 0.000006 -0.000468 0.000003
# 3 -0.001225 -0.000764 0.008796 0.000019 -0.003922 0.000029
# 4 -0.000020 0.000006 0.000019 0.093205 0.000018 0.191595
# 5 -0.000753 -0.000468 -0.003922 0.000018 0.024683 0.000010
# 6 -0.000031 0.000003 0.000029 0.191595 0.000010 0.194102
#
#
# Mechanical properties :
#
#
# Convention : Reuss Voigt Hill
#
# Bulk Modulus (GPa) = 54.96312 58.54376 56.75344
# Shear Modulus (GPa) = 14.32725 27.88316 21.10521
#
# Velocity S-wave (km/s) = 2.51976 3.51518 3.05824
# Velocity P-wave (km/s) = 5.72911 6.51300 6.13359
#
# Compressibility (1/GPa) = 0.01819402
#
# Stress axis : x y z
#
# Youngs Moduli (GPa) = 117.88561 137.30054 113.68726
#
# Poissons Ratio (x) = 0.16412 0.13921
# Poissons Ratio (y) = 0.14091 0.08689
# Poissons Ratio (z) = 0.14435 0.10493
#
# Static dielectric constant tensor:
#      x y z
#    x 1.834240 -0.000010 0.027770 
#    y -0.000010 1.890000 0.000020 
#    z 0.027770 0.000020 1.886540 
# 
# From -- ./inp_files/381168.got.cif
#   From: 2010.05.17/outbox.cif.g08.bks.cpg/sg12_191_cif.got.tgz:381168.got - 2010.06.03 13:09:07.
