data_PCOD9199579
_publ_section_title
;
Structure prediction by ZEFSAII (Michael W. Deem and Ramdas Pophale) SiO2 
 PCOD9199579
Probable space group: C 2/M
;
_chemical_formula_sum "Si O2"
_cell_formula_units_Z 40
_cell_length_a 23.520297
_cell_length_b 11.303067
_cell_length_c 25.240842
_cell_angle_alpha 90.000000
_cell_angle_beta 162.091912
_cell_angle_gamma 90.000000
_cell_volume 2063.361255
_symmetry_space_group_name_H-M "C 2/M"
_symmetry_group_IT_number 12
_symmetry_cell_setting 'monoclinic'
loop_
_space_group_symop_operation_xyz
x,y,z
-x,y,-z
-x,-y,-z
x,-y,z
1/2+x,1/2+y,z
1/2-x,1/2+y,-z
1/2-x,1/2-y,-z
1/2+x,1/2-y,z
loop_
_atom_site_type_symbol
_atom_site_label
_atom_site_fract_x
_atom_site_fract_y
_atom_site_fract_z
Si Si1 0.785793 0.706518 0.618480
Si Si2 0.873572 0.867954 0.940106
Si Si3 0.508949 0.368173 0.283909
Si Si4 0.604749 0.131327 0.972377
Si Si5 0.534388 0.136707 0.470732
O O1 0.629069 0.644400 0.444089
O O2 0.910290 0.778579 0.687053
O O3 0.681096 0.790489 0.567267
O O4 0.928592 0.628856 0.777923
O O5 0.660498 0.861155 0.732780
O O6 0.900766 0.000000 0.989474
O O7 0.915037 0.749637 0.009901
O O8 0.000000 0.866394 0.000000
O O9 0.533450 0.500000 0.284250
O O10 0.295028 0.350905 0.108643
O O11 0.619944 0.000000 0.012158
O O12 0.500000 0.181949 0.500000
O O13 0.595298 0.000000 0.529652
#
# Coordination Sequence:
#
# PCOD9199579 Si02
#       5
#     8   8   8   8   8
#     4  11  21  38  62  87 120 164 206 250 304 366
#     4  10  21  39  62  90 123 161 206 255 305 364
#     4  10  22  39  59  87 124 162 205 256 301 362
#     4  11  23  40  61  90 127 163 203 251 307 368
#     4  10  20  36  60  90 121 156 203 257 308 362
#
# _framework density 19.385843999999999
#
# number of rings (size 3 to 8) (size 9 to 14) (size 15 to 20)
#    0.000    1.600    2.000    3.000    0.000    3.600 
#    0.000    1.000    0.000    3.000    0.000    0.000 
#    0.000    0.000    0.000    0.000    0.000    0.000 
#
# Total GULP energy -111601.139247 kJ/mol
# GULP energy per Si atom -5580.056962 kJ/mol
# Density = 1.934172 g / cm^3
# Si number density = 19.385844 Si / 1000 Ang^3
#
#
#
# Elastic Constant Matrix: (Units=GPa)
#
#
# Indices 1 2 3 4 5 6 
#
# 1 65.4595 53.2118 23.0102 -0.0025 1.3352 -0.0033
# 2 53.2118 132.1660 34.8589 -0.0195 5.4806 -0.0212
# 3 23.0102 34.8589 106.2806 -0.0218 10.9689 -0.0222
# 4 -0.0025 -0.0195 -0.0218 -6.6717 -0.0009 -25.6976
# 5 1.3352 5.4806 10.9689 -0.0009 26.2802 -0.0006
# 6 -0.0033 -0.0212 -0.0222 -25.6976 -0.0006 -30.4350
#
#
#
# Elastic Compliance Matrix: (Units=1/GPa)
#
#
# Indices 1 2 3 4 5 6 
#
# 1 0.023211 -0.008804 -0.002305 -0.000002 0.001619 0.000007
# 2 -0.008804 0.011632 -0.001782 0.000001 -0.001235 -0.000007
# 3 -0.002305 -0.001782 0.010912 0.000002 -0.004066 -0.000008
# 4 -0.000002 0.000001 0.000002 0.066551 0.000000 -0.056192
# 5 0.001619 -0.001235 -0.004066 0.000000 0.039924 0.000003
# 6 0.000007 -0.000007 -0.000008 -0.056192 0.000003 0.014589
#
#
# Mechanical properties :
#
#
# Convention : Reuss Voigt Hill
#
# Bulk Modulus (GPa) = 50.06533 58.45198 54.25866
# Shear Modulus (GPa) = 25.09317 10.68971 17.89144
#
# Velocity S-wave (km/s) = 3.60169 2.35078 3.04124
# Velocity P-wave (km/s) = 6.57100 6.13071 6.35467
#
# Compressibility (1/GPa) = 0.01997390
#
# Stress axis : x y z
#
# Youngs Moduli (GPa) = 43.08374 85.96946 91.64253
#
# Poissons Ratio (x) = 0.75689 0.21120
# Poissons Ratio (y) = 0.37932 0.16327
# Poissons Ratio (z) = 0.09929 0.15316
#
# Static dielectric constant tensor:
#      x y z
#    x 1.645890 0.000000 -0.029530 
#    y 0.000000 1.696960 0.000000 
#    z -0.029530 0.000000 1.677760 
# 
# From -- ./inp_files/83645.got.cif
#   From: 2010.05.17/outbox.cif.g08.bks.cpg/sg12_42_cif.got.tgz:83645.got - 2010.06.03 13:09:07.
