data_PCOD9199274
_publ_section_title
;
Structure prediction by ZEFSAII (Michael W. Deem and Ramdas Pophale) SiO2 
 PCOD9199274
Probable space group: C 2/M
;
_chemical_formula_sum "Si O2"
_cell_formula_units_Z 64
_cell_length_a 16.794419
_cell_length_b 15.240501
_cell_length_c 13.625330
_cell_angle_alpha 90.000000
_cell_angle_beta 56.617630
_cell_angle_gamma 90.000000
_cell_volume 2912.102671
_symmetry_space_group_name_H-M "C 2/M"
_symmetry_group_IT_number 12
_symmetry_cell_setting 'monoclinic'
loop_
_space_group_symop_operation_xyz
x,y,z
-x,y,-z
-x,-y,-z
x,-y,z
1/2+x,1/2+y,z
1/2-x,1/2+y,-z
1/2-x,1/2-y,-z
1/2+x,1/2-y,z
loop_
_atom_site_type_symbol
_atom_site_label
_atom_site_fract_x
_atom_site_fract_y
_atom_site_fract_z
Si Si1 0.356549 0.399773 0.842303
Si Si2 0.387087 0.094383 0.603442
Si Si3 0.545739 0.901463 0.233425
Si Si4 0.386515 0.598416 0.055472
Si Si5 0.145640 0.742231 0.799070
Si Si6 0.632663 0.102552 0.959620
Si Si7 0.309362 0.267569 0.557753
Si Si8 0.033219 0.782469 0.684057
O O1 0.380136 0.500000 0.795462
O O2 0.246673 0.382881 0.891346
O O3 0.431573 0.329491 0.750658
O O4 0.368288 0.396969 0.952033
O O5 0.500000 0.096337 0.500000
O O6 0.380613 0.097491 0.725995
O O7 0.339051 0.176224 0.586246
O O8 0.349738 0.000000 0.594283
O O9 0.476706 0.823044 0.310790
O O10 0.503915 0.000000 0.258012
O O11 0.590412 0.881341 0.097094
O O12 0.360725 0.500000 0.107224
O O13 0.331702 0.677603 0.144071
O O14 0.500000 0.610127 0.000000
O O15 0.097598 0.667595 0.898308
O O16 0.234968 0.694753 0.686006
O O17 0.084890 0.790584 0.754530
O O18 0.615533 0.000000 0.947767
O O19 0.250000 0.250000 0.500000
O O20 0.403446 0.313103 0.451072
#
# Coordination Sequence:
#
# PCOD9199274 Si02
#       8
#     8   8   8   8   8   8   8   8
#     4  10  22  40  62  88 122 160 203 253 307 364
#     4  10  20  38  64  90 117 155 202 255 311 362
#     4  10  22  38  62  96 125 154 199 255 318 373
#     4  10  20  36  59  90 122 152 195 252 306 366
#     4  11  24  39  61  89 125 170 209 244 314 371
#     4  10  24  42  60  90 130 164 203 256 308 372
#     4  10  24  41  56  89 127 161 204 255 304 365
#     4  11  22  40  63  87 122 167 209 258 303 363
#
# _framework density 21.977247999999999
#
# number of rings (size 3 to 8) (size 9 to 14) (size 15 to 20)
#    0.000    1.750    2.500    0.750    3.500    2.000 
#    0.000    5.625    0.000    1.500    0.000    0.000 
#    0.000    0.000    0.000    0.000    0.000    0.000 
#
# Total GULP energy -178657.322028 kJ/mol
# GULP energy per Si atom -5583.041313 kJ/mol
# Density = 2.192723 g / cm^3
# Si number density = 21.977248 Si / 1000 Ang^3
#
#
#
# Elastic Constant Matrix: (Units=GPa)
#
#
# Indices 1 2 3 4 5 6 
#
# 1 53.6654 8.1831 22.1432 0.0000 -2.3735 0.0000
# 2 8.1831 46.4518 41.2489 0.0000 5.8505 0.0000
# 3 22.1432 41.2489 132.7784 0.0000 2.4915 0.0000
# 4 0.0000 0.0000 0.0000 -14.4965 0.0000 -3.6167
# 5 -2.3735 5.8505 2.4915 0.0000 29.7158 0.0000
# 6 0.0000 0.0000 0.0000 -3.6167 0.0000 8.1846
#
#
#
# Elastic Compliance Matrix: (Units=1/GPa)
#
#
# Indices 1 2 3 4 5 6 
#
# 1 0.020156 -0.001096 -0.003060 0.000000 0.002082 0.000000
# 2 -0.001096 0.030576 -0.009216 0.000000 -0.005335 0.000000
# 3 -0.003060 -0.009216 0.010892 0.000000 0.000657 0.000000
# 4 0.000000 0.000000 0.000000 -0.062132 0.000000 -0.027456
# 5 0.002082 -0.005335 0.000657 0.000000 0.034814 0.000000
# 6 0.000000 0.000000 0.000000 -0.027456 0.000000 0.110049
#
#
# Mechanical properties :
#
#
# Convention : Reuss Voigt Hill
#
# Bulk Modulus (GPa) = 28.66879 41.78288 35.22583
# Shear Modulus (GPa) = 27.36348 15.43546 21.39947
#
# Velocity S-wave (km/s) = 3.53240 2.65304 3.12382
# Velocity P-wave (km/s) = 5.45071 5.33273 5.39204
#
# Compressibility (1/GPa) = 0.03488114
#
# Stress axis : x y z
#
# Youngs Moduli (GPa) = 49.61357 32.70495 91.80726
#
# Poissons Ratio (x) = 0.03583 0.28093
# Poissons Ratio (y) = 0.05436 0.84610
# Poissons Ratio (z) = 0.15182 0.30141
#
# Static dielectric constant tensor:
#      x y z
#    x 1.871770 0.000000 -0.041520 
#    y 0.000000 1.799670 0.000000 
#    z -0.041520 0.000000 1.864280 
# 
# From -- ./inp_files/225715.got.cif
#   From: 2010.05.17/outbox.cif.g08.bks.cpg/sg12_113_cif.got.tgz:225715.got - 2010.06.03 13:09:07.
