data_PCOD9199250
_publ_section_title
;
Structure prediction by ZEFSAII (Michael W. Deem and Ramdas Pophale) SiO2 
 PCOD9199250
Probable space group: C 2/M
;
_chemical_formula_sum "Si O2"
_cell_formula_units_Z 64
_cell_length_a 9.312618
_cell_length_b 19.318774
_cell_length_c 18.628508
_cell_angle_alpha 90.000000
_cell_angle_beta 91.630866
_cell_angle_gamma 90.000000
_cell_volume 3350.066803
_symmetry_space_group_name_H-M "C 2/M"
_symmetry_group_IT_number 12
_symmetry_cell_setting 'monoclinic'
loop_
_space_group_symop_operation_xyz
x,y,z
-x,y,-z
-x,-y,-z
x,-y,z
1/2+x,1/2+y,z
1/2-x,1/2+y,-z
1/2-x,1/2-y,-z
1/2+x,1/2-y,z
loop_
_atom_site_type_symbol
_atom_site_label
_atom_site_fract_x
_atom_site_fract_y
_atom_site_fract_z
Si Si1 0.237824 0.699863 0.247739
Si Si2 0.894872 0.710429 0.912050
Si Si3 0.711567 0.163909 0.950176
Si Si4 0.073802 0.917519 0.424547
Si Si5 0.910952 0.416629 0.432035
Si Si6 0.963651 0.582281 0.718092
Si Si7 0.060065 0.825764 0.284983
Si Si8 0.744747 0.919346 0.814519
O O1 0.174391 0.708788 0.166971
O O2 0.178821 0.625478 0.270971
O O3 0.166104 0.760214 0.294539
O O4 0.408669 0.701657 0.253182
O O5 0.843889 0.783414 0.944326
O O6 0.065441 0.699490 0.916703
O O7 0.826157 0.654469 0.966613
O O8 0.742616 0.100525 0.898061
O O9 0.243032 0.904447 0.436482
O O10 0.030800 0.869415 0.356976
O O11 0.000000 0.903162 0.500000
O O12 0.052413 0.000000 0.408127
O O13 0.928982 0.500000 0.431959
O O14 0.000000 0.388028 0.500000
O O15 0.969152 0.393452 0.356265
O O16 0.937352 0.500000 0.715855
O O17 0.086656 0.595544 0.779201
O O18 0.140664 0.874696 0.228471
O O19 0.773252 0.000000 0.803160
#
# Coordination Sequence:
#
# PCOD9199250 Si02
#       8
#     8   8   8   8   8   8   8   8
#     4  12  24  40  62  90 124 158 202 257 300 363
#     4  10  20  36  59  89 118 154 202 248 299 362
#     4  10  20  36  60  89 116 156 202 249 304 362
#     4  10  22  41  63  90 125 162 203 249 304 367
#     4   9  18  34  60  89 117 153 196 242 293 360
#     4  10  21  38  62  90 123 157 199 251 305 366
#     4  12  25  40  63  90 120 165 208 252 306 363
#     4  11  21  39  62  88 122 162 205 254 308 362
#
# _framework density 19.104095999999998
#
# number of rings (size 3 to 8) (size 9 to 14) (size 15 to 20)
#    0.000    1.500    3.750    1.875    1.750    1.000 
#    0.000    3.125    0.000    0.750    0.000    0.000 
#    0.000    0.000    0.000    0.000    0.000    0.000 
#
# Total GULP energy -178587.735534 kJ/mol
# GULP energy per Si atom -5580.866735 kJ/mol
# Density = 1.906061 g / cm^3
# Si number density = 19.104096 Si / 1000 Ang^3
#
#
#
# Elastic Constant Matrix: (Units=GPa)
#
#
# Indices 1 2 3 4 5 6 
#
# 1 68.9166 30.6324 -11.2080 0.0000 -2.4830 0.0000
# 2 30.6324 63.1194 17.0590 0.0000 -4.7485 0.0000
# 3 -11.2080 17.0590 74.2533 0.0000 2.6816 0.0000
# 4 0.0000 0.0000 0.0000 29.8283 0.0000 -4.6577
# 5 -2.4830 -4.7485 2.6816 0.0000 25.1580 0.0000
# 6 0.0000 0.0000 0.0000 -4.6577 0.0000 27.6995
#
#
#
# Elastic Compliance Matrix: (Units=1/GPa)
#
#
# Indices 1 2 3 4 5 6 
#
# 1 0.020592 -0.011621 0.005806 0.000000 -0.000780 0.000000
# 2 -0.011621 0.023785 -0.007368 0.000000 0.004128 0.000000
# 3 0.005806 -0.007368 0.016128 0.000000 -0.002537 0.000000
# 4 0.000000 0.000000 0.000000 0.034429 0.000000 0.005789
# 5 -0.000780 0.004128 -0.002537 0.000000 0.040721 0.000000
# 6 0.000000 0.000000 0.000000 0.005789 0.000000 0.037075
#
#
# Mechanical properties :
#
#
# Convention : Reuss Voigt Hill
#
# Bulk Modulus (GPa) = 29.29162 31.02845 30.16004
# Shear Modulus (GPa) = 23.75572 27.85756 25.80664
#
# Velocity S-wave (km/s) = 3.53014 3.82278 3.67937
# Velocity P-wave (km/s) = 5.65524 5.98012 5.81995
#
# Compressibility (1/GPa) = 0.03413945
#
# Stress axis : x y z
#
# Youngs Moduli (GPa) = 48.56249 42.04384 62.00368
#
# Poissons Ratio (x) = 0.48861 -0.36001
# Poissons Ratio (y) = 0.56437 0.45682
# Poissons Ratio (z) = -0.28197 0.30976
#
# Static dielectric constant tensor:
#      x y z
#    x 1.652060 0.000000 -0.008840 
#    y 0.000000 1.665060 0.000000 
#    z -0.008840 0.000000 1.712520 
# 
# From -- ./inp_files/258118.got.cif
#   From: 2010.05.17/outbox.cif.g08.bks.cpg/sg12_130_cif.got.tgz:258118.got - 2010.06.03 13:09:07.
