data_PCOD9199519
_publ_section_title
;
Structure prediction by ZEFSAII (Michael W. Deem and Ramdas Pophale) SiO2 
 PCOD9199519
Probable space group: C 2/M
;
_chemical_formula_sum "Si O2"
_cell_formula_units_Z 40
_cell_length_a 7.535572
_cell_length_b 25.979752
_cell_length_c 12.169118
_cell_angle_alpha 90.000000
_cell_angle_beta 120.249845
_cell_angle_gamma 90.000000
_cell_volume 2057.984325
_symmetry_space_group_name_H-M "C 2/M"
_symmetry_group_IT_number 12
_symmetry_cell_setting 'monoclinic'
loop_
_space_group_symop_operation_xyz
x,y,z
-x,y,-z
-x,-y,-z
x,-y,z
1/2+x,1/2+y,z
1/2-x,1/2+y,-z
1/2-x,1/2-y,-z
1/2+x,1/2-y,z
loop_
_atom_site_type_symbol
_atom_site_label
_atom_site_fract_x
_atom_site_fract_y
_atom_site_fract_z
Si Si1 0.706243 0.902307 0.098494
Si Si2 0.491153 0.126809 0.740496
Si Si3 0.155288 0.057646 0.225921
Si Si4 0.278910 0.440609 0.491897
Si Si5 0.261679 0.693030 0.954706
O O1 0.667043 0.888311 0.212704
O O2 0.915586 0.930861 0.140357
O O3 0.500000 0.931895 0.000000
O O4 0.710831 0.849658 0.030386
O O5 0.700982 0.094044 0.800539
O O6 0.368329 0.105316 0.596376
O O7 0.592174 0.182029 0.805096
O O8 0.199343 0.063471 0.370146
O O9 0.201227 0.000000 0.207178
O O10 0.500000 0.436657 0.500000
O O11 0.203181 0.500000 0.444777
O O12 0.500000 0.684854 0.000000
O O13 0.250000 0.750000 0.000000
#
# Coordination Sequence:
#
# PCOD9199519 Si02
#       5
#     8   8   8   8   8
#     4  10  22  38  57  88 121 157 205 252 301 359
#     4  11  21  37  61  89 121 156 207 255 297 357
#     4  11  22  37  59  88 125 168 205 242 297 363
#     4  10  20  36  60  88 123 169 209 243 295 358
#     4  11  22  42  66  91 114 152 204 254 315 372
#
# _framework density 19.436495000000001
#
# number of rings (size 3 to 8) (size 9 to 14) (size 15 to 20)
#    0.000    1.400    4.000    3.000    0.000    2.800 
#    0.000   10.000    0.000    1.200    5.200    0.000 
#    0.000    0.000    0.000    0.000    0.000    0.000 
#
# Total GULP energy -111449.200281 kJ/mol
# GULP energy per Si atom -5572.460014 kJ/mol
# Density = 1.939226 g / cm^3
# Si number density = 19.436495 Si / 1000 Ang^3
#
#
#
# Elastic Constant Matrix: (Units=GPa)
#
#
# Indices 1 2 3 4 5 6 
#
# 1 115.4282 17.5750 0.0208 0.0000 4.6455 0.0000
# 2 17.5750 81.4581 40.5247 0.0000 7.2316 0.0000
# 3 0.0208 40.5247 57.6073 0.0000 17.6425 0.0000
# 4 0.0000 0.0000 0.0000 39.4472 0.0000 12.9251
# 5 4.6455 7.2316 17.6425 0.0000 37.1193 0.0000
# 6 0.0000 0.0000 0.0000 12.9251 0.0000 52.5713
#
#
#
# Elastic Compliance Matrix: (Units=1/GPa)
#
#
# Indices 1 2 3 4 5 6 
#
# 1 0.009233 -0.003246 0.002856 0.000000 -0.001881 0.000000
# 2 -0.003246 0.020333 -0.015465 0.000000 0.003795 0.000000
# 3 0.002856 -0.015465 0.032096 0.000000 -0.012599 0.000000
# 4 0.000000 0.000000 0.000000 0.027571 0.000000 -0.006779
# 5 -0.001881 0.003795 -0.012599 0.000000 0.032424 0.000000
# 6 0.000000 0.000000 0.000000 -0.006779 0.000000 0.020688
#
#
# Mechanical properties :
#
#
# Convention : Reuss Voigt Hill
#
# Bulk Modulus (GPa) = 33.38683 41.19272 37.28977
# Shear Modulus (GPa) = 27.16807 38.91910 33.04359
#
# Velocity S-wave (km/s) = 3.74275 4.47964 4.12768
# Velocity P-wave (km/s) = 5.99102 6.92790 6.47642
#
# Compressibility (1/GPa) = 0.02995193
#
# Stress axis : x y z
#
# Youngs Moduli (GPa) = 108.30974 49.18037 31.15698
#
# Poissons Ratio (x) = 0.15963 -0.08898
# Poissons Ratio (y) = 0.35156 0.48184
# Poissons Ratio (z) = -0.30933 0.76057
#
# Static dielectric constant tensor:
#      x y z
#    x 1.704280 0.000000 0.032220 
#    y 0.000000 1.657320 0.000000 
#    z 0.032220 0.000000 1.758800 
# 
# From -- ./inp_files/122165.got.cif
#   From: 2010.05.17/outbox.cif.g08.bks.cpg/sg12_62_cif.got.tgz:122165.got - 2010.06.03 13:09:07.
