data_PCOD9199180
_publ_section_title
;
Structure prediction by ZEFSAII (Michael W. Deem and Ramdas Pophale) SiO2 
 PCOD9199180
Probable space group: C 2/M
;
_chemical_formula_sum "Si O2"
_cell_formula_units_Z 56
_cell_length_a 32.822451
_cell_length_b 8.676863
_cell_length_c 20.700360
_cell_angle_alpha 90.000000
_cell_angle_beta 150.002487
_cell_angle_gamma 90.000000
_cell_volume 2947.467323
_symmetry_space_group_name_H-M "C 2/M"
_symmetry_group_IT_number 12
_symmetry_cell_setting 'monoclinic'
loop_
_space_group_symop_operation_xyz
x,y,z
-x,y,-z
-x,-y,-z
x,-y,z
1/2+x,1/2+y,z
1/2-x,1/2+y,-z
1/2-x,1/2-y,-z
1/2+x,1/2-y,z
loop_
_atom_site_type_symbol
_atom_site_label
_atom_site_fract_x
_atom_site_fract_y
_atom_site_fract_z
Si Si1 0.273364 0.185936 0.713124
Si Si2 0.202777 0.816246 0.873213
Si Si3 0.587474 0.313976 0.435708
Si Si4 0.002146 0.185682 0.818203
Si Si5 0.189834 0.814990 0.094778
Si Si6 0.567701 0.185665 0.145903
Si Si7 0.023941 0.684611 0.605747
O O1 0.182923 0.225187 0.565229
O O2 0.289807 0.261320 0.805037
O O3 0.344198 0.232156 0.760541
O O4 0.278127 0.000000 0.727263
O O5 0.249002 0.759111 0.872555
O O6 0.110301 0.756664 0.744022
O O7 0.203151 0.000000 0.876795
O O8 0.250000 0.750000 0.000000
O O9 0.580673 0.500000 0.431171
O O10 0.541048 0.263604 0.307091
O O11 0.544478 0.240535 0.438518
O O12 0.955894 0.246727 0.817568
O O13 0.000360 0.000000 0.817260
O O14 0.096893 0.232719 0.951205
O O15 0.195563 0.000000 0.098074
O O16 0.565562 0.000000 0.147421
O O17 0.500000 0.232750 0.000000
O O18 0.030632 0.500000 0.616847
O O19 0.000000 0.730759 0.500000
#
# Coordination Sequence:
#
# PCOD9199180 Si02
#       7
#     8   8   8   8   8   8   8
#     4  10  21  38  60  86 117 156 200 246 297 357
#     4  12  25  41  63  90 122 159 202 251 306 362
#     4  10  22  40  60  85 119 158 201 246 301 363
#     4  10  22  38  58  85 118 155 194 244 300 356
#     4  11  22  37  59  87 118 153 198 248 300 356
#     4  10  20  36  59  87 119 154 198 245 295 356
#     4  11  24  42  64  91 124 161 205 253 304 364
#
# _framework density 18.999362000000001
#
# number of rings (size 3 to 8) (size 9 to 14) (size 15 to 20)
#    0.000    1.429    1.429    3.857    0.000    7.714 
#    0.000    0.000    0.000    0.000    0.000    0.000 
#    0.000    0.000    0.000    0.000    0.000    0.000 
#
# Total GULP energy -156576.566055 kJ/mol
# GULP energy per Si atom -5592.020216 kJ/mol
# Density = 1.895612 g / cm^3
# Si number density = 18.999362 Si / 1000 Ang^3
#
#
#
# Elastic Constant Matrix: (Units=GPa)
#
#
# Indices 1 2 3 4 5 6 
#
# 1 82.5279 11.6903 13.2005 0.0000 12.9714 0.0000
# 2 11.6903 29.7728 24.5417 0.0000 5.1596 0.0000
# 3 13.2005 24.5417 104.8873 0.0000 7.9683 0.0000
# 4 0.0000 0.0000 0.0000 21.7351 0.0000 2.4394
# 5 12.9714 5.1596 7.9683 0.0000 40.4129 0.0000
# 6 0.0000 0.0000 0.0000 2.4394 0.0000 37.7796
#
#
#
# Elastic Compliance Matrix: (Units=1/GPa)
#
#
# Indices 1 2 3 4 5 6 
#
# 1 0.013364 -0.004281 -0.000402 0.000000 -0.003664 0.000000
# 2 -0.004281 0.043463 -0.009455 0.000000 -0.002311 0.000000
# 3 -0.000402 -0.009455 0.011873 0.000000 -0.001005 0.000000
# 4 0.000000 0.000000 0.000000 0.046344 0.000000 -0.002992
# 5 -0.003664 -0.002311 -0.001005 0.000000 0.026414 0.000000
# 6 0.000000 0.000000 0.000000 -0.002992 0.000000 0.026663
#
#
# Mechanical properties :
#
#
# Convention : Reuss Voigt Hill
#
# Bulk Modulus (GPa) = 24.73798 35.11699 29.92749
# Shear Modulus (GPa) = 23.82409 31.16922 27.49666
#
# Velocity S-wave (km/s) = 3.54495 4.05475 3.80839
# Velocity P-wave (km/s) = 5.45932 6.35962 5.92659
#
# Compressibility (1/GPa) = 0.04042368
#
# Stress axis : x y z
#
# Youngs Moduli (GPa) = 74.82990 23.00800 84.22246
#
# Poissons Ratio (x) = 0.09850 0.03384
# Poissons Ratio (y) = 0.32036 0.79634
# Poissons Ratio (z) = 0.03007 0.21755
#
# Static dielectric constant tensor:
#      x y z
#    x 1.612560 0.000000 0.004020 
#    y 0.000000 1.645250 0.000000 
#    z 0.004020 0.000000 1.646250 
# 
# From -- ./inp_files/281706.got.cif
#   From: 2010.05.17/outbox.cif.g08.bks.cpg/sg12_141_cif.got.tgz:281706.got - 2010.06.03 13:09:07.
