data_PCOD9199468
_publ_section_title
;
Structure prediction by ZEFSAII (Michael W. Deem and Ramdas Pophale) SiO2 
 PCOD9199468
Probable space group: C 2/M
;
_chemical_formula_sum "Si O2"
_cell_formula_units_Z 64
_cell_length_a 9.442400
_cell_length_b 18.698845
_cell_length_c 29.486621
_cell_angle_alpha 90.000000
_cell_angle_beta 42.567803
_cell_angle_gamma 90.000000
_cell_volume 3521.808429
_symmetry_space_group_name_H-M "C 2/M"
_symmetry_group_IT_number 12
_symmetry_cell_setting 'monoclinic'
loop_
_space_group_symop_operation_xyz
x,y,z
-x,y,-z
-x,-y,-z
x,-y,z
1/2+x,1/2+y,z
1/2-x,1/2+y,-z
1/2-x,1/2-y,-z
1/2+x,1/2-y,z
loop_
_atom_site_type_symbol
_atom_site_label
_atom_site_fract_x
_atom_site_fract_y
_atom_site_fract_z
Si Si1 0.414480 0.833944 0.231061
Si Si2 0.162344 0.917072 0.862731
Si Si3 0.530036 0.712109 0.046148
Si Si4 0.167358 0.825033 0.501297
Si Si5 0.030877 0.417231 0.628287
Si Si6 0.201814 0.210332 0.188243
Si Si7 0.415485 0.416463 0.226330
Si Si8 0.642280 0.415905 0.365670
O O1 0.607844 0.888352 0.177675
O O2 0.328304 0.800836 0.204785
O O3 0.517816 0.769480 0.235682
O O4 0.232929 0.875466 0.300562
O O5 0.993476 0.865724 0.925806
O O6 0.138905 0.908816 0.814022
O O7 0.138492 0.000000 0.879784
O O8 0.354202 0.759121 0.113300
O O9 0.500000 0.705397 0.000000
O O10 0.750000 0.750000 0.000000
O O11 0.250000 0.750000 0.500000
O O12 0.360299 0.868356 0.434448
O O13 0.000000 0.814516 0.500000
O O14 0.050568 0.873047 0.566710
O O15 0.035727 0.500000 0.612496
O O16 0.171501 0.413272 0.640737
O O17 0.794519 0.397750 0.696501
O O18 0.098928 0.136274 0.197226
O O19 0.464638 0.500000 0.222826
O O20 0.596252 0.500000 0.368424
#
# Coordination Sequence:
#
# PCOD9199468 Si02
#       8
#     8   8   8   8   8   8   8   8
#     4  11  22  36  60  86 120 154 194 250 295 350
#     4  10  20  38  62  90 119 152 193 238 292 351
#     4  11  22  40  61  83 116 154 195 237 287 351
#     4  10  22  37  57  83 118 155 198 246 287 344
#     4   9  18  36  61  83 111 157 201 239 286 348
#     4  11  24  39  59  89 117 153 197 242 297 348
#     4  10  20  37  61  86 119 154 195 244 295 351
#     4  10  20  36  60  88 115 154 201 246 294 347
#
# _framework density 18.172481000000001
#
# number of rings (size 3 to 8) (size 9 to 14) (size 15 to 20)
#    0.000    1.750    1.250    4.500    1.750    3.750 
#    0.000    0.625    0.000    3.000    0.000    0.000 
#    0.000    0.000    0.000    0.000    0.000    0.000 
#
# Total GULP energy -178697.402227 kJ/mol
# GULP energy per Si atom -5584.293820 kJ/mol
# Density = 1.813112 g / cm^3
# Si number density = 18.172481 Si / 1000 Ang^3
#
#
#
# Elastic Constant Matrix: (Units=GPa)
#
#
# Indices 1 2 3 4 5 6 
#
# 1 43.7501 47.0009 26.0096 -0.0006 -6.6614 0.0006
# 2 47.0009 125.9860 75.1764 -0.0004 -4.6694 0.0002
# 3 26.0096 75.1764 107.4287 0.0011 8.5222 0.0008
# 4 -0.0006 -0.0004 0.0011 37.4324 0.0013 1.8804
# 5 -6.6614 -4.6694 8.5222 0.0013 17.8961 -0.0001
# 6 0.0006 0.0002 0.0008 1.8804 -0.0001 32.5368
#
#
#
# Elastic Compliance Matrix: (Units=1/GPa)
#
#
# Indices 1 2 3 4 5 6 
#
# 1 0.040277 -0.014114 -0.000802 0.000000 0.011692 -0.000001
# 2 -0.014114 0.019913 -0.010926 0.000000 0.005145 0.000000
# 3 -0.000802 -0.010926 0.018081 0.000000 -0.011760 0.000000
# 4 0.000000 0.000000 0.000000 0.026793 -0.000002 -0.001548
# 5 0.011692 0.005145 -0.011760 -0.000002 0.067173 0.000000
# 6 -0.000001 0.000000 0.000000 -0.001548 0.000000 0.030824
#
#
# Mechanical properties :
#
#
# Convention : Reuss Voigt Hill
#
# Bulk Modulus (GPa) = 37.61215 63.72651 50.66933
# Shear Modulus (GPa) = 18.96774 26.17157 22.56965
#
# Velocity S-wave (km/s) = 3.23423 3.79908 3.52798
# Velocity P-wave (km/s) = 5.88976 7.37481 6.67372
#
# Compressibility (1/GPa) = 0.02658715
#
# Stress axis : x y z
#
# Youngs Moduli (GPa) = 24.82833 50.21919 55.30603
#
# Poissons Ratio (x) = 0.70877 0.04438
# Poissons Ratio (y) = 0.35042 0.60425
# Poissons Ratio (z) = 0.01992 0.54868
#
# Static dielectric constant tensor:
#      x y z
#    x 1.598780 0.000000 -0.005310 
#    y 0.000000 1.619080 0.000000 
#    z -0.005310 0.000000 1.613800 
# 
# From -- ./inp_files/372907.got.cif
#   From: 2010.05.17/outbox.cif.g08.bks.cpg/sg12_187_cif.got.tgz:372907.got - 2010.06.03 13:09:07.
