data_PCOD9199790
_publ_section_title
;
Structure prediction by ZEFSAII (Michael W. Deem and Ramdas Pophale) SiO2 
 PCOD9199790
Probable space group: C 2/M
;
_chemical_formula_sum "Si O2"
_cell_formula_units_Z 40
_cell_length_a 26.463784
_cell_length_b 17.060164
_cell_length_c 9.027413
_cell_angle_alpha 90.000000
_cell_angle_beta 151.749759
_cell_angle_gamma 90.000000
_cell_volume 1929.107399
_symmetry_space_group_name_H-M "C 2/M"
_symmetry_group_IT_number 12
_symmetry_cell_setting 'monoclinic'
loop_
_space_group_symop_operation_xyz
x,y,z
-x,y,-z
-x,-y,-z
x,-y,z
1/2+x,1/2+y,z
1/2-x,1/2+y,-z
1/2-x,1/2-y,-z
1/2+x,1/2-y,z
loop_
_atom_site_type_symbol
_atom_site_label
_atom_site_fract_x
_atom_site_fract_y
_atom_site_fract_z
Si Si1 0.996627 0.589654 0.810851
Si Si2 0.393728 0.660713 0.644230
Si Si3 0.270945 0.092301 0.558804
Si Si4 0.897798 0.090442 0.342296
Si Si5 0.711658 0.179325 0.707660
O O1 0.977620 0.500000 0.716007
O O2 0.897974 0.642619 0.511319
O O3 0.115603 0.614249 0.072149
O O4 0.000000 0.591212 0.000000
O O5 0.327123 0.609460 0.588251
O O6 0.425923 0.610938 0.583784
O O7 0.316051 0.730901 0.393802
O O8 0.500000 0.692449 0.000000
O O9 0.264023 0.140097 0.389160
O O10 0.277956 0.000000 0.541210
O O11 0.000000 0.097259 0.500000
O O12 0.858772 0.000000 0.230716
O O13 0.808762 0.152101 0.059750
#
# Coordination Sequence:
#
# PCOD9199790 Si02
#       5
#     8   8   8   8   8
#     4   8  15  30  55  84 112 149 198 245 291 350
#     4  12  25  40  61  93 129 162 203 257 312 364
#     4  10  20  36  61  91 124 164 208 251 300 366
#     4  11  25  44  65  89 122 167 212 253 304 368
#     4  11  21  39  63  90 121 160 206 255 309 363
#
# _framework density 20.73498
#
# number of rings (size 3 to 8) (size 9 to 14) (size 15 to 20)
#    0.000    1.600    0.000    7.800    0.000    4.800 
#    0.000    1.000    0.000    3.600    0.000    0.000 
#    0.000    0.000    0.000    0.000    0.000    0.000 
#
# Total GULP energy -111748.967654 kJ/mol
# GULP energy per Si atom -5587.448383 kJ/mol
# Density = 2.068779 g / cm^3
# Si number density = 20.734980 Si / 1000 Ang^3
#
#
#
# Elastic Constant Matrix: (Units=GPa)
#
#
# Indices 1 2 3 4 5 6 
#
# 1 104.0325 25.3428 24.9420 0.0000 7.9853 0.0000
# 2 25.3428 52.3168 10.7465 0.0000 1.8065 0.0000
# 3 24.9420 10.7465 67.8682 0.0000 3.9160 0.0000
# 4 0.0000 0.0000 0.0000 16.6259 0.0000 13.2678
# 5 7.9853 1.8065 3.9160 0.0000 18.7903 0.0000
# 6 0.0000 0.0000 0.0000 13.2678 0.0000 1.7801
#
#
#
# Elastic Compliance Matrix: (Units=1/GPa)
#
#
# Indices 1 2 3 4 5 6 
#
# 1 0.011926 -0.004949 -0.003375 0.000000 -0.003889 0.000000
# 2 -0.004949 0.021841 -0.001660 0.000000 0.000349 0.000000
# 3 -0.003375 -0.001660 0.016342 0.000000 -0.001812 0.000000
# 4 0.000000 0.000000 0.000000 -0.012156 0.000000 0.090603
# 5 -0.003889 0.000349 -0.001812 0.000000 0.055216 0.000000
# 6 0.000000 0.000000 0.000000 0.090603 0.000000 -0.113535
#
#
# Mechanical properties :
#
#
# Convention : Reuss Voigt Hill
#
# Bulk Modulus (GPa) = 33.17731 38.47556 35.82643
# Shear Modulus (GPa) = 518.27226 18.31833 268.29529
#
# Velocity S-wave (km/s) = 15.82698 2.97551 11.38743
# Velocity P-wave (km/s) = 18.70899 5.51372 13.79180
#
# Compressibility (1/GPa) = 0.03014109
#
# Stress axis : x y z
#
# Youngs Moduli (GPa) = 83.85279 45.78605 61.19211
#
# Poissons Ratio (x) = 0.22662 0.20650
# Poissons Ratio (y) = 0.41502 0.10155
# Poissons Ratio (z) = 0.28297 0.07598
#
# Static dielectric constant tensor:
#      x y z
#    x 1.717810 0.000000 -0.001660 
#    y 0.000000 1.721920 0.000000 
#    z -0.001660 0.000000 1.766360 
# 
# From -- ./inp_files/98326.got.cif
#   From: 2010.05.17/outbox.cif.g08.bks.cpg/sg12_50_cif.got.tgz:98326.got - 2010.06.03 13:09:07.
