data_PCOD9199318
_publ_section_title
;
Structure prediction by ZEFSAII (Michael W. Deem and Ramdas Pophale) SiO2 
 PCOD9199318
Probable space group: C 2/M
;
_chemical_formula_sum "Si O2"
_cell_formula_units_Z 48
_cell_length_a 8.831944
_cell_length_b 25.976915
_cell_length_c 13.770268
_cell_angle_alpha 90.000000
_cell_angle_beta 119.943383
_cell_angle_gamma 90.000000
_cell_volume 2737.564695
_symmetry_space_group_name_H-M "C 2/M"
_symmetry_group_IT_number 12
_symmetry_cell_setting 'monoclinic'
loop_
_space_group_symop_operation_xyz
x,y,z
-x,y,-z
-x,-y,-z
x,-y,z
1/2+x,1/2+y,z
1/2-x,1/2+y,-z
1/2-x,1/2-y,-z
1/2+x,1/2-y,z
loop_
_atom_site_type_symbol
_atom_site_label
_atom_site_fract_x
_atom_site_fract_y
_atom_site_fract_z
Si Si1 0.005201 0.595866 0.619343
Si Si2 0.803034 0.304712 0.625545
Si Si3 0.367079 0.500000 0.204619
Si Si4 0.910863 0.897298 0.766919
Si Si5 0.721693 0.000000 0.949700
Si Si6 0.387052 0.000000 0.701195
Si Si7 0.466703 0.697670 0.642366
Si Si8 0.000000 0.088156 0.000000
O O1 0.207809 0.589065 0.709043
O O2 0.000000 0.597924 0.500000
O O3 0.928149 0.647353 0.643294
O O4 0.901054 0.548985 0.634926
O O5 0.669905 0.304152 0.491104
O O6 0.666117 0.306783 0.670064
O O7 0.919263 0.253337 0.670950
O O8 0.483374 0.448685 0.228767
O O9 0.280023 0.500000 0.282281
O O10 0.227568 0.500000 0.069831
O O11 0.929922 0.850563 0.698962
O O12 0.980396 0.881127 0.894859
O O13 0.835027 0.950160 0.956283
O O14 0.546364 0.000000 0.830617
#
# Coordination Sequence:
#
# PCOD9199318 Si02
#       8
#     8   8   4   8   4   4   8   4
#     4  12  23  37  56  84 117 153 188 227 285 342
#     4  10  21  36  57  86 110 149 190 231 277 337
#     4  10  23  36  58  83 116 151 195 233 280 334
#     4  11  20  38  59  84 115 152 188 236 283 331
#     4   9  17  35  57  83 107 151 197 235 268 330
#     4  12  22  37  54  86 120 151 185 236 284 339
#     4  10  20  36  60  82 114 145 190 237 278 328
#     4   9  18  34  60  84 110 146 196 233 278 330
#
# _framework density 17.533832
#
# number of rings (size 3 to 8) (size 9 to 14) (size 15 to 20)
#    0.000    1.500    3.333    3.500    2.333    0.000 
#    0.000    0.833    0.000    4.000    0.000    0.000 
#    0.000    0.000    0.000    0.000    0.000    0.000 
#
# Total GULP energy -133839.082898 kJ/mol
# GULP energy per Si atom -5576.628454 kJ/mol
# Density = 1.749392 g / cm^3
# Si number density = 17.533832 Si / 1000 Ang^3
#
#
#
# Elastic Constant Matrix: (Units=GPa)
#
#
# Indices 1 2 3 4 5 6 
#
# 1 99.8246 34.2818 25.3524 0.0000 -18.5930 0.0000
# 2 34.2818 103.5514 19.2511 0.0000 -19.0441 0.0000
# 3 25.3524 19.2511 47.0359 0.0000 -10.7182 0.0000
# 4 0.0000 0.0000 0.0000 -7.2704 0.0000 14.4340
# 5 -18.5930 -19.0441 -10.7182 0.0000 30.5264 0.0000
# 6 0.0000 0.0000 0.0000 14.4340 0.0000 18.2890
#
#
#
# Elastic Compliance Matrix: (Units=1/GPa)
#
#
# Indices 1 2 3 4 5 6 
#
# 1 0.012997 -0.002542 -0.004916 0.000000 0.004604 0.000000
# 2 -0.002542 0.011858 -0.002337 0.000000 0.005029 0.000000
# 3 -0.004916 -0.002337 0.025926 0.000000 0.004651 0.000000
# 4 0.000000 0.000000 0.000000 -0.053585 0.000000 0.042290
# 5 0.004604 0.005029 0.004651 0.000000 0.040333 0.000000
# 6 0.000000 0.000000 0.000000 0.042290 0.000000 0.021301
#
#
# Mechanical properties :
#
#
# Convention : Reuss Voigt Hill
#
# Bulk Modulus (GPa) = 32.06043 45.35359 38.70701
# Shear Modulus (GPa) = 56.29555 19.74411 38.01983
#
# Velocity S-wave (km/s) = 5.67243 3.35932 4.66163
# Velocity P-wave (km/s) = 7.82474 6.40072 7.14828
#
# Compressibility (1/GPa) = 0.03119110
#
# Stress axis : x y z
#
# Youngs Moduli (GPa) = 76.94375 84.33156 38.57092
#
# Poissons Ratio (x) = 0.21438 0.18960
# Poissons Ratio (y) = 0.19560 0.09015
# Poissons Ratio (z) = 0.37822 0.19710
#
# Static dielectric constant tensor:
#      x y z
#    x 1.601630 0.000000 -0.012540 
#    y 0.000000 1.572660 0.000000 
#    z -0.012540 0.000000 1.614630 
# 
# From -- ./inp_files/122647.got.cif
#   From: 2010.05.17/outbox.cif.g08.bks.cpg/sg12_62_cif.got.tgz:122647.got - 2010.06.03 13:09:07.
