data_PCOD9199057
_publ_section_title
;
Structure prediction by ZEFSAII (Michael W. Deem and Ramdas Pophale) SiO2 
 PCOD9199057
Probable space group: C 2/M
;
_chemical_formula_sum "Si O2"
_cell_formula_units_Z 64
_cell_length_a 16.130067
_cell_length_b 8.827693
_cell_length_c 20.143885
_cell_angle_alpha 90.000000
_cell_angle_beta 107.351393
_cell_angle_gamma 90.000000
_cell_volume 2737.787157
_symmetry_space_group_name_H-M "C 2/M"
_symmetry_group_IT_number 12
_symmetry_cell_setting 'monoclinic'
loop_
_space_group_symop_operation_xyz
x,y,z
-x,y,-z
-x,-y,-z
x,-y,z
1/2+x,1/2+y,z
1/2-x,1/2+y,-z
1/2-x,1/2-y,-z
1/2+x,1/2-y,z
loop_
_atom_site_type_symbol
_atom_site_label
_atom_site_fract_x
_atom_site_fract_y
_atom_site_fract_z
Si Si1 0.350055 0.177406 0.336136
Si Si2 0.413117 0.682995 0.713304
Si Si3 0.813355 0.322517 0.960839
Si Si4 0.099898 0.318444 0.794891
Si Si5 0.442041 0.675937 0.080745
Si Si6 0.147546 0.824033 0.163094
Si Si7 0.683901 0.320372 0.537494
Si Si8 0.943471 0.321679 0.585327
O O1 0.344013 0.222202 0.256980
O O2 0.303980 0.267278 0.383855
O O3 0.453537 0.190733 0.377397
O O4 0.326150 0.000000 0.335414
O O5 0.426284 0.500000 0.717699
O O6 0.501837 0.771306 0.751753
O O7 0.347967 0.719252 0.758199
O O8 0.395252 0.739317 0.635239
O O9 0.802943 0.500000 0.959595
O O10 0.804855 0.263620 0.883877
O O11 0.750000 0.250000 0.000000
O O12 0.907613 0.273780 0.011660
O O13 0.105647 0.500000 0.806129
O O14 0.110003 0.230644 0.866193
O O15 0.424108 0.500000 0.062335
O O16 0.544106 0.688932 0.121432
O O17 0.172086 0.000000 0.163316
O O18 0.686848 0.500000 0.534667
O O19 0.750000 0.250000 0.500000
O O20 0.591880 0.256509 0.489010
O O21 0.922246 0.500000 0.578892
#
# Coordination Sequence:
#
# PCOD9199057 Si02
#       8
#     8   8   8   8   8   8   8   8
#     4   9  19  36  58  84 114 145 178 222 273 322
#     4   9  17  31  54  84 115 144 177 222 272 321
#     4  12  25  39  56  78 109 147 187 230 274 326
#     4   9  17  31  54  84 115 144 177 222 272 321
#     4  10  20  36  59  85 114 145 180 225 273 324
#     4   9  19  36  58  84 114 145 178 222 273 322
#     4  12  25  39  56  78 109 147 187 230 274 326
#     4  10  20  36  59  85 114 145 180 225 273 324
#
# _framework density 23.376543000000002
#
# number of rings (size 3 to 8) (size 9 to 14) (size 15 to 20)
#    0.000    2.000    0.000    6.000    0.000    9.000 
#    0.000    1.250    0.000    7.500    0.000    0.000 
#    0.000    0.000    0.000    0.000    0.000    0.000 
#
# Total GULP energy -178986.373004 kJ/mol
# GULP energy per Si atom -5593.324156 kJ/mol
# Density = 2.332334 g / cm^3
# Si number density = 23.376543 Si / 1000 Ang^3
#
#
#
# Elastic Constant Matrix: (Units=GPa)
#
#
# Indices 1 2 3 4 5 6 
#
# 1 84.6743 28.5350 19.1145 0.0000 -22.0270 0.0000
# 2 28.5350 101.6117 48.8291 0.0000 -34.3403 0.0000
# 3 19.1145 48.8291 150.1242 0.0000 -29.0585 0.0000
# 4 0.0000 0.0000 0.0000 42.0430 0.0000 -8.1368
# 5 -22.0270 -34.3403 -29.0585 0.0000 47.5147 0.0000
# 6 0.0000 0.0000 0.0000 -8.1368 0.0000 22.3579
#
#
#
# Elastic Compliance Matrix: (Units=1/GPa)
#
#
# Indices 1 2 3 4 5 6 
#
# 1 0.013816 -0.002226 -0.000121 0.000000 0.004722 0.000000
# 2 -0.002226 0.014455 -0.002944 0.000000 0.007614 0.000000
# 3 -0.000121 -0.002944 0.008180 0.000000 0.002818 0.000000
# 4 0.000000 0.000000 0.000000 0.025587 0.000000 0.009312
# 5 0.004722 0.007614 0.002818 0.000000 0.030462 0.000000
# 6 0.000000 0.000000 0.000000 0.009312 0.000000 0.048116
#
#
# Mechanical properties :
#
#
# Convention : Reuss Voigt Hill
#
# Bulk Modulus (GPa) = 38.65791 58.81861 48.73826
# Shear Modulus (GPa) = 31.28514 38.37855 34.83184
#
# Velocity S-wave (km/s) = 3.66227 4.05625 3.86428
# Velocity P-wave (km/s) = 5.86991 6.86685 6.38786
#
# Compressibility (1/GPa) = 0.02586793
#
# Stress axis : x y z
#
# Youngs Moduli (GPa) = 72.38112 69.18226 122.25311
#
# Poissons Ratio (x) = 0.15398 0.01481
# Poissons Ratio (y) = 0.16110 0.35994
# Poissons Ratio (z) = 0.00877 0.20369
#
# Static dielectric constant tensor:
#      x y z
#    x 1.823610 0.000000 -0.297180 
#    y 0.000000 1.770380 0.000000 
#    z -0.297180 0.000000 1.220730 
# 
# From -- ./inp_files/314023.got.cif
#   From: 2010.05.17/outbox.cif.g08.bks.cpg/sg12_158_cif.got.tgz:314023.got - 2010.06.03 13:09:07.
