data_PCOD9199431
_publ_section_title
;
Structure prediction by ZEFSAII (Michael W. Deem and Ramdas Pophale) SiO2 
 PCOD9199431
Probable space group: C 2/M
;
_chemical_formula_sum "Si O2"
_cell_formula_units_Z 56
_cell_length_a 21.952873
_cell_length_b 14.341307
_cell_length_c 19.628813
_cell_angle_alpha 90.000000
_cell_angle_beta 28.142533
_cell_angle_gamma 90.000000
_cell_volume 2914.803283
_symmetry_space_group_name_H-M "C 2/M"
_symmetry_group_IT_number 12
_symmetry_cell_setting 'monoclinic'
loop_
_space_group_symop_operation_xyz
x,y,z
-x,y,-z
-x,-y,-z
x,-y,z
1/2+x,1/2+y,z
1/2-x,1/2+y,-z
1/2-x,1/2-y,-z
1/2+x,1/2-y,z
loop_
_atom_site_type_symbol
_atom_site_label
_atom_site_fract_x
_atom_site_fract_y
_atom_site_fract_z
Si Si1 0.896866 0.800748 0.545514
Si Si2 0.491573 0.709883 0.835370
Si Si3 0.627683 0.255089 0.840338
Si Si4 0.932211 0.393150 0.299166
Si Si5 0.369922 0.389114 0.427188
Si Si6 0.210574 0.108588 0.876962
Si Si7 0.981276 0.604493 0.412165
O O1 0.749923 0.812424 0.714696
O O2 0.915678 0.849146 0.454332
O O3 0.000000 0.830919 0.500000
O O4 0.914275 0.689473 0.516494
O O5 0.588737 0.709115 0.804053
O O6 0.479033 0.817445 0.825318
O O7 0.553876 0.657500 0.710015
O O8 0.361689 0.661609 0.990245
O O9 0.664483 0.339823 0.854106
O O10 0.500000 0.210859 0.000000
O O11 0.956936 0.500000 0.254039
O O12 0.783168 0.369032 0.429649
O O13 0.949433 0.387917 0.363515
O O14 0.385744 0.500000 0.408975
O O15 0.364800 0.114696 0.731239
O O16 0.173842 0.000000 0.913240
O O17 0.943075 0.500000 0.473165
#
# Coordination Sequence:
#
# PCOD9199431 Si02
#       7
#     8   8   8   8   8   8   8
#     4  12  22  39  65  87 120 161 203 250 307 356
#     4  11  20  37  64  84 123 161 201 243 308 358
#     4  10  22  37  60  90 123 159 198 244 304 365
#     4  10  20  36  60  87 117 153 199 252 299 354
#     4  11  23  39  61  90 119 155 205 253 299 357
#     4  10  22  38  57  91 129 159 196 249 305 363
#     4  10  21  37  58  90 122 156 201 245 301 362
#
# _framework density 19.212273
#
# number of rings (size 3 to 8) (size 9 to 14) (size 15 to 20)
#    0.000    1.429    4.286    1.714    0.000    4.857 
#    0.000    0.000    0.000    7.714    0.000    0.000 
#    0.000    0.000    0.000    0.000    0.000    0.000 
#
# Total GULP energy -156449.531571 kJ/mol
# GULP energy per Si atom -5587.483270 kJ/mol
# Density = 1.916854 g / cm^3
# Si number density = 19.212273 Si / 1000 Ang^3
#
#
#
# Elastic Constant Matrix: (Units=GPa)
#
#
# Indices 1 2 3 4 5 6 
#
# 1 118.8647 7.1027 29.3103 0.0000 13.7144 0.0000
# 2 7.1027 60.2577 25.8396 0.0000 16.3937 0.0000
# 3 29.3103 25.8396 87.8933 0.0000 14.2999 0.0000
# 4 0.0000 0.0000 0.0000 23.0399 0.0000 2.5344
# 5 13.7144 16.3937 14.2999 0.0000 28.8029 0.0000
# 6 0.0000 0.0000 0.0000 2.5344 0.0000 16.2625
#
#
#
# Elastic Compliance Matrix: (Units=1/GPa)
#
#
# Indices 1 2 3 4 5 6 
#
# 1 0.009488 0.001136 -0.002891 0.000000 -0.003729 0.000000
# 2 0.001136 0.021390 -0.005003 0.000000 -0.010232 0.000000
# 3 -0.002891 -0.005003 0.014278 0.000000 -0.002865 0.000000
# 4 0.000000 0.000000 0.000000 0.044160 0.000000 -0.006882
# 5 -0.003729 -0.010232 -0.002865 0.000000 0.043740 0.000000
# 6 0.000000 0.000000 0.000000 -0.006882 0.000000 0.062564
#
#
# Mechanical properties :
#
#
# Convention : Reuss Voigt Hill
#
# Bulk Modulus (GPa) = 31.60459 43.50231 37.55345
# Shear Modulus (GPa) = 22.75995 27.27194 25.01595
#
# Velocity S-wave (km/s) = 3.44562 3.77172 3.61235
# Velocity P-wave (km/s) = 5.68468 6.45445 6.08176
#
# Compressibility (1/GPa) = 0.03164098
#
# Stress axis : x y z
#
# Youngs Moduli (GPa) = 105.39342 46.74985 70.03565
#
# Poissons Ratio (x) = -0.05311 0.20250
# Poissons Ratio (y) = -0.11972 0.35036
# Poissons Ratio (z) = 0.30473 0.23387
#
# Static dielectric constant tensor:
#      x y z
#    x 1.666550 0.000000 -0.010140 
#    y 0.000000 1.664680 0.000000 
#    z -0.010140 0.000000 1.675270 
# 
# From -- ./inp_files/96953.got.cif
#   From: 2010.05.17/outbox.cif.g08.bks.cpg/sg12_49_cif.got.tgz:96953.got - 2010.06.03 13:09:07.
