data_PCOD9199527
_publ_section_title
;
Structure prediction by ZEFSAII (Michael W. Deem and Ramdas Pophale) SiO2 
 PCOD9199527
Probable space group: C 2/M
;
_chemical_formula_sum "Si O2"
_cell_formula_units_Z 64
_cell_length_a 29.494590
_cell_length_b 8.122959
_cell_length_c 12.815024
_cell_angle_alpha 90.000000
_cell_angle_beta 90.890400
_cell_angle_gamma 90.000000
_cell_volume 3069.895586
_symmetry_space_group_name_H-M "C 2/M"
_symmetry_group_IT_number 12
_symmetry_cell_setting 'monoclinic'
loop_
_space_group_symop_operation_xyz
x,y,z
-x,y,-z
-x,-y,-z
x,-y,z
1/2+x,1/2+y,z
1/2-x,1/2+y,-z
1/2-x,1/2-y,-z
1/2+x,1/2-y,z
loop_
_atom_site_type_symbol
_atom_site_label
_atom_site_fract_x
_atom_site_fract_y
_atom_site_fract_z
Si Si1 0.424454 0.800469 0.202734
Si Si2 0.736517 0.187472 0.885668
Si Si3 0.353336 0.305598 0.043913
Si Si4 0.482750 0.198475 0.884015
Si Si5 0.662369 0.802129 0.393923
Si Si6 0.381960 0.305052 0.822231
Si Si7 0.140471 0.304913 0.615120
Si Si8 0.758752 0.190915 0.334700
O O1 0.401296 0.724849 0.099323
O O2 0.477484 0.760079 0.196993
O O3 0.395171 0.739560 0.300816
O O4 0.420805 0.000000 0.196044
O O5 0.682237 0.204254 0.889222
O O6 0.752834 0.292353 0.788620
O O7 0.750958 0.000000 0.871088
O O8 0.750000 0.250000 0.000000
O O9 0.341878 0.500000 0.047996
O O10 0.354731 0.247700 0.924470
O O11 0.434453 0.267618 0.847699
O O12 0.478165 0.000000 0.888111
O O13 0.500000 0.251233 0.000000
O O14 0.636461 0.765449 0.286222
O O15 0.637288 0.739417 0.496715
O O16 0.714493 0.739566 0.391392
O O17 0.666122 0.000000 0.402397
O O18 0.375744 0.500000 0.817860
O O19 0.132084 0.500000 0.611811
O O20 0.193196 0.278197 0.646906
O O21 0.765067 0.000000 0.361549
#
# Coordination Sequence:
#
# PCOD9199527 Si02
#       8
#     8   8   8   8   8   8   8   8
#     4  10  20  36  60  89 117 150 192 239 292 349
#     4  12  24  37  54  80 117 157 196 240 291 352
#     4  11  22  36  56  84 118 152 190 237 294 353
#     4  10  20  36  61  90 119 154 195 237 293 363
#     4  10  23  41  60  84 118 159 203 248 293 351
#     4  11  24  39  59  88 120 155 196 246 301 355
#     4  10  21  39  62  88 118 157 203 248 293 342
#     4  11  22  37  59  88 118 155 200 244 295 350
#
# _framework density 20.847615000000001
#
# number of rings (size 3 to 8) (size 9 to 14) (size 15 to 20)
#    0.000    1.375    2.500    3.375    0.000    5.750 
#    0.000    0.625    0.000    3.750    0.000    0.000 
#    0.000    0.000    0.000    0.000    0.000    0.000 
#
# Total GULP energy -178782.238437 kJ/mol
# GULP energy per Si atom -5586.944951 kJ/mol
# Density = 2.080016 g / cm^3
# Si number density = 20.847615 Si / 1000 Ang^3
#
#
#
# Elastic Constant Matrix: (Units=GPa)
#
#
# Indices 1 2 3 4 5 6 
#
# 1 78.8024 0.1263 32.3110 0.0000 -16.1729 0.0000
# 2 0.1263 20.2056 4.3873 0.0000 -6.1105 0.0000
# 3 32.3110 4.3873 134.9786 0.0000 -18.8491 0.0000
# 4 0.0000 0.0000 0.0000 16.4694 0.0000 3.2497
# 5 -16.1729 -6.1105 -18.8491 0.0000 29.5585 0.0000
# 6 0.0000 0.0000 0.0000 3.2497 0.0000 25.5825
#
#
#
# Elastic Compliance Matrix: (Units=1/GPa)
#
#
# Indices 1 2 3 4 5 6 
#
# 1 0.015281 0.002666 -0.002744 0.000000 0.007162 0.000000
# 2 0.002666 0.053262 -0.000690 0.000000 0.012030 0.000000
# 3 -0.002744 -0.000690 0.008627 0.000000 0.003857 0.000000
# 4 0.000000 0.000000 0.000000 0.062280 0.000000 -0.007911
# 5 0.007162 0.012030 0.003857 0.000000 0.042696 0.000000
# 6 0.000000 0.000000 0.000000 -0.007911 0.000000 0.040094
#
#
# Mechanical properties :
#
#
# Convention : Reuss Voigt Hill
#
# Bulk Modulus (GPa) = 13.22153 34.18175 23.70164
# Shear Modulus (GPa) = 20.08141 27.46623 23.77382
#
# Velocity S-wave (km/s) = 3.10699 3.63364 3.38059
# Velocity P-wave (km/s) = 4.38485 5.83404 5.16057
#
# Compressibility (1/GPa) = 0.07563424
#
# Stress axis : x y z
#
# Youngs Moduli (GPa) = 65.44139 18.77501 115.92113
#
# Poissons Ratio (x) = -0.05006 0.31814
# Poissons Ratio (y) = -0.17448 0.07993
# Poissons Ratio (z) = 0.17960 0.01295
#
# Static dielectric constant tensor:
#      x y z
#    x 1.785250 0.000000 -0.014870 
#    y 0.000000 1.734550 0.000000 
#    z -0.014870 0.000000 1.785370 
# 
# From -- ./inp_files/187427.got.cif
#   From: 2010.05.17/outbox.cif.g08.bks.cpg/sg12_94_cif.got.tgz:187427.got - 2010.06.03 13:09:07.
