data_PCOD9199197
_publ_section_title
;
Structure prediction by ZEFSAII (Michael W. Deem and Ramdas Pophale) SiO2 
 PCOD9199197
Probable space group: C 2/M
;
_chemical_formula_sum "Si O2"
_cell_formula_units_Z 56
_cell_length_a 22.959013
_cell_length_b 7.966916
_cell_length_c 14.965275
_cell_angle_alpha 90.000000
_cell_angle_beta 68.346322
_cell_angle_gamma 90.000000
_cell_volume 2544.165739
_symmetry_space_group_name_H-M "C 2/M"
_symmetry_group_IT_number 12
_symmetry_cell_setting 'monoclinic'
loop_
_space_group_symop_operation_xyz
x,y,z
-x,y,-z
-x,-y,-z
x,-y,z
1/2+x,1/2+y,z
1/2-x,1/2+y,-z
1/2-x,1/2-y,-z
1/2+x,1/2-y,z
loop_
_atom_site_type_symbol
_atom_site_label
_atom_site_fract_x
_atom_site_fract_y
_atom_site_fract_z
Si Si1 0.052772 0.305030 0.538798
Si Si2 0.754946 0.703440 0.763908
Si Si3 0.433267 0.203415 0.944025
Si Si4 0.311425 0.201534 0.911160
Si Si5 0.197044 0.297542 0.457422
Si Si6 0.034808 0.191992 0.741478
Si Si7 0.114618 0.697201 0.841525
O O1 0.060155 0.500000 0.507655
O O2 0.124410 0.234606 0.504423
O O3 0.028347 0.294633 0.654413
O O4 0.000000 0.233557 0.500000
O O5 0.750138 0.500000 0.768283
O O6 0.802877 0.756620 0.814096
O O7 0.777313 0.755374 0.653849
O O8 0.686907 0.776445 0.824434
O O9 0.371544 0.266875 0.928297
O O10 0.488645 0.254632 0.847155
O O11 0.433646 0.000000 0.948980
O O12 0.426370 0.260236 0.050734
O O13 0.316671 0.000000 0.907805
O O14 0.250000 0.250000 0.000000
O O15 0.193493 0.500000 0.462922
O O16 0.250000 0.250000 0.500000
O O17 0.100934 0.215802 0.754743
O O18 0.024963 0.000000 0.723220
O O19 0.101725 0.500000 0.836784
#
# Coordination Sequence:
#
# PCOD9199197 Si02
#       7
#     8   8   8   8   8   8   8
#     4  10  23  44  70  93 121 163 213 262 312 375
#     4  10  21  36  60  91 124 156 195 247 307 365
#     4  10  22  39  61  88 121 162 207 249 296 363
#     4  10  20  36  59  87 122 159 197 247 299 360
#     4  10  22  40  63  93 121 158 205 253 309 366
#     4  12  26  41  61  89 123 160 202 255 312 364
#     4  11  22  39  62  90 123 161 205 248 298 367
#
# _framework density 22.011146
#
# number of rings (size 3 to 8) (size 9 to 14) (size 15 to 20)
#    0.000    1.571    1.429    3.000    2.000    7.143 
#    0.000    0.000    0.000    0.000    0.000    0.000 
#    0.000    0.000    0.000    0.000    0.000    0.000 
#
# Total GULP energy -156350.501007 kJ/mol
# GULP energy per Si atom -5583.946465 kJ/mol
# Density = 2.196105 g / cm^3
# Si number density = 22.011146 Si / 1000 Ang^3
#
#
#
# Elastic Constant Matrix: (Units=GPa)
#
#
# Indices 1 2 3 4 5 6 
#
# 1 141.0731 1.7945 58.8179 0.0000 20.1586 0.0000
# 2 1.7945 20.1664 0.8426 0.0000 1.3776 0.0000
# 3 58.8179 0.8426 119.4692 0.0000 20.6390 0.0000
# 4 0.0000 0.0000 0.0000 17.2920 0.0000 -1.6486
# 5 20.1586 1.3776 20.6390 0.0000 42.9100 0.0000
# 6 0.0000 0.0000 0.0000 -1.6486 0.0000 20.1359
#
#
#
# Elastic Compliance Matrix: (Units=1/GPa)
#
#
# Indices 1 2 3 4 5 6 
#
# 1 0.009131 -0.000484 -0.004094 0.000000 -0.002305 0.000000
# 2 -0.000484 0.049723 0.000135 0.000000 -0.001434 0.000000
# 3 -0.004094 0.000135 0.010964 0.000000 -0.003355 0.000000
# 4 0.000000 0.000000 0.000000 0.058285 0.000000 0.004772
# 5 -0.002305 -0.001434 -0.003355 0.000000 0.026047 0.000000
# 6 0.000000 0.000000 0.000000 0.004772 0.000000 0.050053
#
#
# Mechanical properties :
#
#
# Convention : Reuss Voigt Hill
#
# Bulk Modulus (GPa) = 16.41137 44.84652 30.62894
# Shear Modulus (GPa) = 21.42246 30.68449 26.05348
#
# Velocity S-wave (km/s) = 3.12309 3.73774 3.44415
# Velocity P-wave (km/s) = 4.52516 6.24870 5.45542
#
# Compressibility (1/GPa) = 0.06093337
#
# Stress axis : x y z
#
# Youngs Moduli (GPa) = 109.51854 20.11147 91.20388
#
# Poissons Ratio (x) = 0.00973 0.37337
# Poissons Ratio (y) = 0.05300 -0.01234
# Poissons Ratio (z) = 0.44834 -0.00272
#
# Static dielectric constant tensor:
#      x y z
#    x 1.845280 0.000000 -0.014650 
#    y 0.000000 1.808740 0.000000 
#    z -0.014650 0.000000 1.776520 
# 
# From -- ./inp_files/238236.got.cif
#   From: 2010.05.17/outbox.cif.g08.bks.cpg/sg12_120_cif.got.tgz:238236.got - 2010.06.03 13:09:07.
