data_PCOD9199998
_publ_section_title
;
Structure prediction by ZEFSAII (Michael W. Deem and Ramdas Pophale) SiO2 
 PCOD9199998
Probable space group: C 2/M
;
_chemical_formula_sum "Si O2"
_cell_formula_units_Z 48
_cell_length_a 18.329210
_cell_length_b 13.802474
_cell_length_c 8.857945
_cell_angle_alpha 90.000000
_cell_angle_beta 74.205147
_cell_angle_gamma 90.000000
_cell_volume 2156.344651
_symmetry_space_group_name_H-M "C 2/M"
_symmetry_group_IT_number 12
_symmetry_cell_setting 'monoclinic'
loop_
_space_group_symop_operation_xyz
x,y,z
-x,y,-z
-x,-y,-z
x,-y,z
1/2+x,1/2+y,z
1/2-x,1/2+y,-z
1/2-x,1/2-y,-z
1/2+x,1/2-y,z
loop_
_atom_site_type_symbol
_atom_site_label
_atom_site_fract_x
_atom_site_fract_y
_atom_site_fract_z
Si Si1 0.672352 0.390061 0.254934
Si Si2 0.544954 0.166309 0.818223
Si Si3 0.087848 0.890602 0.003869
Si Si4 0.079865 0.218061 0.518070
Si Si5 0.900352 0.391241 0.725941
Si Si6 0.172617 0.689423 0.930658
O O1 0.698890 0.500000 0.239544
O O2 0.601424 0.384482 0.177864
O O3 0.644567 0.355732 0.433475
O O4 0.740012 0.324087 0.154543
O O5 0.566763 0.255204 0.697579
O O6 0.485410 0.108660 0.749334
O O7 0.623902 0.126671 0.836615
O O8 0.500000 0.185700 0.000000
O O9 0.114219 0.000000 0.945126
O O10 0.140108 0.798844 0.927924
O O11 0.000000 0.885010 0.000000
O O12 0.098658 0.316263 0.412673
O O13 0.000000 0.181492 0.500000
O O14 0.878977 0.500000 0.695713
O O15 0.849271 0.350851 0.892044
#
# Coordination Sequence:
#
# PCOD9199998 Si02
#       6
#     8   8   8   8   8   8
#     4  11  24  41  65  97 133 174 217 268 327 389
#     4   9  21  38  63  91 126 170 214 263 323 388
#     4  10  21  38  65  98 133 177 226 265 307 377
#     4  10  22  40  62  90 127 171 219 271 327 380
#     4  10  20  36  62  95 130 172 216 260 317 389
#     4  11  21  39  65  97 134 172 210 266 323 382
#
# _framework density 22.259893000000002
#
# number of rings (size 3 to 8) (size 9 to 14) (size 15 to 20)
#    0.000    1.833    1.667    2.500    2.333    7.667 
#    0.000    0.833    0.000    0.500    0.000    0.000 
#    0.000    0.000    0.000    0.000    0.000    0.000 
#
# Total GULP energy -133825.221736 kJ/mol
# GULP energy per Si atom -5576.050906 kJ/mol
# Density = 2.220923 g / cm^3
# Si number density = 22.259893 Si / 1000 Ang^3
#
#
#
# Elastic Constant Matrix: (Units=GPa)
#
#
# Indices 1 2 3 4 5 6 
#
# 1 97.5057 25.6298 32.6595 0.0000 -11.8778 0.0000
# 2 25.6298 126.9612 7.0896 0.0000 -15.4855 0.0000
# 3 32.6595 7.0896 86.5097 0.0000 -5.9157 0.0000
# 4 0.0000 0.0000 0.0000 -2.7054 0.0000 -3.5668
# 5 -11.8778 -15.4855 -5.9157 0.0000 33.6098 0.0000
# 6 0.0000 0.0000 0.0000 -3.5668 0.0000 21.2611
#
#
#
# Elastic Compliance Matrix: (Units=1/GPa)
#
#
# Indices 1 2 3 4 5 6 
#
# 1 0.012581 -0.001956 -0.004400 0.000000 0.002771 0.000000
# 2 -0.001956 0.008665 0.000257 0.000000 0.003346 0.000000
# 3 -0.004400 0.000257 0.013261 0.000000 0.000898 0.000000
# 4 0.000000 0.000000 0.000000 -0.302684 0.000000 -0.050779
# 5 0.002771 0.003346 0.000898 0.000000 0.032432 0.000000
# 6 0.000000 0.000000 0.000000 -0.050779 0.000000 0.038515
#
#
# Mechanical properties :
#
#
# Convention : Reuss Voigt Hill
#
# Bulk Modulus (GPa) = 44.82432 49.08159 46.95295
# Shear Modulus (GPa) = -28.15401 26.80629 -0.67386
#
# Velocity S-wave (km/s) = -3.56024 3.47398 -0.55080
# Velocity P-wave (km/s) = 1.81110 6.17969 4.55350
#
# Compressibility (1/GPa) = 0.02230932
#
# Stress axis : x y z
#
# Youngs Moduli (GPa) = 79.48333 115.40533 75.41029
#
# Poissons Ratio (x) = 0.22575 0.33180
# Poissons Ratio (y) = 0.15548 -0.01940
# Poissons Ratio (z) = 0.34972 -0.02968
#
# Static dielectric constant tensor:
#      x y z
#    x 1.882320 0.000000 0.032190 
#    y 0.000000 1.880860 0.000000 
#    z 0.032190 0.000000 1.818640 
# 
# From -- ./inp_files/85680.got.cif
#   From: 2010.05.17/outbox.cif.g08.bks.cpg/sg12_43_cif.got.tgz:85680.got - 2010.06.03 13:09:07.
