data_PCOD9199478
_publ_section_title
;
Structure prediction by ZEFSAII (Michael W. Deem and Ramdas Pophale) SiO2 
 PCOD9199478
Probable space group: C 2/M
;
_chemical_formula_sum "Si O2"
_cell_formula_units_Z 56
_cell_length_a 29.064723
_cell_length_b 8.678905
_cell_length_c 19.236206
_cell_angle_alpha 90.000000
_cell_angle_beta 144.879558
_cell_angle_gamma 90.000000
_cell_volume 2791.532821
_symmetry_space_group_name_H-M "C 2/M"
_symmetry_group_IT_number 12
_symmetry_cell_setting 'monoclinic'
loop_
_space_group_symop_operation_xyz
x,y,z
-x,y,-z
-x,-y,-z
x,-y,z
1/2+x,1/2+y,z
1/2-x,1/2+y,-z
1/2-x,1/2-y,-z
1/2+x,1/2-y,z
loop_
_atom_site_type_symbol
_atom_site_label
_atom_site_fract_x
_atom_site_fract_y
_atom_site_fract_z
Si Si1 0.003738 0.181027 0.697902
Si Si2 0.571373 0.817171 0.642068
Si Si3 0.667733 0.179758 0.529911
Si Si4 0.887981 0.319644 0.921378
Si Si5 0.016361 0.818432 0.176335
Si Si6 0.829555 0.681507 0.691777
Si Si7 0.710853 0.681374 0.730605
O O1 0.909299 0.217382 0.580233
O O2 0.027894 0.223116 0.806338
O O3 0.044085 0.274054 0.685627
O O4 0.017434 0.000000 0.703028
O O5 0.500000 0.774189 0.500000
O O6 0.650939 0.728468 0.717224
O O7 0.583829 0.000000 0.651224
O O8 0.746599 0.227149 0.584652
O O9 0.688207 0.216550 0.635726
O O10 0.649291 0.000000 0.497925
O O11 0.910393 0.500000 0.953392
O O12 0.865742 0.287230 0.813822
O O13 0.804883 0.294941 0.859926
O O14 0.959032 0.222823 0.041597
O O15 0.100171 0.730340 0.272685
O O16 0.033121 0.000000 0.198541
O O17 0.812864 0.500000 0.666563
O O18 0.701143 0.500000 0.700602
#
# Coordination Sequence:
#
# PCOD9199478 Si02
#       7
#     8   8   8   8   8   8   8
#     4  11  24  40  57  81 117 156 192 230 285 349
#     4  11  22  36  59  91 117 144 190 238 282 335
#     4  11  21  35  57  87 117 147 189 239 286 334
#     4   9  20  38  60  86 114 149 193 233 278 339
#     4  11  24  39  57  84 115 152 195 238 284 335
#     4  10  21  38  61  86 114 152 193 234 285 341
#     4  10  20  36  60  88 117 150 187 232 286 340
#
# _framework density 20.060663000000002
#
# number of rings (size 3 to 8) (size 9 to 14) (size 15 to 20)
#    0.000    1.571    1.429    4.714    0.000    8.571 
#    0.000    0.714    0.000    0.000    0.000    0.000 
#    0.000    0.000    0.000    0.000    0.000    0.000 
#
# Total GULP energy -156513.772432 kJ/mol
# GULP energy per Si atom -5589.777587 kJ/mol
# Density = 2.001500 g / cm^3
# Si number density = 20.060663 Si / 1000 Ang^3
#
#
#
# Elastic Constant Matrix: (Units=GPa)
#
#
# Indices 1 2 3 4 5 6 
#
# 1 102.0890 13.8387 1.4020 0.0000 9.0161 0.0000
# 2 13.8387 27.0498 0.2315 0.0000 1.8654 0.0000
# 3 1.4020 0.2315 13.6156 0.0000 5.2814 0.0000
# 4 0.0000 0.0000 0.0000 12.0982 0.0000 7.6207
# 5 9.0161 1.8654 5.2814 0.0000 21.6419 0.0000
# 6 0.0000 0.0000 0.0000 7.6207 0.0000 32.8494
#
#
#
# Elastic Compliance Matrix: (Units=1/GPa)
#
#
# Indices 1 2 3 4 5 6 
#
# 1 0.010876 -0.005278 0.000609 0.000000 -0.004224 0.000000
# 2 -0.005278 0.039757 0.000380 0.000000 -0.001321 0.000000
# 3 0.000609 0.000380 0.081171 0.000000 -0.020095 0.000000
# 4 0.000000 0.000000 0.000000 0.096802 0.000000 -0.022457
# 5 -0.004224 -0.001321 -0.020095 0.000000 0.052984 0.000000
# 6 0.000000 0.000000 0.000000 -0.022457 0.000000 0.035652
#
#
# Mechanical properties :
#
#
# Convention : Reuss Voigt Hill
#
# Bulk Modulus (GPa) = 8.11529 19.29986 13.70757
# Shear Modulus (GPa) = 13.62785 21.80339 17.71562
#
# Velocity S-wave (km/s) = 2.60923 3.30035 2.97493
# Velocity P-wave (km/s) = 3.62375 4.91576 4.31835
#
# Compressibility (1/GPa) = 0.12322413
#
# Stress axis : x y z
#
# Youngs Moduli (GPa) = 91.94953 25.15291 12.31968
#
# Poissons Ratio (x) = 0.13275 -0.00750
# Poissons Ratio (y) = 0.48529 -0.00468
# Poissons Ratio (z) = -0.05595 -0.00955
#
# Static dielectric constant tensor:
#      x y z
#    x 1.730480 0.000000 -0.025490 
#    y 0.000000 1.665300 0.000000 
#    z -0.025490 0.000000 1.704550 
# 
# From -- ./inp_files/292527.got.cif
#   From: 2010.05.17/outbox.cif.g08.bks.cpg/sg12_147_cif.got.tgz:292527.got - 2010.06.03 13:09:07.
