data_PCOD9199391
_publ_section_title
;
Structure prediction by ZEFSAII (Michael W. Deem and Ramdas Pophale) SiO2 
 PCOD9199391
Probable space group: C 2/M
;
_chemical_formula_sum "Si O2"
_cell_formula_units_Z 56
_cell_length_a 16.490268
_cell_length_b 8.689583
_cell_length_c 23.397455
_cell_angle_alpha 90.000000
_cell_angle_beta 122.138853
_cell_angle_gamma 90.000000
_cell_volume 2838.940638
_symmetry_space_group_name_H-M "C 2/M"
_symmetry_group_IT_number 12
_symmetry_cell_setting 'monoclinic'
loop_
_space_group_symop_operation_xyz
x,y,z
-x,y,-z
-x,-y,-z
x,-y,z
1/2+x,1/2+y,z
1/2-x,1/2+y,-z
1/2-x,1/2-y,-z
1/2+x,1/2-y,z
loop_
_atom_site_type_symbol
_atom_site_label
_atom_site_fract_x
_atom_site_fract_y
_atom_site_fract_z
Si Si1 0.834290 0.317708 0.569882
Si Si2 0.720737 0.816608 0.845906
Si Si3 0.942228 0.812499 0.921836
Si Si4 0.549218 0.316032 0.845950
Si Si5 0.487889 0.684498 0.429106
Si Si6 0.622004 0.814155 0.286278
Si Si7 0.193242 0.816044 0.715211
O O1 0.821305 0.500000 0.566709
O O2 0.750000 0.250000 0.500000
O O3 0.933222 0.271939 0.577647
O O4 0.840065 0.263309 0.637575
O O5 0.831474 0.761555 0.885060
O O6 0.654108 0.747934 0.870575
O O7 0.675988 0.768820 0.768117
O O8 0.721009 0.000000 0.851578
O O9 0.999571 0.761910 0.886564
O O10 0.939997 0.000000 0.918908
O O11 0.000000 0.766735 0.000000
O O12 0.553758 0.500000 0.848731
O O13 0.477113 0.261332 0.769181
O O14 0.500000 0.725771 0.500000
O O15 0.503711 0.500000 0.430618
O O16 0.384908 0.717809 0.362847
O O17 0.702704 0.773969 0.270109
O O18 0.611307 0.000000 0.283113
O O19 0.190791 0.000000 0.724357
#
# Coordination Sequence:
#
# PCOD9199391 Si02
#       7
#     8   8   8   8   8   8   8
#     4  11  23  38  56  81 112 150 194 244 299 356
#     4  11  22  38  61  90 122 159 201 249 301 357
#     4   9  20  40  63  88 123 163 201 246 302 361
#     4  11  22  38  62  92 122 159 204 248 298 359
#     4  10  21  38  57  79 111 151 194 240 297 358
#     4  10  21  38  60  86 118 154 195 246 301 355
#     4  10  20  36  60  86 115 153 195 245 298 355
#
# _framework density 19.725667000000001
#
# number of rings (size 3 to 8) (size 9 to 14) (size 15 to 20)
#    0.000    1.714    1.429    3.000    0.000    7.143 
#    0.000    1.429    0.000    6.000    0.000    0.000 
#    0.000    0.000    0.000    0.000    0.000    0.000 
#
# Total GULP energy -156411.979838 kJ/mol
# GULP energy per Si atom -5586.142137 kJ/mol
# Density = 1.968077 g / cm^3
# Si number density = 19.725667 Si / 1000 Ang^3
#
#
#
# Elastic Constant Matrix: (Units=GPa)
#
#
# Indices 1 2 3 4 5 6 
#
# 1 144.0831 34.8708 56.3783 0.0000 -4.4089 0.0000
# 2 34.8708 17.5833 19.2301 0.0000 -0.3733 0.0000
# 3 56.3783 19.2301 112.6798 0.0000 -3.2539 0.0000
# 4 0.0000 0.0000 0.0000 3.2938 0.0000 30.0633
# 5 -4.4089 -0.3733 -3.2539 0.0000 25.1734 0.0000
# 6 0.0000 0.0000 0.0000 30.0633 0.0000 -30.8689
#
#
#
# Elastic Compliance Matrix: (Units=1/GPa)
#
#
# Indices 1 2 3 4 5 6 
#
# 1 0.014102 -0.024919 -0.002753 0.000000 0.001744 0.000000
# 2 -0.024919 0.113962 -0.007085 0.000000 -0.003590 0.000000
# 3 -0.002753 -0.007085 0.011487 0.000000 0.000898 0.000000
# 4 0.000000 0.000000 0.000000 0.030701 0.000000 0.029899
# 5 0.001744 -0.003590 0.000898 0.000000 0.040093 0.000000
# 6 0.000000 0.000000 0.000000 0.029899 0.000000 -0.003276
#
#
# Mechanical properties :
#
#
# Convention : Reuss Voigt Hill
#
# Bulk Modulus (GPa) = 14.27783 55.03386 34.65584
# Shear Modulus (GPa) = 16.67075 10.44416 13.55745
#
# Velocity S-wave (km/s) = 2.91027 2.30352 2.62449
# Velocity P-wave (km/s) = 4.30660 5.91905 5.17600
#
# Compressibility (1/GPa) = 0.07003866
#
# Stress axis : x y z
#
# Youngs Moduli (GPa) = 70.91359 8.77485 87.05518
#
# Poissons Ratio (x) = 0.21866 0.23963
# Poissons Ratio (y) = 1.76707 0.61677
# Poissons Ratio (z) = 0.19520 0.06217
#
# Static dielectric constant tensor:
#      x y z
#    x 1.700040 0.000000 0.010990 
#    y 0.000000 1.663170 0.000000 
#    z 0.010990 0.000000 1.717550 
# 
# From -- ./inp_files/339035.got.cif
#   From: 2010.05.17/outbox.cif.g08.bks.cpg/sg12_170_cif.got.tgz:339035.got - 2010.06.03 13:09:07.
