data_PCOD9199822
_publ_section_title
;
Structure prediction by ZEFSAII (Michael W. Deem and Ramdas Pophale) SiO2 
 PCOD9199822
Probable space group: C 2/M
;
_chemical_formula_sum "Si O2"
_cell_formula_units_Z 64
_cell_length_a 15.435287
_cell_length_b 8.722874
_cell_length_c 29.868664
_cell_angle_alpha 90.000000
_cell_angle_beta 125.940290
_cell_angle_gamma 90.000000
_cell_volume 3255.938694
_symmetry_space_group_name_H-M "C 2/M"
_symmetry_group_IT_number 12
_symmetry_cell_setting 'monoclinic'
loop_
_space_group_symop_operation_xyz
x,y,z
-x,y,-z
-x,-y,-z
x,-y,z
1/2+x,1/2+y,z
1/2-x,1/2+y,-z
1/2-x,1/2-y,-z
1/2+x,1/2-y,z
loop_
_atom_site_type_symbol
_atom_site_label
_atom_site_fract_x
_atom_site_fract_y
_atom_site_fract_z
Si Si1 0.785664 0.185067 0.638344
Si Si2 0.461239 0.683620 0.764943
Si Si3 0.343186 0.815771 0.559881
Si Si4 0.188221 0.681354 0.816961
Si Si5 0.105348 0.682399 0.160378
Si Si6 0.922417 0.820869 0.046951
Si Si7 0.458243 0.813539 0.438468
Si Si8 0.760540 0.678265 0.931589
O O1 0.862773 0.224742 0.702768
O O2 0.828069 0.254776 0.605110
O O3 0.662847 0.236281 0.607106
O O4 0.785800 0.000000 0.634292
O O5 0.466060 0.500000 0.771665
O O6 0.572050 0.742540 0.777777
O O7 0.443943 0.758043 0.808144
O O8 0.250000 0.750000 0.500000
O O9 0.456228 0.766928 0.572771
O O10 0.337451 0.000000 0.557489
O O11 0.180651 0.500000 0.808962
O O12 0.276427 0.750299 0.810510
O O13 0.229605 0.722769 0.879349
O O14 0.107222 0.500000 0.160210
O O15 0.029777 0.743745 0.097551
O O16 0.835173 0.810723 0.060926
O O17 0.940129 0.000000 0.042739
O O18 0.866891 0.738008 0.988322
O O19 0.500000 0.763040 0.500000
O O20 0.457563 0.000000 0.439116
O O21 0.770839 0.500000 0.921645
#
# Coordination Sequence:
#
# PCOD9199822 Si02
#       8
#     8   8   8   8   8   8   8   8
#     4  10  22  41  64  90 122 162 203 252 307 365
#     4  11  24  44  66  91 126 165 211 263 320 379
#     4  11  21  35  60  91 125 162 205 249 299 362
#     4  12  25  42  66  92 124 167 215 262 318 380
#     4  12  25  42  66  93 125 165 213 264 320 377
#     4  10  20  36  61  92 128 164 206 256 317 382
#     4   9  17  34  60  87 121 162 200 236 293 363
#     4  10  20  36  61  92 128 163 206 259 317 378
#
# _framework density 19.656389000000001
#
# number of rings (size 3 to 8) (size 9 to 14) (size 15 to 20)
#    0.000    1.375    2.500    3.750    0.000    3.500 
#    0.000    5.625    0.000    0.000    0.000    0.000 
#    0.000    0.000    0.000    0.000    0.000    0.000 
#
# Total GULP energy -178982.909938 kJ/mol
# GULP energy per Si atom -5593.215936 kJ/mol
# Density = 1.961165 g / cm^3
# Si number density = 19.656389 Si / 1000 Ang^3
#
#
#
# Elastic Constant Matrix: (Units=GPa)
#
#
# Indices 1 2 3 4 5 6 
#
# 1 106.7433 19.8981 36.7653 0.0000 32.6973 0.0000
# 2 19.8981 65.1645 23.1066 0.0000 13.2414 0.0000
# 3 36.7653 23.1066 100.6265 0.0000 28.6533 0.0000
# 4 0.0000 0.0000 0.0000 25.9873 0.0000 -3.0055
# 5 32.6973 13.2414 28.6533 0.0000 29.0436 0.0000
# 6 0.0000 0.0000 0.0000 -3.0055 0.0000 30.2108
#
#
#
# Elastic Compliance Matrix: (Units=1/GPa)
#
#
# Indices 1 2 3 4 5 6 
#
# 1 0.014425 -0.001091 -0.000747 0.000000 -0.015006 0.000000
# 2 -0.001091 0.017403 -0.002348 0.000000 -0.004390 0.000000
# 3 -0.000747 -0.002348 0.014193 0.000000 -0.012090 0.000000
# 4 0.000000 0.000000 0.000000 0.038928 0.000000 0.003873
# 5 -0.015006 -0.004390 -0.012090 0.000000 0.065254 0.000000
# 6 0.000000 0.000000 0.000000 0.003873 0.000000 0.033486
#
#
# Mechanical properties :
#
#
# Convention : Reuss Voigt Hill
#
# Bulk Modulus (GPa) = 26.56021 48.00827 37.28424
# Shear Modulus (GPa) = 24.43665 29.89929 27.16797
#
# Velocity S-wave (km/s) = 3.52972 3.90436 3.72175
# Velocity P-wave (km/s) = 5.49122 6.69344 6.12191
#
# Compressibility (1/GPa) = 0.03765030
#
# Stress axis : x y z
#
# Youngs Moduli (GPa) = 69.32185 57.46002 70.45974
#
# Poissons Ratio (x) = 0.06267 0.05265
# Poissons Ratio (y) = 0.07561 0.16541
# Poissons Ratio (z) = 0.05180 0.13489
#
# Static dielectric constant tensor:
#      x y z
#    x 1.694120 0.000000 0.008930 
#    y 0.000000 1.658230 0.000000 
#    z 0.008930 0.000000 1.661510 
# 
# From -- ./inp_files/375608.got.cif
#   From: 2010.05.17/outbox.cif.g08.bks.cpg/sg12_188_cif.got.tgz:375608.got - 2010.06.03 13:09:07.
