data_PCOD9199638
_publ_section_title
;
Structure prediction by ZEFSAII (Michael W. Deem and Ramdas Pophale) SiO2 
 PCOD9199638
Probable space group: C 2/M
;
_chemical_formula_sum "Si O2"
_cell_formula_units_Z 64
_cell_length_a 29.808299
_cell_length_b 19.101624
_cell_length_c 9.837434
_cell_angle_alpha 90.000000
_cell_angle_beta 143.125160
_cell_angle_gamma 90.000000
_cell_volume 3361.170269
_symmetry_space_group_name_H-M "C 2/M"
_symmetry_group_IT_number 12
_symmetry_cell_setting 'monoclinic'
loop_
_space_group_symop_operation_xyz
x,y,z
-x,y,-z
-x,-y,-z
x,-y,z
1/2+x,1/2+y,z
1/2-x,1/2+y,-z
1/2-x,1/2-y,-z
1/2+x,1/2-y,z
loop_
_atom_site_type_symbol
_atom_site_label
_atom_site_fract_x
_atom_site_fract_y
_atom_site_fract_z
Si Si1 0.704502 0.195753 0.982593
Si Si2 0.434692 0.079217 0.731287
Si Si3 0.734290 0.417431 0.670566
Si Si4 0.811703 0.344810 0.609274
Si Si5 0.047707 0.331785 0.483820
Si Si6 0.842492 0.782657 0.867171
Si Si7 0.936460 0.083315 0.739135
Si Si8 0.498567 0.328802 0.337493
O O1 0.635052 0.165836 0.730736
O O2 0.750000 0.250000 0.000000
O O3 0.750171 0.132634 0.162869
O O4 0.670423 0.239466 0.025647
O O5 0.365549 0.119009 0.632550
O O6 0.465767 0.119630 0.676667
O O7 0.413151 0.000000 0.643283
O O8 0.500000 0.077293 0.000000
O O9 0.742750 0.500000 0.720364
O O10 0.789593 0.393783 0.683614
O O11 0.648317 0.404329 0.417413
O O12 0.849553 0.274754 0.763901
O O13 0.733489 0.323443 0.350446
O O14 0.000000 0.352708 0.500000
O O15 0.026088 0.251623 0.398871
O O16 0.915398 0.828675 0.071923
O O17 0.950038 0.123240 0.631457
O O18 0.945020 0.000000 0.739750
O O19 0.000000 0.106083 0.000000
O O20 0.500000 0.349068 0.500000
#
# Coordination Sequence:
#
# PCOD9199638 Si02
#       8
#     8   8   8   8   8   8   8   8
#     4  11  21  37  62  88 123 160 205 254 304 366
#     4  11  25  42  63  89 122 166 209 256 312 365
#     4  10  22  38  61  89 121 164 205 252 310 366
#     4  10  21  39  61  89 124 154 206 261 305 368
#     4  11  23  41  62  92 125 160 205 258 304 366
#     4  10  20  36  60  93 118 157 203 251 313 357
#     4  10  22  40  61  90 123 159 204 247 299 369
#     4  11  21  37  63  90 123 160 198 250 306 364
#
# _framework density 19.040987000000001
#
# number of rings (size 3 to 8) (size 9 to 14) (size 15 to 20)
#    0.000    1.500    2.500    3.375    1.750    4.500 
#    0.000    0.625    0.000    0.000    0.000    0.000 
#    0.000    0.000    0.000    0.000    0.000    0.000 
#
# Total GULP energy -178774.300852 kJ/mol
# GULP energy per Si atom -5586.696902 kJ/mol
# Density = 1.899765 g / cm^3
# Si number density = 19.040987 Si / 1000 Ang^3
#
#
#
# Elastic Constant Matrix: (Units=GPa)
#
#
# Indices 1 2 3 4 5 6 
#
# 1 90.8370 35.1043 5.9279 0.0000 -10.3056 0.0000
# 2 35.1043 47.4979 7.0423 0.0000 -9.3950 0.0000
# 3 5.9279 7.0423 72.0448 0.0000 -1.2525 0.0000
# 4 0.0000 0.0000 0.0000 26.5462 0.0000 3.1754
# 5 -10.3056 -9.3950 -1.2525 0.0000 29.9483 0.0000
# 6 0.0000 0.0000 0.0000 3.1754 0.0000 13.6505
#
#
#
# Elastic Compliance Matrix: (Units=1/GPa)
#
#
# Indices 1 2 3 4 5 6 
#
# 1 0.015508 -0.011070 -0.000162 0.000000 0.001857 0.000000
# 2 -0.011070 0.030663 -0.001987 0.000000 0.005727 0.000000
# 3 -0.000162 -0.001987 0.014086 0.000000 -0.000090 0.000000
# 4 0.000000 0.000000 0.000000 0.038748 0.000000 -0.009014
# 5 0.001857 0.005727 -0.000090 0.000000 0.035823 0.000000
# 6 0.000000 0.000000 0.000000 -0.009014 0.000000 0.075354
#
#
# Mechanical properties :
#
#
# Convention : Reuss Voigt Hill
#
# Bulk Modulus (GPa) = 29.56885 34.05875 31.81380
# Shear Modulus (GPa) = 20.17005 24.84936 22.50971
#
# Velocity S-wave (km/s) = 3.25821 3.61646 3.44200
# Velocity P-wave (km/s) = 5.45136 5.94679 5.70446
#
# Compressibility (1/GPa) = 0.03381938
#
# Stress axis : x y z
#
# Youngs Moduli (GPa) = 64.48241 32.61307 70.99144
#
# Poissons Ratio (x) = 0.36104 0.01147
# Poissons Ratio (y) = 0.71384 0.14105
# Poissons Ratio (z) = 0.01042 0.06480
#
# Static dielectric constant tensor:
#      x y z
#    x 1.646460 0.000000 0.014090 
#    y 0.000000 1.642410 0.000000 
#    z 0.014090 0.000000 1.668310 
# 
# From -- ./inp_files/112902.got.cif
#   From: 2010.05.17/outbox.cif.g08.bks.cpg/sg12_57_cif.got.tgz:112902.got - 2010.06.03 13:09:07.
