data_PCOD9199535
_publ_section_title
;
Structure prediction by ZEFSAII (Michael W. Deem and Ramdas Pophale) SiO2 
 PCOD9199535
Probable space group: C 2/M
;
_chemical_formula_sum "Si O2"
_cell_formula_units_Z 52
_cell_length_a 16.015757
_cell_length_b 9.206278
_cell_length_c 20.506298
_cell_angle_alpha 90.000000
_cell_angle_beta 123.812844
_cell_angle_gamma 90.000000
_cell_volume 2512.155611
_symmetry_space_group_name_H-M "C 2/M"
_symmetry_group_IT_number 12
_symmetry_cell_setting 'monoclinic'
loop_
_space_group_symop_operation_xyz
x,y,z
-x,y,-z
-x,-y,-z
x,-y,z
1/2+x,1/2+y,z
1/2-x,1/2+y,-z
1/2-x,1/2-y,-z
1/2+x,1/2-y,z
loop_
_atom_site_type_symbol
_atom_site_label
_atom_site_fract_x
_atom_site_fract_y
_atom_site_fract_z
Si Si1 0.888534 0.166251 0.480826
Si Si2 0.000000 0.776221 0.000000
Si Si3 0.354297 0.335384 0.056120
Si Si4 0.828398 0.826315 0.842996
Si Si5 0.273030 0.667213 0.673807
Si Si6 0.048148 0.830877 0.351883
Si Si7 0.394328 0.831213 0.199261
O O1 0.814912 0.248936 0.400781
O O2 0.900873 0.225637 0.559566
O O3 0.000000 0.166897 0.500000
O O4 0.852717 0.000000 0.470801
O O5 0.087523 0.724689 0.087460
O O6 0.923405 0.840445 0.021558
O O7 0.330375 0.500000 0.064688
O O8 0.411948 0.257157 0.140449
O O9 0.250000 0.250000 0.000000
O O10 0.804385 0.781171 0.758944
O O11 0.724152 0.821935 0.836650
O O12 0.861848 0.000000 0.857934
O O13 0.241041 0.500000 0.668377
O O14 0.369326 0.671727 0.668909
O O15 0.955013 0.738846 0.285378
O O16 0.018400 0.000000 0.350542
O O17 0.421012 0.000000 0.203154
#
# Coordination Sequence:
#
# PCOD9199535 Si02
#       7
#     8   4   8   8   8   8   8
#     4  10  21  37  58  86 122 159 198 250 317 380
#     4  12  23  42  71  94 125 176 221 262 321 390
#     4  12  24  42  68  95 127 169 216 267 322 383
#     4  10  20  36  60  89 118 158 212 260 308 378
#     4  10  21  37  59  87 117 155 210 259 301 375
#     4  10  21  38  60  87 120 161 208 254 310 382
#     4  11  23  40  62  92 128 163 209 264 319 381
#
# _framework density 20.699354
#
# number of rings (size 3 to 8) (size 9 to 14) (size 15 to 20)
#    0.000    1.385    1.538    4.615    0.000    2.769 
#    0.000    2.308    0.000    0.000    0.000    0.000 
#    0.000    0.000    0.000    0.000    0.000    0.000 
#
# Total GULP energy -145048.371269 kJ/mol
# GULP energy per Si atom -5578.783510 kJ/mol
# Density = 2.065224 g / cm^3
# Si number density = 20.699354 Si / 1000 Ang^3
#
#
#
# Elastic Constant Matrix: (Units=GPa)
#
#
# Indices 1 2 3 4 5 6 
#
# 1 60.2839 14.7373 33.1417 0.0000 -7.0396 0.0000
# 2 14.7373 72.6764 58.1364 0.0000 8.2539 0.0000
# 3 33.1417 58.1364 199.3715 0.0000 -4.0015 0.0000
# 4 0.0000 0.0000 0.0000 -5.4974 0.0000 8.7484
# 5 -7.0396 8.2539 -4.0015 0.0000 48.1508 0.0000
# 6 0.0000 0.0000 0.0000 8.7484 0.0000 -0.4463
#
#
#
# Elastic Compliance Matrix: (Units=1/GPa)
#
#
# Indices 1 2 3 4 5 6 
#
# 1 0.018801 -0.002206 -0.002423 0.000000 0.002926 0.000000
# 2 -0.002206 0.018819 -0.005201 0.000000 -0.003981 0.000000
# 3 -0.002423 -0.005201 0.006958 0.000000 0.001115 0.000000
# 4 0.000000 0.000000 0.000000 0.006025 0.000000 0.118092
# 5 0.002926 -0.003981 0.001115 0.000000 0.021971 0.000000
# 6 0.000000 0.000000 0.000000 0.118092 0.000000 0.074207
#
#
# Mechanical properties :
#
#
# Convention : Reuss Voigt Hill
#
# Bulk Modulus (GPa) = 40.13246 60.48473 50.30860
# Shear Modulus (GPa) = 28.61259 23.52918 26.07089
#
# Velocity S-wave (km/s) = 3.72195 3.37517 3.55280
# Velocity P-wave (km/s) = 6.15638 6.66881 6.41771
#
# Compressibility (1/GPa) = 0.02491748
#
# Stress axis : x y z
#
# Youngs Moduli (GPa) = 53.18747 53.13647 143.72895
#
# Poissons Ratio (x) = 0.11723 0.34830
# Poissons Ratio (y) = 0.11735 0.74751
# Poissons Ratio (z) = 0.12889 0.27636
#
# Static dielectric constant tensor:
#      x y z
#    x 1.732010 0.000000 -0.014830 
#    y 0.000000 1.739090 0.000000 
#    z -0.014830 0.000000 1.752890 
# 
# From -- ./inp_files/314909.got.cif
#   From: 2010.05.17/outbox.cif.g08.bks.cpg/sg12_158_cif.got.tgz:314909.got - 2010.06.03 13:09:07.
