data_PCOD9199087
_publ_section_title
;
Structure prediction by ZEFSAII (Michael W. Deem and Ramdas Pophale) SiO2 
 PCOD9199087
Probable space group: C 2/M
;
_chemical_formula_sum "Si O2"
_cell_formula_units_Z 48
_cell_length_a 24.077241
_cell_length_b 8.781670
_cell_length_c 12.952332
_cell_angle_alpha 90.000000
_cell_angle_beta 89.812825
_cell_angle_gamma 90.000000
_cell_volume 2738.605546
_symmetry_space_group_name_H-M "C 2/M"
_symmetry_group_IT_number 12
_symmetry_cell_setting 'monoclinic'
loop_
_space_group_symop_operation_xyz
x,y,z
-x,y,-z
-x,-y,-z
x,-y,z
1/2+x,1/2+y,z
1/2-x,1/2+y,-z
1/2-x,1/2-y,-z
1/2+x,1/2-y,z
loop_
_atom_site_type_symbol
_atom_site_label
_atom_site_fract_x
_atom_site_fract_y
_atom_site_fract_z
Si Si1 0.885329 0.183995 0.689706
Si Si2 0.498913 0.817457 0.378738
Si Si3 0.311169 0.683165 0.493314
Si Si4 0.317068 0.181919 0.111233
Si Si5 0.115201 0.182692 0.703209
Si Si6 0.188755 0.183395 0.113950
O O1 0.847802 0.229199 0.591770
O O2 0.852667 0.226843 0.793949
O O3 0.945372 0.257458 0.675522
O O4 0.890851 0.000000 0.688306
O O5 0.500000 0.770516 0.500000
O O6 0.444688 0.749691 0.324524
O O7 0.496966 0.000000 0.375107
O O8 0.307508 0.500000 0.494154
O O9 0.250000 0.750000 0.500000
O O10 0.342942 0.729872 0.389139
O O11 0.359330 0.257466 0.190505
O O12 0.252943 0.222569 0.139514
O O13 0.322241 0.000000 0.115947
O O14 0.325602 0.239308 0.994501
O O15 0.111958 0.000000 0.704567
O O16 0.186613 0.000000 0.101597
#
# Coordination Sequence:
#
# PCOD9199087 Si02
#       6
#     8   8   8   8   8   8
#     4  10  20  37  58  81 112 149 189 230 276 335
#     4  11  23  38  57  82 112 149 190 235 283 332
#     4  10  21  34  53  82 114 146 180 225 279 333
#     4  10  20  36  59  85 117 150 186 234 281 331
#     4  11  22  37  58  82 112 150 191 230 276 338
#     4   9  19  36  59  85 115 151 188 228 280 338
#
# _framework density 17.527166999999999
#
# number of rings (size 3 to 8) (size 9 to 14) (size 15 to 20)
#    0.000    1.833    1.667    2.500    0.000    5.333 
#    0.000    0.833    0.000    5.000    0.000    0.000 
#    0.000    0.000    0.000    0.000    0.000    0.000 
#
# Total GULP energy -134063.767715 kJ/mol
# GULP energy per Si atom -5585.990321 kJ/mol
# Density = 1.748727 g / cm^3
# Si number density = 17.527167 Si / 1000 Ang^3
#
#
#
# Elastic Constant Matrix: (Units=GPa)
#
#
# Indices 1 2 3 4 5 6 
#
# 1 137.2594 38.5218 71.7240 0.0000 25.8050 0.0000
# 2 38.5218 32.5001 37.3357 0.0000 9.8086 0.0000
# 3 71.7240 37.3357 110.8763 0.0000 18.9303 0.0000
# 4 0.0000 0.0000 0.0000 13.6725 0.0000 -5.3198
# 5 25.8050 9.8086 18.9303 0.0000 26.8612 0.0000
# 6 0.0000 0.0000 0.0000 -5.3198 0.0000 31.7342
#
#
#
# Elastic Compliance Matrix: (Units=1/GPa)
#
#
# Indices 1 2 3 4 5 6 
#
# 1 0.013303 -0.008490 -0.004654 0.000000 -0.006400 0.000000
# 2 -0.008490 0.056888 -0.013084 0.000000 -0.003396 0.000000
# 3 -0.004654 -0.013084 0.016889 0.000000 -0.002653 0.000000
# 4 0.000000 0.000000 0.000000 0.078243 0.000000 0.013116
# 5 -0.006400 -0.003396 -0.002653 0.000000 0.046487 0.000000
# 6 0.000000 0.000000 0.000000 0.013116 0.000000 0.033711
#
#
# Mechanical properties :
#
#
# Convention : Reuss Voigt Hill
#
# Bulk Modulus (GPa) = 28.88231 63.97765 46.42998
# Shear Modulus (GPa) = 16.15411 23.32386 19.73899
#
# Velocity S-wave (km/s) = 3.03918 3.65187 3.35952
# Velocity P-wave (km/s) = 5.36934 7.37311 6.44952
#
# Compressibility (1/GPa) = 0.03462327
#
# Stress axis : x y z
#
# Youngs Moduli (GPa) = 75.16843 17.57834 59.21147
#
# Poissons Ratio (x) = 0.14924 0.27558
# Poissons Ratio (y) = 0.63819 0.77473
# Poissons Ratio (z) = 0.34985 0.23000
#
# Static dielectric constant tensor:
#      x y z
#    x 1.564070 0.000000 -0.007160 
#    y 0.000000 1.588780 0.000000 
#    z -0.007160 0.000000 1.575990 
# 
# From -- ./inp_files/172103.got.cif
#   From: 2010.05.17/outbox.cif.g08.bks.cpg/sg12_87_cif.got.tgz:172103.got - 2010.06.03 13:09:07.
