data_PCOD9199904
_publ_section_title
;
Structure prediction by ZEFSAII (Michael W. Deem and Ramdas Pophale) SiO2 
 PCOD9199904
Probable space group: C 2/M
;
_chemical_formula_sum "Si O2"
_cell_formula_units_Z 52
_cell_length_a 12.897872
_cell_length_b 33.880378
_cell_length_c 8.954959
_cell_angle_alpha 90.000000
_cell_angle_beta 142.746971
_cell_angle_gamma 90.000000
_cell_volume 2368.789468
_symmetry_space_group_name_H-M "C 2/M"
_symmetry_group_IT_number 12
_symmetry_cell_setting 'monoclinic'
loop_
_space_group_symop_operation_xyz
x,y,z
-x,y,-z
-x,-y,-z
x,-y,z
1/2+x,1/2+y,z
1/2-x,1/2+y,-z
1/2-x,1/2-y,-z
1/2+x,1/2-y,z
loop_
_atom_site_type_symbol
_atom_site_label
_atom_site_fract_x
_atom_site_fract_y
_atom_site_fract_z
Si Si1 0.204559 0.250978 0.271406
Si Si2 0.818978 0.673099 0.230101
Si Si3 0.000000 0.404246 0.000000
Si Si4 0.151931 0.454462 0.430339
Si Si5 0.322001 0.830074 0.876668
Si Si6 0.024832 0.954683 0.697567
Si Si7 0.677841 0.408720 0.123838
O O1 0.250000 0.250000 0.500000
O O2 0.283970 0.214609 0.269883
O O3 0.284318 0.293032 0.306877
O O4 0.000000 0.245677 0.000000
O O5 0.692538 0.638183 0.131494
O O6 0.000000 0.659032 0.500000
O O7 0.825033 0.674232 0.057649
O O8 0.030447 0.431001 0.178437
O O9 0.168133 0.375858 0.163778
O O10 0.102556 0.500000 0.398564
O O11 0.338081 0.454654 0.561464
O O12 0.178836 0.429921 0.612604
O O13 0.500000 0.819277 0.000000
O O14 0.000000 0.941995 0.500000
O O15 0.087021 0.000000 0.770763
O O16 0.156435 0.927546 0.937278
O O17 0.500000 0.418663 0.000000
#
# Coordination Sequence:
#
# PCOD9199904 Si02
#       7
#     8   8   4   8   8   8   8
#     4  11  24  45  70  96 133 171 221 268 331 393
#     4  12  23  40  67  96 132 172 217 268 329 388
#     4  10  21  38  64  90 130 160 214 258 325 380
#     4  10  20  36  62  89 125 169 210 259 322 386
#     4   9  22  40  61  90 122 170 206 266 318 381
#     4   9  19  36  59  86 119 162 212 265 317 380
#     4  10  22  39  61  91 128 167 219 264 324 383
#
# _framework density 21.952141000000001
#
# number of rings (size 3 to 8) (size 9 to 14) (size 15 to 20)
#    0.462    1.385    0.000    4.385    4.308    1.846 
#    0.000    0.000    0.000    1.846    0.000    0.000 
#    0.000    0.000    0.000    0.000    0.000    0.000 
#
# Total GULP energy -144873.486155 kJ/mol
# GULP energy per Si atom -5572.057160 kJ/mol
# Density = 2.190218 g / cm^3
# Si number density = 21.952141 Si / 1000 Ang^3
#
#
#
# Elastic Constant Matrix: (Units=GPa)
#
#
# Indices 1 2 3 4 5 6 
#
# 1 68.1324 25.3553 22.8743 0.0000 -19.2368 0.0000
# 2 25.3553 152.3879 43.9752 0.0000 -21.6904 0.0000
# 3 22.8743 43.9752 85.5579 0.0000 -18.9063 0.0000
# 4 0.0000 0.0000 0.0000 10.0579 0.0000 23.4139
# 5 -19.2368 -21.6904 -18.9063 0.0000 28.4117 0.0000
# 6 0.0000 0.0000 0.0000 23.4139 0.0000 -64.5300
#
#
#
# Elastic Compliance Matrix: (Units=1/GPa)
#
#
# Indices 1 2 3 4 5 6 
#
# 1 0.018738 -0.000997 -0.002183 0.000000 0.010473 0.000000
# 2 -0.000997 0.008126 -0.003152 0.000000 0.003431 0.000000
# 3 -0.002183 -0.003152 0.015280 0.000000 0.006284 0.000000
# 4 0.000000 0.000000 0.000000 0.053899 0.000000 0.019556
# 5 0.010473 0.003431 0.006284 0.000000 0.049089 0.000000
# 6 0.000000 0.000000 0.000000 0.019556 0.000000 -0.008401
#
#
# Mechanical properties :
#
#
# Convention : Reuss Voigt Hill
#
# Bulk Modulus (GPa) = 33.92037 54.49867 44.20952
# Shear Modulus (GPa) = 31.40271 9.04615 20.22443
#
# Velocity S-wave (km/s) = 3.78631 2.03219 3.03858
# Velocity P-wave (km/s) = 5.88221 5.51239 5.70030
#
# Compressibility (1/GPa) = 0.02948081
#
# Stress axis : x y z
#
# Youngs Moduli (GPa) = 53.36648 123.06132 65.44431
#
# Poissons Ratio (x) = 0.12271 0.14286
# Poissons Ratio (y) = 0.05321 0.20627
# Poissons Ratio (z) = 0.11649 0.38787
#
# Static dielectric constant tensor:
#      x y z
#    x 1.802930 0.000000 0.016530 
#    y 0.000000 1.874520 0.000000 
#    z 0.016530 0.000000 1.782570 
# 
# From -- ./inp_files/68672.got.cif
#   From: 2010.05.17/outbox.cif.g08.bks.cpg/sg12_35_cif.got.tgz:68672.got - 2010.06.03 13:09:07.
