data_PCOD9199512
_publ_section_title
;
Structure prediction by ZEFSAII (Michael W. Deem and Ramdas Pophale) SiO2 
 PCOD9199512
Probable space group: C 2/M
;
_chemical_formula_sum "Si O2"
_cell_formula_units_Z 64
_cell_length_a 13.524765
_cell_length_b 14.739867
_cell_length_c 23.527341
_cell_angle_alpha 90.000000
_cell_angle_beta 41.242912
_cell_angle_gamma 90.000000
_cell_volume 3092.061499
_symmetry_space_group_name_H-M "C 2/M"
_symmetry_group_IT_number 12
_symmetry_cell_setting 'monoclinic'
loop_
_space_group_symop_operation_xyz
x,y,z
-x,y,-z
-x,-y,-z
x,-y,z
1/2+x,1/2+y,z
1/2-x,1/2+y,-z
1/2-x,1/2-y,-z
1/2+x,1/2-y,z
loop_
_atom_site_type_symbol
_atom_site_label
_atom_site_fract_x
_atom_site_fract_y
_atom_site_fract_z
Si Si1 0.733144 0.601964 0.257767
Si Si2 0.425151 0.827294 0.779135
Si Si3 0.333921 0.109591 0.092527
Si Si4 0.622147 0.286404 0.096686
Si Si5 0.085842 0.890716 0.902777
Si Si6 0.377481 0.769668 0.507689
Si Si7 0.057974 0.184948 0.636677
Si Si8 0.269081 0.102211 0.367485
O O1 0.792542 0.500000 0.238652
O O2 0.809788 0.640769 0.168170
O O3 0.554919 0.603354 0.324139
O O4 0.746409 0.644034 0.314226
O O5 0.432398 0.799383 0.842297
O O6 0.257198 0.856790 0.836088
O O7 0.486095 0.739388 0.719642
O O8 0.551121 0.898810 0.705869
O O9 0.208733 0.149583 0.104778
O O10 0.323109 0.000000 0.096830
O O11 0.500000 0.135677 0.000000
O O12 0.499559 0.339418 0.111856
O O13 0.750000 0.250000 0.000000
O O14 0.083219 0.000000 0.894928
O O15 0.000000 0.872774 0.000000
O O16 0.500000 0.797910 0.500000
O O17 0.232581 0.834096 0.570120
O O18 0.443409 0.752526 0.417029
O O19 0.311466 0.671045 0.555276
O O20 0.208875 0.000000 0.397620
#
# Coordination Sequence:
#
# PCOD9199512 Si02
#       8
#     8   8   8   8   8   8   8   8
#     4  10  20  36  60  88 121 156 196 244 298 355
#     4  11  24  40  63  87 125 163 206 257 296 363
#     4  10  23  40  59  85 124 163 198 246 300 354
#     4  12  25  37  62  90 116 158 214 255 296 353
#     4  11  25  44  62  87 126 169 208 254 312 365
#     4  10  20  36  61  84 118 152 187 242 306 357
#     4  10  21  37  57  88 117 154 196 242 300 359
#     4  10  22  38  61  94 121 153 196 248 312 367
#
# _framework density 20.698167000000002
#
# number of rings (size 3 to 8) (size 9 to 14) (size 15 to 20)
#    0.000    1.500    3.750    0.750    5.250    0.750 
#    0.000    0.000    0.000    0.375    0.000    0.000 
#    0.000    0.000    0.000    0.000    0.000    0.000 
#
# Total GULP energy -178522.681627 kJ/mol
# GULP energy per Si atom -5578.833801 kJ/mol
# Density = 2.065106 g / cm^3
# Si number density = 20.698167 Si / 1000 Ang^3
#
#
#
# Elastic Constant Matrix: (Units=GPa)
#
#
# Indices 1 2 3 4 5 6 
#
# 1 106.3109 -4.5617 6.2961 0.0000 -3.6805 0.0000
# 2 -4.5617 34.9776 -12.7995 0.0000 3.4114 0.0000
# 3 6.2961 -12.7995 80.9030 0.0000 10.7861 0.0000
# 4 0.0000 0.0000 0.0000 13.9767 0.0000 -4.1079
# 5 -3.6805 3.4114 10.7861 0.0000 41.6865 0.0000
# 6 0.0000 0.0000 0.0000 -4.1079 0.0000 26.1477
#
#
#
# Elastic Compliance Matrix: (Units=1/GPa)
#
#
# Indices 1 2 3 4 5 6 
#
# 1 0.009521 0.000882 -0.000729 0.000000 0.000957 0.000000
# 2 0.000882 0.031040 0.005355 0.000000 -0.003848 0.000000
# 3 -0.000729 0.005355 0.013808 0.000000 -0.004075 0.000000
# 4 0.000000 0.000000 0.000000 0.075011 0.000000 0.011785
# 5 0.000957 -0.003848 -0.004075 0.000000 0.025442 0.000000
# 6 0.000000 0.000000 0.000000 0.011785 0.000000 0.040096
#
#
# Mechanical properties :
#
#
# Convention : Reuss Voigt Hill
#
# Bulk Modulus (GPa) = 15.29447 22.22903 18.76175
# Shear Modulus (GPa) = 24.30768 31.91262 28.11015
#
# Velocity S-wave (km/s) = 3.43065 3.93085 3.68924
# Velocity P-wave (km/s) = 4.80602 5.60045 5.21837
#
# Compressibility (1/GPa) = 0.06538311
#
# Stress axis : x y z
#
# Youngs Moduli (GPa) = 105.03643 32.21688 72.42300
#
# Poissons Ratio (x) = -0.02840 0.05280
# Poissons Ratio (y) = -0.09259 -0.38784
# Poissons Ratio (z) = 0.07658 -0.17253
#
# Static dielectric constant tensor:
#      x y z
#    x 1.785550 0.000000 -0.007020 
#    y 0.000000 1.759370 0.000000 
#    z -0.007020 0.000000 1.742150 
# 
# From -- ./inp_files/306186.got.cif
#   From: 2010.05.17/outbox.cif.g08.bks.cpg/sg12_154_cif.got.tgz:306186.got - 2010.06.03 13:09:07.
