data_PCOD9199141
_publ_section_title
;
Structure prediction by ZEFSAII (Michael W. Deem and Ramdas Pophale) SiO2 
 PCOD9199141
Probable space group: C 2/M
;
_chemical_formula_sum "Si O2"
_cell_formula_units_Z 64
_cell_length_a 31.028814
_cell_length_b 8.129643
_cell_length_c 14.739138
_cell_angle_alpha 90.000000
_cell_angle_beta 53.081475
_cell_angle_gamma 90.000000
_cell_volume 2972.501186
_symmetry_space_group_name_H-M "C 2/M"
_symmetry_group_IT_number 12
_symmetry_cell_setting 'monoclinic'
loop_
_space_group_symop_operation_xyz
x,y,z
-x,y,-z
-x,-y,-z
x,-y,z
1/2+x,1/2+y,z
1/2-x,1/2+y,-z
1/2-x,1/2-y,-z
1/2+x,1/2-y,z
loop_
_atom_site_type_symbol
_atom_site_label
_atom_site_fract_x
_atom_site_fract_y
_atom_site_fract_z
Si Si1 0.006086 0.696055 0.094596
Si Si2 0.417448 0.307657 0.858967
Si Si3 0.869112 0.301473 0.585398
Si Si4 0.755931 0.193747 0.242534
Si Si5 0.701510 0.811754 0.998775
Si Si6 0.700238 0.197206 0.625651
Si Si7 0.952011 0.803088 0.624007
Si Si8 0.591484 0.799307 0.658109
O O1 0.997989 0.500000 0.099006
O O2 0.960459 0.760937 0.221444
O O3 0.062525 0.727109 0.073272
O O4 0.000000 0.761933 0.000000
O O5 0.429387 0.500000 0.851527
O O6 0.448256 0.237620 0.731228
O O7 0.354208 0.285227 0.921431
O O8 0.872128 0.500000 0.584350
O O9 0.806091 0.258173 0.658990
O O10 0.897141 0.232759 0.639414
O O11 0.900616 0.242700 0.455435
O O12 0.778675 0.292632 0.129239
O O13 0.790843 0.224206 0.287751
O O14 0.756420 0.000000 0.218691
O O15 0.689859 0.000000 0.036418
O O16 0.750000 0.750000 0.000000
O O17 0.750000 0.250000 0.500000
O O18 0.644838 0.245707 0.646995
O O19 0.700357 0.000000 0.634537
O O20 0.000000 0.736046 0.500000
O O21 0.958674 0.000000 0.622366
O O22 0.589611 0.000000 0.656979
#
# Coordination Sequence:
#
# PCOD9199141 Si02
#       8
#     8   8   8   8   8   8   8   8
#     4  10  22  40  64  91 122 165 216 266 318 379
#     4  11  24  43  65  92 129 167 210 264 319 378
#     4  10  20  36  59  86 119 158 199 249 303 370
#     4  11  23  40  61  91 126 161 208 259 316 384
#     4  12  26  45  68  95 128 169 214 262 321 383
#     4  11  21  37  60  89 127 170 212 264 322 381
#     4  10  22  39  60  88 122 156 196 250 308 365
#     4   9  19  37  58  85 124 164 207 259 315 373
#
# _framework density 21.530688999999999
#
# number of rings (size 3 to 8) (size 9 to 14) (size 15 to 20)
#    0.000    1.500    1.250    3.750    1.750    4.500 
#    0.000    1.250    0.000    0.000    0.000    0.000 
#    0.000    0.000    0.000    0.000    0.000    0.000 
#
# Total GULP energy -178936.022851 kJ/mol
# GULP energy per Si atom -5591.750714 kJ/mol
# Density = 2.148168 g / cm^3
# Si number density = 21.530689 Si / 1000 Ang^3
#
#
#
# Elastic Constant Matrix: (Units=GPa)
#
#
# Indices 1 2 3 4 5 6 
#
# 1 95.3789 -9.4474 24.6550 0.0000 17.8969 0.0000
# 2 -9.4474 19.7387 -0.0370 0.0000 -0.2432 0.0000
# 3 24.6550 -0.0370 97.4415 0.0000 16.7957 0.0000
# 4 0.0000 0.0000 0.0000 16.7348 0.0000 7.8040
# 5 17.8969 -0.2432 16.7957 0.0000 40.0763 0.0000
# 6 0.0000 0.0000 0.0000 7.8040 0.0000 20.7175
#
#
#
# Elastic Compliance Matrix: (Units=1/GPa)
#
#
# Indices 1 2 3 4 5 6 
#
# 1 0.012547 0.005944 -0.002385 0.000000 -0.004567 0.000000
# 2 0.005944 0.053482 -0.001166 0.000000 -0.001841 0.000000
# 3 -0.002385 -0.001166 0.011515 0.000000 -0.003768 0.000000
# 4 0.000000 0.000000 0.000000 0.072490 0.000000 -0.027306
# 5 -0.004567 -0.001841 -0.003768 0.000000 0.028560 0.000000
# 6 0.000000 0.000000 0.000000 -0.027306 0.000000 0.058554
#
#
# Mechanical properties :
#
#
# Convention : Reuss Voigt Hill
#
# Bulk Modulus (GPa) = 12.14624 26.98891 19.56758
# Shear Modulus (GPa) = 19.24518 28.66493 23.95506
#
# Velocity S-wave (km/s) = 2.99297 3.65273 3.33919
# Velocity P-wave (km/s) = 4.19493 5.50928 4.89641
#
# Compressibility (1/GPa) = 0.08232998
#
# Stress axis : x y z
#
# Youngs Moduli (GPa) = 79.70112 18.69783 86.84271
#
# Poissons Ratio (x) = -0.11115 0.20713
# Poissons Ratio (y) = -0.47378 0.10129
# Poissons Ratio (z) = 0.19010 0.02181
#
# Static dielectric constant tensor:
#      x y z
#    x 1.767940 0.000000 -0.005770 
#    y 0.000000 1.753240 0.000000 
#    z -0.005770 0.000000 1.788610 
# 
# From -- ./inp_files/249111.got.cif
#   From: 2010.05.17/outbox.cif.g08.bks.cpg/sg12_125_cif.got.tgz:249111.got - 2010.06.03 13:09:07.
