data_PCOD9199523
_publ_section_title
;
Structure prediction by ZEFSAII (Michael W. Deem and Ramdas Pophale) SiO2 
 PCOD9199523
Probable space group: C 2/M
;
_chemical_formula_sum "Si O2"
_cell_formula_units_Z 52
_cell_length_a 11.012450
_cell_length_b 20.186160
_cell_length_c 12.336569
_cell_angle_alpha 90.000000
_cell_angle_beta 104.653387
_cell_angle_gamma 90.000000
_cell_volume 2653.208015
_symmetry_space_group_name_H-M "C 2/M"
_symmetry_group_IT_number 12
_symmetry_cell_setting 'monoclinic'
loop_
_space_group_symop_operation_xyz
x,y,z
-x,y,-z
-x,-y,-z
x,-y,z
1/2+x,1/2+y,z
1/2-x,1/2+y,-z
1/2-x,1/2-y,-z
1/2+x,1/2-y,z
loop_
_atom_site_type_symbol
_atom_site_label
_atom_site_fract_x
_atom_site_fract_y
_atom_site_fract_z
Si Si1 0.294243 0.000000 0.919513
Si Si2 0.966040 0.773417 0.199400
Si Si3 0.762754 0.361905 0.861805
Si Si4 0.202488 0.333754 0.383595
Si Si5 0.817083 0.826323 0.622830
Si Si6 0.069415 0.367008 0.689186
Si Si7 0.953507 0.500000 0.170959
Si Si8 0.500000 0.799787 0.000000
O O1 0.216647 0.065536 0.879744
O O2 0.411435 0.000000 0.860022
O O3 0.352118 0.000000 0.052132
O O4 0.837937 0.806709 0.137130
O O5 0.934887 0.703936 0.250242
O O6 0.048468 0.824963 0.287691
O O7 0.032258 0.748365 0.106398
O O8 0.788584 0.358300 0.738013
O O9 0.881816 0.348566 0.966186
O O10 0.206674 0.253579 0.378611
O O11 0.309405 0.349453 0.496067
O O12 0.068447 0.360451 0.398726
O O13 0.701469 0.862983 0.655808
O O14 0.061637 0.433101 0.760808
#
# Coordination Sequence:
#
# PCOD9199523 Si02
#       8
#     4   8   8   8   8   8   4   4
#     4  11  22  38  56  87 121 159 200 243 298 355
#     4  11  22  37  60  87 119 156 194 248 296 361
#     4  12  22  38  61  88 119 154 202 244 298 352
#     4  10  20  36  60  89 116 156 193 254 291 348
#     4  10  21  37  59  87 122 151 200 242 303 353
#     4  11  19  38  59  92 116 153 199 246 302 345
#     4  11  22  36  63  87 121 158 198 251 299 348
#     4  12  20  37  56  91 118 148 200 256 300 341
#
# _framework density 19.598915999999999
#
# number of rings (size 3 to 8) (size 9 to 14) (size 15 to 20)
#    0.000    1.077    6.154    2.769    0.000    1.846 
#    0.000    3.077    0.000    2.308    0.000    0.000 
#    0.000    0.000    0.000    0.000    0.000    0.000 
#
# Total GULP energy -144765.427508 kJ/mol
# GULP energy per Si atom -5567.901058 kJ/mol
# Density = 1.955431 g / cm^3
# Si number density = 19.598916 Si / 1000 Ang^3
#
#
#
# Elastic Constant Matrix: (Units=GPa)
#
#
# Indices 1 2 3 4 5 6 
#
# 1 30.8776 20.6126 0.6294 0.0000 6.7671 0.0000
# 2 20.6126 87.7627 26.9315 0.0000 13.2812 0.0000
# 3 0.6294 26.9315 66.7839 0.0000 19.4528 0.0000
# 4 0.0000 0.0000 0.0000 -2.0046 0.0000 -8.5728
# 5 6.7671 13.2812 19.4528 0.0000 25.3197 0.0000
# 6 0.0000 0.0000 0.0000 -8.5728 0.0000 11.7405
#
#
#
# Elastic Compliance Matrix: (Units=1/GPa)
#
#
# Indices 1 2 3 4 5 6 
#
# 1 0.041479 -0.010198 0.006947 0.000000 -0.011074 0.000000
# 2 -0.010198 0.015770 -0.005988 0.000000 -0.000946 0.000000
# 3 0.006947 -0.005988 0.021835 0.000000 -0.015492 0.000000
# 4 0.000000 0.000000 0.000000 -0.121001 0.000000 -0.088354
# 5 -0.011074 -0.000946 -0.015492 0.000000 0.054853 0.000000
# 6 0.000000 0.000000 0.000000 -0.088354 0.000000 0.020661
#
#
# Mechanical properties :
#
#
# Convention : Reuss Voigt Hill
#
# Bulk Modulus (GPa) = 16.49966 31.30793 23.90380
# Shear Modulus (GPa) = 69.17845 16.16116 42.66981
#
# Velocity S-wave (km/s) = 5.94758 2.87469 4.67106
# Velocity P-wave (km/s) = 7.45667 5.19879 6.42765
#
# Compressibility (1/GPa) = 0.06060730
#
# Stress axis : x y z
#
# Youngs Moduli (GPa) = 24.10849 63.41062 45.79736
#
# Poissons Ratio (x) = 0.64667 -0.31817
# Poissons Ratio (y) = 0.24586 0.27423
# Poissons Ratio (z) = -0.16749 0.37970
#
# Static dielectric constant tensor:
#      x y z
#    x 1.727830 0.000000 -0.026970 
#    y 0.000000 1.685890 0.000000 
#    z -0.026970 0.000000 1.777610 
# 
# From -- ./inp_files/133368.got.cif
#   From: 2010.05.17/outbox.cif.g08.bks.cpg/sg12_67_cif.got.tgz:133368.got - 2010.06.03 13:09:07.
