data_PCOD9199825
_publ_section_title
;
Structure prediction by ZEFSAII (Michael W. Deem and Ramdas Pophale) SiO2 
 PCOD9199825
Probable space group: C 2/M
;
_chemical_formula_sum "Si O2"
_cell_formula_units_Z 40
_cell_length_a 14.720071
_cell_length_b 8.822778
_cell_length_c 14.335832
_cell_angle_alpha 90.000000
_cell_angle_beta 109.567653
_cell_angle_gamma 90.000000
_cell_volume 1754.295615
_symmetry_space_group_name_H-M "C 2/M"
_symmetry_group_IT_number 12
_symmetry_cell_setting 'monoclinic'
loop_
_space_group_symop_operation_xyz
x,y,z
-x,y,-z
-x,-y,-z
x,-y,z
1/2+x,1/2+y,z
1/2-x,1/2+y,-z
1/2-x,1/2-y,-z
1/2+x,1/2-y,z
loop_
_atom_site_type_symbol
_atom_site_label
_atom_site_fract_x
_atom_site_fract_y
_atom_site_fract_z
Si Si1 0.782631 0.820916 0.164907
Si Si2 0.097061 0.176085 0.422862
Si Si3 0.409163 0.673891 0.900294
Si Si4 0.018932 0.322153 0.776814
Si Si5 0.296852 0.176464 0.373666
O O1 0.690126 0.735170 0.091785
O O2 0.787199 0.769140 0.275082
O O3 0.884663 0.765795 0.161008
O O4 0.772277 0.000000 0.152441
O O5 0.017545 0.263940 0.335791
O O6 0.195669 0.181955 0.395261
O O7 0.124205 0.252171 0.530001
O O8 0.070542 0.000000 0.424707
O O9 0.395479 0.500000 0.864011
O O10 0.437279 0.778481 0.822982
O O11 0.500000 0.678751 0.000000
O O12 0.036154 0.500000 0.781623
O O13 0.317694 0.000000 0.360521
#
# Coordination Sequence:
#
# PCOD9199825 Si02
#       5
#     8   8   8   8   8
#     4  12  25  42  67  97 132 171 216 264 319 381
#     4  10  20  36  61  92 131 172 216 263 314 375
#     4  11  25  47  72  97 128 165 209 265 327 387
#     4  12  25  42  67  97 132 171 216 264 319 381
#     4  10  20  36  61  92 131 172 216 263 314 375
#
# _framework density 22.801176000000002
#
# number of rings (size 3 to 8) (size 9 to 14) (size 15 to 20)
#    0.000    1.000    2.000    5.400    0.000    4.800 
#    0.000    4.000    0.000    0.000    0.000    0.000 
#    0.000    0.000    0.000    0.000    0.000    0.000 
#
# Total GULP energy -112079.686857 kJ/mol
# GULP energy per Si atom -5603.984343 kJ/mol
# Density = 2.274928 g / cm^3
# Si number density = 22.801176 Si / 1000 Ang^3
#
#
#
# Elastic Constant Matrix: (Units=GPa)
#
#
# Indices 1 2 3 4 5 6 
#
# 1 70.2049 0.4754 2.4676 0.0000 13.8296 0.0000
# 2 0.4754 123.1113 8.6904 0.0000 15.3205 0.0000
# 3 2.4676 8.6904 61.9102 0.0000 19.2438 0.0000
# 4 0.0000 0.0000 0.0000 28.2219 0.0000 6.7251
# 5 13.8296 15.3205 19.2438 0.0000 37.0351 0.0000
# 6 0.0000 0.0000 0.0000 6.7251 0.0000 33.2957
#
#
#
# Elastic Compliance Matrix: (Units=1/GPa)
#
#
# Indices 1 2 3 4 5 6 
#
# 1 0.015532 0.000689 0.001402 0.000000 -0.006814 0.000000
# 2 0.000689 0.008595 -0.000058 0.000000 -0.003783 0.000000
# 3 0.001402 -0.000058 0.019392 0.000000 -0.010576 0.000000
# 4 0.000000 0.000000 0.000000 0.037225 0.000000 -0.007519
# 5 -0.006814 -0.003783 -0.010576 0.000000 0.036606 0.000000
# 6 0.000000 0.000000 0.000000 -0.007519 0.000000 0.031553
#
#
# Mechanical properties :
#
#
# Convention : Reuss Voigt Hill
#
# Bulk Modulus (GPa) = 21.01505 30.94368 25.97937
# Shear Modulus (GPa) = 31.11416 35.95008 33.53212
#
# Velocity S-wave (km/s) = 3.69804 3.97505 3.83904
# Velocity P-wave (km/s) = 5.24124 5.88800 5.57401
#
# Compressibility (1/GPa) = 0.04758495
#
# Stress axis : x y z
#
# Youngs Moduli (GPa) = 64.38207 116.34817 51.56757
#
# Poissons Ratio (x) = -0.08016 -0.07230
# Poissons Ratio (y) = -0.04436 0.00300
# Poissons Ratio (z) = -0.09027 0.00677
#
# Static dielectric constant tensor:
#      x y z
#    x 1.868590 0.000000 -0.007110 
#    y 0.000000 1.749680 0.000000 
#    z -0.007110 0.000000 1.832440 
# 
# From -- ./inp_files/41900.got.cif
#   From: 2010.05.17/outbox.cif.g08.bks.cpg/sg12_21_cif.got.tgz:41900.got - 2010.06.03 13:09:07.
