data_PCOD9199525
_publ_section_title
;
Structure prediction by ZEFSAII (Michael W. Deem and Ramdas Pophale) SiO2 
 PCOD9199525
Probable space group: C 2/M
;
_chemical_formula_sum "Si O2"
_cell_formula_units_Z 40
_cell_length_a 13.048008
_cell_length_b 13.297118
_cell_length_c 14.872734
_cell_angle_alpha 90.000000
_cell_angle_beta 138.245477
_cell_angle_gamma 90.000000
_cell_volume 1718.414837
_symmetry_space_group_name_H-M "C 2/M"
_symmetry_group_IT_number 12
_symmetry_cell_setting 'monoclinic'
loop_
_space_group_symop_operation_xyz
x,y,z
-x,y,-z
-x,-y,-z
x,-y,z
1/2+x,1/2+y,z
1/2-x,1/2+y,-z
1/2-x,1/2-y,-z
1/2+x,1/2-y,z
loop_
_atom_site_type_symbol
_atom_site_label
_atom_site_fract_x
_atom_site_fract_y
_atom_site_fract_z
Si Si1 0.948845 0.668745 0.564003
Si Si2 0.932399 0.646519 0.857809
Si Si3 0.752871 0.792415 0.851140
Si Si4 0.273229 0.385951 0.038992
Si Si5 0.196860 0.110071 0.543567
O O1 0.905476 0.788409 0.525001
O O2 0.810414 0.622134 0.531495
O O3 0.000000 0.630876 0.500000
O O4 0.105432 0.651764 0.720185
O O5 0.861710 0.752595 0.843503
O O6 0.799944 0.609268 0.703128
O O7 0.089889 0.633730 0.906946
O O8 0.000000 0.606463 0.000000
O O9 0.837808 0.852657 0.985372
O O10 0.688185 0.689988 0.856135
O O11 0.305703 0.500000 0.082326
O O12 0.118908 0.000000 0.486761
#
# Coordination Sequence:
#
# PCOD9199525 Si02
#       5
#     8   8   8   8   8
#     4  11  23  42  60  83 121 160 195 243 293 343
#     4  10  20  36  60  89 117 148 189 244 292 342
#     4  10  21  37  60  89 120 153 194 245 294 345
#     4  10  21  38  62  89 118 154 197 242 291 349
#     4  11  24  40  61  88 118 154 200 244 290 350
#
# _framework density 23.277266000000001
#
# number of rings (size 3 to 8) (size 9 to 14) (size 15 to 20)
#    0.000    1.600    4.000    0.600    0.000    8.800 
#    0.000    0.000    0.000   15.000    0.000    0.000 
#    0.000    0.000    0.000    0.000    0.000    0.000 
#
# Total GULP energy -111347.284110 kJ/mol
# GULP energy per Si atom -5567.364205 kJ/mol
# Density = 2.322429 g / cm^3
# Si number density = 23.277266 Si / 1000 Ang^3
#
#
#
# Elastic Constant Matrix: (Units=GPa)
#
#
# Indices 1 2 3 4 5 6 
#
# 1 97.7080 3.2819 16.7336 0.0000 -21.0365 0.0000
# 2 3.2819 64.4019 -11.1762 0.0000 -9.0420 0.0000
# 3 16.7336 -11.1762 70.4733 0.0000 -26.3017 0.0000
# 4 0.0000 0.0000 0.0000 -0.3104 0.0000 0.6151
# 5 -21.0365 -9.0420 -26.3017 0.0000 30.2461 0.0000
# 6 0.0000 0.0000 0.0000 0.6151 0.0000 1.8191
#
#
#
# Elastic Compliance Matrix: (Units=1/GPa)
#
#
# Indices 1 2 3 4 5 6 
#
# 1 0.012080 0.000811 0.000720 0.000001 0.009270 0.000000
# 2 0.000811 0.018544 0.007444 0.000001 0.012581 0.000000
# 3 0.000720 0.007444 0.024009 0.000001 0.023604 -0.000001
# 4 0.000001 0.000001 0.000001 -1.929179 0.000003 0.652337
# 5 0.009270 0.012581 0.023604 0.000003 0.063796 -0.000002
# 6 0.000000 0.000000 -0.000001 0.652337 -0.000002 0.329136
#
#
# Mechanical properties :
#
#
# Convention : Reuss Voigt Hill
#
# Bulk Modulus (GPa) = 13.77748 27.80685 20.79216
# Shear Modulus (GPa) = -3.38898 21.26724 8.93913
#
# Velocity S-wave (km/s) = -1.20792 3.02594 1.96179
# Velocity P-wave (km/s) = 1.99656 4.91735 3.75277
#
# Compressibility (1/GPa) = 0.07258221
#
# Stress axis : x y z
#
# Youngs Moduli (GPa) = 82.78207 53.92501 41.65185
#
# Poissons Ratio (x) = -0.04373 -0.02999
# Poissons Ratio (y) = -0.06713 -0.31004
# Poissons Ratio (z) = -0.05961 -0.40140
#
# Static dielectric constant tensor:
#      x y z
#    x 1.984140 0.000000 -0.049140 
#    y 0.000000 1.929340 0.000000 
#    z -0.049140 0.000000 1.859510 
# 
# From -- ./inp_files/215068.got.cif
#   From: 2010.05.17/outbox.cif.g08.bks.cpg/sg12_108_cif.got.tgz:215068.got - 2010.06.03 13:09:07.
