data_PCOD9199593
_publ_section_title
;
Structure prediction by ZEFSAII (Michael W. Deem and Ramdas Pophale) SiO2 
 PCOD9199593
Probable space group: C 2/M
;
_chemical_formula_sum "Si O2"
_cell_formula_units_Z 40
_cell_length_a 21.678749
_cell_length_b 8.737541
_cell_length_c 10.918935
_cell_angle_alpha 90.000000
_cell_angle_beta 107.305518
_cell_angle_gamma 90.000000
_cell_volume 1974.627925
_symmetry_space_group_name_H-M "C 2/M"
_symmetry_group_IT_number 12
_symmetry_cell_setting 'monoclinic'
loop_
_space_group_symop_operation_xyz
x,y,z
-x,y,-z
-x,-y,-z
x,-y,z
1/2+x,1/2+y,z
1/2-x,1/2+y,-z
1/2-x,1/2-y,-z
1/2+x,1/2-y,z
loop_
_atom_site_type_symbol
_atom_site_label
_atom_site_fract_x
_atom_site_fract_y
_atom_site_fract_z
Si Si1 0.010528 0.321767 0.368577
Si Si2 0.737149 0.326461 0.296750
Si Si3 0.046887 0.816473 0.913833
Si Si4 0.663262 0.825051 0.461867
Si Si5 0.189202 0.322489 0.034505
O O1 0.988396 0.500000 0.355633
O O2 0.979379 0.239886 0.233288
O O3 0.000000 0.258803 0.500000
O O4 0.087532 0.318528 0.399817
O O5 0.729554 0.500000 0.245810
O O6 0.696282 0.299833 0.395636
O O7 0.810809 0.302107 0.384329
O O8 0.709415 0.205930 0.186310
O O9 0.047819 0.000000 0.916387
O O10 0.119845 0.755527 0.972821
O O11 0.000000 0.765971 0.000000
O O12 0.684166 0.000000 0.443133
O O13 0.183694 0.500000 0.000272
O O14 0.250000 0.250000 0.000000
#
# Coordination Sequence:
#
# PCOD9199593 Si02
#       5
#     8   8   8   8   8
#     4  10  22  39  62  92 126 167 213 263 319 380
#     4  10  20  36  60  90 123 161 206 256 310 373
#     4  11  25  45  68  97 132 173 221 273 325 387
#     4   9  19  36  59  88 123 163 206 251 309 375
#     4  12  26  43  65  93 128 168 213 266 326 387
#
# _framework density 20.256979999999999
#
# number of rings (size 3 to 8) (size 9 to 14) (size 15 to 20)
#    0.000    1.600    0.000    4.200    2.800    6.800 
#    0.000    0.000    0.000    0.000    0.000    0.000 
#    0.000    0.000    0.000    0.000    0.000    0.000 
#
# Total GULP energy -111610.408886 kJ/mol
# GULP energy per Si atom -5580.520444 kJ/mol
# Density = 2.021087 g / cm^3
# Si number density = 20.256980 Si / 1000 Ang^3
#
#
#
# Elastic Constant Matrix: (Units=GPa)
#
#
# Indices 1 2 3 4 5 6 
#
# 1 110.6789 44.5710 62.2621 0.0000 15.1808 0.0000
# 2 44.5710 77.1216 43.0788 0.0000 6.2182 0.0000
# 3 62.2621 43.0788 133.7272 0.0000 14.5003 0.0000
# 4 0.0000 0.0000 0.0000 34.4439 0.0000 2.0861
# 5 15.1808 6.2182 14.5003 0.0000 33.1229 0.0000
# 6 0.0000 0.0000 0.0000 2.0861 0.0000 28.1881
#
#
#
# Elastic Compliance Matrix: (Units=1/GPa)
#
#
# Indices 1 2 3 4 5 6 
#
# 1 0.014236 -0.005432 -0.004495 0.000000 -0.003537 0.000000
# 2 -0.005432 0.017903 -0.003301 0.000000 0.000573 0.000000
# 3 -0.004495 -0.003301 0.010859 0.000000 -0.002074 0.000000
# 4 0.000000 0.000000 0.000000 0.029163 0.000000 -0.002158
# 5 -0.003537 0.000573 -0.002074 0.000000 0.032612 0.000000
# 6 0.000000 0.000000 0.000000 -0.002158 0.000000 0.035636
#
#
# Mechanical properties :
#
#
# Convention : Reuss Voigt Hill
#
# Bulk Modulus (GPa) = 60.44516 69.03908 64.74212
# Shear Modulus (GPa) = 29.00598 30.59204 29.79901
#
# Velocity S-wave (km/s) = 3.78815 3.89034 3.83959
# Velocity P-wave (km/s) = 7.00267 7.37125 7.18932
#
# Compressibility (1/GPa) = 0.01654392
#
# Stress axis : x y z
#
# Youngs Moduli (GPa) = 70.24302 55.85653 92.09069
#
# Poissons Ratio (x) = 0.30339 0.41395
# Poissons Ratio (y) = 0.38153 0.30395
# Poissons Ratio (z) = 0.31574 0.18436
#
# Static dielectric constant tensor:
#      x y z
#    x 1.551140 0.000000 0.138170 
#    y 0.000000 1.705250 0.000000 
#    z 0.138170 0.000000 1.648480 
# 
# From -- ./inp_files/162661.got.cif
#   From: 2010.05.17/outbox.cif.g08.bks.cpg/sg12_82_cif.got.tgz:162661.got - 2010.06.03 13:09:07.
