data_PCOD9199970
_publ_section_title
;
Structure prediction by ZEFSAII (Michael W. Deem and Ramdas Pophale) SiO2 
 PCOD9199970
Probable space group: C 2/M
;
_chemical_formula_sum "Si O2"
_cell_formula_units_Z 44
_cell_length_a 24.764616
_cell_length_b 9.055821
_cell_length_c 11.095956
_cell_angle_alpha 90.000000
_cell_angle_beta 49.350851
_cell_angle_gamma 90.000000
_cell_volume 1887.998117
_symmetry_space_group_name_H-M "C 2/M"
_symmetry_group_IT_number 12
_symmetry_cell_setting 'monoclinic'
loop_
_space_group_symop_operation_xyz
x,y,z
-x,y,-z
-x,-y,-z
x,-y,z
1/2+x,1/2+y,z
1/2-x,1/2+y,-z
1/2-x,1/2-y,-z
1/2+x,1/2-y,z
loop_
_atom_site_type_symbol
_atom_site_label
_atom_site_fract_x
_atom_site_fract_y
_atom_site_fract_z
Si Si1 0.035761 0.176379 0.744822
Si Si2 0.745618 0.000000 0.446938
Si Si3 0.606274 0.674671 0.181178
Si Si4 0.375491 0.178048 0.601186
Si Si5 0.651986 0.223067 0.730128
Si Si6 0.724356 0.167903 0.868096
O O1 0.078692 0.247732 0.570433
O O2 0.070824 0.247709 0.811733
O O3 0.953212 0.198853 0.834461
O O4 0.048371 0.000000 0.728609
O O5 0.688308 0.125724 0.573933
O O6 0.805437 0.125278 0.332643
O O7 0.605954 0.500000 0.211416
O O8 0.590034 0.773512 0.321640
O O9 0.682259 0.729606 0.022619
O O10 0.297456 0.254391 0.720563
O O11 0.368196 0.000000 0.600146
O O12 0.672551 0.156361 0.828262
O O13 0.737453 0.000000 0.892592
#
# Coordination Sequence:
#
# PCOD9199970 Si02
#       6
#     8   4   8   8   8   8
#     4  11  25  44  69  99 137 177 221 273 331 399
#     4  10  20  36  62  92 140 162 216 262 324 382
#     4  11  26  48  68  93 135 183 223 271 334 398
#     4  12  26  43  72 102 129 173 228 281 328 388
#     4  11  23  39  64 104 132 175 211 276 330 396
#     4  12  26  44  68  99 138 176 221 276 332 398
#
# _framework density 23.305109999999999
#
# number of rings (size 3 to 8) (size 9 to 14) (size 15 to 20)
#    0.000    0.727    1.818    6.000    6.364    4.364 
#    0.000    2.727    0.000    0.000    0.000    0.000 
#    0.000    0.000    0.000    0.000    0.000    0.000 
#
# Total GULP energy -122592.846735 kJ/mol
# GULP energy per Si atom -5572.402124 kJ/mol
# Density = 2.325207 g / cm^3
# Si number density = 23.305110 Si / 1000 Ang^3
#
#
#
# Elastic Constant Matrix: (Units=GPa)
#
#
# Indices 1 2 3 4 5 6 
#
# 1 112.6676 8.1236 4.6044 0.0000 1.8182 0.0000
# 2 8.1236 156.6643 10.9022 0.0000 -11.7202 0.0000
# 3 4.6044 10.9022 45.8062 0.0000 -24.9204 0.0000
# 4 0.0000 0.0000 0.0000 19.8873 0.0000 -10.6061
# 5 1.8182 -11.7202 -24.9204 0.0000 27.6959 0.0000
# 6 0.0000 0.0000 0.0000 -10.6061 0.0000 23.4428
#
#
#
# Elastic Compliance Matrix: (Units=1/GPa)
#
#
# Indices 1 2 3 4 5 6 
#
# 1 0.009060 -0.000525 -0.002410 0.000000 -0.002986 0.000000
# 2 -0.000525 0.006622 0.000039 0.000000 0.002872 0.000000
# 3 -0.002410 0.000039 0.043408 0.000000 0.039233 0.000000
# 4 0.000000 0.000000 0.000000 0.066274 0.000000 0.029984
# 5 -0.002986 0.002872 0.039233 0.000000 0.072819 0.000000
# 6 0.000000 0.000000 0.000000 0.029984 0.000000 0.056223
#
#
# Mechanical properties :
#
#
# Convention : Reuss Voigt Hill
#
# Bulk Modulus (GPa) = 18.76212 40.26648 29.51430
# Shear Modulus (GPa) = 17.98781 33.63905 25.81343
#
# Velocity S-wave (km/s) = 2.78121 3.80336 3.33172
# Velocity P-wave (km/s) = 4.28738 6.05003 5.24331
#
# Compressibility (1/GPa) = 0.05329889
#
# Stress axis : x y z
#
# Youngs Moduli (GPa) = 110.37264 151.00108 23.03702
#
# Poissons Ratio (x) = 0.07934 0.05552
# Poissons Ratio (y) = 0.05800 -0.00090
# Poissons Ratio (z) = 0.26599 -0.00593
#
# Static dielectric constant tensor:
#      x y z
#    x 1.979030 0.000000 0.072090 
#    y 0.000000 1.795060 0.000000 
#    z 0.072090 0.000000 1.843960 
# 
# From -- ./inp_files/180456.got.cif
#   From: 2010.05.17/outbox.cif.g08.bks.cpg/sg12_91_cif.got.tgz:180456.got - 2010.06.03 13:09:07.
