data_PCOD9199699
_publ_section_title
;
Structure prediction by ZEFSAII (Michael W. Deem and Ramdas Pophale) SiO2 
 PCOD9199699
Probable space group: C 2/M
;
_chemical_formula_sum "Si O2"
_cell_formula_units_Z 64
_cell_length_a 18.373976
_cell_length_b 13.727175
_cell_length_c 16.319098
_cell_angle_alpha 90.000000
_cell_angle_beta 50.199914
_cell_angle_gamma 90.000000
_cell_volume 3162.288159
_symmetry_space_group_name_H-M "C 2/M"
_symmetry_group_IT_number 12
_symmetry_cell_setting 'monoclinic'
loop_
_space_group_symop_operation_xyz
x,y,z
-x,y,-z
-x,-y,-z
x,-y,z
1/2+x,1/2+y,z
1/2-x,1/2+y,-z
1/2-x,1/2-y,-z
1/2+x,1/2-y,z
loop_
_atom_site_type_symbol
_atom_site_label
_atom_site_fract_x
_atom_site_fract_y
_atom_site_fract_z
Si Si1 0.856347 0.285587 0.408072
Si Si2 0.809575 0.885732 0.864208
Si Si3 0.891168 0.389697 0.551944
Si Si4 0.929324 0.385523 0.195273
Si Si5 0.141105 0.615333 0.107690
Si Si6 0.088492 0.807834 0.880381
Si Si7 0.295038 0.792382 0.772628
Si Si8 0.528129 0.386433 0.748068
O O1 0.750000 0.250000 0.500000
O O2 0.885526 0.348641 0.464998
O O3 0.868495 0.350809 0.317630
O O4 0.922824 0.190815 0.347855
O O5 0.800082 0.821648 0.789643
O O6 0.914313 0.872077 0.827407
O O7 0.797436 0.000000 0.856484
O O8 0.726733 0.853867 0.986432
O O9 0.852587 0.500000 0.583866
O O10 0.836925 0.321878 0.655389
O O11 0.000000 0.392323 0.500000
O O12 0.917199 0.500000 0.185670
O O13 0.908274 0.308601 0.139195
O O14 0.039017 0.366797 0.141217
O O15 0.150315 0.500000 0.111735
O O16 0.148977 0.661500 0.191444
O O17 0.187908 0.831938 0.850244
O O18 0.071583 0.859633 0.805357
O O19 0.000000 0.832389 0.000000
O O20 0.546640 0.500000 0.715534
#
# Coordination Sequence:
#
# PCOD9199699 Si02
#       8
#     8   8   8   8   8   8   8   8
#     4  11  23  40  59  82 112 151 196 238 284 336
#     4  10  21  38  60  84 114 154 192 225 270 338
#     4  11  23  39  61  87 113 141 181 241 300 337
#     4  10  21  39  61  83 112 150 193 236 278 336
#     4  10  20  36  61  88 112 147 191 232 280 337
#     4  11  23  36  55  87 122 153 182 223 283 338
#     4  12  22  35  57  85 118 147 182 235 284 335
#     4  10  22  41  61  82 113 154 197 232 270 336
#
# _framework density 20.238510999999999
#
# number of rings (size 3 to 8) (size 9 to 14) (size 15 to 20)
#    0.000    1.375    0.000    7.125    0.000    6.000 
#    0.000    0.625    0.000    2.250    0.000    0.000 
#    0.000    0.000    0.000    0.000    0.000    0.000 
#
# Total GULP energy -178922.493288 kJ/mol
# GULP energy per Si atom -5591.327915 kJ/mol
# Density = 2.019245 g / cm^3
# Si number density = 20.238511 Si / 1000 Ang^3
#
#
#
# Elastic Constant Matrix: (Units=GPa)
#
#
# Indices 1 2 3 4 5 6 
#
# 1 39.0953 -2.7798 -16.8752 0.0000 -6.2553 0.0000
# 2 -2.7798 61.2357 4.3530 0.0000 -0.4377 0.0000
# 3 -16.8752 4.3530 52.3176 0.0000 -4.2794 0.0000
# 4 0.0000 0.0000 0.0000 23.9365 0.0000 -11.4450
# 5 -6.2553 -0.4377 -4.2794 0.0000 32.1466 0.0000
# 6 0.0000 0.0000 0.0000 -11.4450 0.0000 5.2845
#
#
#
# Elastic Compliance Matrix: (Units=1/GPa)
#
#
# Indices 1 2 3 4 5 6 
#
# 1 0.031460 0.000721 0.010706 0.000000 0.007557 0.000000
# 2 0.000721 0.016444 -0.001118 0.000000 0.000215 0.000000
# 3 0.010706 -0.001118 0.023081 0.000000 0.005140 0.000000
# 4 0.000000 0.000000 0.000000 -1.175701 0.000000 -2.546294
# 5 0.007557 0.000215 0.005140 0.000000 0.033265 0.000000
# 6 0.000000 0.000000 0.000000 -2.546294 0.000000 -5.325443
#
#
# Mechanical properties :
#
#
# Convention : Reuss Voigt Hill
#
# Bulk Modulus (GPa) = 10.91680 13.56052 12.23866
# Shear Modulus (GPa) = -0.78284 23.47022 11.34369
#
# Velocity S-wave (km/s) = -0.62261 3.40910 2.37006
# Velocity P-wave (km/s) = 2.21109 4.71284 3.68102
#
# Compressibility (1/GPa) = 0.09160196
#
# Stress axis : x y z
#
# Youngs Moduli (GPa) = 31.78653 60.81213 43.32634
#
# Poissons Ratio (x) = -0.04385 -0.46383
# Poissons Ratio (y) = -0.02292 0.04844
# Poissons Ratio (z) = -0.34029 0.06799
#
# Static dielectric constant tensor:
#      x y z
#    x 1.694370 0.000000 -0.021410 
#    y 0.000000 1.739700 0.000000 
#    z -0.021410 0.000000 1.686100 
# 
# From -- ./inp_files/225658.got.cif
#   From: 2010.05.17/outbox.cif.g08.bks.cpg/sg12_113_cif.got.tgz:225658.got - 2010.06.03 13:09:07.
