data_PCOD9199545
_publ_section_title
;
Structure prediction by ZEFSAII (Michael W. Deem and Ramdas Pophale) SiO2 
 PCOD9199545
Probable space group: C 2/M
;
_chemical_formula_sum "Si O2"
_cell_formula_units_Z 60
_cell_length_a 9.771473
_cell_length_b 16.887277
_cell_length_c 15.974200
_cell_angle_alpha 90.000000
_cell_angle_beta 74.008155
_cell_angle_gamma 90.000000
_cell_volume 2533.950566
_symmetry_space_group_name_H-M "C 2/M"
_symmetry_group_IT_number 12
_symmetry_cell_setting 'monoclinic'
loop_
_space_group_symop_operation_xyz
x,y,z
-x,y,-z
-x,-y,-z
x,-y,z
1/2+x,1/2+y,z
1/2-x,1/2+y,-z
1/2-x,1/2-y,-z
1/2+x,1/2-y,z
loop_
_atom_site_type_symbol
_atom_site_label
_atom_site_fract_x
_atom_site_fract_y
_atom_site_fract_z
Si Si1 0.152899 0.802811 0.206735
Si Si2 0.000000 0.803097 0.500000
Si Si3 0.736721 0.408713 0.396679
Si Si4 0.532347 0.853610 0.299707
Si Si5 0.064590 0.237655 0.904258
Si Si6 0.810131 0.653096 0.560624
Si Si7 0.773806 0.085709 0.152954
Si Si8 0.438269 0.411432 0.303915
O O1 0.096853 0.734382 0.278922
O O2 0.317971 0.792580 0.159534
O O3 0.061486 0.784335 0.138211
O O4 0.096726 0.884742 0.253068
O O5 0.084196 0.865396 0.426145
O O6 0.125013 0.736084 0.481811
O O7 0.729927 0.500000 0.373546
O O8 0.787736 0.402194 0.484988
O O9 0.863545 0.363285 0.327236
O O10 0.589502 0.879663 0.381850
O O11 0.612664 0.898999 0.211161
O O12 0.156507 0.157985 0.908648
O O13 0.000000 0.270927 0.000000
O O14 0.654658 0.653368 0.629931
O O15 0.858585 0.086150 0.226963
O O16 0.788610 0.000000 0.110115
O O17 0.427253 0.500000 0.341441
#
# Coordination Sequence:
#
# PCOD9199545 Si02
#       8
#     8   4   8   8   8   8   8   8
#     4  10  21  37  60  89 118 159 201 247 308 377
#     4  12  25  40  55  82 120 160 204 260 313 370
#     4  12  25  40  59  86 121 161 209 261 311 357
#     4  10  20  37  61  83 115 156 206 252 300 359
#     4  10  20  36  60  89 121 155 195 245 302 374
#     4  11  22  39  60  84 112 161 212 257 301 360
#     4   8  16  31  53  84 115 146 190 243 297 348
#     4   9  18  34  56  82 115 151 199 254 295 349
#
# _framework density 23.678442
#
# number of rings (size 3 to 8) (size 9 to 14) (size 15 to 20)
#    0.000    1.867    1.333    3.400    1.867    2.400 
#    0.000    0.000    0.000    3.600    0.000    0.000 
#    0.000    0.000    0.000    0.000    0.000    0.000 
#
# Total GULP energy -167506.157405 kJ/mol
# GULP energy per Si atom -5583.538580 kJ/mol
# Density = 2.362455 g / cm^3
# Si number density = 23.678442 Si / 1000 Ang^3
#
#
#
# Elastic Constant Matrix: (Units=GPa)
#
#
# Indices 1 2 3 4 5 6 
#
# 1 95.4596 6.4449 49.2551 0.0000 -23.2165 0.0000
# 2 6.4449 107.5262 33.0675 0.0000 -22.2004 0.0000
# 3 49.2551 33.0675 86.3270 0.0000 -20.0369 0.0000
# 4 0.0000 0.0000 0.0000 13.9387 0.0000 1.4823
# 5 -23.2165 -22.2004 -20.0369 0.0000 35.5048 0.0000
# 6 0.0000 0.0000 0.0000 1.4823 0.0000 5.1526
#
#
#
# Elastic Compliance Matrix: (Units=1/GPa)
#
#
# Indices 1 2 3 4 5 6 
#
# 1 0.016896 0.003449 -0.009087 0.000000 0.008077 0.000000
# 2 0.003449 0.012065 -0.004965 0.000000 0.006997 0.000000
# 3 -0.009087 -0.004965 0.019068 0.000000 0.001715 0.000000
# 4 0.000000 0.000000 0.000000 0.074007 0.000000 -0.021290
# 5 0.008077 0.006997 0.001715 0.000000 0.038789 0.000000
# 6 0.000000 0.000000 0.000000 -0.021290 0.000000 0.200203
#
#
# Mechanical properties :
#
#
# Convention : Reuss Voigt Hill
#
# Bulk Modulus (GPa) = 37.28084 51.87196 44.57640
# Shear Modulus (GPa) = 12.78199 24.28889 18.53544
#
# Velocity S-wave (km/s) = 2.32591 3.20626 2.80089
# Velocity P-wave (km/s) = 4.79500 5.97170 5.41540
#
# Compressibility (1/GPa) = 0.02682343
#
# Stress axis : x y z
#
# Youngs Moduli (GPa) = 59.18708 82.88419 52.44302
#
# Poissons Ratio (x) = -0.28589 0.47653
# Poissons Ratio (y) = -0.20415 0.26040
# Poissons Ratio (z) = 0.53781 0.41156
#
# Static dielectric constant tensor:
#      x y z
#    x 2.005240 0.000000 0.056840 
#    y 0.000000 1.896000 0.000000 
#    z 0.056840 0.000000 1.899340 
# 
# From -- ./inp_files/264256.got.cif
#   From: 2010.05.17/outbox.cif.g08.bks.cpg/sg12_133_cif.got.tgz:264256.got - 2010.06.03 13:09:07.
