data_PCOD9199695
_publ_section_title
;
Structure prediction by ZEFSAII (Michael W. Deem and Ramdas Pophale) SiO2 
 PCOD9199695
Probable space group: C 2/M
;
_chemical_formula_sum "Si O2"
_cell_formula_units_Z 36
_cell_length_a 22.739115
_cell_length_b 13.499728
_cell_length_c 6.007424
_cell_angle_alpha 90.000000
_cell_angle_beta 62.426679
_cell_angle_gamma 90.000000
_cell_volume 1634.654676
_symmetry_space_group_name_H-M "C 2/M"
_symmetry_group_IT_number 12
_symmetry_cell_setting 'monoclinic'
loop_
_space_group_symop_operation_xyz
x,y,z
-x,y,-z
-x,-y,-z
x,-y,z
1/2+x,1/2+y,z
1/2-x,1/2+y,-z
1/2-x,1/2-y,-z
1/2+x,1/2-y,z
loop_
_atom_site_type_symbol
_atom_site_label
_atom_site_fract_x
_atom_site_fract_y
_atom_site_fract_z
Si Si1 0.535580 0.000000 0.192502
Si Si2 0.250753 0.388234 0.268750
Si Si3 0.828843 0.787571 0.502170
Si Si4 0.567185 0.788700 0.023751
Si Si5 0.892432 0.890123 0.768136
O O1 0.500000 0.000000 0.500000
O O2 0.500000 0.000000 0.000000
O O3 0.573534 0.895956 0.123434
O O4 0.223129 0.500000 0.313120
O O5 0.202397 0.298137 0.287589
O O6 0.273750 0.354349 0.476257
O O7 0.318664 0.388864 0.008717
O O8 0.870912 0.729655 0.245057
O O9 0.878242 0.860683 0.540851
O O10 0.500000 0.787181 0.000000
O O11 0.566248 0.697233 0.194121
O O12 0.919935 0.000000 0.749361
#
# Coordination Sequence:
#
# PCOD9199695 Si02
#       5
#     4   8   8   8   8
#     4  10  24  44  70  92 132 176 214 274 329 382
#     4   9  19  36  57  86 123 160 206 260 321 387
#     4  10  20  36  61  87 124 160 210 260 322 387
#     4  10  24  41  62  90 125 165 214 263 329 388
#     4  10  21  38  62  91 123 166 210 265 325 386
#
# _framework density 22.023
#
# number of rings (size 3 to 8) (size 9 to 14) (size 15 to 20)
#    0.000    2.222    0.000    1.333    7.778    1.333 
#    2.000    1.111    0.000    0.000    0.000    0.000 
#    0.000    0.000    0.000    0.000    0.000    0.000 
#
# Total GULP energy -100398.952153 kJ/mol
# GULP energy per Si atom -5577.719564 kJ/mol
# Density = 2.197287 g / cm^3
# Si number density = 22.023000 Si / 1000 Ang^3
#
#
#
# Elastic Constant Matrix: (Units=GPa)
#
#
# Indices 1 2 3 4 5 6 
#
# 1 34.4389 18.2885 -2.6378 0.0000 1.5943 0.0000
# 2 18.2885 205.2054 34.7677 0.0000 8.2624 0.0000
# 3 -2.6378 34.7677 68.5879 0.0000 -1.1544 0.0000
# 4 0.0000 0.0000 0.0000 22.4864 0.0000 3.8191
# 5 1.5943 8.2624 -1.1544 0.0000 20.4624 0.0000
# 6 0.0000 0.0000 0.0000 3.8191 0.0000 32.4950
#
#
#
# Elastic Compliance Matrix: (Units=1/GPa)
#
#
# Indices 1 2 3 4 5 6 
#
# 1 0.030994 -0.003197 0.002796 0.000000 -0.000966 0.000000
# 2 -0.003197 0.005772 -0.003087 0.000000 -0.002256 0.000000
# 3 0.002796 -0.003087 0.016285 0.000000 0.001947 0.000000
# 4 0.000000 0.000000 0.000000 0.045377 0.000000 -0.005333
# 5 -0.000966 -0.002256 0.001947 0.000000 0.049966 0.000000
# 6 0.000000 0.000000 0.000000 -0.005333 0.000000 0.031401
#
#
# Mechanical properties :
#
#
# Convention : Reuss Voigt Hill
#
# Bulk Modulus (GPa) = 21.70356 45.45212 33.57784
# Shear Modulus (GPa) = 24.73684 32.27636 28.50660
#
# Velocity S-wave (km/s) = 3.35509 3.83244 3.60168
# Velocity P-wave (km/s) = 4.98851 6.34561 5.70754
#
# Compressibility (1/GPa) = 0.04607538
#
# Stress axis : x y z
#
# Youngs Moduli (GPa) = 32.26463 173.25299 61.40687
#
# Poissons Ratio (x) = 0.55391 -0.17171
# Poissons Ratio (y) = 0.10315 0.18955
# Poissons Ratio (z) = -0.09022 0.53479
#
# Static dielectric constant tensor:
#      x y z
#    x 1.850510 0.000000 0.033940 
#    y 0.000000 1.798260 0.000000 
#    z 0.033940 0.000000 1.891120 
# 
# From -- ./inp_files/23658.got.cif
#   From: 2010.05.17/outbox.cif.g08.bks.cpg/sg12_12_cif.got.tgz:23658.got - 2010.06.03 13:09:07.
