data_PCOD9199156
_publ_section_title
;
Structure prediction by ZEFSAII (Michael W. Deem and Ramdas Pophale) SiO2 
 PCOD9199156
Probable space group: C 2/M
;
_chemical_formula_sum "Si O2"
_cell_formula_units_Z 48
_cell_length_a 12.326330
_cell_length_b 12.907169
_cell_length_c 26.062668
_cell_angle_alpha 90.000000
_cell_angle_beta 30.492755
_cell_angle_gamma 90.000000
_cell_volume 2104.065671
_symmetry_space_group_name_H-M "C 2/M"
_symmetry_group_IT_number 12
_symmetry_cell_setting 'monoclinic'
loop_
_space_group_symop_operation_xyz
x,y,z
-x,y,-z
-x,-y,-z
x,-y,z
1/2+x,1/2+y,z
1/2-x,1/2+y,-z
1/2-x,1/2-y,-z
1/2+x,1/2-y,z
loop_
_atom_site_type_symbol
_atom_site_label
_atom_site_fract_x
_atom_site_fract_y
_atom_site_fract_z
Si Si1 0.049044 0.111400 0.098935
Si Si2 0.546688 0.667284 0.212703
Si Si3 0.364260 0.116536 0.258785
Si Si4 0.545537 0.836362 0.895279
Si Si5 0.364833 0.385585 0.488556
Si Si6 0.773996 0.334196 0.567568
O O1 0.972224 0.120864 0.189093
O O2 0.969832 0.211346 0.100947
O O3 0.990370 0.000000 0.100947
O O4 0.306309 0.121791 0.997417
O O5 0.511507 0.791064 0.219755
O O6 0.787952 0.637428 0.128304
O O7 0.404985 0.635762 0.318837
O O8 0.368298 0.127514 0.195282
O O9 0.119120 0.131174 0.376873
O O10 0.432499 0.000000 0.244549
O O11 0.327755 0.500000 0.525730
O O12 0.263755 0.380542 0.473044
O O13 0.272923 0.290321 0.558178
O O14 0.000000 0.361852 0.500000
#
# Coordination Sequence:
#
# PCOD9199156 Si02
#       6
#     8   8   8   8   8   8
#     4  10  23  40  62  90 119 154 196 240 293 357
#     4  11  22  37  59  89 118 154 196 242 294 343
#     4  10  20  36  59  87 116 153 200 240 287 350
#     4  10  21  40  61  87 123 155 190 243 298 344
#     4  10  22  38  59  84 114 158 201 239 292 350
#     4  11  22  39  60  83 122 157 192 250 290 338
#
# _framework density 22.812978000000001
#
# number of rings (size 3 to 8) (size 9 to 14) (size 15 to 20)
#    0.000    1.667    3.333    1.000    0.000    4.667 
#    0.000    1.667    0.000    6.000    0.000    0.000 
#    0.000    0.000    0.000    0.000    0.000    0.000 
#
# Total GULP energy -134282.214934 kJ/mol
# GULP energy per Si atom -5595.092289 kJ/mol
# Density = 2.276105 g / cm^3
# Si number density = 22.812978 Si / 1000 Ang^3
#
#
#
# Elastic Constant Matrix: (Units=GPa)
#
#
# Indices 1 2 3 4 5 6 
#
# 1 74.7462 -13.3958 -4.3845 -0.0006 -6.9770 0.0002
# 2 -13.3958 122.6976 4.1359 0.0018 1.7321 -0.0003
# 3 -4.3845 4.1359 45.9108 0.0043 5.0538 -0.0006
# 4 -0.0006 0.0018 0.0043 5.5572 -0.0010 -5.6476
# 5 -6.9770 1.7321 5.0538 -0.0010 28.9553 0.0000
# 6 0.0002 -0.0003 -0.0006 -5.6476 0.0000 -6.1636
#
#
#
# Elastic Compliance Matrix: (Units=1/GPa)
#
#
# Indices 1 2 3 4 5 6 
#
# 1 0.013982 0.001453 0.000860 0.000001 0.003132 0.000000
# 2 0.001453 0.008330 -0.000607 -0.000001 -0.000042 0.000001
# 3 0.000860 -0.000607 0.022320 -0.000010 -0.003652 0.000007
# 4 0.000001 -0.000001 -0.000010 0.093179 0.000005 -0.085378
# 5 0.003132 -0.000042 -0.003652 0.000005 0.035931 -0.000004
# 6 0.000000 0.000001 0.000007 -0.085378 -0.000004 -0.084012
#
#
# Mechanical properties :
#
#
# Convention : Reuss Voigt Hill
#
# Bulk Modulus (GPa) = 20.81438 24.00731 22.41085
# Shear Modulus (GPa) = 48.86058 22.80306 35.83182
#
# Velocity S-wave (km/s) = 4.63297 3.16502 3.96748
# Velocity P-wave (km/s) = 6.14515 4.88905 5.55274
#
# Compressibility (1/GPa) = 0.04804371
#
# Stress axis : x y z
#
# Youngs Moduli (GPa) = 71.52140 120.05030 44.80246
#
# Poissons Ratio (x) = -0.17447 -0.03851
# Poissons Ratio (y) = -0.10394 0.02719
# Poissons Ratio (z) = -0.06148 0.07287
#
# Static dielectric constant tensor:
#      x y z
#    x 1.806940 0.000000 0.020650 
#    y 0.000000 1.867870 0.000000 
#    z 0.020650 0.000000 1.824260 
# 
# From -- ./inp_files/204394.got.cif
#   From: 2010.05.17/outbox.cif.g08.bks.cpg/sg12_103_cif.got.tgz:204394.got - 2010.06.03 13:09:07.
