data_PCOD9199411
_publ_section_title
;
Structure prediction by ZEFSAII (Michael W. Deem and Ramdas Pophale) SiO2 
 PCOD9199411
Probable space group: C 2/M
;
_chemical_formula_sum "Si O2"
_cell_formula_units_Z 58
_cell_length_a 24.768513
_cell_length_b 7.748748
_cell_length_c 14.511068
_cell_angle_alpha 90.000000
_cell_angle_beta 81.886810
_cell_angle_gamma 90.000000
_cell_volume 2757.161341
_symmetry_space_group_name_H-M "C 2/M"
_symmetry_group_IT_number 12
_symmetry_cell_setting 'monoclinic'
loop_
_space_group_symop_operation_xyz
x,y,z
-x,y,-z
-x,-y,-z
x,-y,z
1/2+x,1/2+y,z
1/2-x,1/2+y,-z
1/2-x,1/2-y,-z
1/2+x,1/2-y,z
loop_
_atom_site_type_symbol
_atom_site_label
_atom_site_fract_x
_atom_site_fract_y
_atom_site_fract_z
Si Si1 0.000000 0.000000 0.500000
Si Si2 0.064386 0.293007 0.568923
Si Si3 0.879225 0.298628 0.631236
Si Si4 0.432047 0.794839 0.224428
Si Si5 0.056393 0.291258 0.204330
Si Si6 0.340785 0.293038 0.932368
Si Si7 0.719025 0.299442 0.235273
Si Si8 0.828724 0.799646 0.139165
O O1 0.984107 0.156287 0.430370
O O2 0.049656 0.500000 0.565616
O O3 0.103132 0.236955 0.474076
O O4 0.087707 0.270453 0.665386
O O5 0.892076 0.500000 0.625780
O O6 0.913819 0.225120 0.709248
O O7 0.816156 0.279350 0.673828
O O8 0.494552 0.731254 0.205168
O O9 0.389178 0.716883 0.164493
O O10 0.433121 0.000000 0.206549
O O11 0.054199 0.500000 0.211945
O O12 0.097227 0.245593 0.111884
O O13 0.334352 0.500000 0.937823
O O14 0.303845 0.226417 0.856674
O O15 0.326185 0.223366 0.036552
O O16 0.704899 0.500000 0.240910
O O17 0.783623 0.281180 0.216826
O O18 0.814423 0.000000 0.137461
#
# Coordination Sequence:
#
# PCOD9199411 Si02
#       8
#     2   8   8   8   8   8   8   8
#     4  12  22  32  64  90 120 158 210 236 304 342
#     4  10  22  39  58  88 127 161 201 249 295 351
#     4   9  18  36  60  85 117 151 189 242 301 346
#     4  10  22  40  57  80 119 159 198 237 289 352
#     4   9  18  33  56  83 112 148 187 233 289 350
#     4   9  20  37  56  83 114 145 187 245 298 349
#     4  10  20  36  60  87 113 143 192 249 301 352
#     4  11  23  38  57  80 112 154 198 240 295 356
#
# _framework density 21.03613
#
# number of rings (size 3 to 8) (size 9 to 14) (size 15 to 20)
#    0.000    2.207    0.000    2.276    1.931    4.966 
#    4.966    3.448    0.000    0.000    0.000    0.000 
#    0.000    0.000    0.000    0.000    0.000    0.000 
#
# Total GULP energy -161502.727348 kJ/mol
# GULP energy per Si atom -5569.059564 kJ/mol
# Density = 2.098825 g / cm^3
# Si number density = 21.036130 Si / 1000 Ang^3
#
#
#
# Elastic Constant Matrix: (Units=GPa)
#
#
# Indices 1 2 3 4 5 6 
#
# 1 63.8209 -12.2694 1.1413 0.0000 -18.4566 0.0000
# 2 -12.2694 50.3479 -0.0856 0.0000 7.6364 0.0000
# 3 1.1413 -0.0856 41.8606 0.0000 -19.9886 0.0000
# 4 0.0000 0.0000 0.0000 56.8610 0.0000 -3.9388
# 5 -18.4566 7.6364 -19.9886 0.0000 29.4945 0.0000
# 6 0.0000 0.0000 0.0000 -3.9388 0.0000 24.6970
#
#
#
# Elastic Compliance Matrix: (Units=1/GPa)
#
#
# Indices 1 2 3 4 5 6 
#
# 1 0.021239 0.002438 0.008088 0.000000 0.018141 0.000000
# 2 0.002438 0.021352 -0.002859 0.000000 -0.005940 0.000000
# 3 0.008088 -0.002859 0.039079 0.000000 0.032286 0.000000
# 4 0.000000 0.000000 0.000000 0.017783 0.000000 0.002836
# 5 0.018141 -0.005940 0.032286 0.000000 0.068675 0.000000
# 6 0.000000 0.000000 0.000000 0.002836 0.000000 0.040943
#
#
# Mechanical properties :
#
#
# Convention : Reuss Voigt Hill
#
# Bulk Modulus (GPa) = 10.30881 14.84467 12.57674
# Shear Modulus (GPa) = 22.11683 33.36004 27.73844
#
# Velocity S-wave (km/s) = 3.24601 3.98659 3.63521
# Velocity P-wave (km/s) = 4.35430 5.31625 4.85914
#
# Compressibility (1/GPa) = 0.09700438
#
# Stress axis : x y z
#
# Youngs Moduli (GPa) = 47.08281 46.83388 25.58917
#
# Poissons Ratio (x) = -0.11419 -0.20697
# Poissons Ratio (y) = -0.11479 0.07317
# Poissons Ratio (z) = -0.38082 0.13391
#
# Static dielectric constant tensor:
#      x y z
#    x 1.768600 0.000000 -0.023380 
#    y 0.000000 1.781500 0.000000 
#    z -0.023380 0.000000 1.788430 
# 
# From -- ./inp_files/237605.got.cif
#   From: 2010.05.17/outbox.cif.g08.bks.cpg/sg12_119_cif.got.tgz:237605.got - 2010.06.03 13:09:07.
