data_PCOD9199407
_publ_section_title
;
Structure prediction by ZEFSAII (Michael W. Deem and Ramdas Pophale) SiO2 
 PCOD9199407
Probable space group: C 2/M
;
_chemical_formula_sum "Si O2"
_cell_formula_units_Z 64
_cell_length_a 14.072652
_cell_length_b 23.412099
_cell_length_c 14.838518
_cell_angle_alpha 90.000000
_cell_angle_beta 38.627979
_cell_angle_gamma 90.000000
_cell_volume 3051.919978
_symmetry_space_group_name_H-M "C 2/M"
_symmetry_group_IT_number 12
_symmetry_cell_setting 'monoclinic'
loop_
_space_group_symop_operation_xyz
x,y,z
-x,y,-z
-x,-y,-z
x,-y,z
1/2+x,1/2+y,z
1/2-x,1/2+y,-z
1/2-x,1/2-y,-z
1/2+x,1/2-y,z
loop_
_atom_site_type_symbol
_atom_site_label
_atom_site_fract_x
_atom_site_fract_y
_atom_site_fract_z
Si Si1 0.135946 0.154191 0.967188
Si Si2 0.779819 0.815051 0.449089
Si Si3 0.163168 0.665241 0.828367
Si Si4 0.018956 0.120054 0.380802
Si Si5 0.465227 0.848713 0.716455
Si Si6 0.983105 0.433905 0.165908
Si Si7 0.016478 0.247362 0.821333
Si Si8 0.670026 0.564855 0.106458
O O1 0.143900 0.110587 0.046144
O O2 0.110401 0.219216 0.021654
O O3 0.299241 0.149992 0.797673
O O4 0.000000 0.141017 0.000000
O O5 0.750000 0.750000 0.500000
O O6 0.615651 0.839611 0.546671
O O7 0.906268 0.807903 0.279875
O O8 0.862816 0.849769 0.466390
O O9 0.333048 0.661989 0.741107
O O10 0.137749 0.605615 0.794654
O O11 0.149795 0.720109 0.775031
O O12 0.000000 0.670252 0.000000
O O13 0.062074 0.073644 0.272926
O O14 0.000000 0.103959 0.500000
O O15 0.493145 0.905784 0.754013
O O16 0.460849 0.795718 0.792436
O O17 0.941329 0.500000 0.198137
O O18 0.151854 0.428189 0.996383
O O19 0.655496 0.500000 0.083031
#
# Coordination Sequence:
#
# PCOD9199407 Si02
#       8
#     8   8   8   8   8   8   8   8
#     4  11  22  39  63  93 118 152 211 266 310 362
#     4  10  21  39  58  81 124 172 203 240 307 374
#     4  11  22  36  58  96 126 162 210 257 304 365
#     4  12  23  39  61  90 130 162 206 250 307 378
#     4   9  20  37  59  87 118 163 206 249 309 369
#     4   9  18  36  60  87 123 164 205 250 305 366
#     4  10  20  36  60  86 126 164 200 252 311 371
#     4  10  22  41  64  89 125 167 205 258 313 363
#
# _framework density 20.970405
#
# number of rings (size 3 to 8) (size 9 to 14) (size 15 to 20)
#    0.000    1.750    2.500    3.000    0.000    5.250 
#    0.000    5.000    0.000    0.000    0.000    0.875 
#    0.000    0.000    0.000    0.000    0.000    0.000 
#
# Total GULP energy -178405.144813 kJ/mol
# GULP energy per Si atom -5575.160775 kJ/mol
# Density = 2.092268 g / cm^3
# Si number density = 20.970405 Si / 1000 Ang^3
#
#
#
# Elastic Constant Matrix: (Units=GPa)
#
#
# Indices 1 2 3 4 5 6 
#
# 1 62.1847 17.3610 16.5114 0.0006 -22.1206 -0.0001
# 2 17.3610 90.2684 10.7989 0.0001 -2.2408 -0.0002
# 3 16.5114 10.7989 88.1486 -0.0045 -19.6187 0.0014
# 4 0.0006 0.0001 -0.0045 22.9430 0.0015 -1.1481
# 5 -22.1206 -2.2408 -19.6187 0.0015 34.2012 -0.0004
# 6 -0.0001 -0.0002 0.0014 -1.1481 -0.0004 13.3625
#
#
#
# Elastic Compliance Matrix: (Units=1/GPa)
#
#
# Indices 1 2 3 4 5 6 
#
# 1 0.022218 -0.003857 -0.000627 -0.000002 0.013758 0.000001
# 2 -0.003857 0.011912 -0.001282 0.000000 -0.002449 0.000000
# 3 -0.000627 -0.001282 0.013195 0.000002 0.007079 -0.000001
# 4 -0.000002 0.000000 0.000002 0.043774 -0.000002 0.003761
# 5 0.013758 -0.002449 0.007079 -0.000002 0.042037 0.000001
# 6 0.000001 0.000000 -0.000001 0.003761 0.000001 0.075159
#
#
# Mechanical properties :
#
#
# Convention : Reuss Voigt Hill
#
# Bulk Modulus (GPa) = 27.93823 36.66049 32.29936
# Shear Modulus (GPa) = 21.57408 27.16337 24.36872
#
# Velocity S-wave (km/s) = 3.21095 3.60296 3.41259
# Velocity P-wave (km/s) = 5.20563 5.90156 5.56448
#
# Compressibility (1/GPa) = 0.03579324
#
# Stress axis : x y z
#
# Youngs Moduli (GPa) = 45.00776 83.94630 75.78870
#
# Poissons Ratio (x) = 0.32375 0.04754
# Poissons Ratio (y) = 0.17358 0.09717
# Poissons Ratio (z) = 0.02823 0.10763
#
# Static dielectric constant tensor:
#      x y z
#    x 1.807750 0.000000 0.075110 
#    y 0.000000 1.716050 0.000000 
#    z 0.075110 0.000000 1.901210 
# 
# From -- ./inp_files/272840.got.cif
#   From: 2010.05.17/outbox.cif.g08.bks.cpg/sg12_137_cif.got.tgz:272840.got - 2010.06.03 13:09:07.
