data_PCOD9199375
_publ_section_title
;
Structure prediction by ZEFSAII (Michael W. Deem and Ramdas Pophale) SiO2 
 PCOD9199375
Probable space group: C 2/M
;
_chemical_formula_sum "Si O2"
_cell_formula_units_Z 64
_cell_length_a 20.968320
_cell_length_b 7.780937
_cell_length_c 17.654565
_cell_angle_alpha 90.000000
_cell_angle_beta 113.435970
_cell_angle_gamma 90.000000
_cell_volume 2642.780242
_symmetry_space_group_name_H-M "C 2/M"
_symmetry_group_IT_number 12
_symmetry_cell_setting 'monoclinic'
loop_
_space_group_symop_operation_xyz
x,y,z
-x,y,-z
-x,-y,-z
x,-y,z
1/2+x,1/2+y,z
1/2-x,1/2+y,-z
1/2-x,1/2-y,-z
1/2+x,1/2-y,z
loop_
_atom_site_type_symbol
_atom_site_label
_atom_site_fract_x
_atom_site_fract_y
_atom_site_fract_z
Si Si1 0.828349 0.208687 0.578960
Si Si2 0.090054 0.702751 0.679097
Si Si3 0.192878 0.300638 0.189199
Si Si4 0.072908 0.207906 0.231182
Si Si5 0.817253 0.295884 0.984001
Si Si6 0.791344 0.299234 0.372102
Si Si7 0.045144 0.201545 0.453273
Si Si8 0.083504 0.202856 0.836716
O O1 0.880719 0.248468 0.673457
O O2 0.753382 0.274524 0.576861
O O3 0.879034 0.271557 0.534257
O O4 0.823590 0.000000 0.572146
O O5 0.083164 0.500000 0.663763
O O6 0.138994 0.775182 0.634601
O O7 0.013428 0.785413 0.639754
O O8 0.120167 0.728329 0.777614
O O9 0.215811 0.500000 0.199352
O O10 0.114129 0.286906 0.180795
O O11 0.238679 0.210090 0.275267
O O12 0.193344 0.225306 0.105394
O O13 0.994677 0.272830 0.198489
O O14 0.072208 0.000000 0.223846
O O15 0.823721 0.500000 0.978549
O O16 0.880114 0.236365 0.066465
O O17 0.750000 0.250000 0.000000
O O18 0.802062 0.500000 0.392924
O O19 0.000000 0.282436 0.500000
O O20 0.055842 0.000000 0.473601
O O21 0.081054 0.000000 0.824104
#
# Coordination Sequence:
#
# PCOD9199375 Si02
#       8
#     8   8   8   8   8   8   8   8
#     4   8  14  32  56  78 106 143 186 223 265 329
#     4  11  22  36  57  85 115 146 185 237 285 333
#     4  10  21  35  53  79 111 142 181 236 284 323
#     4   9  18  34  56  78 104 143 184 224 274 337
#     4  11  24  39  53  75 108 147 187 233 287 335
#     4   9  19  35  56  79 108 150 192 228 274 335
#     4  10  20  36  60  86 113 147 187 232 279 333
#     4  11  22  37  58  81 108 144 187 233 278 335
#
# _framework density 24.216919999999998
#
# number of rings (size 3 to 8) (size 9 to 14) (size 15 to 20)
#    0.000    2.125    1.250    3.000    0.000    6.750 
#    0.000    3.125    0.000    0.000    0.000    0.000 
#    0.000    0.000    0.000    0.000    0.000    0.000 
#
# Total GULP energy -178756.175150 kJ/mol
# GULP energy per Si atom -5586.130473 kJ/mol
# Density = 2.416180 g / cm^3
# Si number density = 24.216920 Si / 1000 Ang^3
#
#
#
# Elastic Constant Matrix: (Units=GPa)
#
#
# Indices 1 2 3 4 5 6 
#
# 1 177.8007 6.9614 28.2085 0.0000 -21.6392 0.0000
# 2 6.9614 59.9764 20.2942 0.0000 3.2651 0.0000
# 3 28.2085 20.2942 79.1689 0.0000 -40.5581 0.0000
# 4 0.0000 0.0000 0.0000 32.3066 0.0000 5.7967
# 5 -21.6392 3.2651 -40.5581 0.0000 42.3136 0.0000
# 6 0.0000 0.0000 0.0000 5.7967 0.0000 21.3969
#
#
#
# Elastic Compliance Matrix: (Units=1/GPa)
#
#
# Indices 1 2 3 4 5 6 
#
# 1 0.006062 -0.000564 -0.000796 0.000000 0.002381 0.000000
# 2 -0.000564 0.021741 -0.012534 0.000000 -0.013980 0.000000
# 3 -0.000796 -0.012534 0.032252 0.000000 0.031474 0.000000
# 4 0.000000 0.000000 0.000000 0.032535 0.000000 -0.008814
# 5 0.002381 -0.013980 0.031474 0.000000 0.056098 0.000000
# 6 0.000000 0.000000 0.000000 -0.008814 0.000000 0.049124
#
#
# Mechanical properties :
#
#
# Convention : Reuss Voigt Hill
#
# Bulk Modulus (GPa) = 30.99087 47.54159 39.26623
# Shear Modulus (GPa) = 21.15463 36.63555 28.89509
#
# Velocity S-wave (km/s) = 2.95879 3.89370 3.45799
# Velocity P-wave (km/s) = 4.94950 6.31575 5.67390
#
# Compressibility (1/GPa) = 0.03226757
#
# Stress axis : x y z
#
# Youngs Moduli (GPa) = 164.95142 45.99615 31.00605
#
# Poissons Ratio (x) = 0.02595 0.02467
# Poissons Ratio (y) = 0.09305 0.38863
# Poissons Ratio (z) = 0.13122 0.57652
#
# Static dielectric constant tensor:
#      x y z
#    x 1.979110 0.000000 0.002680 
#    y 0.000000 1.931790 0.000000 
#    z 0.002680 0.000000 2.045030 
# 
# From -- ./inp_files/281293.got.cif
#   From: 2010.05.17/outbox.cif.g08.bks.cpg/sg12_141_cif.got.tgz:281293.got - 2010.06.03 13:09:07.
