data_PCOD9199162
_publ_section_title
;
Structure prediction by ZEFSAII (Michael W. Deem and Ramdas Pophale) SiO2 
 PCOD9199162
Probable space group: C 2/M
;
_chemical_formula_sum "Si O2"
_cell_formula_units_Z 58
_cell_length_a 29.619101
_cell_length_b 7.494541
_cell_length_c 27.170010
_cell_angle_alpha 90.000000
_cell_angle_beta 153.383832
_cell_angle_gamma 90.000000
_cell_volume 2702.064819
_symmetry_space_group_name_H-M "C 2/M"
_symmetry_group_IT_number 12
_symmetry_cell_setting 'monoclinic'
loop_
_space_group_symop_operation_xyz
x,y,z
-x,y,-z
-x,-y,-z
x,-y,z
1/2+x,1/2+y,z
1/2-x,1/2+y,-z
1/2-x,1/2-y,-z
1/2+x,1/2-y,z
loop_
_atom_site_type_symbol
_atom_site_label
_atom_site_fract_x
_atom_site_fract_y
_atom_site_fract_z
Si Si1 0.500000 0.500000 0.000000
Si Si2 0.669187 0.219182 0.181335
Si Si3 0.648632 0.288685 0.872796
Si Si4 0.325366 0.206068 0.701084
Si Si5 0.848495 0.792362 0.536373
Si Si6 0.944821 0.703922 0.315736
Si Si7 0.896918 0.797587 0.377396
Si Si8 0.052903 0.216249 0.270540
O O1 0.413749 0.340499 0.926136
O O2 0.656401 0.273384 0.226589
O O3 0.784835 0.269807 0.280379
O O4 0.656849 0.000000 0.163123
O O5 0.636829 0.500000 0.855229
O O6 0.638224 0.210590 0.808195
O O7 0.555064 0.224872 0.814650
O O8 0.750000 0.250000 0.000000
O O9 0.235929 0.290097 0.581108
O O10 0.419754 0.218434 0.756703
O O11 0.296743 0.000000 0.681187
O O12 0.868741 0.719432 0.610878
O O13 0.954551 0.782406 0.610958
O O14 0.822877 0.000000 0.518368
O O15 0.966788 0.500000 0.349833
O O16 0.911329 0.797017 0.332847
O O17 0.000000 0.714327 0.500000
O O18 0.894943 0.000000 0.395566
O O19 0.055161 0.000000 0.271952
#
# Coordination Sequence:
#
# PCOD9199162 Si02
#       8
#     2   8   8   8   8   8   8   8
#     4  12  26  48  70  86 124 176 214 290 324 354
#     4  10  24  45  68  95 126 169 220 266 327 393
#     4  10  21  40  59  81 114 155 198 246 297 355
#     4  10  20  36  59  87 117 154 200 246 303 372
#     4   9  18  35  56  83 124 164 192 234 297 368
#     4  11  22  35  57  91 123 154 198 245 302 373
#     4  10  21  42  69  95 128 165 204 263 332 395
#     4   9  19  33  54  84 119 153 194 238 289 359
#
# _framework density 21.465064999999999
#
# number of rings (size 3 to 8) (size 9 to 14) (size 15 to 20)
#    0.000    2.069    0.000    3.931    1.931    5.793 
#    4.966    0.000    0.000    0.000    0.000    0.000 
#    0.000    0.000    0.000    0.000    0.000    0.000 
#
# Total GULP energy -161544.411175 kJ/mol
# GULP energy per Si atom -5570.496937 kJ/mol
# Density = 2.141621 g / cm^3
# Si number density = 21.465065 Si / 1000 Ang^3
#
#
#
# Elastic Constant Matrix: (Units=GPa)
#
#
# Indices 1 2 3 4 5 6 
#
# 1 110.3493 -0.6788 23.3687 0.0000 -2.3477 0.0000
# 2 -0.6788 90.9114 10.8605 0.0000 9.3315 0.0001
# 3 23.3687 10.8605 88.5196 0.0000 21.8404 0.0000
# 4 0.0000 0.0000 0.0000 3.5667 0.0000 1.0820
# 5 -2.3477 9.3315 21.8404 0.0000 29.2568 0.0000
# 6 0.0000 0.0001 0.0000 1.0820 0.0000 17.1124
#
#
#
# Elastic Compliance Matrix: (Units=1/GPa)
#
#
# Indices 1 2 3 4 5 6 
#
# 1 0.009862 0.000144 -0.003438 0.000000 0.003312 0.000000
# 2 0.000144 0.011401 -0.000665 0.000000 -0.003128 0.000000
# 3 -0.003438 -0.000665 0.015079 0.000000 -0.011321 0.000000
# 4 0.000000 0.000000 0.000000 0.285851 0.000000 -0.018074
# 5 0.003312 -0.003128 -0.011321 0.000000 0.043895 0.000000
# 6 0.000000 0.000000 0.000000 -0.018074 0.000000 0.059580
#
#
# Mechanical properties :
#
#
# Convention : Reuss Voigt Hill
#
# Bulk Modulus (GPa) = 35.18104 39.65345 37.41725
# Shear Modulus (GPa) = 11.28515 27.06918 19.17717
#
# Velocity S-wave (km/s) = 2.29540 3.55502 2.99224
# Velocity P-wave (km/s) = 4.84259 5.94681 5.42287
#
# Compressibility (1/GPa) = 0.02842440
#
# Stress axis : x y z
#
# Youngs Moduli (GPa) = 101.40335 87.70881 66.31591
#
# Poissons Ratio (x) = -0.01267 0.22801
# Poissons Ratio (y) = -0.01465 0.04411
# Poissons Ratio (z) = 0.34865 0.05833
#
# Static dielectric constant tensor:
#      x y z
#    x 1.762600 0.000000 -0.005480 
#    y 0.000000 1.841210 0.000000 
#    z -0.005480 0.000000 1.824640 
# 
# From -- ./inp_files/351464.got.cif
#   From: 2010.05.17/outbox.cif.g08.bks.cpg/sg12_176_cif.got.tgz:351464.got - 2010.06.03 13:09:07.
