data_PCOD9199681
_publ_section_title
;
Structure prediction by ZEFSAII (Michael W. Deem and Ramdas Pophale) SiO2 
 PCOD9199681
Probable space group: C 2/M
;
_chemical_formula_sum "Si O2"
_cell_formula_units_Z 64
_cell_length_a 25.231134
_cell_length_b 21.135994
_cell_length_c 21.390936
_cell_angle_alpha 90.000000
_cell_angle_beta 164.773168
_cell_angle_gamma 90.000000
_cell_volume 2996.069479
_symmetry_space_group_name_H-M "C 2/M"
_symmetry_group_IT_number 12
_symmetry_cell_setting 'monoclinic'
loop_
_space_group_symop_operation_xyz
x,y,z
-x,y,-z
-x,-y,-z
x,-y,z
1/2+x,1/2+y,z
1/2-x,1/2+y,-z
1/2-x,1/2-y,-z
1/2+x,1/2-y,z
loop_
_atom_site_type_symbol
_atom_site_label
_atom_site_fract_x
_atom_site_fract_y
_atom_site_fract_z
Si Si1 0.327024 0.208564 0.490505
Si Si2 0.615402 0.926605 0.211440
Si Si3 0.617408 0.071502 0.425438
Si Si4 0.544241 0.570062 0.293402
Si Si5 0.939629 0.209099 0.141143
Si Si6 0.949301 0.893668 0.508247
Si Si7 0.663017 0.072417 0.004664
Si Si8 0.528649 0.751251 0.603299
O O1 0.362192 0.134872 0.511888
O O2 0.119329 0.212932 0.293567
O O3 0.489442 0.243221 0.722201
O O4 0.345498 0.240763 0.444127
O O5 0.786172 0.923494 0.460006
O O6 0.425624 0.897605 0.032556
O O7 0.721785 0.896569 0.272509
O O8 0.581631 0.000000 0.156752
O O9 0.821915 0.067069 0.617622
O O10 0.445202 0.093675 0.180519
O O11 0.576281 0.000000 0.402880
O O12 0.443498 0.500000 0.185282
O O13 0.430140 0.637100 0.157517
O O14 0.730631 0.225777 0.868828
O O15 0.036965 0.823835 0.605610
O O16 0.000000 0.925392 0.500000
O O17 0.099113 0.926256 0.727773
O O18 0.595037 0.000000 0.931996
O O19 0.500000 0.777586 0.500000
#
# Coordination Sequence:
#
# PCOD9199681 Si02
#       8
#     8   8   8   8   8   8   8   8
#     4  10  20  36  61  87 110 142 186 234 278 325
#     4   9  18  33  52  75 105 136 167 212 268 321
#     4   8  15  30  54  83 109 132 165 216 278 332
#     4   8  15  30  54  83 109 132 165 216 278 332
#     4  10  20  36  61  87 110 142 186 234 278 325
#     4  11  23  35  47  66  97 140 185 221 256 309
#     4   9  18  33  52  75 105 136 167 212 268 321
#     4  11  25  40  53  76 112 151 187 226 278 337
#
# _framework density 21.361319999999999
#
# number of rings (size 3 to 8) (size 9 to 14) (size 15 to 20)
#    0.000    2.500    0.000    3.750    0.000    6.000 
#    0.000    5.625    0.000    1.500    0.000    3.500 
#    0.000    0.000    0.000    0.000    0.000    0.000 
#
# Total GULP energy -178237.951547 kJ/mol
# GULP energy per Si atom -5569.935986 kJ/mol
# Density = 2.131270 g / cm^3
# Si number density = 21.361320 Si / 1000 Ang^3
#
#
#
# Elastic Constant Matrix: (Units=GPa)
#
#
# Indices 1 2 3 4 5 6 
#
# 1 92.1107 21.7018 20.8403 0.0311 10.2340 -0.0297
# 2 21.7018 111.7228 15.9232 0.0120 -2.3731 -0.0235
# 3 20.8403 15.9232 55.8455 0.0135 16.6176 -0.0398
# 4 0.0311 0.0120 0.0135 52.3638 0.0404 -15.5579
# 5 10.2340 -2.3731 16.6176 0.0404 27.3435 -0.0371
# 6 -0.0297 -0.0235 -0.0398 -15.5579 -0.0371 31.0373
#
#
#
# Elastic Compliance Matrix: (Units=1/GPa)
#
#
# Indices 1 2 3 4 5 6 
#
# 1 0.012370 -0.002009 -0.003191 -0.000004 -0.002865 0.000001
# 2 -0.002009 0.009857 -0.003100 -0.000001 0.003491 0.000005
# 3 -0.003191 -0.003100 0.024056 0.000011 -0.013694 0.000015
# 4 -0.000004 -0.000001 0.000011 0.022439 -0.000024 0.011248
# 5 -0.002865 0.003491 -0.013694 -0.000024 0.046270 0.000026
# 6 0.000001 0.000005 0.000015 0.011248 0.000026 0.037858
#
#
# Mechanical properties :
#
#
# Convention : Reuss Voigt Hill
#
# Bulk Modulus (GPa) = 33.68808 41.84551 37.76680
# Shear Modulus (GPa) = 27.87954 35.56317 31.72136
#
# Velocity S-wave (km/s) = 3.61659 4.08467 3.85774
# Velocity P-wave (km/s) = 5.76580 6.47132 6.12872
#
# Compressibility (1/GPa) = 0.02968409
#
# Stress axis : x y z
#
# Youngs Moduli (GPa) = 80.84020 101.45202 41.56950
#
# Poissons Ratio (x) = 0.20381 0.13265
# Poissons Ratio (y) = 0.16240 0.12885
# Poissons Ratio (z) = 0.25796 0.31446
#
# Static dielectric constant tensor:
#      x y z
#    x 1.834060 -0.000070 0.027050 
#    y -0.000070 1.815420 0.000020 
#    z 0.027050 0.000020 1.754360 
# 
# From -- ./inp_files/286456.got.cif
#   From: 2010.05.17/outbox.cif.g08.bks.cpg/sg12_144_cif.got.tgz:286456.got - 2010.06.03 13:09:07.
