data_PCOD9199925
_publ_section_title
;
Structure prediction by ZEFSAII (Michael W. Deem and Ramdas Pophale) SiO2 
 PCOD9199925
Probable space group: C 2/M
;
_chemical_formula_sum "Si O2"
_cell_formula_units_Z 56
_cell_length_a 11.730683
_cell_length_b 19.299497
_cell_length_c 14.629816
_cell_angle_alpha 90.000000
_cell_angle_beta 123.414987
_cell_angle_gamma 90.000000
_cell_volume 2764.652601
_symmetry_space_group_name_H-M "C 2/M"
_symmetry_group_IT_number 12
_symmetry_cell_setting 'monoclinic'
loop_
_space_group_symop_operation_xyz
x,y,z
-x,y,-z
-x,-y,-z
x,-y,z
1/2+x,1/2+y,z
1/2-x,1/2+y,-z
1/2-x,1/2-y,-z
1/2+x,1/2-y,z
loop_
_atom_site_type_symbol
_atom_site_label
_atom_site_fract_x
_atom_site_fract_y
_atom_site_fract_z
Si Si1 0.000000 0.874177 0.500000
Si Si2 0.705719 0.694666 0.731729
Si Si3 0.236440 0.849046 0.318720
Si Si4 0.534910 0.714702 0.814496
Si Si5 0.000000 0.179931 0.000000
Si Si6 0.729375 0.078028 0.483412
Si Si7 0.741511 0.080001 0.854854
Si Si8 0.457259 0.866034 0.755261
O O1 0.921030 0.831776 0.385712
O O2 0.875630 0.913029 0.496665
O O3 0.732332 0.771993 0.704711
O O4 0.673715 0.697220 0.824844
O O5 0.834503 0.644761 0.772294
O O6 0.286752 0.867998 0.440977
O O7 0.284850 0.902931 0.263884
O O8 0.071618 0.846984 0.251507
O O9 0.526755 0.723365 0.919780
O O10 0.490519 0.785933 0.745972
O O11 0.867031 0.130753 0.933531
O O12 0.611819 0.093431 0.358329
O O13 0.720246 0.000000 0.514913
O O14 0.601250 0.100055 0.844060
O O15 0.776027 0.000000 0.884023
#
# Coordination Sequence:
#
# PCOD9199925 Si02
#       8
#     4   8   8   8   4   8   8   8
#     4  10  21  34  60  86 121 176 206 244 296 350
#     4  10  20  36  62  90 128 155 205 259 302 355
#     4  10  21  35  61  95 122 165 207 246 303 354
#     4  10  20  42  62  94 121 151 207 271 307 355
#     4  10  25  42  72  94 107 154 214 260 322 354
#     4  11  22  37  56  88 130 173 208 234 287 371
#     4  11  22  42  62  87 126 160 200 251 303 369
#     4  10  23  37  58  92 122 164 193 246 311 361
#
# _framework density 20.255707999999998
#
# number of rings (size 3 to 8) (size 9 to 14) (size 15 to 20)
#    0.000    1.714    2.857    1.286    2.000    2.857 
#    0.000    1.429    0.000    0.857    0.000    0.000 
#    0.000    0.000    0.000    0.000    0.000    0.000 
#
# Total GULP energy -156087.031276 kJ/mol
# GULP energy per Si atom -5574.536831 kJ/mol
# Density = 2.020961 g / cm^3
# Si number density = 20.255708 Si / 1000 Ang^3
#
#
#
# Elastic Constant Matrix: (Units=GPa)
#
#
# Indices 1 2 3 4 5 6 
#
# 1 103.4099 17.9580 34.6392 0.0000 -0.2379 0.0000
# 2 17.9580 62.6032 10.1944 0.0000 -3.0229 0.0000
# 3 34.6392 10.1944 52.7320 0.0000 -0.2545 0.0000
# 4 0.0000 0.0000 0.0000 17.5319 0.0000 2.4958
# 5 -0.2379 -3.0229 -0.2545 0.0000 34.4913 0.0000
# 6 0.0000 0.0000 0.0000 2.4958 0.0000 7.9314
#
#
#
# Elastic Compliance Matrix: (Units=1/GPa)
#
#
# Indices 1 2 3 4 5 6 
#
# 1 0.012730 -0.002373 -0.007904 0.000000 -0.000178 0.000000
# 2 -0.002373 0.017005 -0.001722 0.000000 0.001461 0.000000
# 3 -0.007904 -0.001722 0.024489 0.000000 -0.000025 0.000000
# 4 0.000000 0.000000 0.000000 0.059714 0.000000 -0.018791
# 5 -0.000178 0.001461 -0.000025 0.000000 0.029119 0.000000
# 6 0.000000 0.000000 0.000000 -0.018791 0.000000 0.131995
#
#
# Mechanical properties :
#
#
# Convention : Reuss Voigt Hill
#
# Bulk Modulus (GPa) = 33.08413 38.25872 35.67142
# Shear Modulus (GPa) = 16.17472 22.38781 19.28126
#
# Velocity S-wave (km/s) = 2.82889 3.32815 3.08862
# Velocity P-wave (km/s) = 5.19989 5.80497 5.51074
#
# Compressibility (1/GPa) = 0.03022598
#
# Stress axis : x y z
#
# Youngs Moduli (GPa) = 78.55728 58.80534 40.83529
#
# Poissons Ratio (x) = 0.13955 0.32276
# Poissons Ratio (y) = 0.18642 0.07030
# Poissons Ratio (z) = 0.62092 0.10124
#
# Static dielectric constant tensor:
#      x y z
#    x 1.792150 0.000000 0.013500 
#    y 0.000000 1.682540 0.000000 
#    z 0.013500 0.000000 1.722010 
# 
# From -- ./inp_files/206795.got.cif
#   From: 2010.05.17/outbox.cif.g08.bks.cpg/sg12_104_cif.got.tgz:206795.got - 2010.06.03 13:09:07.
