data_PCOD9199842
_publ_section_title
;
Structure prediction by ZEFSAII (Michael W. Deem and Ramdas Pophale) SiO2 
 PCOD9199842
Probable space group: C 2/M
;
_chemical_formula_sum "Si O2"
_cell_formula_units_Z 56
_cell_length_a 11.835987
_cell_length_b 17.074760
_cell_length_c 14.777625
_cell_angle_alpha 90.000000
_cell_angle_beta 58.559327
_cell_angle_gamma 90.000000
_cell_volume 2548.031347
_symmetry_space_group_name_H-M "C 2/M"
_symmetry_group_IT_number 12
_symmetry_cell_setting 'monoclinic'
loop_
_space_group_symop_operation_xyz
x,y,z
-x,y,-z
-x,-y,-z
x,-y,z
1/2+x,1/2+y,z
1/2-x,1/2+y,-z
1/2-x,1/2-y,-z
1/2+x,1/2-y,z
loop_
_atom_site_type_symbol
_atom_site_label
_atom_site_fract_x
_atom_site_fract_y
_atom_site_fract_z
Si Si1 0.000000 0.158812 0.000000
Si Si2 0.744401 0.743880 0.109885
Si Si3 0.371177 0.910798 0.116065
Si Si4 0.863387 0.585291 0.650134
Si Si5 0.066329 0.911348 0.788467
Si Si6 0.987708 0.352233 0.249310
Si Si7 0.128271 0.780954 0.613132
Si Si8 0.000000 0.282088 0.500000
O O1 0.120566 0.213446 0.919196
O O2 0.979438 0.112155 0.913546
O O3 0.761013 0.655301 0.139576
O O4 0.616401 0.795791 0.186083
O O5 0.750000 0.750000 0.000000
O O6 0.437086 0.901683 0.187073
O O7 0.324491 0.000000 0.121196
O O8 0.500000 0.895903 0.000000
O O9 0.871637 0.500000 0.602598
O O10 0.720489 0.587632 0.756872
O O11 0.976562 0.596889 0.677771
O O12 0.881705 0.656070 0.572201
O O13 0.084778 0.855823 0.692133
O O14 0.031253 0.000000 0.776449
O O15 0.874385 0.289250 0.313887
O O16 0.250000 0.750000 0.500000
O O17 0.015623 0.768866 0.582985
#
# Coordination Sequence:
#
# PCOD9199842 Si02
#       8
#     4   8   8   8   8   8   8   4
#     4  12  23  42  65  94 136 178 224 270 329 408
#     4  12  21  39  61  91 123 178 225 272 321 398
#     4  11  23  40  62  94 134 176 221 277 333 393
#     4  10  20  36  61  94 125 155 207 275 334 384
#     4  11  23  41  63  95 134 172 215 270 331 395
#     4  11  23  39  66  93 129 170 225 272 330 408
#     4  11  23  43  68  95 128 172 224 279 331 404
#     4  10  21  38  67  94 122 170 214 272 327 396
#
# _framework density 21.977751000000001
#
# number of rings (size 3 to 8) (size 9 to 14) (size 15 to 20)
#    0.000    1.000    5.000    2.571    0.000    0.000 
#    0.000    4.643    0.000    0.000    0.000    0.000 
#    0.000    0.000    0.000    0.000    0.000    0.000 
#
# Total GULP energy -155868.268080 kJ/mol
# GULP energy per Si atom -5566.723860 kJ/mol
# Density = 2.192773 g / cm^3
# Si number density = 21.977751 Si / 1000 Ang^3
#
#
#
# Elastic Constant Matrix: (Units=GPa)
#
#
# Indices 1 2 3 4 5 6 
#
# 1 32.6469 28.2286 5.8673 0.0000 15.5667 0.0000
# 2 28.2286 150.7770 47.5836 0.0000 14.9058 0.0000
# 3 5.8673 47.5836 106.0701 0.0000 4.8243 0.0000
# 4 0.0000 0.0000 0.0000 17.7987 0.0000 4.1563
# 5 15.5667 14.9058 4.8243 0.0000 49.8121 0.0000
# 6 0.0000 0.0000 0.0000 4.1563 0.0000 20.7783
#
#
#
# Elastic Compliance Matrix: (Units=1/GPa)
#
#
# Indices 1 2 3 4 5 6 
#
# 1 0.041874 -0.007191 0.001413 0.000000 -0.011071 0.000000
# 2 -0.007191 0.009162 -0.003706 0.000000 -0.000135 0.000000
# 3 0.001413 -0.003706 0.011030 0.000000 -0.000401 0.000000
# 4 0.000000 0.000000 0.000000 0.058937 0.000000 -0.011789
# 5 -0.011071 -0.000135 -0.000401 0.000000 0.023614 0.000000
# 6 0.000000 0.000000 0.000000 -0.011789 0.000000 0.050485
#
#
# Mechanical properties :
#
#
# Convention : Reuss Voigt Hill
#
# Bulk Modulus (GPa) = 23.20313 50.31701 36.76007
# Shear Modulus (GPa) = 21.88802 31.53214 26.71008
#
# Velocity S-wave (km/s) = 3.15924 3.79189 3.48993
# Velocity P-wave (km/s) = 4.88756 6.48964 5.74472
#
# Compressibility (1/GPa) = 0.04309764
#
# Stress axis : x y z
#
# Youngs Moduli (GPa) = 23.88145 109.15122 90.65921
#
# Poissons Ratio (x) = 0.78492 -0.12813
# Poissons Ratio (y) = 0.17174 0.33598
# Poissons Ratio (z) = -0.03375 0.40452
#
# Static dielectric constant tensor:
#      x y z
#    x 0.378220 0.000000 -0.628640 
#    y 0.000000 1.864110 0.000000 
#    z -0.628640 0.000000 1.704340 
# 
# From -- ./inp_files/206610.got.cif
#   From: 2010.05.17/outbox.cif.g08.bks.cpg/sg12_104_cif.got.tgz:206610.got - 2010.06.03 13:09:07.
