data_PCOD9199853
_publ_section_title
;
Structure prediction by ZEFSAII (Michael W. Deem and Ramdas Pophale) SiO2 
 PCOD9199853
Probable space group: C 2/M
;
_chemical_formula_sum "Si O2"
_cell_formula_units_Z 56
_cell_length_a 12.569861
_cell_length_b 20.139673
_cell_length_c 11.692693
_cell_angle_alpha 90.000000
_cell_angle_beta 106.856056
_cell_angle_gamma 90.000000
_cell_volume 2832.864685
_symmetry_space_group_name_H-M "C 2/M"
_symmetry_group_IT_number 12
_symmetry_cell_setting 'monoclinic'
loop_
_space_group_symop_operation_xyz
x,y,z
-x,y,-z
-x,-y,-z
x,-y,z
1/2+x,1/2+y,z
1/2-x,1/2+y,-z
1/2-x,1/2-y,-z
1/2+x,1/2-y,z
loop_
_atom_site_type_symbol
_atom_site_label
_atom_site_fract_x
_atom_site_fract_y
_atom_site_fract_z
Si Si1 0.893930 0.422678 0.226442
Si Si2 0.107328 0.683431 0.962394
Si Si3 0.016171 0.171253 0.368177
Si Si4 0.788705 0.923949 0.659956
Si Si5 0.301845 0.706722 0.182797
Si Si6 0.132523 0.574343 0.392692
Si Si7 0.816954 0.723008 0.631591
O O1 0.882359 0.500000 0.194325
O O2 0.919460 0.379488 0.124026
O O3 0.778354 0.401280 0.248992
O O4 0.999453 0.418163 0.344870
O O5 0.145141 0.741439 0.888939
O O6 0.206768 0.669522 0.082070
O O7 0.000000 0.704435 0.000000
O O8 0.111097 0.121535 0.352500
O O9 0.062829 0.244275 0.349316
O O10 0.000000 0.166178 0.500000
O O11 0.899541 0.162881 0.268139
O O12 0.692541 0.925684 0.533605
O O13 0.827262 0.000000 0.687673
O O14 0.243812 0.744304 0.271391
O O15 0.156551 0.500000 0.350154
O O16 0.177765 0.643392 0.355638
O O17 0.750000 0.750000 0.500000
#
# Coordination Sequence:
#
# PCOD9199853 Si02
#       7
#     8   8   8   8   8   8   8
#     4  10  21  38  63  91 120 165 217 264 315 373
#     4  11  24  42  63  86 125 168 207 265 312 377
#     4  12  23  37  61  93 125 159 209 259 313 386
#     4  10  21  38  58  88 130 168 206 258 321 383
#     4  11  24  42  61  91 124 163 211 252 325 373
#     4  10  20  36  61  95 132 163 202 259 326 380
#     4  12  22  39  63  94 127 163 206 261 313 380
#
# _framework density 19.767976000000001
#
# number of rings (size 3 to 8) (size 9 to 14) (size 15 to 20)
#    0.000    1.143    2.857    3.857    0.000    4.571 
#    0.000    2.143    0.000    1.714    0.000    0.000 
#    0.000    0.000    0.000    0.000    0.000    0.000 
#
# Total GULP energy -156247.884598 kJ/mol
# GULP energy per Si atom -5580.281593 kJ/mol
# Density = 1.972298 g / cm^3
# Si number density = 19.767976 Si / 1000 Ang^3
#
#
#
# Elastic Constant Matrix: (Units=GPa)
#
#
# Indices 1 2 3 4 5 6 
#
# 1 102.4785 30.9074 45.4697 0.0000 -5.7392 0.0000
# 2 30.9074 97.8123 14.5680 0.0000 -6.8529 0.0000
# 3 45.4697 14.5680 91.1409 0.0000 9.8042 0.0000
# 4 0.0000 0.0000 0.0000 14.9014 0.0000 6.7991
# 5 -5.7392 -6.8529 9.8042 0.0000 48.2286 0.0000
# 6 0.0000 0.0000 0.0000 6.7991 0.0000 27.6448
#
#
#
# Elastic Compliance Matrix: (Units=1/GPa)
#
#
# Indices 1 2 3 4 5 6 
#
# 1 0.013818 -0.003197 -0.006656 0.000000 0.002543 0.000000
# 2 -0.003197 0.011380 -0.000365 0.000000 0.001311 0.000000
# 3 -0.006656 -0.000365 0.014765 0.000000 -0.003846 0.000000
# 4 0.000000 0.000000 0.000000 0.075591 0.000000 -0.018591
# 5 0.002543 0.001311 -0.003846 0.000000 0.022005 0.000000
# 6 0.000000 0.000000 0.000000 -0.018591 0.000000 0.040746
#
#
# Mechanical properties :
#
#
# Convention : Reuss Voigt Hill
#
# Bulk Modulus (GPa) = 51.21266 52.59131 51.90198
# Shear Modulus (GPa) = 24.36053 31.52072 27.94062
#
# Velocity S-wave (km/s) = 3.51425 3.99749 3.76364
# Velocity P-wave (km/s) = 6.51381 6.92594 6.72304
#
# Compressibility (1/GPa) = 0.01952642
#
# Stress axis : x y z
#
# Youngs Moduli (GPa) = 72.36849 87.87330 67.72820
#
# Poissons Ratio (x) = 0.28091 0.45083
# Poissons Ratio (y) = 0.23135 0.02473
# Poissons Ratio (z) = 0.48171 0.03209
#
# Static dielectric constant tensor:
#      x y z
#    x 1.716770 0.000000 0.009880 
#    y 0.000000 1.723070 0.000000 
#    z 0.009880 0.000000 1.704990 
# 
# From -- ./inp_files/133984.got.cif
#   From: 2010.05.17/outbox.cif.g08.bks.cpg/sg12_67_cif.got.tgz:133984.got - 2010.06.03 13:09:07.
