data_PCOD9199993
_publ_section_title
;
Structure prediction by ZEFSAII (Michael W. Deem and Ramdas Pophale) SiO2 
 PCOD9199993
Probable space group: C 2/M
;
_chemical_formula_sum "Si O2"
_cell_formula_units_Z 40
_cell_length_a 26.915343
_cell_length_b 8.674735
_cell_length_c 21.499259
_cell_angle_alpha 90.000000
_cell_angle_beta 21.927303
_cell_angle_gamma 90.000000
_cell_volume 1874.514013
_symmetry_space_group_name_H-M "C 2/M"
_symmetry_group_IT_number 12
_symmetry_cell_setting 'monoclinic'
loop_
_space_group_symop_operation_xyz
x,y,z
-x,y,-z
-x,-y,-z
x,-y,z
1/2+x,1/2+y,z
1/2-x,1/2+y,-z
1/2-x,1/2-y,-z
1/2+x,1/2-y,z
loop_
_atom_site_type_symbol
_atom_site_label
_atom_site_fract_x
_atom_site_fract_y
_atom_site_fract_z
Si Si1 0.607015 0.317360 0.683407
Si Si2 0.118662 0.815265 0.439301
Si Si3 0.157202 0.684420 0.256181
Si Si4 0.901930 0.684874 0.170612
Si Si5 0.348647 0.817525 0.936681
O O1 0.610116 0.500000 0.675620
O O2 0.750000 0.250000 0.500000
O O3 0.571489 0.265914 0.794903
O O4 0.495132 0.252818 0.767090
O O5 0.148244 0.747758 0.336523
O O6 0.248576 0.784680 0.329648
O O7 0.979739 0.735791 0.618816
O O8 0.099341 0.000000 0.458378
O O9 0.168938 0.500000 0.241725
O O10 0.279807 0.765538 0.080724
O O11 0.917525 0.500000 0.160591
O O12 0.000000 0.731041 0.000000
O O13 0.355159 0.000000 0.923726
O O14 0.250000 0.750000 0.000000
#
# Coordination Sequence:
#
# PCOD9199993 Si02
#       5
#     8   8   8   8   8
#     4  12  27  47  71 101 140 182 228 281 341 406
#     4  10  20  36  62  94 130 173 220 273 332 392
#     4  11  22  38  61  93 132 170 218 273 332 396
#     4  10  22  41  67  97 133 177 226 278 338 403
#     4  12  26  46  70  96 130 173 224 276 335 402
#
# _framework density 21.338865999999999
#
# number of rings (size 3 to 8) (size 9 to 14) (size 15 to 20)
#    0.000    1.000    0.000    8.400    2.800    3.600 
#    0.000    0.000    0.000    0.000    0.000    0.000 
#    0.000    0.000    0.000    0.000    0.000    0.000 
#
# Total GULP energy -111976.218232 kJ/mol
# GULP energy per Si atom -5598.810912 kJ/mol
# Density = 2.129030 g / cm^3
# Si number density = 21.338866 Si / 1000 Ang^3
#
#
#
# Elastic Constant Matrix: (Units=GPa)
#
#
# Indices 1 2 3 4 5 6 
#
# 1 102.7686 61.0488 44.8949 -0.0003 -26.7912 0.0002
# 2 61.0488 145.4515 42.5367 0.0011 -22.6426 -0.0005
# 3 44.8949 42.5367 120.4472 0.0001 -24.5803 0.0000
# 4 -0.0003 0.0011 0.0001 32.5452 -0.0001 0.7403
# 5 -26.7912 -22.6426 -24.5803 -0.0001 39.3878 0.0000
# 6 0.0002 -0.0005 0.0000 0.7403 0.0000 35.1686
#
#
#
# Elastic Compliance Matrix: (Units=1/GPa)
#
#
# Indices 1 2 3 4 5 6 
#
# 1 0.015291 -0.004661 -0.002839 0.000000 0.005949 0.000000
# 2 -0.004661 0.009437 -0.001301 0.000000 0.001442 0.000000
# 3 -0.002839 -0.001301 0.010627 0.000000 0.003953 0.000000
# 4 0.000000 0.000000 0.000000 0.030741 0.000000 -0.000647
# 5 0.005949 0.001442 0.003953 0.000000 0.032731 0.000000
# 6 0.000000 0.000000 0.000000 -0.000647 0.000000 0.028448
#
#
# Mechanical properties :
#
#
# Convention : Reuss Voigt Hill
#
# Bulk Modulus (GPa) = 56.33345 73.95868 65.14606
# Shear Modulus (GPa) = 33.15771 36.09944 34.62857
#
# Velocity S-wave (km/s) = 3.94619 4.11752 4.03276
# Velocity P-wave (km/s) = 6.87168 7.57230 7.23048
#
# Compressibility (1/GPa) = 0.01775144
#
# Stress axis : x y z
#
# Youngs Moduli (GPa) = 65.39826 105.97065 94.10283
#
# Poissons Ratio (x) = 0.49398 0.26717
# Poissons Ratio (y) = 0.30485 0.12240
# Poissons Ratio (z) = 0.18567 0.13784
#
# Static dielectric constant tensor:
#      x y z
#    x 1.780620 0.000000 -0.021980 
#    y 0.000000 1.701720 0.000000 
#    z -0.021980 0.000000 1.737520 
# 
# From -- ./inp_files/352953.got.cif
#   From: 2010.05.17/outbox.cif.g08.bks.cpg/sg12_177_cif.got.tgz:352953.got - 2010.06.03 13:09:07.
