data_PCOD9199717
_publ_section_title
;
Structure prediction by ZEFSAII (Michael W. Deem and Ramdas Pophale) SiO2 
 PCOD9199717
Probable space group: C 2/M
;
_chemical_formula_sum "Si O2"
_cell_formula_units_Z 58
_cell_length_a 27.165895
_cell_length_b 7.526445
_cell_length_c 11.314097
_cell_angle_alpha 90.000000
_cell_angle_beta 91.495598
_cell_angle_gamma 90.000000
_cell_volume 2312.521786
_symmetry_space_group_name_H-M "C 2/M"
_symmetry_group_IT_number 12
_symmetry_cell_setting 'monoclinic'
loop_
_space_group_symop_operation_xyz
x,y,z
-x,y,-z
-x,-y,-z
x,-y,z
1/2+x,1/2+y,z
1/2-x,1/2+y,-z
1/2-x,1/2-y,-z
1/2+x,1/2-y,z
loop_
_atom_site_type_symbol
_atom_site_label
_atom_site_fract_x
_atom_site_fract_y
_atom_site_fract_z
Si Si1 0.403981 0.788874 0.879008
Si Si2 0.807576 0.789149 0.501811
Si Si3 0.196436 0.211881 0.241810
Si Si4 0.500000 0.500000 0.500000
Si Si5 0.047208 0.283383 0.365390
Si Si6 0.787324 0.201057 0.108008
Si Si7 0.897698 0.296703 0.133347
Si Si8 0.599446 0.203354 0.608921
O O1 0.345872 0.757650 0.853625
O O2 0.431467 0.729903 0.761148
O O3 0.411728 0.000000 0.884327
O O4 0.416396 0.716919 0.010287
O O5 0.750000 0.750000 0.500000
O O6 0.823090 0.723819 0.633283
O O7 0.841390 0.702832 0.405569
O O8 0.814798 0.000000 0.492152
O O9 0.250076 0.285936 0.215877
O O10 0.201575 0.000000 0.246246
O O11 0.501545 0.659800 0.396970
O O12 0.040812 0.500000 0.366931
O O13 0.081540 0.223340 0.480209
O O14 0.838032 0.304802 0.120499
O O15 0.803380 0.000000 0.091887
O O16 0.750000 0.250000 0.000000
O O17 0.916242 0.500000 0.138703
O O18 0.909057 0.215607 0.262206
O O19 0.581622 0.000000 0.610084
#
# Coordination Sequence:
#
# PCOD9199717 Si02
#       8
#     8   8   8   2   8   8   8   8
#     4  10  20  36  61  88 119 160 205 253 307 376
#     4  11  23  35  52  78 117 165 218 267 315 366
#     4  11  22  34  52  76 110 156 214 270 314 360
#     4  12  26  44  80 108 136 160 202 278 328 402
#     4  10  23  44  72 104 132 166 207 255 328 405
#     4  12  23  34  48  74 114 167 220 274 318 363
#     4  10  21  37  57  85 121 166 213 263 315 369
#     4  10  21  38  61  89 127 165 209 260 320 383
#
# _framework density 25.080846000000001
#
# number of rings (size 3 to 8) (size 9 to 14) (size 15 to 20)
#    0.000    1.379    2.759    3.103    1.931    5.517 
#    0.000    0.000    0.000    1.655    0.000    4.828 
#    0.000    0.000    0.000    0.000    0.000    0.000 
#
# Total GULP energy -161694.025849 kJ/mol
# GULP energy per Si atom -5575.656064 kJ/mol
# Density = 2.502376 g / cm^3
# Si number density = 25.080846 Si / 1000 Ang^3
#
#
#
# Elastic Constant Matrix: (Units=GPa)
#
#
# Indices 1 2 3 4 5 6 
#
# 1 56.0327 -8.7816 50.7791 0.0000 -12.7410 0.0000
# 2 -8.7816 94.7741 27.8101 0.0000 -8.5771 0.0000
# 3 50.7791 27.8101 222.9730 0.0000 -15.0938 0.0000
# 4 0.0000 0.0000 0.0000 7.3014 0.0000 -4.2549
# 5 -12.7410 -8.5771 -15.0938 0.0000 40.0047 0.0000
# 6 0.0000 0.0000 0.0000 -4.2549 0.0000 -12.7015
#
#
#
# Elastic Compliance Matrix: (Units=1/GPa)
#
#
# Indices 1 2 3 4 5 6 
#
# 1 0.025543 0.004735 -0.005940 0.000000 0.006909 0.000000
# 2 0.004735 0.011970 -0.002356 0.000000 0.003186 0.000000
# 3 -0.005940 -0.002356 0.006126 0.000000 -0.000086 0.000000
# 4 0.000000 0.000000 0.000000 0.114591 0.000000 -0.038387
# 5 0.006909 0.003186 -0.000086 0.000000 0.027848 0.000000
# 6 0.000000 0.000000 0.000000 -0.038387 0.000000 -0.065872
#
#
# Mechanical properties :
#
#
# Convention : Reuss Voigt Hill
#
# Bulk Modulus (GPa) = 27.38441 57.04387 42.21414
# Shear Modulus (GPa) = 35.84256 27.18573 31.51415
#
# Velocity S-wave (km/s) = 3.78442 3.29587 3.54856
# Velocity P-wave (km/s) = 5.48069 6.10549 5.80151
#
# Compressibility (1/GPa) = 0.03651713
#
# Stress axis : x y z
#
# Youngs Moduli (GPa) = 39.14990 83.54460 163.24985
#
# Poissons Ratio (x) = -0.39559 0.96969
# Poissons Ratio (y) = -0.18538 0.38455
# Poissons Ratio (z) = 0.23255 0.19680
#
# Static dielectric constant tensor:
#      x y z
#    x 2.119410 0.000000 0.007410 
#    y 0.000000 1.924980 0.000000 
#    z 0.007410 0.000000 2.069400 
# 
# From -- ./inp_files/180963.got.cif
#   From: 2010.05.17/outbox.cif.g08.bks.cpg/sg12_91_cif.got.tgz:180963.got - 2010.06.03 13:09:07.
