data_PCOD9199368
_publ_section_title
;
Structure prediction by ZEFSAII (Michael W. Deem and Ramdas Pophale) SiO2 
 PCOD9199368
Probable space group: C 2/M
;
_chemical_formula_sum "Si O2"
_cell_formula_units_Z 56
_cell_length_a 19.256586
_cell_length_b 8.958633
_cell_length_c 18.397528
_cell_angle_alpha 90.000000
_cell_angle_beta 105.253023
_cell_angle_gamma 90.000000
_cell_volume 3062.004698
_symmetry_space_group_name_H-M "C 2/M"
_symmetry_group_IT_number 12
_symmetry_cell_setting 'monoclinic'
loop_
_space_group_symop_operation_xyz
x,y,z
-x,y,-z
-x,-y,-z
x,-y,z
1/2+x,1/2+y,z
1/2-x,1/2+y,-z
1/2-x,1/2-y,-z
1/2+x,1/2-y,z
loop_
_atom_site_type_symbol
_atom_site_label
_atom_site_fract_x
_atom_site_fract_y
_atom_site_fract_z
Si Si1 0.823959 0.821757 0.495094
Si Si2 0.063228 0.320645 0.074071
Si Si3 0.501631 0.678016 0.802592
Si Si4 0.537104 0.321954 0.373175
Si Si5 0.610305 0.176255 0.627306
Si Si6 0.651668 0.177425 0.805595
Si Si7 0.275718 0.820823 0.931465
O O1 0.750000 0.750000 0.500000
O O2 0.888042 0.782037 0.568721
O O3 0.846591 0.761759 0.422644
O O4 0.817760 0.000000 0.491995
O O5 0.061372 0.500000 0.083905
O O6 0.141698 0.281243 0.064407
O O7 0.045602 0.241563 0.145040
O O8 0.000000 0.281361 0.000000
O O9 0.510371 0.500000 0.811811
O O10 0.466459 0.709346 0.713971
O O11 0.579976 0.755692 0.823140
O O12 0.525538 0.500000 0.379468
O O13 0.471176 0.236109 0.391989
O O14 0.642322 0.201685 0.716723
O O15 0.611290 0.000000 0.613115
O O16 0.721707 0.257811 0.855896
O O17 0.655094 0.000000 0.820386
O O18 0.270779 0.000000 0.934136
O O19 0.250000 0.750000 0.000000
#
# Coordination Sequence:
#
# PCOD9199368 Si02
#       7
#     8   8   8   8   8   8   8
#     4  11  23  38  56  80 114 151 187 232 284 336
#     4  10  22  39  57  80 113 148 181 224 278 330
#     4  10  20  36  60  86 111 142 185 232 277 333
#     4   9  20  38  58  82 112 146 183 228 282 334
#     4  10  21  37  59  85 111 145 189 232 277 333
#     4  10  21  38  59  83 115 150 184 229 281 332
#     4  11  23  38  59  86 115 149 189 232 279 334
#
# _framework density 18.28867
#
# number of rings (size 3 to 8) (size 9 to 14) (size 15 to 20)
#    0.000    1.857    0.000    3.429    0.000    8.857 
#    0.000    4.286    0.000    0.000    0.000    0.000 
#    0.000    0.000    0.000    0.000    0.000    0.000 
#
# Total GULP energy -156479.414191 kJ/mol
# GULP energy per Si atom -5588.550507 kJ/mol
# Density = 1.824704 g / cm^3
# Si number density = 18.288670 Si / 1000 Ang^3
#
#
#
# Elastic Constant Matrix: (Units=GPa)
#
#
# Indices 1 2 3 4 5 6 
#
# 1 189.3480 85.8361 98.9074 0.0000 -2.3087 0.0000
# 2 85.8361 68.1604 63.0080 0.0000 -0.7664 0.0000
# 3 98.9074 63.0080 84.3797 0.0000 0.3841 0.0000
# 4 0.0000 0.0000 0.0000 33.5866 0.0000 -4.2892
# 5 -2.3087 -0.7664 0.3841 0.0000 35.8444 0.0000
# 6 0.0000 0.0000 0.0000 -4.2892 0.0000 36.4043
#
#
#
# Elastic Compliance Matrix: (Units=1/GPa)
#
#
# Indices 1 2 3 4 5 6 
#
# 1 0.015041 -0.008490 -0.011295 0.000000 0.000908 0.000000
# 2 -0.008490 0.052231 -0.029054 0.000000 0.000881 0.000000
# 3 -0.011295 -0.029054 0.046795 0.000000 -0.001850 0.000000
# 4 0.000000 0.000000 0.000000 0.030229 0.000000 0.003562
# 5 0.000908 0.000881 -0.001850 0.000000 0.027996 0.000000
# 6 0.000000 0.000000 0.000000 0.003562 0.000000 0.027889
#
#
# Mechanical properties :
#
#
# Convention : Reuss Voigt Hill
#
# Bulk Modulus (GPa) = 61.01974 93.04345 77.03159
# Shear Modulus (GPa) = 16.48418 27.44284 21.96351
#
# Velocity S-wave (km/s) = 3.00548 3.87788 3.46921
# Velocity P-wave (km/s) = 6.74397 8.42828 7.63273
#
# Compressibility (1/GPa) = 0.01638814
#
# Stress axis : x y z
#
# Youngs Moduli (GPa) = 66.48285 19.14587 21.36996
#
# Poissons Ratio (x) = 0.16255 0.24138
# Poissons Ratio (y) = 0.56446 0.62087
# Poissons Ratio (z) = 0.75095 0.55626
#
# Static dielectric constant tensor:
#      x y z
#    x 1.588930 0.000000 0.006760 
#    y 0.000000 1.607570 0.000000 
#    z 0.006760 0.000000 1.626330 
# 
# From -- ./inp_files/275198.got.cif
#   From: 2010.05.17/outbox.cif.g08.bks.cpg/sg12_138_cif.got.tgz:275198.got - 2010.06.03 13:09:07.
