data_PCOD9199149
_publ_section_title
;
Structure prediction by ZEFSAII (Michael W. Deem and Ramdas Pophale) SiO2 
 PCOD9199149
Probable space group: C 2/M
;
_chemical_formula_sum "Si O2"
_cell_formula_units_Z 34
_cell_length_a 13.226903
_cell_length_b 14.358402
_cell_length_c 15.275378
_cell_angle_alpha 90.000000
_cell_angle_beta 151.414719
_cell_angle_gamma 90.000000
_cell_volume 1388.057927
_symmetry_space_group_name_H-M "C 2/M"
_symmetry_group_IT_number 12
_symmetry_cell_setting 'monoclinic'
loop_
_space_group_symop_operation_xyz
x,y,z
-x,y,-z
-x,-y,-z
x,-y,z
1/2+x,1/2+y,z
1/2-x,1/2+y,-z
1/2-x,1/2-y,-z
1/2+x,1/2-y,z
loop_
_atom_site_type_symbol
_atom_site_label
_atom_site_fract_x
_atom_site_fract_y
_atom_site_fract_z
Si Si1 0.755258 0.699803 0.119279
Si Si2 0.000000 0.000000 0.500000
Si Si3 0.664050 0.892246 0.446889
Si Si4 0.655114 0.399995 0.768520
Si Si5 0.159442 0.111537 0.234951
O O1 0.728577 0.809494 0.110950
O O2 0.728989 0.654062 0.195701
O O3 0.991989 0.673076 0.271745
O O4 0.572875 0.653300 0.923547
O O5 0.152080 0.920244 0.662533
O O6 0.690623 0.868098 0.569471
O O7 0.902229 0.889908 0.592379
O O8 0.593011 0.000000 0.385279
O O9 0.719811 0.500000 0.858555
O O10 0.145955 0.000000 0.216739
#
# Coordination Sequence:
#
# PCOD9199149 Si02
#       5
#     8   2   8   8   8
#     4  11  20  36  59  85 114 156 189 224 290 344
#     4   8  20  40  60  78 120 144 194 252 268 322
#     4  10  20  36  59  87 114 150 188 232 288 339
#     4   9  21  37  58  83 114 148 196 241 277 331
#     4  10  22  36  57  87 122 145 184 242 278 339
#
# _framework density 24.494655999999999
#
# number of rings (size 3 to 8) (size 9 to 14) (size 15 to 20)
#    0.706    1.412    0.000    4.235    3.294    2.824 
#    0.000    2.353    0.000    1.412    0.000    0.000 
#    0.000    0.000    0.000    0.000    0.000    0.000 
#
# Total GULP energy -94742.205896 kJ/mol
# GULP energy per Si atom -5573.070935 kJ/mol
# Density = 2.443891 g / cm^3
# Si number density = 24.494656 Si / 1000 Ang^3
#
#
#
# Elastic Constant Matrix: (Units=GPa)
#
#
# Indices 1 2 3 4 5 6 
#
# 1 30.8537 6.8399 4.9579 -0.0017 -10.4845 -0.0008
# 2 6.8399 135.5671 60.1610 -0.0033 2.4149 -0.0056
# 3 4.9579 60.1610 86.6012 0.0004 4.3089 -0.0037
# 4 -0.0017 -0.0033 0.0004 21.6404 -0.0013 10.6263
# 5 -10.4845 2.4149 4.3089 -0.0013 14.6069 -0.0062
# 6 -0.0008 -0.0056 -0.0037 10.6263 -0.0062 14.9016
#
#
#
# Elastic Compliance Matrix: (Units=1/GPa)
#
#
# Indices 1 2 3 4 5 6 
#
# 1 0.044494 -0.001407 -0.003218 -0.000003 0.033119 0.000017
# 2 -0.001407 0.010711 -0.007330 0.000001 -0.000618 0.000001
# 3 -0.003218 -0.007330 0.017129 -0.000002 -0.006151 0.000000
# 4 -0.000003 0.000001 -0.000002 0.071110 -0.000017 -0.050708
# 5 0.033119 -0.000618 -0.006151 -0.000017 0.094150 0.000052
# 6 0.000017 0.000001 0.000000 -0.050708 0.000052 0.103267
#
#
# Mechanical properties :
#
#
# Convention : Reuss Voigt Hill
#
# Bulk Modulus (GPa) = 20.65007 44.10439 32.37723
# Shear Modulus (GPa) = 13.12644 22.30067 17.71355
#
# Velocity S-wave (km/s) = 2.31744 3.02061 2.69208
# Velocity P-wave (km/s) = 3.95088 5.49638 4.78642
#
# Compressibility (1/GPa) = 0.04842599
#
# Stress axis : x y z
#
# Youngs Moduli (GPa) = 22.47484 93.36126 58.37973
#
# Poissons Ratio (x) = 0.13135 0.18786
# Poissons Ratio (y) = 0.03162 0.42790
# Poissons Ratio (z) = 0.07232 0.68430
#
# Static dielectric constant tensor:
#      x y z
#    x 2.112630 0.000000 0.061420 
#    y 0.000000 1.926770 -0.000010 
#    z 0.061420 -0.000010 1.902030 
# 
# From -- ./inp_files/284354.got.cif
#   From: 2010.05.17/outbox.cif.g08.bks.cpg/sg12_143_cif.got.tgz:284354.got - 2010.06.03 13:09:07.
