data_PCOD9199612
_publ_section_title
;
Structure prediction by ZEFSAII (Michael W. Deem and Ramdas Pophale) SiO2 
 PCOD9199612
Probable space group: C 2/M
;
_chemical_formula_sum "Si O2"
_cell_formula_units_Z 52
_cell_length_a 19.023466
_cell_length_b 17.830021
_cell_length_c 11.255031
_cell_angle_alpha 90.000000
_cell_angle_beta 135.266791
_cell_angle_gamma 90.000000
_cell_volume 2686.838189
_symmetry_space_group_name_H-M "C 2/M"
_symmetry_group_IT_number 12
_symmetry_cell_setting 'monoclinic'
loop_
_space_group_symop_operation_xyz
x,y,z
-x,y,-z
-x,-y,-z
x,-y,z
1/2+x,1/2+y,z
1/2-x,1/2+y,-z
1/2-x,1/2-y,-z
1/2+x,1/2-y,z
loop_
_atom_site_type_symbol
_atom_site_label
_atom_site_fract_x
_atom_site_fract_y
_atom_site_fract_z
Si Si1 0.451148 0.000000 0.112398
Si Si2 0.938493 0.664215 0.048442
Si Si3 0.757854 0.340987 0.361999
Si Si4 0.096442 0.221286 0.334128
Si Si5 0.182737 0.500000 0.466974
Si Si6 0.398212 0.372178 0.426237
Si Si7 0.735909 0.743375 0.843137
Si Si8 0.243347 0.500000 0.277791
O O1 0.431654 0.911294 0.120164
O O2 0.569452 0.000000 0.282067
O O3 0.371432 0.000000 0.905010
O O4 0.999461 0.732267 0.180524
O O5 0.827872 0.696059 0.896628
O O6 0.000000 0.645256 0.000000
O O7 0.831289 0.284563 0.521621
O O8 0.650378 0.318721 0.287750
O O9 0.790964 0.424939 0.430334
O O10 0.764285 0.320099 0.231430
O O11 0.084300 0.159002 0.420659
O O12 0.245990 0.500000 0.422439
O O13 0.500000 0.405880 0.500000
O O14 0.365211 0.301066 0.307597
O O15 0.306641 0.429162 0.311644
O O16 0.750000 0.750000 0.000000
#
# Coordination Sequence:
#
# PCOD9199612 Si02
#       8
#     4   8   8   8   4   8   8   4
#     4  12  25  33  60 104 129 162 197 258 339 374
#     4  12  21  37  63  93 130 158 204 265 316 383
#     4  10  21  37  61  91 126 166 207 258 320 374
#     4  10  20  36  60  91 124 161 211 261 310 375
#     4  12  21  39  65  96 136 162 204 271 320 398
#     4  11  23  40  61  90 127 169 214 265 317 372
#     4  11  24  42  64  90 124 170 219 266 315 385
#     4  12  22  38  61  95 135 162 214 263 318 386
#
# _framework density 19.353604000000001
#
# number of rings (size 3 to 8) (size 9 to 14) (size 15 to 20)
#    0.000    0.923    6.154    2.538    0.000    0.000 
#    0.000    1.538    0.000    3.692    0.000    0.000 
#    0.000    0.000    0.000    0.000    0.000    0.000 
#
# Total GULP energy -144839.172551 kJ/mol
# GULP energy per Si atom -5570.737406 kJ/mol
# Density = 1.930955 g / cm^3
# Si number density = 19.353604 Si / 1000 Ang^3
#
#
#
# Elastic Constant Matrix: (Units=GPa)
#
#
# Indices 1 2 3 4 5 6 
#
# 1 64.7864 35.7868 36.3940 0.0000 -11.6435 0.0000
# 2 35.7868 118.4391 38.6908 0.0000 -1.1350 0.0000
# 3 36.3940 38.6908 80.7695 0.0000 -3.8304 0.0000
# 4 0.0000 0.0000 0.0000 44.5578 0.0000 4.9349
# 5 -11.6435 -1.1350 -3.8304 0.0000 34.6085 0.0000
# 6 0.0000 0.0000 0.0000 4.9349 0.0000 11.9379
#
#
#
# Elastic Compliance Matrix: (Units=1/GPa)
#
#
# Indices 1 2 3 4 5 6 
#
# 1 0.023762 -0.004414 -0.008264 0.000000 0.006935 0.000000
# 2 -0.004414 0.010831 -0.003270 0.000000 -0.001492 0.000000
# 3 -0.008264 -0.003270 0.017627 0.000000 -0.000937 0.000000
# 4 0.000000 0.000000 0.000000 0.023520 0.000000 -0.009722
# 5 0.006935 -0.001492 -0.000937 0.000000 0.031075 0.000000
# 6 0.000000 0.000000 0.000000 -0.009722 0.000000 0.087786
#
#
# Mechanical properties :
#
#
# Convention : Reuss Voigt Hill
#
# Bulk Modulus (GPa) = 49.20304 53.97092 51.58698
# Shear Modulus (GPa) = 21.43439 28.42906 24.93173
#
# Velocity S-wave (km/s) = 3.33154 3.83682 3.59307
# Velocity P-wave (km/s) = 6.34644 6.89750 6.62770
#
# Compressibility (1/GPa) = 0.02032395
#
# Stress axis : x y z
#
# Youngs Moduli (GPa) = 42.08400 92.32951 56.73252
#
# Poissons Ratio (x) = 0.40752 0.46882
# Poissons Ratio (y) = 0.18575 0.18552
# Poissons Ratio (z) = 0.34777 0.30193
#
# Static dielectric constant tensor:
#      x y z
#    x 1.696120 0.000000 0.006720 
#    y 0.000000 1.736780 0.000000 
#    z 0.006720 0.000000 1.658560 
# 
# From -- ./inp_files/168738.got.cif
#   From: 2010.05.17/outbox.cif.g08.bks.cpg/sg12_85_cif.got.tgz:168738.got - 2010.06.03 13:09:07.
