data_PCOD9199345
_publ_section_title
;
Structure prediction by ZEFSAII (Michael W. Deem and Ramdas Pophale) SiO2 
 PCOD9199345
Probable space group: C 2/M
;
_chemical_formula_sum "Si O2"
_cell_formula_units_Z 36
_cell_length_a 16.063319
_cell_length_b 10.267627
_cell_length_c 12.287011
_cell_angle_alpha 90.000000
_cell_angle_beta 64.626214
_cell_angle_gamma 90.000000
_cell_volume 1831.027581
_symmetry_space_group_name_H-M "C 2/M"
_symmetry_group_IT_number 12
_symmetry_cell_setting 'monoclinic'
loop_
_space_group_symop_operation_xyz
x,y,z
-x,y,-z
-x,-y,-z
x,-y,z
1/2+x,1/2+y,z
1/2-x,1/2+y,-z
1/2-x,1/2-y,-z
1/2+x,1/2-y,z
loop_
_atom_site_type_symbol
_atom_site_label
_atom_site_fract_x
_atom_site_fract_y
_atom_site_fract_z
Si Si1 0.047238 0.148235 0.618500
Si Si2 0.295694 0.500000 0.864348
Si Si3 0.838377 0.222399 0.233636
Si Si4 0.391389 0.500000 0.042000
Si Si5 0.139177 0.213111 0.343326
Si Si6 0.104611 0.500000 0.896108
O O1 0.103407 0.177139 0.694989
O O2 0.110597 0.153200 0.475732
O O3 0.961751 0.247321 0.648122
O O4 0.009707 0.000000 0.645568
O O5 0.320474 0.621319 0.773906
O O6 0.185049 0.500000 0.943848
O O7 0.355003 0.500000 0.939806
O O8 0.729531 0.203604 0.318507
O O9 0.872178 0.369216 0.185816
O O10 0.857302 0.129611 0.121154
O O11 0.500000 0.500000 0.000000
O O12 0.000000 0.500000 0.000000
#
# Coordination Sequence:
#
# PCOD9199345 Si02
#       6
#     8   4   8   4   8   4
#     4  11  19  38  68  93 123 166 213 256 303 382
#     4  10  20  36  60  84 122 162 208 250 304 368
#     4  11  24  40  63  96 127 161 212 264 313 366
#     4  12  24  39  64  96 122 161 221 268 297 362
#     4  10  20  37  60  95 123 163 204 255 314 373
#     4  10  24  42  58  83 130 177 200 246 327 384
#
# _framework density 19.661092
#
# number of rings (size 3 to 8) (size 9 to 14) (size 15 to 20)
#    0.000    1.333    3.333    3.333    0.000    5.333 
#    0.000    0.000    0.000    2.667    0.000    0.000 
#    0.000    0.000    0.000    0.000    0.000    0.000 
#
# Total GULP energy -100230.009333 kJ/mol
# GULP energy per Si atom -5568.333852 kJ/mol
# Density = 1.961634 g / cm^3
# Si number density = 19.661092 Si / 1000 Ang^3
#
#
#
# Elastic Constant Matrix: (Units=GPa)
#
#
# Indices 1 2 3 4 5 6 
#
# 1 112.7342 -14.5276 47.1411 0.0000 -19.9801 0.0000
# 2 -14.5276 50.8767 9.5026 0.0000 -8.0483 0.0000
# 3 47.1411 9.5026 83.8811 0.0000 2.3322 0.0000
# 4 0.0000 0.0000 0.0000 28.7305 0.0000 0.3985
# 5 -19.9801 -8.0483 2.3322 0.0000 50.5500 0.0000
# 6 0.0000 0.0000 0.0000 0.3985 0.0000 22.1850
#
#
#
# Elastic Compliance Matrix: (Units=1/GPa)
#
#
# Indices 1 2 3 4 5 6 
#
# 1 0.015156 0.007314 -0.009557 0.000000 0.007596 0.000000
# 2 0.007314 0.024178 -0.007046 0.000000 0.007066 0.000000
# 3 -0.009557 -0.007046 0.018251 0.000000 -0.005741 0.000000
# 4 0.000000 0.000000 0.000000 0.034815 0.000000 -0.000625
# 5 0.007596 0.007066 -0.005741 0.000000 0.024174 0.000000
# 6 0.000000 0.000000 0.000000 -0.000625 0.000000 0.045087
#
#
# Mechanical properties :
#
#
# Convention : Reuss Voigt Hill
#
# Bulk Modulus (GPa) = 25.63713 36.85825 31.24769
# Shear Modulus (GPa) = 25.87452 33.98482 29.92967
#
# Velocity S-wave (km/s) = 3.63164 4.16207 3.90587
# Velocity P-wave (km/s) = 5.53651 6.47183 6.02236
#
# Compressibility (1/GPa) = 0.03900593
#
# Stress axis : x y z
#
# Youngs Moduli (GPa) = 65.98181 41.36046 54.79253
#
# Poissons Ratio (x) = -0.30252 0.52367
# Poissons Ratio (y) = -0.48261 0.38607
# Poissons Ratio (z) = 0.63061 0.29143
#
# Static dielectric constant tensor:
#      x y z
#    x 1.747730 0.000000 -0.051340 
#    y 0.000000 1.690230 0.000000 
#    z -0.051340 0.000000 1.676160 
# 
# From -- ./inp_files/140193.got.cif
#   From: 2010.05.17/outbox.cif.g08.bks.cpg/sg12_71_cif.got.tgz:140193.got - 2010.06.03 13:09:07.
