data_PCOD9199341
_publ_section_title
;
Structure prediction by ZEFSAII (Michael W. Deem and Ramdas Pophale) SiO2 
 PCOD9199341
Probable space group: C 2/M
;
_chemical_formula_sum "Si O2"
_cell_formula_units_Z 44
_cell_length_a 10.455727
_cell_length_b 13.801240
_cell_length_c 27.096825
_cell_angle_alpha 90.000000
_cell_angle_beta 38.673991
_cell_angle_gamma 90.000000
_cell_volume 2443.392059
_symmetry_space_group_name_H-M "C 2/M"
_symmetry_group_IT_number 12
_symmetry_cell_setting 'monoclinic'
loop_
_space_group_symop_operation_xyz
x,y,z
-x,y,-z
-x,-y,-z
x,-y,z
1/2+x,1/2+y,z
1/2-x,1/2+y,-z
1/2-x,1/2-y,-z
1/2+x,1/2-y,z
loop_
_atom_site_type_symbol
_atom_site_label
_atom_site_fract_x
_atom_site_fract_y
_atom_site_fract_z
Si Si1 0.664851 0.114433 0.993190
Si Si2 0.354098 0.888846 0.375979
Si Si3 0.500000 0.242714 0.500000
Si Si4 0.484720 0.768508 0.760550
Si Si5 0.478581 0.237885 0.134773
Si Si6 0.312600 0.887932 0.641441
O O1 0.873977 0.170001 0.918179
O O2 0.695302 0.000000 0.985345
O O3 0.500000 0.137556 0.000000
O O4 0.574191 0.154255 0.071679
O O5 0.405384 0.849476 0.306153
O O6 0.560089 0.885227 0.346201
O O7 0.191694 0.815006 0.448896
O O8 0.280834 0.000000 0.397619
O O9 0.557320 0.173075 0.437434
O O10 0.513202 0.787091 0.809918
O O11 0.600001 0.667822 0.713069
O O12 0.249376 0.760153 0.815364
O O13 0.287695 0.000000 0.634103
#
# Coordination Sequence:
#
# PCOD9199341 Si02
#       6
#     8   8   4   8   8   8
#     4  10  22  39  63  89 116 157 199 234 288 353
#     4  10  21  37  58  86 118 155 194 237 295 348
#     4  10  20  36  60  84 118 152 196 246 286 338
#     4  11  22  38  61  86 121 151 196 240 297 338
#     4  11  22  40  61  89 119 153 189 250 288 345
#     4  10  21  37  59  86 115 156 199 236 287 350
#
# _framework density 18.007753000000001
#
# number of rings (size 3 to 8) (size 9 to 14) (size 15 to 20)
#    0.000    1.636    3.636    1.091    0.000    2.909 
#    0.000    0.909    0.000    0.000    0.000    0.000 
#    0.000    0.000    0.000    0.000    0.000    0.000 
#
# Total GULP energy -122801.397585 kJ/mol
# GULP energy per Si atom -5581.881708 kJ/mol
# Density = 1.796677 g / cm^3
# Si number density = 18.007753 Si / 1000 Ang^3
#
#
#
# Elastic Constant Matrix: (Units=GPa)
#
#
# Indices 1 2 3 4 5 6 
#
# 1 109.7886 52.6900 55.6419 0.0003 4.8438 0.0000
# 2 52.6900 133.3233 55.0710 0.0000 1.5561 0.0001
# 3 55.6419 55.0710 105.3758 0.0004 2.7601 0.0001
# 4 0.0003 0.0000 0.0004 6.4994 0.0000 -4.0707
# 5 4.8438 1.5561 2.7601 0.0000 38.7361 0.0000
# 6 0.0000 0.0001 0.0001 -4.0707 0.0000 26.3616
#
#
#
# Elastic Compliance Matrix: (Units=1/GPa)
#
#
# Indices 1 2 3 4 5 6 
#
# 1 0.013372 -0.003019 -0.005453 0.000000 -0.001162 0.000000
# 2 -0.003019 0.010247 -0.003767 0.000000 0.000234 0.000000
# 3 -0.005453 -0.003767 0.014343 -0.000001 -0.000189 0.000000
# 4 0.000000 0.000000 -0.000001 0.170333 0.000000 0.026302
# 5 -0.001162 0.000234 -0.000189 0.000000 0.025965 0.000000
# 6 0.000000 0.000000 0.000000 0.026302 0.000000 0.041995
#
#
# Mechanical properties :
#
#
# Convention : Reuss Voigt Hill
#
# Bulk Modulus (GPa) = 74.16127 75.03260 74.59693
# Shear Modulus (GPa) = 16.38122 26.65841 21.51981
#
# Velocity S-wave (km/s) = 3.01936 3.85175 3.46067
# Velocity P-wave (km/s) = 7.30943 7.84465 7.58176
#
# Compressibility (1/GPa) = 0.01348413
#
# Stress axis : x y z
#
# Youngs Moduli (GPa) = 74.78326 97.58928 69.72086
#
# Poissons Ratio (x) = 0.29460 0.38017
# Poissons Ratio (y) = 0.22575 0.26266
# Poissons Ratio (z) = 0.40777 0.36766
#
# Static dielectric constant tensor:
#      x y z
#    x 1.601450 0.000000 0.002870 
#    y 0.000000 1.594090 0.000000 
#    z 0.002870 0.000000 1.612840 
# 
# From -- ./inp_files/356067.got.cif
#   From: 2010.05.17/outbox.cif.g08.bks.cpg/sg12_179_cif.got.tgz:356067.got - 2010.06.03 13:09:07.
