data_PCOD9199354
_publ_section_title
;
Structure prediction by ZEFSAII (Michael W. Deem and Ramdas Pophale) SiO2 
 PCOD9199354
Probable space group: C 2/M
;
_chemical_formula_sum "Si O2"
_cell_formula_units_Z 48
_cell_length_a 9.409324
_cell_length_b 16.937385
_cell_length_c 21.375946
_cell_angle_alpha 90.000000
_cell_angle_beta 37.690190
_cell_angle_gamma 90.000000
_cell_volume 2082.809577
_symmetry_space_group_name_H-M "C 2/M"
_symmetry_group_IT_number 12
_symmetry_cell_setting 'monoclinic'
loop_
_space_group_symop_operation_xyz
x,y,z
-x,y,-z
-x,-y,-z
x,-y,z
1/2+x,1/2+y,z
1/2-x,1/2+y,-z
1/2-x,1/2-y,-z
1/2+x,1/2-y,z
loop_
_atom_site_type_symbol
_atom_site_label
_atom_site_fract_x
_atom_site_fract_y
_atom_site_fract_z
Si Si1 0.182737 0.592076 0.337603
Si Si2 0.724698 0.905070 0.595894
Si Si3 0.997704 0.663845 0.796081
Si Si4 0.434242 0.409723 0.112319
Si Si5 0.758407 0.178682 0.916970
Si Si6 0.363001 0.408268 0.763541
O O1 0.165855 0.500000 0.359906
O O2 0.300685 0.596315 0.226824
O O3 0.370983 0.623120 0.321982
O O4 0.920150 0.619236 0.415816
O O5 0.626334 0.852845 0.686167
O O6 0.000000 0.896978 0.500000
O O7 0.676265 0.000000 0.623567
O O8 0.183095 0.636277 0.782614
O O9 0.756299 0.615399 0.872140
O O10 0.927301 0.753218 0.833719
O O11 0.505108 0.500000 0.078761
O O12 0.651119 0.351298 0.047741
O O13 0.766242 0.104111 0.867322
O O14 0.500000 0.209912 0.000000
O O15 0.366735 0.500000 0.744282
#
# Coordination Sequence:
#
# PCOD9199354 Si02
#       6
#     8   8   8   8   8   8
#     4   7  13  28  50  77 108 143 181 222 274 332
#     4   9  17  33  60  90 119 155 195 233 285 354
#     4  11  21  35  58  89 121 148 186 244 299 339
#     4   9  18  35  58  79 107 152 196 232 280 345
#     4  11  24  40  57  80 116 160 195 231 293 358
#     4  10  20  36  60  85 112 152 200 245 283 328
#
# _framework density 23.045794000000001
#
# number of rings (size 3 to 8) (size 9 to 14) (size 15 to 20)
#    0.000    2.500    0.000    5.000    0.000    4.000 
#    0.000    0.833    0.000   25.500    0.000    0.000 
#    0.000    0.667    0.000    0.000    0.000    0.000 
#
# Total GULP energy -133889.685877 kJ/mol
# GULP energy per Si atom -5578.736912 kJ/mol
# Density = 2.299334 g / cm^3
# Si number density = 23.045794 Si / 1000 Ang^3
#
#
#
# Elastic Constant Matrix: (Units=GPa)
#
#
# Indices 1 2 3 4 5 6 
#
# 1 199.7252 48.8021 56.8786 0.0212 -65.4916 -0.0075
# 2 48.8021 95.2155 37.3718 0.0827 -22.5634 -0.0378
# 3 56.8786 37.3718 57.2713 0.2517 -34.0151 -0.1197
# 4 0.0212 0.0827 0.2517 -66.4851 -0.0342 28.7483
# 5 -65.4916 -22.5634 -34.0151 -0.0342 43.1251 0.0025
# 6 -0.0075 -0.0378 -0.1197 28.7483 0.0025 10.7558
#
#
#
# Elastic Compliance Matrix: (Units=1/GPa)
#
#
# Indices 1 2 3 4 5 6 
#
# 1 0.010245 -0.001617 -0.000717 -0.000006 0.014147 0.000006
# 2 -0.001617 0.014375 -0.008966 -0.000017 -0.002007 -0.000004
# 3 -0.000717 -0.008966 0.038737 0.000136 0.024774 0.000031
# 4 -0.000006 -0.000017 0.000136 -0.006977 0.000082 0.018649
# 5 0.014147 -0.002007 0.024774 0.000082 0.063163 0.000044
# 6 0.000006 -0.000004 0.000031 0.018649 0.000044 0.043128
#
#
# Mechanical properties :
#
#
# Convention : Reuss Voigt Hill
#
# Bulk Modulus (GPa) = 24.53613 70.92411 47.73012
# Shear Modulus (GPa) = 25.14357 11.42313 18.28335
#
# Velocity S-wave (km/s) = 3.30665 2.22878 2.81970
# Velocity P-wave (km/s) = 5.02478 6.12090 5.59972
#
# Compressibility (1/GPa) = 0.04075623
#
# Stress axis : x y z
#
# Youngs Moduli (GPa) = 97.60675 69.56554 25.81502
#
# Poissons Ratio (x) = 0.11249 0.01852
# Poissons Ratio (y) = 0.15784 0.23146
# Poissons Ratio (z) = 0.07003 0.62372
#
# Static dielectric constant tensor:
#      x y z
#    x 1.927540 0.000010 -0.033910 
#    y 0.000010 1.820950 -0.000010 
#    z -0.033910 -0.000010 1.961390 
# 
# From -- ./inp_files/333549.got.cif
#   From: 2010.05.17/outbox.cif.g08.bks.cpg/sg12_167_cif.got.tgz:333549.got - 2010.06.03 13:09:07.
