data_PCOD9199709
_publ_section_title
;
Structure prediction by ZEFSAII (Michael W. Deem and Ramdas Pophale) SiO2 
 PCOD9199709
Probable space group: C 2/M
;
_chemical_formula_sum "Si O2"
_cell_formula_units_Z 56
_cell_length_a 14.191492
_cell_length_b 25.019543
_cell_length_c 9.188450
_cell_angle_alpha 90.000000
_cell_angle_beta 62.141454
_cell_angle_gamma 90.000000
_cell_volume 2884.383595
_symmetry_space_group_name_H-M "C 2/M"
_symmetry_group_IT_number 12
_symmetry_cell_setting 'monoclinic'
loop_
_space_group_symop_operation_xyz
x,y,z
-x,y,-z
-x,-y,-z
x,-y,z
1/2+x,1/2+y,z
1/2-x,1/2+y,-z
1/2-x,1/2-y,-z
1/2+x,1/2-y,z
loop_
_atom_site_type_symbol
_atom_site_label
_atom_site_fract_x
_atom_site_fract_y
_atom_site_fract_z
Si Si1 0.527516 0.117945 0.145442
Si Si2 0.904045 0.911647 0.980562
Si Si3 0.503422 0.302450 0.827177
Si Si4 0.684007 0.936642 0.607329
Si Si5 0.271132 0.058533 0.101232
Si Si6 0.920752 0.285792 0.686538
Si Si7 0.774236 0.847575 0.317899
O O1 0.440026 0.075527 0.264701
O O2 0.528937 0.166345 0.255438
O O3 0.500000 0.134357 0.000000
O O4 0.645958 0.095326 0.043280
O O5 0.836186 0.942759 0.912670
O O6 0.956872 0.861942 0.859014
O O7 0.826883 0.884490 0.155074
O O8 0.000000 0.938791 0.000000
O O9 0.426949 0.264728 0.788995
O O10 0.627779 0.310643 0.693288
O O11 0.500000 0.285179 0.000000
O O12 0.742847 0.926737 0.719797
O O13 0.723443 0.890774 0.466812
O O14 0.697714 0.000000 0.555531
O O15 0.322216 0.000000 0.069030
O O16 0.812426 0.308568 0.694338
O O17 0.000000 0.272223 0.500000
#
# Coordination Sequence:
#
# PCOD9199709 Si02
#       7
#     8   8   8   8   8   8   8
#     4  10  20  37  57  87 123 152 193 238 286 357
#     4   9  20  40  61  83 115 153 200 247 281 342
#     4   9  23  42  59  82 117 156 198 242 294 344
#     4  10  21  38  60  88 124 157 188 237 299 350
#     4  10  20  36  61  88 116 158 198 235 290 347
#     4  12  22  37  59  90 117 152 195 240 299 347
#     4  10  21  41  59  87 123 149 196 246 289 351
#
# _framework density 19.414894
#
# number of rings (size 3 to 8) (size 9 to 14) (size 15 to 20)
#    0.000    2.286    2.857    0.857    0.000    6.571 
#    5.143    5.000    0.000    7.286    0.000    0.000 
#    0.000    0.000    0.000    0.000    0.000    0.000 
#
# Total GULP energy -155926.243283 kJ/mol
# GULP energy per Si atom -5568.794403 kJ/mol
# Density = 1.937070 g / cm^3
# Si number density = 19.414894 Si / 1000 Ang^3
#
#
#
# Elastic Constant Matrix: (Units=GPa)
#
#
# Indices 1 2 3 4 5 6 
#
# 1 117.6493 41.0490 34.6239 0.0000 4.3310 0.0000
# 2 41.0490 75.0563 21.9502 0.0000 11.3628 0.0000
# 3 34.6239 21.9502 39.8826 0.0000 -3.9834 0.0000
# 4 0.0000 0.0000 0.0000 120.1997 0.0000 -17.6233
# 5 4.3310 11.3628 -3.9834 0.0000 15.0468 0.0000
# 6 0.0000 0.0000 0.0000 -17.6233 0.0000 31.6524
#
#
#
# Elastic Compliance Matrix: (Units=1/GPa)
#
#
# Indices 1 2 3 4 5 6 
#
# 1 0.012640 -0.003706 -0.009263 0.000000 -0.003292 0.000000
# 2 -0.003706 0.020915 -0.010030 0.000000 -0.017383 0.000000
# 3 -0.009263 -0.010030 0.040735 0.000000 0.021024 0.000000
# 4 0.000000 0.000000 0.000000 0.009059 0.000000 0.005044
# 5 -0.003292 -0.017383 0.021024 0.000000 0.086099 0.000000
# 6 0.000000 0.000000 0.000000 0.005044 0.000000 0.034401
#
#
# Mechanical properties :
#
#
# Convention : Reuss Voigt Hill
#
# Bulk Modulus (GPa) = 35.34422 47.53716 41.44069
# Shear Modulus (GPa) = 19.28437 42.37747 30.83092
#
# Velocity S-wave (km/s) = 3.15505 4.67704 3.98930
# Velocity P-wave (km/s) = 5.61397 7.32832 6.52767
#
# Compressibility (1/GPa) = 0.02829317
#
# Stress axis : x y z
#
# Youngs Moduli (GPa) = 79.11436 47.81288 24.54891
#
# Poissons Ratio (x) = 0.17718 0.22739
# Poissons Ratio (y) = 0.29317 0.24623
# Poissons Ratio (z) = 0.73280 0.47957
#
# Static dielectric constant tensor:
#      x y z
#    x 1.716510 0.000000 0.000860 
#    y 0.000000 1.661230 0.000000 
#    z 0.000860 0.000000 1.686400 
# 
# From -- ./inp_files/65775.got.cif
#   From: 2010.05.17/outbox.cif.g08.bks.cpg/sg12_33_cif.got.tgz:65775.got - 2010.06.03 13:09:07.
