data_PCOD9199051
_publ_section_title
;
Structure prediction by ZEFSAII (Michael W. Deem and Ramdas Pophale) SiO2 
 PCOD9199051
Probable space group: C 2/M
;
_chemical_formula_sum "Si O2"
_cell_formula_units_Z 48
_cell_length_a 21.345846
_cell_length_b 13.367828
_cell_length_c 12.538404
_cell_angle_alpha 90.000000
_cell_angle_beta 135.587657
_cell_angle_gamma 90.000000
_cell_volume 2503.808545
_symmetry_space_group_name_H-M "C 2/M"
_symmetry_group_IT_number 12
_symmetry_cell_setting 'monoclinic'
loop_
_space_group_symop_operation_xyz
x,y,z
-x,y,-z
-x,-y,-z
x,-y,z
1/2+x,1/2+y,z
1/2-x,1/2+y,-z
1/2-x,1/2-y,-z
1/2+x,1/2-y,z
loop_
_atom_site_type_symbol
_atom_site_label
_atom_site_fract_x
_atom_site_fract_y
_atom_site_fract_z
Si Si1 0.973127 0.000000 0.641593
Si Si2 0.515471 0.886817 0.143528
Si Si3 0.193726 0.784034 0.829567
Si Si4 0.002769 0.224713 0.706316
Si Si5 0.189669 0.283604 0.596839
Si Si6 0.347740 0.500000 0.282196
Si Si7 0.227699 0.391346 0.443692
O O1 0.974855 0.890570 0.700197
O O2 0.897619 0.000000 0.457070
O O3 0.068960 0.000000 0.697982
O O4 0.477916 0.796918 0.169712
O O5 0.622319 0.886374 0.290419
O O6 0.483216 0.000000 0.132554
O O7 0.500000 0.870955 0.000000
O O8 0.089421 0.776655 0.736333
O O9 0.214411 0.718781 0.750090
O O10 0.206928 0.898923 0.807216
O O11 0.250000 0.750000 0.000000
O O12 0.917713 0.274667 0.543872
O O13 0.230989 0.370281 0.574099
O O14 0.224926 0.188138 0.573413
O O15 0.263875 0.500000 0.464476
#
# Coordination Sequence:
#
# PCOD9199051 Si02
#       7
#     4   8   8   8   8   4   8
#     4   9  16  32  61  84 110 147 195 247 274 343
#     4   9  19  37  58  82 118 159 199 243 290 351
#     4  11  23  37  57  90 123 150 190 245 300 356
#     4  10  20  36  60  88 117 151 201 244 294 350
#     4  10  20  36  59  85 113 151 195 242 288 345
#     4   9  18  36  56  82 111 154 193 228 288 340
#     4   9  20  36  58  84 110 149 200 244 284 339
#
# _framework density 19.170794000000001
#
# number of rings (size 3 to 8) (size 9 to 14) (size 15 to 20)
#    0.000    2.333    1.667    0.500    4.667    0.000 
#    3.000    0.417    0.000    4.000    0.000    0.000 
#    0.000    0.000    0.000    0.000    0.000    0.000 
#
# Total GULP energy -133760.638658 kJ/mol
# GULP energy per Si atom -5573.359944 kJ/mol
# Density = 1.912716 g / cm^3
# Si number density = 19.170794 Si / 1000 Ang^3
#
#
#
# Elastic Constant Matrix: (Units=GPa)
#
#
# Indices 1 2 3 4 5 6 
#
# 1 58.6065 8.7399 18.3164 0.0000 -17.5140 0.0000
# 2 8.7399 78.1806 16.3127 0.0000 -18.9671 0.0000
# 3 18.3164 16.3127 71.1534 0.0000 -34.3801 0.0000
# 4 0.0000 0.0000 0.0000 19.2059 0.0000 -0.8273
# 5 -17.5140 -18.9671 -34.3801 0.0000 30.5810 0.0000
# 6 0.0000 0.0000 0.0000 -0.8273 0.0000 16.1593
#
#
#
# Elastic Compliance Matrix: (Units=1/GPa)
#
#
# Indices 1 2 3 4 5 6 
#
# 1 0.020646 0.000734 0.000986 0.000000 0.013388 0.000000
# 2 0.000734 0.015260 0.002384 0.000000 0.012565 0.000000
# 3 0.000986 0.002384 0.031176 0.000000 0.037092 0.000000
# 4 0.000000 0.000000 0.000000 0.052183 0.000000 0.002672
# 5 0.013388 0.012565 0.037092 0.000000 0.089860 0.000000
# 6 0.000000 0.000000 0.000000 0.002672 0.000000 0.062021
#
#
# Mechanical properties :
#
#
# Convention : Reuss Voigt Hill
#
# Bulk Modulus (GPa) = 13.28214 32.74207 23.01210
# Shear Modulus (GPa) = 17.35897 24.16066 20.75981
#
# Velocity S-wave (km/s) = 3.01240 3.55390 3.29430
# Velocity P-wave (km/s) = 4.36380 5.82722 5.14778
#
# Compressibility (1/GPa) = 0.07528909
#
# Stress axis : x y z
#
# Youngs Moduli (GPa) = 48.43497 65.53193 32.07566
#
# Poissons Ratio (x) = -0.04812 -0.03161
# Poissons Ratio (y) = -0.03556 -0.07645
# Poissons Ratio (z) = -0.04774 -0.15620
#
# Static dielectric constant tensor:
#      x y z
#    x 1.677780 0.000000 0.015620 
#    y 0.000000 1.724970 0.000000 
#    z 0.015620 0.000000 1.661020 
# 
# From -- ./inp_files/167664.got.cif
#   From: 2010.05.17/outbox.cif.g08.bks.cpg/sg12_84_cif.got.tgz:167664.got - 2010.06.03 13:09:07.
