data_PCOD9199675
_publ_section_title
;
Structure prediction by ZEFSAII (Michael W. Deem and Ramdas Pophale) SiO2 
 PCOD9199675
Probable space group: C 2/M
;
_chemical_formula_sum "Si O2"
_cell_formula_units_Z 48
_cell_length_a 9.199561
_cell_length_b 18.901303
_cell_length_c 18.495415
_cell_angle_alpha 90.000000
_cell_angle_beta 53.816529
_cell_angle_gamma 90.000000
_cell_volume 2595.773371
_symmetry_space_group_name_H-M "C 2/M"
_symmetry_group_IT_number 12
_symmetry_cell_setting 'monoclinic'
loop_
_space_group_symop_operation_xyz
x,y,z
-x,y,-z
-x,-y,-z
x,-y,z
1/2+x,1/2+y,z
1/2-x,1/2+y,-z
1/2-x,1/2-y,-z
1/2+x,1/2-y,z
loop_
_atom_site_type_symbol
_atom_site_label
_atom_site_fract_x
_atom_site_fract_y
_atom_site_fract_z
Si Si1 0.521455 0.415711 0.125680
Si Si2 0.693035 0.825993 0.242182
Si Si3 0.597909 0.081562 0.049094
Si Si4 0.345602 0.082924 0.603728
Si Si5 0.937712 0.082755 0.715839
Si Si6 0.621786 0.821853 0.776422
O O1 0.495628 0.500000 0.130875
O O2 0.337136 0.377011 0.160084
O O3 0.565132 0.397809 0.197357
O O4 0.694453 0.398717 0.026600
O O5 0.643695 0.865748 0.331002
O O6 0.512405 0.813363 0.250848
O O7 0.800050 0.753508 0.223329
O O8 0.494895 0.136934 0.129036
O O9 0.589195 0.000000 0.079447
O O10 0.500000 0.080683 0.000000
O O11 0.500000 0.095785 0.500000
O O12 0.144184 0.092244 0.631487
O O13 0.356433 0.000000 0.623784
O O14 0.795727 0.128713 0.714106
O O15 0.890711 0.000000 0.725336
#
# Coordination Sequence:
#
# PCOD9199675 Si02
#       6
#     8   8   8   8   8   8
#     4   9  18  36  58  82 113 152 195 241 291 340
#     4  11  24  39  56  84 120 157 195 239 292 350
#     4  10  20  36  61  86 112 153 204 247 286 339
#     4   9  19  40  69  94 116 146 185 233 290 353
#     4   9  17  34  60  85 114 151 190 235 289 346
#     4  12  24  38  55  83 120 160 202 237 290 340
#
# _framework density 18.491598
#
# number of rings (size 3 to 8) (size 9 to 14) (size 15 to 20)
#    0.000    2.000    1.667    4.000    0.000    4.000 
#    0.000    5.833    0.000    3.000    0.000    0.000 
#    0.000    0.000    0.000    0.000    0.000    0.000 
#
# Total GULP energy -133979.940151 kJ/mol
# GULP energy per Si atom -5582.497506 kJ/mol
# Density = 1.844951 g / cm^3
# Si number density = 18.491598 Si / 1000 Ang^3
#
#
#
# Elastic Constant Matrix: (Units=GPa)
#
#
# Indices 1 2 3 4 5 6 
#
# 1 130.0696 63.0572 40.6559 0.0000 -16.5099 0.0000
# 2 63.0572 92.7520 62.7943 0.0000 -11.3236 0.0000
# 3 40.6559 62.7943 103.2259 0.0000 -29.5774 0.0000
# 4 0.0000 0.0000 0.0000 -15.6022 0.0000 12.4741
# 5 -16.5099 -11.3236 -29.5774 0.0000 23.5036 0.0000
# 6 0.0000 0.0000 0.0000 12.4741 0.0000 27.1712
#
#
#
# Elastic Compliance Matrix: (Units=1/GPa)
#
#
# Indices 1 2 3 4 5 6 
#
# 1 0.012388 -0.009720 0.003418 0.000000 0.008320 0.000000
# 2 -0.009720 0.027009 -0.016937 0.000000 -0.015129 0.000000
# 3 0.003418 -0.016937 0.026577 0.000000 0.027687 0.000000
# 4 0.000000 0.000000 0.000000 -0.046885 0.000000 0.021524
# 5 0.008320 -0.015129 0.027687 0.000000 0.075943 0.000000
# 6 0.000000 0.000000 0.000000 0.021524 0.000000 0.026922
#
#
# Mechanical properties :
#
#
# Convention : Reuss Voigt Hill
#
# Bulk Modulus (GPa) = 51.29152 73.22914 62.26033
# Shear Modulus (GPa) = 28.58240 17.65052 23.11646
#
# Velocity S-wave (km/s) = 3.93580 3.09288 3.53952
# Velocity P-wave (km/s) = 6.96075 7.24167 7.10260
#
# Compressibility (1/GPa) = 0.01949640
#
# Stress axis : x y z
#
# Youngs Moduli (GPa) = 80.72108 37.02453 37.62605
#
# Poissons Ratio (x) = 0.35989 -0.12860
# Poissons Ratio (y) = 0.78464 0.63726
# Poissons Ratio (z) = -0.27589 0.62707
#
# Static dielectric constant tensor:
#      x y z
#    x 1.654360 0.000000 -0.006140 
#    y 0.000000 1.641570 0.000000 
#    z -0.006140 0.000000 1.627810 
# 
# From -- ./inp_files/256450.got.cif
#   From: 2010.05.17/outbox.cif.g08.bks.cpg/sg12_129_cif.got.tgz:256450.got - 2010.06.03 13:09:07.
