data_PCOD9199012
_publ_section_title
;
Structure prediction by ZEFSAII (Michael W. Deem and Ramdas Pophale) SiO2 
 PCOD9199012
Probable space group: C 2/M
;
_chemical_formula_sum "Si O2"
_cell_formula_units_Z 56
_cell_length_a 16.281756
_cell_length_b 8.369064
_cell_length_c 26.743861
_cell_angle_alpha 90.000000
_cell_angle_beta 141.058577
_cell_angle_gamma 90.000000
_cell_volume 2290.472944
_symmetry_space_group_name_H-M "C 2/M"
_symmetry_group_IT_number 12
_symmetry_cell_setting 'monoclinic'
loop_
_space_group_symop_operation_xyz
x,y,z
-x,y,-z
-x,-y,-z
x,-y,z
1/2+x,1/2+y,z
1/2-x,1/2+y,-z
1/2-x,1/2-y,-z
1/2+x,1/2-y,z
loop_
_atom_site_type_symbol
_atom_site_label
_atom_site_fract_x
_atom_site_fract_y
_atom_site_fract_z
Si Si1 0.462565 0.191119 0.762579
Si Si2 0.180011 0.312597 0.618264
Si Si3 0.146807 0.685821 0.045490
Si Si4 0.759295 0.689810 0.805826
Si Si5 0.467822 0.686748 0.104457
Si Si6 0.902639 0.184390 0.521137
Si Si7 0.491221 0.187655 0.662744
O O1 0.313612 0.243282 0.702976
O O2 0.554913 0.264084 0.849013
O O3 0.480719 0.249815 0.714387
O O4 0.474708 0.000000 0.769364
O O5 0.164386 0.500000 0.621922
O O6 0.178120 0.286798 0.557120
O O7 0.053715 0.216221 0.577096
O O8 0.178549 0.500000 0.051647
O O9 0.231839 0.748653 0.132124
O O10 0.000000 0.690831 0.000000
O O11 0.137488 0.772725 0.988099
O O12 0.733184 0.500000 0.793229
O O13 0.901236 0.719111 0.849728
O O14 0.643878 0.781223 0.723474
O O15 0.495270 0.500000 0.115465
O O16 0.901853 0.232105 0.578673
O O17 0.867923 0.000000 0.497849
O O18 0.463496 0.000000 0.649239
#
# Coordination Sequence:
#
# PCOD9199012 Si02
#       7
#     8   8   8   8   8   8   8
#     4  11  24  41  58  79 113 153 190 229 279 335
#     4  11  22  39  63  89 116 144 185 234 275 324
#     4   8  16  32  54  81 111 144 183 229 281 332
#     4  10  20  36  59  84 113 148 186 230 281 336
#     4  11  21  34  57  86 114 145 187 235 279 329
#     4  11  22  39  63  88 116 148 184 226 278 335
#     4  11  24  40  58  82 113 149 190 234 278 328
#
# _framework density 24.449100000000001
#
# number of rings (size 3 to 8) (size 9 to 14) (size 15 to 20)
#    0.000    1.571    0.000    7.714    0.000    6.000 
#    0.000    0.714    0.000    0.000    0.000    0.000 
#    0.000    0.000    0.000    0.000    0.000    0.000 
#
# Total GULP energy -156774.218793 kJ/mol
# GULP energy per Si atom -5599.079243 kJ/mol
# Density = 2.439345 g / cm^3
# Si number density = 24.449100 Si / 1000 Ang^3
#
#
#
# Elastic Constant Matrix: (Units=GPa)
#
#
# Indices 1 2 3 4 5 6 
#
# 1 79.1509 -9.1927 21.9704 0.0000 -23.4637 0.0000
# 2 -9.1927 67.6721 9.0646 0.0000 -12.6179 -0.0001
# 3 21.9704 9.0646 147.0315 0.0000 -25.9789 0.0000
# 4 0.0000 0.0000 0.0000 33.3177 0.0000 -12.5679
# 5 -23.4637 -12.6179 -25.9789 0.0000 51.1404 0.0000
# 6 0.0000 -0.0001 0.0000 -12.5679 0.0000 18.2690
#
#
#
# Elastic Compliance Matrix: (Units=1/GPa)
#
#
# Indices 1 2 3 4 5 6 
#
# 1 0.015611 0.003674 -0.001245 0.000000 0.007436 0.000000
# 2 0.003674 0.016367 -0.000601 0.000000 0.005419 0.000000
# 3 -0.001245 -0.000601 0.007577 0.000000 0.003130 0.000000
# 4 0.000000 0.000000 0.000000 0.040532 0.000000 0.027883
# 5 0.007436 0.005419 0.003130 0.000000 0.025893 0.000000
# 6 0.000000 0.000000 0.000000 0.027883 0.000000 0.073919
#
#
# Mechanical properties :
#
#
# Convention : Reuss Voigt Hill
#
# Bulk Modulus (GPa) = 23.14193 37.50434 30.32314
# Shear Modulus (GPa) = 26.22647 38.67958 32.45302
#
# Velocity S-wave (km/s) = 3.27876 3.98181 3.64726
# Velocity P-wave (km/s) = 4.88053 6.04258 5.49237
#
# Compressibility (1/GPa) = 0.04321161
#
# Stress axis : x y z
#
# Youngs Moduli (GPa) = 64.05771 61.09834 131.97228
#
# Poissons Ratio (x) = -0.22447 0.16434
# Poissons Ratio (y) = -0.23535 0.07926
# Poissons Ratio (z) = 0.07977 0.03669
#
# Static dielectric constant tensor:
#      x y z
#    x 2.084590 0.000000 -0.015020 
#    y 0.000000 1.802200 0.000000 
#    z -0.015020 0.000000 1.927930 
# 
# From -- ./inp_files/363241.got.cif
#   From: 2010.05.17/outbox.cif.g08.bks.cpg/sg12_182_cif.got.tgz:363241.got - 2010.06.03 13:09:07.
