data_PCOD9199221
_publ_section_title
;
Structure prediction by ZEFSAII (Michael W. Deem and Ramdas Pophale) SiO2 
 PCOD9199221
Probable space group: C 2/M
;
_chemical_formula_sum "Si O2"
_cell_formula_units_Z 64
_cell_length_a 13.305480
_cell_length_b 14.014045
_cell_length_c 31.681922
_cell_angle_alpha 90.000000
_cell_angle_beta 145.568115
_cell_angle_gamma 90.000000
_cell_volume 3340.268812
_symmetry_space_group_name_H-M "C 2/M"
_symmetry_group_IT_number 12
_symmetry_cell_setting 'monoclinic'
loop_
_space_group_symop_operation_xyz
x,y,z
-x,y,-z
-x,-y,-z
x,-y,z
1/2+x,1/2+y,z
1/2-x,1/2+y,-z
1/2-x,1/2-y,-z
1/2+x,1/2-y,z
loop_
_atom_site_type_symbol
_atom_site_label
_atom_site_fract_x
_atom_site_fract_y
_atom_site_fract_z
Si Si1 0.529387 0.192208 0.940418
Si Si2 0.351796 0.734575 0.176194
Si Si3 0.030202 0.283071 0.689667
Si Si4 0.356129 0.390801 0.765149
Si Si5 0.026020 0.389269 0.844158
Si Si6 0.110271 0.892102 0.934219
Si Si7 0.878434 0.110036 0.330399
Si Si8 0.333302 0.614306 0.412588
O O1 0.335007 0.180001 0.892142
O O2 0.526062 0.154488 0.890898
O O3 0.567798 0.305975 0.951623
O O4 0.696482 0.136528 0.017406
O O5 0.375238 0.768521 0.232335
O O6 0.520689 0.669549 0.223422
O O7 0.358335 0.824083 0.146800
O O8 0.166037 0.343892 0.708094
O O9 0.010138 0.181957 0.659493
O O10 0.844546 0.334291 0.633658
O O11 0.338890 0.500000 0.745623
O O12 0.465175 0.388784 0.847035
O O13 0.079655 0.500000 0.863233
O O14 0.824491 0.384394 0.756783
O O15 0.114627 0.000000 0.952803
O O16 0.874589 0.138340 0.378174
O O17 0.936189 0.000000 0.347061
O O18 0.500000 0.637098 0.500000
O O19 0.303503 0.500000 0.403588
#
# Coordination Sequence:
#
# PCOD9199221 Si02
#       8
#     8   8   8   8   8   8   8   8
#     4  11  22  39  59  79 118 154 196 244 302 350
#     4  12  21  37  56  88 111 149 194 243 287 345
#     4  12  20  39  63  87 119 155 194 238 293 337
#     4  11  23  38  56  85 116 149 196 247 293 345
#     4  11  21  37  58  85 114 148 196 244 290 345
#     4  10  21  39  58  79 113 155 197 246 302 352
#     4  10  20  36  59  88 119 153 194 237 283 342
#     4  10  22  39  62  93 123 154 193 233 282 348
#
# _framework density 19.160135
#
# number of rings (size 3 to 8) (size 9 to 14) (size 15 to 20)
#    0.000    1.125    6.250    0.750    0.000    3.500 
#    0.000    1.250    0.000    2.625    0.000    0.000 
#    0.000    0.000    0.000    0.000    0.000    0.000 
#
# Total GULP energy -178819.846017 kJ/mol
# GULP energy per Si atom -5588.120188 kJ/mol
# Density = 1.911653 g / cm^3
# Si number density = 19.160135 Si / 1000 Ang^3
#
#
#
# Elastic Constant Matrix: (Units=GPa)
#
#
# Indices 1 2 3 4 5 6 
#
# 1 93.7987 44.9797 16.4733 0.0000 -1.7871 0.0000
# 2 44.9797 106.8743 10.3722 0.0000 -4.5215 0.0000
# 3 16.4733 10.3722 60.4490 0.0000 -5.2930 0.0000
# 4 0.0000 0.0000 0.0000 17.6695 0.0000 5.6268
# 5 -1.7871 -4.5215 -5.2930 0.0000 20.4098 0.0000
# 6 0.0000 0.0000 0.0000 5.6268 0.0000 23.7600
#
#
#
# Elastic Compliance Matrix: (Units=1/GPa)
#
#
# Indices 1 2 3 4 5 6 
#
# 1 0.013824 -0.005571 -0.002879 0.000000 -0.000770 0.000000
# 2 -0.005571 0.011820 -0.000331 0.000000 0.002045 0.000000
# 3 -0.002879 -0.000331 0.017759 0.000000 0.004280 0.000000
# 4 0.000000 0.000000 0.000000 0.061211 0.000000 -0.014496
# 5 -0.000770 0.002045 0.004280 0.000000 0.050492 0.000000
# 6 0.000000 0.000000 0.000000 -0.014496 0.000000 0.045521
#
#
# Mechanical properties :
#
#
# Convention : Reuss Voigt Hill
#
# Bulk Modulus (GPa) = 38.69777 44.97470 41.83624
# Shear Modulus (GPa) = 22.04577 24.98763 23.51670
#
# Velocity S-wave (km/s) = 3.39574 3.61521 3.50719
# Velocity P-wave (km/s) = 5.96788 6.39925 6.18732
#
# Compressibility (1/GPa) = 0.02584128
#
# Stress axis : x y z
#
# Youngs Moduli (GPa) = 72.34045 84.60179 56.30980
#
# Poissons Ratio (x) = 0.47132 0.16210
# Poissons Ratio (y) = 0.40301 0.01863
# Poissons Ratio (z) = 0.20824 0.02799
#
# Static dielectric constant tensor:
#      x y z
#    x 1.656860 0.000000 -0.004760 
#    y 0.000000 1.683980 0.000000 
#    z -0.004760 0.000000 1.672030 
# 
# From -- ./inp_files/374111.got.cif
#   From: 2010.05.17/outbox.cif.g08.bks.cpg/sg12_188_cif.got.tgz:374111.got - 2010.06.03 13:09:07.
