data_PCOD9199171
_publ_section_title
;
Structure prediction by ZEFSAII (Michael W. Deem and Ramdas Pophale) SiO2 
 PCOD9199171
Probable space group: C 2/M
;
_chemical_formula_sum "Si O2"
_cell_formula_units_Z 48
_cell_length_a 18.667168
_cell_length_b 12.667749
_cell_length_c 15.123693
_cell_angle_alpha 90.000000
_cell_angle_beta 136.803061
_cell_angle_gamma 90.000000
_cell_volume 2448.016656
_symmetry_space_group_name_H-M "C 2/M"
_symmetry_group_IT_number 12
_symmetry_cell_setting 'monoclinic'
loop_
_space_group_symop_operation_xyz
x,y,z
-x,y,-z
-x,-y,-z
x,-y,z
1/2+x,1/2+y,z
1/2-x,1/2+y,-z
1/2-x,1/2-y,-z
1/2+x,1/2-y,z
loop_
_atom_site_type_symbol
_atom_site_label
_atom_site_fract_x
_atom_site_fract_y
_atom_site_fract_z
Si Si1 0.744786 0.783438 0.856926
Si Si2 0.105761 0.876862 0.153272
Si Si3 0.592477 0.774088 0.312577
Si Si4 0.887306 0.881939 0.352959
Si Si5 0.370171 0.878041 0.085416
Si Si6 0.807741 0.118765 0.470665
O O1 0.798024 0.842529 0.822963
O O2 0.646076 0.711634 0.740382
O O3 0.707007 0.860589 0.900597
O O4 0.827494 0.700006 0.971477
O O5 0.098938 0.802168 0.232618
O O6 0.115916 0.000000 0.187768
O O7 0.000000 0.865918 0.000000
O O8 0.485775 0.838815 0.214975
O O9 0.693069 0.850290 0.400642
O O10 0.610061 0.699631 0.413182
O O11 0.808834 0.876654 0.365725
O O12 0.000000 0.871340 0.500000
O O13 0.881708 0.000000 0.307681
O O14 0.370733 0.000000 0.058833
O O15 0.836163 0.000000 0.521985
#
# Coordination Sequence:
#
# PCOD9199171 Si02
#       6
#     8   8   8   8   8   8
#     4  11  22  41  61  87 121 157 196 247 295 355
#     4  11  22  39  62  90 121 158 198 242 298 353
#     4  11  21  39  60  88 122 155 197 248 292 350
#     4  10  20  36  59  87 118 154 197 242 294 350
#     4  11  24  40  61  88 119 157 198 245 302 355
#     4  10  21  36  59  86 118 158 197 241 292 348
#
# _framework density 19.607710000000001
#
# number of rings (size 3 to 8) (size 9 to 14) (size 15 to 20)
#    0.000    1.333    3.333    3.000    0.000    0.000 
#    0.000    2.500    0.000    2.000    0.000    0.000 
#    0.000    0.000    0.000    0.000    0.000    0.000 
#
# Total GULP energy -134077.266781 kJ/mol
# GULP energy per Si atom -5586.552783 kJ/mol
# Density = 1.956308 g / cm^3
# Si number density = 19.607710 Si / 1000 Ang^3
#
#
#
# Elastic Constant Matrix: (Units=GPa)
#
#
# Indices 1 2 3 4 5 6 
#
# 1 43.5449 11.9890 -11.8261 0.0000 3.3285 0.0000
# 2 11.9890 63.8878 -0.7958 0.0000 6.9222 0.0000
# 3 -11.8261 -0.7958 35.2513 0.0000 13.1319 0.0000
# 4 0.0000 0.0000 0.0000 23.6953 0.0000 4.3150
# 5 3.3285 6.9222 13.1319 0.0000 33.8488 0.0000
# 6 0.0000 0.0000 0.0000 4.3150 0.0000 15.2371
#
#
#
# Elastic Compliance Matrix: (Units=1/GPa)
#
#
# Indices 1 2 3 4 5 6 
#
# 1 0.027804 -0.004387 0.011588 0.000000 -0.006332 0.000000
# 2 -0.004387 0.016803 0.000031 0.000000 -0.003017 0.000000
# 3 0.011588 0.000031 0.038204 0.000000 -0.015968 0.000000
# 4 0.000000 0.000000 0.000000 0.044497 0.000000 -0.012601
# 5 -0.006332 -0.003017 -0.015968 0.000000 0.036978 0.000000
# 6 0.000000 0.000000 0.000000 -0.012601 0.000000 0.069198
#
#
# Mechanical properties :
#
#
# Convention : Reuss Voigt Hill
#
# Bulk Modulus (GPa) = 10.28018 15.71314 12.99666
# Shear Modulus (GPa) = 19.88511 24.11069 21.99790
#
# Velocity S-wave (km/s) = 3.18802 3.51045 3.35311
# Velocity P-wave (km/s) = 4.33655 4.94592 4.65122
#
# Compressibility (1/GPa) = 0.09727455
#
# Stress axis : x y z
#
# Youngs Moduli (GPa) = 35.96640 59.51318 26.17517
#
# Poissons Ratio (x) = 0.26109 -0.30331
# Poissons Ratio (y) = 0.15779 -0.00082
# Poissons Ratio (z) = -0.41676 -0.00187
#
# Static dielectric constant tensor:
#      x y z
#    x 1.694170 0.000000 -0.000440 
#    y 0.000000 1.658010 0.000000 
#    z -0.000440 0.000000 1.676420 
# 
# From -- ./inp_files/165447.got.cif
#   From: 2010.05.17/outbox.cif.g08.bks.cpg/sg12_83_cif.got.tgz:165447.got - 2010.06.03 13:09:07.
