data_PCOD9199835
_publ_section_title
;
Structure prediction by ZEFSAII (Michael W. Deem and Ramdas Pophale) SiO2 
 PCOD9199835
Probable space group: C 2/M
;
_chemical_formula_sum "Si O2"
_cell_formula_units_Z 64
_cell_length_a 14.000272
_cell_length_b 19.442981
_cell_length_c 14.991454
_cell_angle_alpha 90.000000
_cell_angle_beta 130.503979
_cell_angle_gamma 90.000000
_cell_volume 3102.864680
_symmetry_space_group_name_H-M "C 2/M"
_symmetry_group_IT_number 12
_symmetry_cell_setting 'monoclinic'
loop_
_space_group_symop_operation_xyz
x,y,z
-x,y,-z
-x,-y,-z
x,-y,z
1/2+x,1/2+y,z
1/2-x,1/2+y,-z
1/2-x,1/2-y,-z
1/2+x,1/2-y,z
loop_
_atom_site_type_symbol
_atom_site_label
_atom_site_fract_x
_atom_site_fract_y
_atom_site_fract_z
Si Si1 0.640762 0.662387 0.600509
Si Si2 0.364281 0.603453 0.215974
Si Si3 0.018568 0.337627 0.767678
Si Si4 0.410104 0.923590 0.019973
Si Si5 0.767362 0.749333 0.117296
Si Si6 0.143777 0.768183 0.214842
Si Si7 0.206417 0.580665 0.451927
Si Si8 0.375028 0.422467 0.724837
O O1 0.500000 0.686589 0.500000
O O2 0.638702 0.605791 0.678932
O O3 0.729225 0.727492 0.676571
O O4 0.693746 0.621783 0.547973
O O5 0.233586 0.574064 0.098925
O O6 0.347215 0.683061 0.183328
O O7 0.492177 0.577889 0.249159
O O8 0.955216 0.274042 0.783946
O O9 0.921230 0.377847 0.646574
O O10 0.143189 0.311728 0.795673
O O11 0.070228 0.385646 0.876774
O O12 0.459237 0.000000 0.063339
O O13 0.500000 0.890920 0.000000
O O14 0.647925 0.746416 0.110388
O O15 0.750000 0.750000 0.000000
O O16 0.130623 0.850160 0.224255
O O17 0.194551 0.500000 0.419460
O O18 0.261232 0.582597 0.584768
O O19 0.367368 0.500000 0.762784
#
# Coordination Sequence:
#
# PCOD9199835 Si02
#       8
#     8   8   8   8   8   8   8   8
#     4  10  20  36  61  93 127 161 214 271 319 375
#     4  11  21  38  60  92 119 164 215 256 323 378
#     4  11  22  39  64  91 123 163 212 266 314 378
#     4  11  22  36  57  87 126 161 197 254 321 389
#     4  11  22  40  66  91 120 160 210 271 323 371
#     4  10  24  40  63  94 123 165 213 268 317 383
#     4  10  22  38  60  92 131 173 211 259 322 385
#     4  11  23  41  62  89 132 176 214 258 316 387
#
# _framework density 20.626100000000001
#
# number of rings (size 3 to 8) (size 9 to 14) (size 15 to 20)
#    0.000    1.375    3.750    3.000    0.000    6.250 
#    0.000    1.250    0.000    2.625    0.000    0.000 
#    0.000    0.000    0.000    0.000    0.000    0.000 
#
# Total GULP energy -178326.855754 kJ/mol
# GULP energy per Si atom -5572.714242 kJ/mol
# Density = 2.057915 g / cm^3
# Si number density = 20.626100 Si / 1000 Ang^3
#
#
#
# Elastic Constant Matrix: (Units=GPa)
#
#
# Indices 1 2 3 4 5 6 
#
# 1 57.3688 25.2845 17.7573 0.0000 15.7585 0.0000
# 2 25.2845 124.2396 8.3833 0.0000 -0.7247 0.0000
# 3 17.7573 8.3833 56.5826 0.0000 14.8255 0.0000
# 4 0.0000 0.0000 0.0000 34.4315 0.0000 -1.3107
# 5 15.7585 -0.7247 14.8255 0.0000 32.8285 0.0000
# 6 0.0000 0.0000 0.0000 -1.3107 0.0000 107.1288
#
#
#
# Elastic Compliance Matrix: (Units=1/GPa)
#
#
# Indices 1 2 3 4 5 6 
#
# 1 0.023295 -0.004513 -0.004181 0.000000 -0.009394 0.000000
# 2 -0.004513 0.009024 -0.000613 0.000000 0.002643 0.000000
# 3 -0.004181 -0.000613 0.021044 0.000000 -0.007510 0.000000
# 4 0.000000 0.000000 0.000000 0.029057 0.000000 0.000356
# 5 -0.009394 0.002643 -0.007510 0.000000 0.038420 0.000000
# 6 0.000000 0.000000 0.000000 0.000356 0.000000 0.009339
#
#
# Mechanical properties :
#
#
# Convention : Reuss Voigt Hill
#
# Bulk Modulus (GPa) = 28.77799 37.89346 33.33572
# Shear Modulus (GPa) = 31.17674 47.32883 39.25278
#
# Velocity S-wave (km/s) = 3.89204 4.79540 4.36714
# Velocity P-wave (km/s) = 5.84635 7.00519 6.45184
#
# Compressibility (1/GPa) = 0.03474878
#
# Stress axis : x y z
#
# Youngs Moduli (GPa) = 42.92825 110.81193 47.51977
#
# Poissons Ratio (x) = 0.50015 0.19866
# Poissons Ratio (y) = 0.19376 0.02913
# Poissons Ratio (z) = 0.17947 0.06792
#
# Static dielectric constant tensor:
#      x y z
#    x 1.912470 0.000000 -0.067210 
#    y 0.000000 1.746320 0.000000 
#    z -0.067210 0.000000 1.809960 
# 
# From -- ./inp_files/216852.got.cif
#   From: 2010.05.17/outbox.cif.g08.bks.cpg/sg12_109_cif.got.tgz:216852.got - 2010.06.03 13:09:07.
