data_PCOD9199204
_publ_section_title
;
Structure prediction by ZEFSAII (Michael W. Deem and Ramdas Pophale) SiO2 
 PCOD9199204
Probable space group: C 2/M
;
_chemical_formula_sum "Si O2"
_cell_formula_units_Z 64
_cell_length_a 9.454637
_cell_length_b 22.878166
_cell_length_c 21.131489
_cell_angle_alpha 90.000000
_cell_angle_beta 138.362252
_cell_angle_gamma 90.000000
_cell_volume 3036.952772
_symmetry_space_group_name_H-M "C 2/M"
_symmetry_group_IT_number 12
_symmetry_cell_setting 'monoclinic'
loop_
_space_group_symop_operation_xyz
x,y,z
-x,y,-z
-x,-y,-z
x,-y,z
1/2+x,1/2+y,z
1/2-x,1/2+y,-z
1/2-x,1/2-y,-z
1/2+x,1/2-y,z
loop_
_atom_site_type_symbol
_atom_site_label
_atom_site_fract_x
_atom_site_fract_y
_atom_site_fract_z
Si Si1 0.549344 0.119834 0.443275
Si Si2 0.096992 0.933493 0.780533
Si Si3 0.021283 0.869346 0.631209
Si Si4 0.445666 0.244366 0.115235
Si Si5 0.555884 0.764064 0.387380
Si Si6 0.295029 0.821254 0.886948
Si Si7 0.283814 0.935121 0.250212
Si Si8 0.028168 0.658198 0.256161
O O1 0.500000 0.109921 0.500000
O O2 0.804957 0.123982 0.518666
O O3 0.444342 0.182699 0.388367
O O4 0.451286 0.072873 0.363730
O O5 0.272935 0.883844 0.848323
O O6 0.984555 0.910721 0.679277
O O7 0.941139 0.930706 0.788791
O O8 0.170029 0.000000 0.797791
O O9 0.038124 0.800244 0.654211
O O10 0.255812 0.879842 0.681676
O O11 0.650642 0.232295 0.141634
O O12 0.416979 0.302195 0.147082
O O13 0.450768 0.190520 0.166478
O O14 0.250000 0.250000 0.000000
O O15 0.750000 0.750000 0.500000
O O16 0.593792 0.794153 0.332060
O O17 0.500000 0.824489 0.000000
O O18 0.345717 0.884086 0.222495
O O19 0.300370 0.000000 0.227649
#
# Coordination Sequence:
#
# PCOD9199204 Si02
#       8
#     8   8   8   8   8   8   8   8
#     4  10  20  36  59  87 123 168 219 276 320 381
#     4  11  23  41  63  89 125 175 224 262 316 395
#     4  11  22  37  60  89 125 166 223 267 329 377
#     4  10  22  40  65  99 130 161 198 261 335 401
#     4   9  22  33  54  86 126 160 203 254 326 387
#     4  10  22  41  66 100 131 160 206 263 328 397
#     4  10  24  42  61  86 123 174 227 271 321 382
#     4  11  23  38  61  90 126 168 209 271 324 387
#
# _framework density 21.073755999999999
#
# number of rings (size 3 to 8) (size 9 to 14) (size 15 to 20)
#    0.000    1.750    2.500    0.750    5.250    6.500 
#    0.000    0.625    0.000    0.000    0.000    3.500 
#    0.000    0.000    0.000    0.000    0.000    0.000 
#
# Total GULP energy -178307.978403 kJ/mol
# GULP energy per Si atom -5572.124325 kJ/mol
# Density = 2.102579 g / cm^3
# Si number density = 21.073756 Si / 1000 Ang^3
#
#
#
# Elastic Constant Matrix: (Units=GPa)
#
#
# Indices 1 2 3 4 5 6 
#
# 1 59.5851 22.4433 17.1932 -0.0001 -0.5704 -0.0001
# 2 22.4433 105.3585 7.3478 0.0000 0.4028 0.0000
# 3 17.1932 7.3478 64.9422 -0.0001 -5.1492 0.0000
# 4 -0.0001 0.0000 -0.0001 8.9179 0.0000 -1.3059
# 5 -0.5704 0.4028 -5.1492 0.0000 23.6133 0.0000
# 6 -0.0001 0.0000 0.0000 -1.3059 0.0000 28.4208
#
#
#
# Elastic Compliance Matrix: (Units=1/GPa)
#
#
# Indices 1 2 3 4 5 6 
#
# 1 0.019609 -0.003841 -0.004797 0.000000 -0.000507 0.000000
# 2 -0.003841 0.010323 -0.000176 0.000000 -0.000307 0.000000
# 3 -0.004797 -0.000176 0.016973 0.000000 0.003588 0.000000
# 4 0.000000 0.000000 0.000000 0.112894 0.000000 0.005187
# 5 -0.000507 -0.000307 0.003588 0.000000 0.043125 0.000000
# 6 0.000000 0.000000 0.000000 0.005187 0.000000 0.035424
#
#
# Mechanical properties :
#
#
# Convention : Reuss Voigt Hill
#
# Bulk Modulus (GPa) = 34.15521 35.98381 35.06951
# Shear Modulus (GPa) = 18.81596 24.38382 21.59989
#
# Velocity S-wave (km/s) = 2.99132 3.40526 3.20498
# Velocity P-wave (km/s) = 5.30785 5.70731 5.51120
#
# Compressibility (1/GPa) = 0.02927811
#
# Stress axis : x y z
#
# Youngs Moduli (GPa) = 50.99805 96.87181 58.91825
#
# Poissons Ratio (x) = 0.37204 0.28263
# Poissons Ratio (y) = 0.19586 0.01034
# Poissons Ratio (z) = 0.24464 0.01701
#
# Static dielectric constant tensor:
#      x y z
#    x 1.849980 0.000000 0.032780 
#    y 0.000000 1.766480 0.000000 
#    z 0.032780 0.000000 1.852650 
# 
# From -- ./inp_files/302332.got.cif
#   From: 2010.05.17/outbox.cif.g08.bks.cpg/sg12_152_cif.got.tgz:302332.got - 2010.06.03 13:09:07.
