data_PCOD9199531
_publ_section_title
;
Structure prediction by ZEFSAII (Michael W. Deem and Ramdas Pophale) SiO2 
 PCOD9199531
Probable space group: C 2/M
;
_chemical_formula_sum "Si O2"
_cell_formula_units_Z 48
_cell_length_a 16.681344
_cell_length_b 29.052771
_cell_length_c 9.658704
_cell_angle_alpha 90.000000
_cell_angle_beta 148.487966
_cell_angle_gamma 90.000000
_cell_volume 2446.647337
_symmetry_space_group_name_H-M "C 2/M"
_symmetry_group_IT_number 12
_symmetry_cell_setting 'monoclinic'
loop_
_space_group_symop_operation_xyz
x,y,z
-x,y,-z
-x,-y,-z
x,-y,z
1/2+x,1/2+y,z
1/2-x,1/2+y,-z
1/2-x,1/2-y,-z
1/2+x,1/2-y,z
loop_
_atom_site_type_symbol
_atom_site_label
_atom_site_fract_x
_atom_site_fract_y
_atom_site_fract_z
Si Si1 0.542052 0.448944 0.221291
Si Si2 0.657796 0.552457 0.818796
Si Si3 0.710458 0.130477 0.435425
Si Si4 0.739326 0.775282 0.630575
Si Si5 0.632246 0.129847 0.008789
Si Si6 0.887936 0.731558 0.111419
O O1 0.594708 0.500000 0.347775
O O2 0.397670 0.436863 0.106389
O O3 0.670013 0.410201 0.409912
O O4 0.500000 0.452727 0.000000
O O5 0.500000 0.553333 0.500000
O O6 0.719244 0.500000 0.904975
O O7 0.766992 0.590112 0.911224
O O8 0.756094 0.170953 0.609828
O O9 0.685513 0.146463 0.240122
O O10 0.543204 0.113398 0.236645
O O11 0.750000 0.750000 0.500000
O O12 0.859102 0.756507 0.920023
O O13 0.564191 0.763579 0.420002
O O14 0.634684 0.176801 0.928038
O O15 0.750000 0.750000 0.000000
#
# Coordination Sequence:
#
# PCOD9199531 Si02
#       6
#     8   8   8   8   8   8
#     4  10  22  40  60  88 123 155 194 243 296 357
#     4  10  20  36  60  89 118 149 193 245 293 349
#     4  10  21  38  60  86 117 157 198 244 298 355
#     4  11  22  40  60  84 117 157 201 244 298 356
#     4  10  21  38  60  87 120 152 197 252 295 350
#     4  11  24  40  59  87 121 157 200 252 299 352
#
# _framework density 19.618683999999998
#
# number of rings (size 3 to 8) (size 9 to 14) (size 15 to 20)
#    0.000    1.667    3.333    1.000    0.000    6.000 
#    0.000    4.167    0.000    3.000    0.000    0.000 
#    0.000    0.000    0.000    0.000    0.000    0.000 
#
# Total GULP energy -133810.428689 kJ/mol
# GULP energy per Si atom -5575.434529 kJ/mol
# Density = 1.957403 g / cm^3
# Si number density = 19.618684 Si / 1000 Ang^3
#
#
#
# Elastic Constant Matrix: (Units=GPa)
#
#
# Indices 1 2 3 4 5 6 
#
# 1 104.0610 32.6494 -6.4776 0.0000 6.4334 0.0000
# 2 32.6494 80.7134 14.4780 0.0000 24.0078 0.0000
# 3 -6.4776 14.4780 28.9798 0.0000 2.7746 0.0000
# 4 0.0000 0.0000 0.0000 17.4555 0.0000 5.9235
# 5 6.4334 24.0078 2.7746 0.0000 30.6598 0.0000
# 6 0.0000 0.0000 0.0000 5.9235 0.0000 44.4586
#
#
#
# Elastic Compliance Matrix: (Units=1/GPa)
#
#
# Indices 1 2 3 4 5 6 
#
# 1 0.011847 -0.006408 0.005656 0.000000 0.002020 0.000000
# 2 -0.006408 0.021120 -0.010621 0.000000 -0.014232 0.000000
# 3 0.005656 -0.010621 0.040747 0.000000 0.003442 0.000000
# 4 0.000000 0.000000 0.000000 0.060001 0.000000 -0.007994
# 5 0.002020 -0.014232 0.003442 0.000000 0.043025 0.000000
# 6 0.000000 0.000000 0.000000 -0.007994 0.000000 0.023558
#
#
# Mechanical properties :
#
#
# Convention : Reuss Voigt Hill
#
# Bulk Modulus (GPa) = 19.61957 32.78375 26.20166
# Shear Modulus (GPa) = 20.83041 30.05508 25.44275
#
# Velocity S-wave (km/s) = 3.26201 3.91828 3.60511
# Velocity P-wave (km/s) = 4.92034 6.10060 5.54198
#
# Compressibility (1/GPa) = 0.05096952
#
# Stress axis : x y z
#
# Youngs Moduli (GPa) = 84.40689 47.34888 24.54143
#
# Poissons Ratio (x) = 0.30340 -0.13880
# Poissons Ratio (y) = 0.54085 0.26065
# Poissons Ratio (z) = -0.47740 0.50288
#
# Static dielectric constant tensor:
#      x y z
#    x 1.750320 0.000000 -0.050210 
#    y 0.000000 1.731980 0.000000 
#    z -0.050210 0.000000 1.749300 
# 
# From -- ./inp_files/67302.got.cif
#   From: 2010.05.17/outbox.cif.g08.bks.cpg/sg12_34_cif.got.tgz:67302.got - 2010.06.03 13:09:07.
