data_PCOD9199227
_publ_section_title
;
Structure prediction by ZEFSAII (Michael W. Deem and Ramdas Pophale) SiO2 
 PCOD9199227
Probable space group: C 2/M
;
_chemical_formula_sum "Si O2"
_cell_formula_units_Z 58
_cell_length_a 23.221780
_cell_length_b 7.908982
_cell_length_c 26.952081
_cell_angle_alpha 90.000000
_cell_angle_beta 146.282721
_cell_angle_gamma 90.000000
_cell_volume 2747.741962
_symmetry_space_group_name_H-M "C 2/M"
_symmetry_group_IT_number 12
_symmetry_cell_setting 'monoclinic'
loop_
_space_group_symop_operation_xyz
x,y,z
-x,y,-z
-x,-y,-z
x,-y,z
1/2+x,1/2+y,z
1/2-x,1/2+y,-z
1/2-x,1/2-y,-z
1/2+x,1/2-y,z
loop_
_atom_site_type_symbol
_atom_site_label
_atom_site_fract_x
_atom_site_fract_y
_atom_site_fract_z
Si Si1 0.868646 0.806245 0.438565
Si Si2 0.320156 0.192995 0.504841
Si Si3 0.000000 0.500000 0.500000
Si Si4 0.344392 0.800487 0.135999
Si Si5 0.725668 0.701637 0.736523
Si Si6 0.539445 0.299668 0.080631
Si Si7 0.388968 0.294934 0.058786
Si Si8 0.947976 0.802531 0.310939
O O1 0.802999 0.794429 0.441659
O O2 0.807791 0.767263 0.344128
O O3 0.950795 0.653238 0.499772
O O4 0.908087 0.000000 0.463787
O O5 0.250000 0.250000 0.500000
O O6 0.440805 0.215591 0.605840
O O7 0.295830 0.000000 0.476774
O O8 0.398431 0.769606 0.121690
O O9 0.399945 0.713064 0.221808
O O10 0.342919 0.000000 0.145484
O O11 0.224831 0.743245 0.043064
O O12 0.732956 0.500000 0.748573
O O13 0.838103 0.776126 0.827229
O O14 0.637378 0.765018 0.711049
O O15 0.516802 0.500000 0.063629
O O16 0.476446 0.233930 0.083173
O O17 0.500000 0.227303 0.000000
O O18 0.389809 0.500000 0.061941
O O19 0.965499 0.000000 0.335670
#
# Coordination Sequence:
#
# PCOD9199227 Si02
#       8
#     8   8   2   8   8   8   8   8
#     4  11  24  44  67 101 139 171 224 283 335 408
#     4  12  26  46  70  98 131 176 222 270 343 409
#     4  12  22  40  72 102 126 180 222 270 348 398
#     4  10  20  36  59  88 120 159 211 263 314 382
#     4  10  24  41  63  93 130 168 209 271 329 388
#     4  10  21  37  60  89 125 167 211 263 319 384
#     4   9  19  36  57  84 121 165 207 256 318 381
#     4  11  23  41  63  91 125 164 208 266 329 389
#
# _framework density 21.108241
#
# number of rings (size 3 to 8) (size 9 to 14) (size 15 to 20)
#    0.000    1.517    0.690    3.931    0.966    5.793 
#    0.000    2.759    0.000    0.000    0.000    0.000 
#    0.000    0.000    0.000    0.000    0.000    0.000 
#
# Total GULP energy -161816.107700 kJ/mol
# GULP energy per Si atom -5579.865783 kJ/mol
# Density = 2.106020 g / cm^3
# Si number density = 21.108241 Si / 1000 Ang^3
#
#
#
# Elastic Constant Matrix: (Units=GPa)
#
#
# Indices 1 2 3 4 5 6 
#
# 1 191.9573 17.0876 65.6600 0.0020 0.5054 0.0000
# 2 17.0876 57.7903 16.6237 0.0051 -1.3019 0.0004
# 3 65.6600 16.6237 83.1103 0.0001 -15.0431 -0.0001
# 4 0.0020 0.0051 0.0001 106.3114 -0.0002 15.4652
# 5 0.5054 -1.3019 -15.0431 -0.0002 33.1421 0.0000
# 6 0.0000 0.0004 -0.0001 15.4652 0.0000 31.4250
#
#
#
# Elastic Compliance Matrix: (Units=1/GPa)
#
#
# Indices 1 2 3 4 5 6 
#
# 1 0.007416 -0.000445 -0.006312 0.000000 -0.002996 0.000000
# 2 -0.000445 0.018419 -0.003487 -0.000001 -0.000853 0.000000
# 3 -0.006312 -0.003487 0.019294 0.000000 0.008717 0.000000
# 4 0.000000 -0.000001 0.000000 0.010132 0.000000 -0.004986
# 5 -0.002996 -0.000853 0.008717 0.000000 0.034142 0.000000
# 6 0.000000 0.000000 0.000000 -0.004986 0.000000 0.034276
#
#
# Mechanical properties :
#
#
# Convention : Reuss Voigt Hill
#
# Bulk Modulus (GPa) = 40.58186 59.06673 49.82429
# Shear Modulus (GPa) = 32.81248 49.74149 41.27699
#
# Velocity S-wave (km/s) = 3.94698 4.85964 4.42689
# Velocity P-wave (km/s) = 6.32762 7.71568 7.05587
#
# Compressibility (1/GPa) = 0.02464155
#
# Stress axis : x y z
#
# Youngs Moduli (GPa) = 134.84182 54.29080 51.82845
#
# Poissons Ratio (x) = 0.02413 0.32716
# Poissons Ratio (y) = 0.05994 0.18074
# Poissons Ratio (z) = 0.85116 0.18933
#
# Static dielectric constant tensor:
#      x y z
#    x 1.785540 0.000000 -0.007510 
#    y 0.000000 1.762850 0.000000 
#    z -0.007510 0.000000 1.737330 
# 
# From -- ./inp_files/367589.got.cif
#   From: 2010.05.17/outbox.cif.g08.bks.cpg/sg12_184_cif.got.tgz:367589.got - 2010.06.03 13:09:07.
