data_PCOD9199897
_publ_section_title
;
Structure prediction by ZEFSAII (Michael W. Deem and Ramdas Pophale) SiO2 
 PCOD9199897
Probable space group: C 2/M
;
_chemical_formula_sum "Si O2"
_cell_formula_units_Z 44
_cell_length_a 18.247118
_cell_length_b 11.735422
_cell_length_c 11.035779
_cell_angle_alpha 90.000000
_cell_angle_beta 113.563583
_cell_angle_gamma 90.000000
_cell_volume 2166.126904
_symmetry_space_group_name_H-M "C 2/M"
_symmetry_group_IT_number 12
_symmetry_cell_setting 'monoclinic'
loop_
_space_group_symop_operation_xyz
x,y,z
-x,y,-z
-x,-y,-z
x,-y,z
1/2+x,1/2+y,z
1/2-x,1/2+y,-z
1/2-x,1/2-y,-z
1/2+x,1/2-y,z
loop_
_atom_site_type_symbol
_atom_site_label
_atom_site_fract_x
_atom_site_fract_y
_atom_site_fract_z
Si Si1 0.044217 0.126080 0.725495
Si Si2 0.427957 0.367983 0.866580
Si Si3 0.163388 0.623909 0.503693
Si Si4 0.780087 0.128698 0.075383
Si Si5 0.000000 0.695382 0.500000
Si Si6 0.783050 0.707987 0.716912
O O1 0.123608 0.134412 0.859356
O O2 0.041940 0.223546 0.625706
O O3 0.965967 0.134547 0.757309
O O4 0.046026 0.000000 0.670296
O O5 0.411413 0.500000 0.886985
O O6 0.349457 0.292548 0.816215
O O7 0.500000 0.326723 0.000000
O O8 0.196617 0.500000 0.558548
O O9 0.176607 0.643239 0.369403
O O10 0.212173 0.718878 0.609224
O O11 0.070722 0.629632 0.479435
O O12 0.751172 0.133764 0.196249
O O13 0.757593 0.000000 0.012473
O O14 0.750000 0.250000 0.000000
#
# Coordination Sequence:
#
# PCOD9199897 Si02
#       6
#     8   8   8   8   4   8
#     4  10  21  38  61  90 120 157 210 258 310 373
#     4  10  20  36  62  89 118 158 207 264 312 366
#     4  11  24  39  62  91 123 165 208 262 319 378
#     4  11  24  43  67  94 128 168 211 263 314 377
#     4  12  20  42  60  86 122 166 204 254 316 380
#     4  11  22  41  63  90 127 158 209 261 315 380
#
# _framework density 20.312753000000001
#
# number of rings (size 3 to 8) (size 9 to 14) (size 15 to 20)
#    0.000    1.273    3.636    2.727    0.000    2.909 
#    0.000    0.000    0.000    2.182    0.000    0.000 
#    0.000    0.000    0.000    0.000    0.000    0.000 
#
# Total GULP energy -122815.479155 kJ/mol
# GULP energy per Si atom -5582.521780 kJ/mol
# Density = 2.026652 g / cm^3
# Si number density = 20.312753 Si / 1000 Ang^3
#
#
#
# Elastic Constant Matrix: (Units=GPa)
#
#
# Indices 1 2 3 4 5 6 
#
# 1 109.6967 22.0703 4.5189 0.0000 -6.3435 0.0000
# 2 22.0703 108.4631 20.4154 0.0000 -4.2990 0.0000
# 3 4.5189 20.4154 47.2584 0.0000 -5.2239 0.0000
# 4 0.0000 0.0000 0.0000 3.3268 0.0000 12.6042
# 5 -6.3435 -4.2990 -5.2239 0.0000 32.6008 0.0000
# 6 0.0000 0.0000 0.0000 12.6042 0.0000 -65.8503
#
#
#
# Elastic Compliance Matrix: (Units=1/GPa)
#
#
# Indices 1 2 3 4 5 6 
#
# 1 0.009590 -0.001903 0.000085 0.000000 0.001629 0.000000
# 2 -0.001903 0.010426 -0.004287 0.000000 0.000318 0.000000
# 3 0.000085 -0.004287 0.023357 0.000000 0.003194 0.000000
# 4 0.000000 0.000000 0.000000 0.174237 0.000000 0.033350
# 5 0.001629 0.000318 0.003194 0.000000 0.031545 0.000000
# 6 0.000000 0.000000 0.000000 0.033350 0.000000 -0.008802
#
#
# Mechanical properties :
#
#
# Convention : Reuss Voigt Hill
#
# Bulk Modulus (GPa) = 32.08877 39.93639 36.01258
# Shear Modulus (GPa) = 19.01502 8.57636 13.79569
#
# Velocity S-wave (km/s) = 3.06291 2.05702 2.60890
# Velocity P-wave (km/s) = 5.32356 5.03440 5.18100
#
# Compressibility (1/GPa) = 0.03116355
#
# Stress axis : x y z
#
# Youngs Moduli (GPa) = 104.28019 95.91011 42.81335
#
# Poissons Ratio (x) = 0.18249 -0.00364
# Poissons Ratio (y) = 0.19842 0.18355
# Poissons Ratio (z) = -0.00887 0.41118
#
# Static dielectric constant tensor:
#      x y z
#    x 1.709430 0.000000 -0.030300 
#    y 0.000000 1.716750 0.000000 
#    z -0.030300 0.000000 1.719560 
# 
# From -- ./inp_files/153775.got.cif
#   From: 2010.05.17/outbox.cif.g08.bks.cpg/sg12_77_cif.got.tgz:153775.got - 2010.06.03 13:09:07.
