data_PCOD9199686
_publ_section_title
;
Structure prediction by ZEFSAII (Michael W. Deem and Ramdas Pophale) SiO2 
 PCOD9199686
Probable space group: C 2/M
;
_chemical_formula_sum "Si O2"
_cell_formula_units_Z 56
_cell_length_a 27.793835
_cell_length_b 9.381168
_cell_length_c 18.089778
_cell_angle_alpha 90.000000
_cell_angle_beta 141.744153
_cell_angle_gamma 90.000000
_cell_volume 2920.460914
_symmetry_space_group_name_H-M "C 2/M"
_symmetry_group_IT_number 12
_symmetry_cell_setting 'monoclinic'
loop_
_space_group_symop_operation_xyz
x,y,z
-x,y,-z
-x,-y,-z
x,-y,z
1/2+x,1/2+y,z
1/2-x,1/2+y,-z
1/2-x,1/2-y,-z
1/2+x,1/2-y,z
loop_
_atom_site_type_symbol
_atom_site_label
_atom_site_fract_x
_atom_site_fract_y
_atom_site_fract_z
Si Si1 0.407571 0.831740 0.082972
Si Si2 0.142978 0.831342 0.547832
Si Si3 0.459374 0.172170 0.874742
Si Si4 0.388877 0.163503 0.341790
Si Si5 0.786248 0.328404 0.615556
Si Si6 0.264043 0.662561 0.942441
Si Si7 0.502924 0.830738 0.660791
O O1 0.478981 0.798565 0.115530
O O2 0.435453 0.804366 0.200258
O O3 0.389434 0.000000 0.053698
O O4 0.332011 0.738213 0.978514
O O5 0.131980 0.762252 0.614902
O O6 0.225808 0.804229 0.609788
O O7 0.074764 0.756828 0.418699
O O8 0.131132 0.000000 0.536853
O O9 0.372764 0.219864 0.745724
O O10 0.452499 0.000000 0.873904
O O11 0.500000 0.224046 0.000000
O O12 0.314581 0.161540 0.198839
O O13 0.460016 0.206367 0.374081
O O14 0.402313 0.000000 0.383235
O O15 0.789264 0.500000 0.604762
O O16 0.750000 0.250000 0.500000
O O17 0.285338 0.500000 0.986086
O O18 0.250000 0.750000 0.000000
O O19 0.487181 0.000000 0.643108
#
# Coordination Sequence:
#
# PCOD9199686 Si02
#       7
#     8   8   8   8   8   8   8
#     4  10  20  36  61  87 114 154 199 239 287 343
#     4  11  24  37  57  90 119 146 191 247 299 340
#     4   9  19  36  61  89 117 154 201 248 295 353
#     4  10  22  39  57  81 116 157 197 231 282 357
#     4  10  22  41  63  89 118 155 201 248 299 357
#     4  11  22  38  59  86 119 154 194 236 286 347
#     4  10  20  38  59  82 115 159 201 232 279 356
#
# _framework density 19.175056000000001
#
# number of rings (size 3 to 8) (size 9 to 14) (size 15 to 20)
#    0.000    1.857    1.429    2.143    2.000    6.286 
#    0.000    0.714    0.000    0.857    0.000    0.000 
#    0.000    0.000    0.000    0.000    0.000    0.000 
#
# Total GULP energy -156304.571463 kJ/mol
# GULP energy per Si atom -5582.306124 kJ/mol
# Density = 1.913141 g / cm^3
# Si number density = 19.175056 Si / 1000 Ang^3
#
#
#
# Elastic Constant Matrix: (Units=GPa)
#
#
# Indices 1 2 3 4 5 6 
#
# 1 99.9709 44.4792 45.2481 0.0000 12.6749 0.0000
# 2 44.4792 41.2868 27.7291 0.0000 10.2806 0.0000
# 3 45.2481 27.7291 103.1931 0.0000 14.5176 0.0000
# 4 0.0000 0.0000 0.0000 29.6055 0.0000 3.8876
# 5 12.6749 10.2806 14.5176 0.0000 39.5322 0.0000
# 6 0.0000 0.0000 0.0000 3.8876 0.0000 26.0586
#
#
#
# Elastic Compliance Matrix: (Units=1/GPa)
#
#
# Indices 1 2 3 4 5 6 
#
# 1 0.020302 -0.019370 -0.003680 0.000000 -0.000120 0.000000
# 2 -0.019370 0.049016 -0.003963 0.000000 -0.005081 0.000000
# 3 -0.003680 -0.003963 0.012715 0.000000 -0.002459 0.000000
# 4 0.000000 0.000000 0.000000 0.034452 0.000000 -0.005140
# 5 -0.000120 -0.005081 -0.002459 0.000000 0.027559 0.000000
# 6 0.000000 0.000000 0.000000 -0.005140 0.000000 0.039142
#
#
# Mechanical properties :
#
#
# Convention : Reuss Voigt Hill
#
# Bulk Modulus (GPa) = 35.70610 53.26261 44.48436
# Shear Modulus (GPa) = 20.28007 27.50553 23.89280
#
# Velocity S-wave (km/s) = 3.25565 3.79151 3.53375
# Velocity P-wave (km/s) = 5.72659 6.85600 6.31659
#
# Compressibility (1/GPa) = 0.02800642
#
# Stress axis : x y z
#
# Youngs Moduli (GPa) = 49.25599 20.40169 78.64742
#
# Poissons Ratio (x) = 0.39519 0.28943
# Poissons Ratio (y) = 0.95410 0.31166
# Poissons Ratio (z) = 0.18127 0.08085
#
# Static dielectric constant tensor:
#      x y z
#    x 1.663600 0.000000 -0.004290 
#    y 0.000000 1.644920 0.000000 
#    z -0.004290 0.000000 1.685250 
# 
# From -- ./inp_files/292589.got.cif
#   From: 2010.05.17/outbox.cif.g08.bks.cpg/sg12_147_cif.got.tgz:292589.got - 2010.06.03 13:09:07.
