data_PCOD9199244
_publ_section_title
;
Structure prediction by ZEFSAII (Michael W. Deem and Ramdas Pophale) SiO2 
 PCOD9199244
Probable space group: C 2/M
;
_chemical_formula_sum "Si O2"
_cell_formula_units_Z 64
_cell_length_a 12.449164
_cell_length_b 19.516555
_cell_length_c 28.775940
_cell_angle_alpha 90.000000
_cell_angle_beta 151.757362
_cell_angle_gamma 90.000000
_cell_volume 3308.442167
_symmetry_space_group_name_H-M "C 2/M"
_symmetry_group_IT_number 12
_symmetry_cell_setting 'monoclinic'
loop_
_space_group_symop_operation_xyz
x,y,z
-x,y,-z
-x,-y,-z
x,-y,z
1/2+x,1/2+y,z
1/2-x,1/2+y,-z
1/2-x,1/2-y,-z
1/2+x,1/2-y,z
loop_
_atom_site_type_symbol
_atom_site_label
_atom_site_fract_x
_atom_site_fract_y
_atom_site_fract_z
Si Si1 0.673703 0.419448 0.201158
Si Si2 0.097087 0.695311 0.125665
Si Si3 0.640833 0.790313 0.248530
Si Si4 0.154813 0.813382 0.434144
Si Si5 0.832130 0.163545 0.896101
Si Si6 0.461964 0.918787 0.398088
Si Si7 0.110300 0.829575 0.311436
Si Si8 0.836015 0.421222 0.981724
O O1 0.703655 0.500000 0.203187
O O2 0.666384 0.379296 0.150470
O O3 0.867419 0.398212 0.311071
O O4 0.427192 0.411501 0.131272
O O5 0.092086 0.725171 0.175829
O O6 0.089731 0.759115 0.087755
O O7 0.340711 0.658581 0.211203
O O8 0.907587 0.638305 0.044464
O O9 0.425932 0.833193 0.184207
O O10 0.652109 0.724927 0.286474
O O11 0.889506 0.824015 0.344377
O O12 0.250000 0.750000 0.500000
O O13 0.309155 0.878579 0.503949
O O14 0.173247 0.799478 0.385937
O O15 0.000000 0.137388 0.000000
O O16 0.268115 0.893809 0.360079
O O17 0.487870 0.000000 0.409672
O O18 0.860617 0.500000 0.008462
O O19 0.000000 0.413636 0.000000
#
# Coordination Sequence:
#
# PCOD9199244 Si02
#       8
#     8   8   8   8   8   8   8   8
#     4  10  23  41  60  85 122 165 205 249 302 365
#     4  10  21  36  57  90 124 155 199 253 305 357
#     4  10  22  39  59  89 120 159 204 248 305 359
#     4  11  23  39  62  90 120 159 203 254 302 368
#     4  11  23  38  62  90 121 162 204 255 299 358
#     4  11  23  40  63  91 123 159 203 256 312 365
#     4  10  21  37  59  90 121 157 199 244 312 365
#     4  10  20  36  59  88 123 163 199 243 309 373
#
# _framework density 19.344450999999999
#
# number of rings (size 3 to 8) (size 9 to 14) (size 15 to 20)
#    0.000    1.625    1.250    3.000    3.500    6.750 
#    0.000    3.125    0.000    1.500    0.000    0.000 
#    0.000    0.000    0.000    0.000    0.000    0.000 
#
# Total GULP energy -178776.332245 kJ/mol
# GULP energy per Si atom -5586.760383 kJ/mol
# Density = 1.930042 g / cm^3
# Si number density = 19.344451 Si / 1000 Ang^3
#
#
#
# Elastic Constant Matrix: (Units=GPa)
#
#
# Indices 1 2 3 4 5 6 
#
# 1 95.9105 26.8587 33.6170 0.0003 -2.4721 0.0000
# 2 26.8587 48.5599 32.8561 0.0004 -8.6363 0.0001
# 3 33.6170 32.8561 79.2108 0.0004 -4.3474 0.0001
# 4 0.0003 0.0004 0.0004 26.0633 0.0001 -2.0070
# 5 -2.4721 -8.6363 -4.3474 0.0001 32.9607 -0.0001
# 6 0.0000 0.0001 0.0001 -2.0070 -0.0001 24.4949
#
#
#
# Elastic Compliance Matrix: (Units=1/GPa)
#
#
# Indices 1 2 3 4 5 6 
#
# 1 0.013029 -0.004971 -0.003511 0.000000 -0.000788 0.000000
# 2 -0.004971 0.031743 -0.010699 0.000000 0.006533 0.000000
# 3 -0.003511 -0.010699 0.018518 0.000000 -0.000624 0.000000
# 4 0.000000 0.000000 0.000000 0.038612 0.000000 0.003164
# 5 -0.000788 0.006533 -0.000624 0.000000 0.031910 0.000000
# 6 0.000000 0.000000 0.000000 0.003164 0.000000 0.041084
#
#
# Mechanical properties :
#
#
# Convention : Reuss Voigt Hill
#
# Bulk Modulus (GPa) = 40.11351 45.59385 42.85368
# Shear Modulus (GPa) = 22.56664 25.39374 23.98019
#
# Velocity S-wave (km/s) = 3.41921 3.62707 3.52467
# Velocity P-wave (km/s) = 6.03071 6.41572 6.22619
#
# Compressibility (1/GPa) = 0.02492925
#
# Stress axis : x y z
#
# Youngs Moduli (GPa) = 76.75384 31.50257 54.00170
#
# Poissons Ratio (x) = 0.15660 0.18958
# Poissons Ratio (y) = 0.38155 0.57775
# Poissons Ratio (z) = 0.26946 0.33704
#
# Static dielectric constant tensor:
#      x y z
#    x 1.681850 0.000000 -0.000510 
#    y 0.000000 1.658490 0.000000 
#    z -0.000510 0.000000 1.683940 
# 
# From -- ./inp_files/265053.got.cif
#   From: 2010.05.17/outbox.cif.g08.bks.cpg/sg12_133_cif.got.tgz:265053.got - 2010.06.03 13:09:07.
