data_PCOD9199152
_publ_section_title
;
Structure prediction by ZEFSAII (Michael W. Deem and Ramdas Pophale) SiO2 
 PCOD9199152
Probable space group: C 2/M
;
_chemical_formula_sum "Si O2"
_cell_formula_units_Z 64
_cell_length_a 32.535570
_cell_length_b 13.587470
_cell_length_c 12.188548
_cell_angle_alpha 90.000000
_cell_angle_beta 35.159830
_cell_angle_gamma 90.000000
_cell_volume 3102.882687
_symmetry_space_group_name_H-M "C 2/M"
_symmetry_group_IT_number 12
_symmetry_cell_setting 'monoclinic'
loop_
_space_group_symop_operation_xyz
x,y,z
-x,y,-z
-x,-y,-z
x,-y,z
1/2+x,1/2+y,z
1/2-x,1/2+y,-z
1/2-x,1/2-y,-z
1/2+x,1/2-y,z
loop_
_atom_site_type_symbol
_atom_site_label
_atom_site_fract_x
_atom_site_fract_y
_atom_site_fract_z
Si Si1 0.559081 0.388338 0.532067
Si Si2 0.689905 0.739111 0.539900
Si Si3 0.285267 0.391548 0.698750
Si Si4 0.432757 0.741078 0.894663
Si Si5 0.925088 0.885621 0.114123
Si Si6 0.784848 0.388332 0.909276
Si Si7 0.421774 0.112605 0.116353
Si Si8 0.640243 0.288705 0.172724
O O1 0.528821 0.500000 0.603283
O O2 0.632974 0.390286 0.438216
O O3 0.508783 0.304548 0.692446
O O4 0.582999 0.358858 0.357229
O O5 0.750000 0.750000 0.500000
O O6 0.726561 0.706718 0.346709
O O7 0.639470 0.644186 0.667954
O O8 0.634328 0.827658 0.684501
O O9 0.270484 0.500000 0.679547
O O10 0.239345 0.389049 0.910335
O O11 0.388409 0.747748 0.880597
O O12 0.405774 0.659488 0.039396
O O13 0.429436 0.836618 0.979839
O O14 0.933836 0.000000 0.084867
O O15 0.000000 0.845264 0.000000
O O16 0.803904 0.500000 0.835631
O O17 0.714372 0.348675 0.001645
O O18 0.844568 0.303681 0.778802
O O19 0.398728 0.000000 0.156279
O O20 0.500000 0.115657 0.000000
#
# Coordination Sequence:
#
# PCOD9199152 Si02
#       8
#     8   8   8   8   8   8   8   8
#     4  10  20  36  59  87 115 145 184 238 295 345
#     4  11  22  34  56  87 119 145 188 250 293 338
#     4   9  18  34  59  82 108 148 189 228 285 349
#     4  11  21  34  59  87 111 146 188 241 288 339
#     4  10  21  37  56  82 115 151 188 232 293 356
#     4   9  20  38  58  78 111 157 193 228 283 351
#     4  10  23  43  62  82 118 167 206 236 284 355
#     4  10  21  35  55  85 115 143 190 239 288 344
#
# _framework density 20.625979999999998
#
# number of rings (size 3 to 8) (size 9 to 14) (size 15 to 20)
#    0.000    2.000    0.000    5.250    3.500    6.000 
#    0.000    0.625    0.000    6.000    0.000    0.000 
#    0.000    0.000    0.000    0.000    0.000    0.000 
#
# Total GULP energy -178480.408673 kJ/mol
# GULP energy per Si atom -5577.512771 kJ/mol
# Density = 2.057903 g / cm^3
# Si number density = 20.625980 Si / 1000 Ang^3
#
#
#
# Elastic Constant Matrix: (Units=GPa)
#
#
# Indices 1 2 3 4 5 6 
#
# 1 70.2762 27.7516 2.9973 0.0000 12.0712 0.0000
# 2 27.7516 117.0600 8.2409 0.0000 3.6253 0.0000
# 3 2.9973 8.2409 44.2579 0.0000 4.0136 0.0000
# 4 0.0000 0.0000 0.0000 15.3970 0.0000 11.0966
# 5 12.0712 3.6253 4.0136 0.0000 28.2084 0.0000
# 6 0.0000 0.0000 0.0000 11.0966 0.0000 -7.5785
#
#
#
# Elastic Compliance Matrix: (Units=1/GPa)
#
#
# Indices 1 2 3 4 5 6 
#
# 1 0.016887 -0.003806 0.000178 0.000000 -0.006763 0.000000
# 2 -0.003806 0.009536 -0.001575 0.000000 0.000627 0.000000
# 3 0.000178 -0.001575 0.023163 0.000000 -0.003170 0.000000
# 4 0.000000 0.000000 0.000000 0.031601 0.000000 0.046270
# 5 -0.006763 0.000627 -0.003170 0.000000 0.038715 0.000000
# 6 0.000000 0.000000 0.000000 0.046270 0.000000 -0.064202
#
#
# Mechanical properties :
#
#
# Convention : Reuss Voigt Hill
#
# Bulk Modulus (GPa) = 25.52268 34.39708 29.95988
# Shear Modulus (GPa) = 63.15825 20.04565 41.60195
#
# Velocity S-wave (km/s) = 5.53960 3.12086 4.49594
# Velocity P-wave (km/s) = 7.30186 5.44969 6.44268
#
# Compressibility (1/GPa) = 0.03918084
#
# Stress axis : x y z
#
# Youngs Moduli (GPa) = 59.21822 104.86058 43.17151
#
# Poissons Ratio (x) = 0.39915 -0.00770
# Poissons Ratio (y) = 0.22541 0.06799
# Poissons Ratio (z) = -0.01057 0.16514
#
# Static dielectric constant tensor:
#      x y z
#    x 1.748500 0.000000 0.013510 
#    y 0.000000 1.779550 0.000000 
#    z 0.013510 0.000000 1.825050 
# 
# From -- ./inp_files/189421.got.cif
#   From: 2010.05.17/outbox.cif.g08.bks.cpg/sg12_95_cif.got.tgz:189421.got - 2010.06.03 13:09:07.
