data_PCOD9199280
_publ_section_title
;
Structure prediction by ZEFSAII (Michael W. Deem and Ramdas Pophale) SiO2 
 PCOD9199280
Probable space group: C 2/M
;
_chemical_formula_sum "Si O2"
_cell_formula_units_Z 64
_cell_length_a 9.429037
_cell_length_b 27.284918
_cell_length_c 23.284495
_cell_angle_alpha 90.000000
_cell_angle_beta 26.986206
_cell_angle_gamma 90.000000
_cell_volume 2718.305825
_symmetry_space_group_name_H-M "C 2/M"
_symmetry_group_IT_number 12
_symmetry_cell_setting 'monoclinic'
loop_
_space_group_symop_operation_xyz
x,y,z
-x,y,-z
-x,-y,-z
x,-y,z
1/2+x,1/2+y,z
1/2-x,1/2+y,-z
1/2-x,1/2-y,-z
1/2+x,1/2-y,z
loop_
_atom_site_type_symbol
_atom_site_label
_atom_site_fract_x
_atom_site_fract_y
_atom_site_fract_z
Si Si1 0.174101 0.301649 0.383188
Si Si2 0.357027 0.616864 0.773464
Si Si3 0.212671 0.169681 0.978595
Si Si4 0.635639 0.722562 0.116980
Si Si5 0.757185 0.366740 0.450902
Si Si6 0.132337 0.053788 0.128723
Si Si7 0.108345 0.054856 0.340618
Si Si8 0.887612 0.555699 0.756946
O O1 0.388205 0.343294 0.336054
O O2 0.424650 0.276801 0.250101
O O3 0.000000 0.276453 0.500000
O O4 0.933162 0.326959 0.425747
O O5 0.441263 0.601331 0.807383
O O6 0.404246 0.567656 0.720829
O O7 0.007486 0.635924 0.888631
O O8 0.361112 0.222078 0.906930
O O9 0.034146 0.185538 0.102183
O O10 0.000000 0.154732 0.000000
O O11 0.000000 0.710138 0.000000
O O12 0.500000 0.345185 0.500000
O O13 0.585943 0.405010 0.554942
O O14 0.968192 0.402737 0.335524
O O15 0.980978 0.058712 0.120557
O O16 0.018723 0.000000 0.190888
O O17 0.500000 0.051795 0.000000
O O18 0.464176 0.061003 0.234396
O O19 0.001267 0.000000 0.391488
O O20 0.986199 0.500000 0.703916
#
# Coordination Sequence:
#
# PCOD9199280 Si02
#       8
#     8   8   8   8   8   8   8   8
#     4  12  24  42  67 103 141 181 220 285 347 415
#     4  12  23  38  64  95 134 173 226 280 342 408
#     4  10  24  44  74 105 129 172 234 286 338 427
#     4  10  22  47  77 100 133 177 227 283 349 415
#     4  10  20  36  59  90 127 176 229 283 333 402
#     4  10  22  37  56  88 129 174 226 276 335 401
#     4  10  21  37  58  88 134 180 228 285 337 396
#     4   9  18  35  57  81 115 170 229 279 333 389
#
# _framework density 23.544077999999999
#
# number of rings (size 3 to 8) (size 9 to 14) (size 15 to 20)
#    0.000    1.625    3.750    0.750    1.750    4.500 
#    0.000    1.250    0.000    3.750    0.000    0.000 
#    0.000    0.000    0.000    0.000    0.000    0.000 
#
# Total GULP energy -178557.035587 kJ/mol
# GULP energy per Si atom -5579.907362 kJ/mol
# Density = 2.349049 g / cm^3
# Si number density = 23.544078 Si / 1000 Ang^3
#
#
#
# Elastic Constant Matrix: (Units=GPa)
#
#
# Indices 1 2 3 4 5 6 
#
# 1 87.7151 17.0070 25.6722 0.0052 0.2144 0.0187
# 2 17.0070 48.5134 17.9508 -0.0006 4.3539 0.0122
# 3 25.6722 17.9508 74.0969 0.0225 7.6734 0.0546
# 4 0.0052 -0.0006 0.0225 8.6127 -0.0027 12.1547
# 5 0.2144 4.3539 7.6734 -0.0027 38.5668 -0.0070
# 6 0.0187 0.0122 0.0546 12.1547 -0.0070 33.5547
#
#
#
# Elastic Compliance Matrix: (Units=1/GPa)
#
#
# Indices 1 2 3 4 5 6 
#
# 1 0.013169 -0.003277 -0.003879 0.000003 0.001069 -0.000001
# 2 -0.003277 0.023543 -0.004385 0.000029 -0.001767 -0.000011
# 3 -0.003879 -0.004385 0.016182 -0.000017 -0.002703 -0.000017
# 4 0.000003 0.000029 -0.000017 0.237537 0.000001 -0.086044
# 5 0.001069 -0.001767 -0.002703 0.000001 0.026660 0.000010
# 6 -0.000001 -0.000011 -0.000017 -0.086044 0.000010 0.060970
#
#
# Mechanical properties :
#
#
# Convention : Reuss Voigt Hill
#
# Bulk Modulus (GPa) = 33.54480 36.84282 35.19381
# Shear Modulus (GPa) = 12.16305 26.12655 19.14480
#
# Velocity S-wave (km/s) = 2.27537 3.33481 2.85467
# Velocity P-wave (km/s) = 4.60235 5.52362 5.08390
#
# Compressibility (1/GPa) = 0.02981088
#
# Stress axis : x y z
#
# Youngs Moduli (GPa) = 75.93777 42.47574 61.79638
#
# Poissons Ratio (x) = 0.13919 0.23973
# Poissons Ratio (y) = 0.24884 0.27099
# Poissons Ratio (z) = 0.29459 0.18626
#
# Static dielectric constant tensor:
#      x y z
#    x 1.901940 0.000010 -0.023360 
#    y 0.000010 1.921540 0.000000 
#    z -0.023360 0.000000 1.963360 
# 
# From -- ./inp_files/334344.got.cif
#   From: 2010.05.17/outbox.cif.g08.bks.cpg/sg12_168_cif.got.tgz:334344.got - 2010.06.03 13:09:07.
