data_PCOD9199643
_publ_section_title
;
Structure prediction by ZEFSAII (Michael W. Deem and Ramdas Pophale) SiO2 
 PCOD9199643
Probable space group: C 2/M
;
_chemical_formula_sum "Si O2"
_cell_formula_units_Z 48
_cell_length_a 20.786151
_cell_length_b 11.717438
_cell_length_c 9.880393
_cell_angle_alpha 90.000000
_cell_angle_beta 67.544914
_cell_angle_gamma 90.000000
_cell_volume 2224.012208
_symmetry_space_group_name_H-M "C 2/M"
_symmetry_group_IT_number 12
_symmetry_cell_setting 'monoclinic'
loop_
_space_group_symop_operation_xyz
x,y,z
-x,y,-z
-x,-y,-z
x,-y,z
1/2+x,1/2+y,z
1/2-x,1/2+y,-z
1/2-x,1/2-y,-z
1/2+x,1/2-y,z
loop_
_atom_site_type_symbol
_atom_site_label
_atom_site_fract_x
_atom_site_fract_y
_atom_site_fract_z
Si Si1 0.202207 0.626182 0.869765
Si Si2 0.666796 0.127892 0.193387
Si Si3 0.572995 0.626562 0.626053
Si Si4 0.201981 0.246907 0.406258
Si Si5 0.577599 0.700566 0.927101
Si Si6 0.911817 0.871554 0.783514
O O1 0.177179 0.500000 0.861616
O O2 0.266301 0.654213 0.722402
O O3 0.140078 0.710672 0.884225
O O4 0.215865 0.632803 0.020558
O O5 0.703259 0.141611 0.309529
O O6 0.622161 0.245943 0.218359
O O7 0.633676 0.000000 0.213241
O O8 0.594912 0.500000 0.566768
O O9 0.624244 0.715788 0.514761
O O10 0.581635 0.638125 0.780901
O O11 0.509075 0.638389 0.334009
O O12 0.250000 0.250000 0.500000
O O13 0.500000 0.754094 0.000000
O O14 0.584739 0.625933 0.055817
O O15 0.885546 0.000000 0.764679
#
# Coordination Sequence:
#
# PCOD9199643 Si02
#       6
#     8   8   8   8   8   8
#     4  10  21  40  62  89 126 170 217 260 311 383
#     4  10  24  45  67  93 128 168 216 264 318 381
#     4  10  20  36  60  93 129 164 209 269 321 373
#     4  12  24  41  61  90 129 168 215 261 320 380
#     4   9  17  34  59  93 127 161 208 262 316 372
#     4   9  19  38  67  96 124 164 215 263 318 377
#
# _framework density 21.582616000000002
#
# number of rings (size 3 to 8) (size 9 to 14) (size 15 to 20)
#    0.000    2.000    1.667    1.500    0.000    5.667 
#    0.000    8.333    0.000    0.000    0.000    0.000 
#    0.000    0.000    0.000    0.000    0.000    0.000 
#
# Total GULP energy -133777.104964 kJ/mol
# GULP energy per Si atom -5574.046040 kJ/mol
# Density = 2.153349 g / cm^3
# Si number density = 21.582616 Si / 1000 Ang^3
#
#
#
# Elastic Constant Matrix: (Units=GPa)
#
#
# Indices 1 2 3 4 5 6 
#
# 1 46.6285 42.3611 29.9275 0.0000 -0.1745 0.0000
# 2 42.3611 138.7142 35.3643 0.0000 2.5966 0.0000
# 3 29.9275 35.3643 151.0948 0.0000 9.5824 0.0000
# 4 0.0000 0.0000 0.0000 5.8209 0.0000 -5.1626
# 5 -0.1745 2.5966 9.5824 0.0000 30.5985 0.0000
# 6 0.0000 0.0000 0.0000 -5.1626 0.0000 16.8444
#
#
#
# Elastic Compliance Matrix: (Units=1/GPa)
#
#
# Indices 1 2 3 4 5 6 
#
# 1 0.032300 -0.008761 -0.004495 0.000000 0.002335 0.000000
# 2 -0.008761 0.010043 -0.000569 0.000000 -0.000724 0.000000
# 3 -0.004495 -0.000569 0.007795 0.000000 -0.002419 0.000000
# 4 0.000000 0.000000 0.000000 0.235926 0.000000 0.072309
# 5 0.002335 -0.000724 -0.002419 0.000000 0.033513 0.000000
# 6 0.000000 0.000000 0.000000 0.072309 0.000000 0.081529
#
#
# Mechanical properties :
#
#
# Convention : Reuss Voigt Hill
#
# Bulk Modulus (GPa) = 44.47128 61.30482 52.88805
# Shear Modulus (GPa) = 11.46121 25.90509 18.68315
#
# Velocity S-wave (km/s) = 2.30693 3.46826 2.94540
# Velocity P-wave (km/s) = 5.26742 6.67119 6.01043
#
# Compressibility (1/GPa) = 0.02248642
#
# Stress axis : x y z
#
# Youngs Moduli (GPa) = 30.96020 99.56790 128.28158
#
# Poissons Ratio (x) = 0.87236 0.57663
# Poissons Ratio (y) = 0.27126 0.07304
# Poissons Ratio (z) = 0.13917 0.05669
#
# Static dielectric constant tensor:
#      x y z
#    x 1.842490 0.000000 0.049390 
#    y 0.000000 1.764810 0.000000 
#    z 0.049390 0.000000 1.808330 
# 
# From -- ./inp_files/94909.got.cif
#   From: 2010.05.17/outbox.cif.g08.bks.cpg/sg12_48_cif.got.tgz:94909.got - 2010.06.03 13:09:07.
