data_PCOD9199528
_publ_section_title
;
Structure prediction by ZEFSAII (Michael W. Deem and Ramdas Pophale) SiO2 
 PCOD9199528
Probable space group: C 2/M
;
_chemical_formula_sum "Si O2"
_cell_formula_units_Z 64
_cell_length_a 14.238221
_cell_length_b 9.253688
_cell_length_c 24.565188
_cell_angle_alpha 90.000000
_cell_angle_beta 88.480572
_cell_angle_gamma 90.000000
_cell_volume 3235.474236
_symmetry_space_group_name_H-M "C 2/M"
_symmetry_group_IT_number 12
_symmetry_cell_setting 'monoclinic'
loop_
_space_group_symop_operation_xyz
x,y,z
-x,y,-z
-x,-y,-z
x,-y,z
1/2+x,1/2+y,z
1/2-x,1/2+y,-z
1/2-x,1/2-y,-z
1/2+x,1/2-y,z
loop_
_atom_site_type_symbol
_atom_site_label
_atom_site_fract_x
_atom_site_fract_y
_atom_site_fract_z
Si Si1 0.875245 0.834470 0.545327
Si Si2 0.646540 0.164213 0.560625
Si Si3 0.375586 0.832514 0.957438
Si Si4 0.523995 0.171869 0.859860
Si Si5 0.105246 0.670042 0.345028
Si Si6 0.989807 0.829480 0.252952
Si Si7 0.671001 0.665540 0.665822
Si Si8 0.156695 0.168181 0.933428
O O1 0.760671 0.835897 0.552139
O O2 0.893911 0.763031 0.486668
O O3 0.910959 0.739641 0.595294
O O4 0.907409 0.000000 0.548436
O O5 0.631035 0.228783 0.620473
O O6 0.613693 0.000000 0.555967
O O7 0.445475 0.799972 0.907225
O O8 0.268816 0.819206 0.938057
O O9 0.390018 0.000000 0.974114
O O10 0.385334 0.732615 0.010009
O O11 0.498792 0.248416 0.803975
O O12 0.617777 0.240538 0.883822
O O13 0.532121 0.000000 0.852411
O O14 0.081183 0.500000 0.344939
O O15 0.217329 0.682996 0.332281
O O16 0.052548 0.757532 0.298973
O O17 0.883273 0.813491 0.277027
O O18 0.010050 0.000000 0.247608
O O19 0.653072 0.500000 0.648019
O O20 0.132101 0.000000 0.927503
#
# Coordination Sequence:
#
# PCOD9199528 Si02
#       8
#     8   8   8   8   8   8   8   8
#     4   9  16  28  49  78 110 142 176 218 274 335
#     4   9  16  27  49  80 109 138 177 224 272 328
#     4   9  20  38  59  85 119 154 184 220 273 331
#     4  11  23  39  58  81 113 152 189 227 274 325
#     4  10  20  37  59  81 107 142 183 227 278 332
#     4  11  24  41  58  80 110 145 189 234 275 324
#     4   9  20  38  58  78 107 146 181 222 280 337
#     4  10  20  36  60  89 118 148 185 228 272 321
#
# _framework density 19.780716999999999
#
# number of rings (size 3 to 8) (size 9 to 14) (size 15 to 20)
#    0.000    2.250    0.000    2.625    0.000    8.500 
#    0.000    5.625    0.000    3.750    0.000    0.000 
#    0.000    0.000    0.000    0.000    0.000    0.000 
#
# Total GULP energy -178869.793862 kJ/mol
# GULP energy per Si atom -5589.681058 kJ/mol
# Density = 1.973570 g / cm^3
# Si number density = 19.780717 Si / 1000 Ang^3
#
#
#
# Elastic Constant Matrix: (Units=GPa)
#
#
# Indices 1 2 3 4 5 6 
#
# 1 47.0011 27.1944 20.8834 0.0000 2.0380 0.0000
# 2 27.1944 119.1614 70.1543 0.0000 6.4797 0.0000
# 3 20.8834 70.1543 108.9086 0.0000 17.7778 0.0000
# 4 0.0000 0.0000 0.0000 42.5272 0.0000 5.2896
# 5 2.0380 6.4797 17.7778 0.0000 23.1623 0.0000
# 6 0.0000 0.0000 0.0000 5.2896 0.0000 21.7634
#
#
#
# Elastic Compliance Matrix: (Units=1/GPa)
#
#
# Indices 1 2 3 4 5 6 
#
# 1 0.024732 -0.004557 -0.001897 0.000000 0.000555 0.000000
# 2 -0.004557 0.014585 -0.009055 0.000000 0.003271 0.000000
# 3 -0.001897 -0.009055 0.017078 0.000000 -0.010408 0.000000
# 4 0.000000 0.000000 0.000000 0.024247 0.000000 -0.005893
# 5 0.000555 0.003271 -0.010408 0.000000 0.050198 0.000000
# 6 0.000000 0.000000 0.000000 -0.005893 0.000000 0.047381
#
#
# Mechanical properties :
#
#
# Convention : Reuss Voigt Hill
#
# Bulk Modulus (GPa) = 39.40888 56.83724 48.12306
# Shear Modulus (GPa) = 22.96743 27.94651 25.45697
#
# Velocity S-wave (km/s) = 3.41119 3.76282 3.59131
# Velocity P-wave (km/s) = 5.95660 6.90467 6.44808
#
# Compressibility (1/GPa) = 0.02537499
#
# Stress axis : x y z
#
# Youngs Moduli (GPa) = 40.43363 68.56203 58.55565
#
# Poissons Ratio (x) = 0.31246 0.11110
# Poissons Ratio (y) = 0.18427 0.53024
# Poissons Ratio (z) = 0.07672 0.62085
#
# Static dielectric constant tensor:
#      x y z
#    x 1.737050 0.000000 -0.017090 
#    y 0.000000 1.669090 0.000000 
#    z -0.017090 0.000000 1.642040 
# 
# From -- ./inp_files/338887.got.cif
#   From: 2010.05.17/outbox.cif.g08.bks.cpg/sg12_170_cif.got.tgz:338887.got - 2010.06.03 13:09:07.
