data_PCOD9199622
_publ_section_title
;
Structure prediction by ZEFSAII (Michael W. Deem and Ramdas Pophale) SiO2 
 PCOD9199622
Probable space group: C 2/M
;
_chemical_formula_sum "Si O2"
_cell_formula_units_Z 28
_cell_length_a 18.815985
_cell_length_b 16.762349
_cell_length_c 5.006218
_cell_angle_alpha 90.000000
_cell_angle_beta 121.782364
_cell_angle_gamma 90.000000
_cell_volume 1342.204051
_symmetry_space_group_name_H-M "C 2/M"
_symmetry_group_IT_number 12
_symmetry_cell_setting 'monoclinic'
loop_
_space_group_symop_operation_xyz
x,y,z
-x,y,-z
-x,-y,-z
x,-y,z
1/2+x,1/2+y,z
1/2-x,1/2+y,-z
1/2-x,1/2-y,-z
1/2+x,1/2-y,z
loop_
_atom_site_type_symbol
_atom_site_label
_atom_site_fract_x
_atom_site_fract_y
_atom_site_fract_z
Si Si1 0.660011 0.257311 0.187736
Si Si2 0.062060 0.500000 0.373838
Si Si3 0.440405 0.591057 0.139058
Si Si4 0.407777 0.827041 0.448587
O O1 0.750000 0.250000 0.500000
O O2 0.598302 0.226664 0.299788
O O3 0.633055 0.346154 0.051829
O O4 0.651597 0.203788 0.905502
O O5 0.111326 0.417218 0.493210
O O6 0.000000 0.500000 0.500000
O O7 0.000000 0.500000 0.000000
O O8 0.500000 0.617114 0.500000
O O9 0.411841 0.500000 0.134686
O O10 0.500000 0.589915 0.000000
O O11 0.500000 0.824780 0.500000
#
# Coordination Sequence:
#
# PCOD9199622 Si02
#       4
#     8   4   8   8
#     4  12  24  39  60  93 129 160 203 255 326 373
#     4  10  20  36  60  92 118 148 207 252 293 358
#     4  10  21  39  63  88 115 157 212 258 295 359
#     4  11  22  40  64  89 120 165 209 252 295 366
#
# _framework density 20.861208999999999
#
# number of rings (size 3 to 8) (size 9 to 14) (size 15 to 20)
#    0.000    1.143    0.000    9.429    0.000    0.000 
#    5.143    0.000    0.000    0.000    0.000    0.000 
#    0.000    0.000    0.000    0.000    0.000    0.000 
#
# Total GULP energy -78283.393176 kJ/mol
# GULP energy per Si atom -5591.670941 kJ/mol
# Density = 2.081373 g / cm^3
# Si number density = 20.861209 Si / 1000 Ang^3
#
#
#
# Elastic Constant Matrix: (Units=GPa)
#
#
# Indices 1 2 3 4 5 6 
#
# 1 38.3944 15.9257 22.4296 0.0000 -8.3790 0.0000
# 2 15.9257 166.8807 81.9128 0.0000 20.8695 0.0000
# 3 22.4296 81.9128 184.8693 0.0000 -3.1170 0.0000
# 4 0.0000 0.0000 0.0000 37.2668 0.0000 -10.1713
# 5 -8.3790 20.8695 -3.1170 0.0000 46.6943 0.0000
# 6 0.0000 0.0000 0.0000 -10.1713 0.0000 7.3461
#
#
#
# Elastic Compliance Matrix: (Units=1/GPa)
#
#
# Indices 1 2 3 4 5 6 
#
# 1 0.029851 -0.002439 -0.002435 0.000000 0.006284 0.000000
# 2 -0.002439 0.008535 -0.003561 0.000000 -0.004490 0.000000
# 3 -0.002435 -0.003561 0.007310 0.000000 0.001643 0.000000
# 4 0.000000 0.000000 0.000000 0.043134 0.000000 0.059723
# 5 0.006284 -0.004490 0.001643 0.000000 0.024660 0.000000
# 6 0.000000 0.000000 0.000000 0.059723 0.000000 0.218817
#
#
# Mechanical properties :
#
#
# Convention : Reuss Voigt Hill
#
# Bulk Modulus (GPa) = 34.69228 70.07563 52.38396
# Shear Modulus (GPa) = 13.93584 36.25319 25.09451
#
# Velocity S-wave (km/s) = 2.58742 4.17325 3.47209
# Velocity P-wave (km/s) = 5.05890 7.54226 6.42176
#
# Compressibility (1/GPa) = 0.02882486
#
# Stress axis : x y z
#
# Youngs Moduli (GPa) = 33.49937 117.16931 136.79314
#
# Poissons Ratio (x) = 0.28583 0.33308
# Poissons Ratio (y) = 0.08172 0.48716
# Poissons Ratio (z) = 0.08157 0.41728
#
# Static dielectric constant tensor:
#      x y z
#    x 1.797580 0.000000 -0.020860 
#    y 0.000000 1.818980 0.000000 
#    z -0.020860 0.000000 1.714620 
# 
# From -- ./inp_files/14622.got.cif
#   From: 2010.05.17/outbox.cif.g08.bks.cpg/sg12_8_cif.got.tgz:14622.got - 2010.06.03 13:09:07.
