data_PCOD9199268
_publ_section_title
;
Structure prediction by ZEFSAII (Michael W. Deem and Ramdas Pophale) SiO2 
 PCOD9199268
Probable space group: C 2/M
;
_chemical_formula_sum "Si O2"
_cell_formula_units_Z 56
_cell_length_a 23.622177
_cell_length_b 23.407294
_cell_length_c 4.867967
_cell_angle_alpha 90.000000
_cell_angle_beta 80.222823
_cell_angle_gamma 90.000000
_cell_volume 2652.556479
_symmetry_space_group_name_H-M "C 2/M"
_symmetry_group_IT_number 12
_symmetry_cell_setting 'monoclinic'
loop_
_space_group_symop_operation_xyz
x,y,z
-x,y,-z
-x,-y,-z
x,-y,z
1/2+x,1/2+y,z
1/2-x,1/2+y,-z
1/2-x,1/2-y,-z
1/2+x,1/2-y,z
loop_
_atom_site_type_symbol
_atom_site_label
_atom_site_fract_x
_atom_site_fract_y
_atom_site_fract_z
Si Si1 0.837115 0.724160 0.912059
Si Si2 0.930840 0.564146 0.543974
Si Si3 0.172739 0.435509 0.969085
Si Si4 0.438116 0.171984 0.175755
Si Si5 0.777245 0.374091 0.595071
Si Si6 0.959889 0.205259 0.295360
Si Si7 0.167512 0.196627 0.593527
O O1 0.806588 0.608050 0.283511
O O2 0.838763 0.778041 0.706669
O O3 0.895566 0.695568 0.976568
O O4 0.812755 0.751978 0.214880
O O5 0.916915 0.500000 0.450780
O O6 0.892318 0.570146 0.851081
O O7 0.917174 0.618479 0.368685
O O8 0.000000 0.565299 0.500000
O O9 0.179514 0.500000 0.863311
O O10 0.212924 0.425762 0.202193
O O11 0.445702 0.227661 0.362737
O O12 0.500000 0.157360 0.000000
O O13 0.805704 0.323105 0.753087
O O14 0.713434 0.353138 0.582033
O O15 0.897842 0.178957 0.282559
O O16 0.000000 0.181048 0.500000
O O17 0.000000 0.205803 0.000000
#
# Coordination Sequence:
#
# PCOD9199268 Si02
#       7
#     8   8   8   8   8   8   8
#     4  11  24  40  62  93 126 165 207 261 319 378
#     4  10  24  44  67  88 115 163 228 295 340 373
#     4  11  27  47  67  91 125 164 216 276 332 378
#     4  10  22  37  63  87 123 163 218 265 328 381
#     4  12  25  43  69  92 123 167 209 263 322 382
#     4  10  20  36  59  89 128 165 194 243 303 372
#     4  11  22  41  66  95 131 162 210 251 305 387
#
# _framework density 21.111706000000002
#
# number of rings (size 3 to 8) (size 9 to 14) (size 15 to 20)
#    0.000    1.286    0.000    6.000    8.000    0.286 
#    5.143    0.714    0.000    0.000    0.000    0.000 
#    0.000   11.429    0.000    0.000    0.000    0.000 
#
# Total GULP energy -156515.620997 kJ/mol
# GULP energy per Si atom -5589.843607 kJ/mol
# Density = 2.106366 g / cm^3
# Si number density = 21.111706 Si / 1000 Ang^3
#
#
#
# Elastic Constant Matrix: (Units=GPa)
#
#
# Indices 1 2 3 4 5 6 
#
# 1 168.2411 64.7942 58.1397 0.0000 -2.5320 0.0000
# 2 64.7942 58.9436 40.9580 0.0000 -9.9488 0.0000
# 3 58.1397 40.9580 129.8032 0.0000 6.9516 0.0000
# 4 0.0000 0.0000 0.0000 32.1039 0.0000 -3.4289
# 5 -2.5320 -9.9488 6.9516 0.0000 31.3797 0.0000
# 6 0.0000 0.0000 0.0000 -3.4289 0.0000 21.7673
#
#
#
# Elastic Compliance Matrix: (Units=1/GPa)
#
#
# Indices 1 2 3 4 5 6 
#
# 1 0.010667 -0.011436 -0.001034 0.000000 -0.002536 0.000000
# 2 -0.011436 0.036493 -0.007047 0.000000 0.012208 0.000000
# 3 -0.001034 -0.007047 0.010641 0.000000 -0.004675 0.000000
# 4 0.000000 0.000000 0.000000 0.031682 0.000000 0.004991
# 5 -0.002536 0.012208 -0.004675 0.000000 0.036569 0.000000
# 6 0.000000 0.000000 0.000000 0.004991 0.000000 0.046727
#
#
# Mechanical properties :
#
#
# Convention : Reuss Voigt Hill
#
# Bulk Modulus (GPa) = 53.27929 76.08576 64.68252
# Shear Modulus (GPa) = 22.92873 29.92325 26.42599
#
# Velocity S-wave (km/s) = 3.29913 3.76889 3.54181
# Velocity P-wave (km/s) = 6.30904 7.42006 6.88699
#
# Compressibility (1/GPa) = 0.01876902
#
# Stress axis : x y z
#
# Youngs Moduli (GPa) = 93.74676 27.40245 93.97752
#
# Poissons Ratio (x) = 0.31336 0.09714
# Poissons Ratio (y) = 1.07205 0.66224
# Poissons Ratio (z) = 0.09690 0.19310
#
# Static dielectric constant tensor:
#      x y z
#    x 1.810720 0.000000 -0.002420 
#    y 0.000000 1.782120 0.000000 
#    z -0.002420 0.000000 1.870730 
# 
# From -- ./inp_files/25918.got.cif
#   From: 2010.05.17/outbox.cif.g08.bks.cpg/sg12_13_cif.got.tgz:25918.got - 2010.06.03 13:09:07.
