data_PCOD9199722
_publ_section_title
;
Structure prediction by ZEFSAII (Michael W. Deem and Ramdas Pophale) SiO2 
 PCOD9199722
Probable space group: C 2/M
;
_chemical_formula_sum "Si O2"
_cell_formula_units_Z 40
_cell_length_a 20.118279
_cell_length_b 7.443615
_cell_length_c 27.694940
_cell_angle_alpha 90.000000
_cell_angle_beta 151.089908
_cell_angle_gamma 90.000000
_cell_volume 2005.001332
_symmetry_space_group_name_H-M "C 2/M"
_symmetry_group_IT_number 12
_symmetry_cell_setting 'monoclinic'
loop_
_space_group_symop_operation_xyz
x,y,z
-x,y,-z
-x,-y,-z
x,-y,z
1/2+x,1/2+y,z
1/2-x,1/2+y,-z
1/2-x,1/2-y,-z
1/2+x,1/2-y,z
loop_
_atom_site_type_symbol
_atom_site_label
_atom_site_fract_x
_atom_site_fract_y
_atom_site_fract_z
Si Si1 0.957166 0.217356 0.586941
Si Si2 0.298143 0.783237 0.633988
Si Si3 0.277019 0.715293 0.304923
Si Si4 0.605096 0.500000 0.138096
Si Si5 0.576687 0.705246 0.765354
Si Si6 0.299162 0.500000 0.912571
O O1 0.073151 0.261086 0.621115
O O2 0.011619 0.277222 0.673578
O O3 0.808946 0.281827 0.474845
O O4 0.948731 0.000000 0.584019
O O5 0.239552 0.739104 0.649421
O O6 0.450328 0.711865 0.722043
O O7 0.305524 0.000000 0.635783
O O8 0.258813 0.500000 0.287902
O O9 0.166957 0.826790 0.204327
O O10 0.659138 0.500000 0.117448
O O11 0.440489 0.500000 0.031802
O O12 0.621034 0.500000 0.785921
O O13 0.703217 0.828180 0.860694
#
# Coordination Sequence:
#
# PCOD9199722 Si02
#       6
#     8   8   8   4   8   4
#     4   9  18  35  59  90 122 165 196 235 293 356
#     4  10  20  36  61  88 130 163 193 236 297 355
#     4  10  21  39  61  89 125 157 197 247 296 354
#     4  11  24  42  68  89 110 152 205 261 299 355
#     4  11  22  39  61  88 123 159 199 247 292 358
#     4  11  24  44  65  88 114 151 203 259 311 339
#
# _framework density 19.950109999999999
#
# number of rings (size 3 to 8) (size 9 to 14) (size 15 to 20)
#    0.000    1.800    3.000    1.200    1.400    3.200 
#    3.600    4.000    0.000    0.000    0.000    0.000 
#    0.000    0.000    0.000    0.000    0.000    0.000 
#
# Total GULP energy -111784.982875 kJ/mol
# GULP energy per Si atom -5589.249144 kJ/mol
# Density = 1.990470 g / cm^3
# Si number density = 19.950110 Si / 1000 Ang^3
#
#
#
# Elastic Constant Matrix: (Units=GPa)
#
#
# Indices 1 2 3 4 5 6 
#
# 1 45.1597 -3.7138 -12.4682 0.0004 14.4429 0.0006
# 2 -3.7138 79.4862 30.3547 0.0004 5.3105 0.0010
# 3 -12.4682 30.3547 107.5757 -0.0001 21.5043 0.0003
# 4 0.0004 0.0004 -0.0001 36.2195 -0.0001 24.4563
# 5 14.4429 5.3105 21.5043 -0.0001 26.4730 0.0000
# 6 0.0006 0.0010 0.0003 24.4563 0.0000 73.4572
#
#
#
# Elastic Compliance Matrix: (Units=1/GPa)
#
#
# Indices 1 2 3 4 5 6 
#
# 1 0.032490 -0.000175 0.008777 0.000000 -0.024820 0.000000
# 2 -0.000175 0.014106 -0.004124 0.000000 0.000616 0.000000
# 3 0.008777 -0.004124 0.014647 0.000000 -0.015859 0.000000
# 4 0.000000 0.000000 0.000000 0.035616 0.000000 -0.011858
# 5 -0.024820 0.000616 -0.015859 0.000000 0.064074 0.000000
# 6 0.000000 0.000000 0.000000 -0.011858 0.000000 0.017561
#
#
# Mechanical properties :
#
#
# Convention : Reuss Voigt Hill
#
# Bulk Modulus (GPa) = 14.24540 28.95189 21.59864
# Shear Modulus (GPa) = 25.91490 41.76655 33.84072
#
# Velocity S-wave (km/s) = 3.60805 4.58050 4.12304
# Velocity P-wave (km/s) = 4.95110 6.52060 5.78929
#
# Compressibility (1/GPa) = 0.07019811
#
# Stress axis : x y z
#
# Youngs Moduli (GPa) = 30.77848 70.89034 68.27445
#
# Poissons Ratio (x) = 0.01244 -0.59922
# Poissons Ratio (y) = 0.00540 0.28155
# Poissons Ratio (z) = -0.27013 0.29234
#
# Static dielectric constant tensor:
#      x y z
#    x 1.701650 0.000000 -0.001080 
#    y 0.000000 1.721570 0.000000 
#    z -0.001080 0.000000 1.655480 
# 
# From -- ./inp_files/162424.got.cif
#   From: 2010.05.17/outbox.cif.g08.bks.cpg/sg12_82_cif.got.tgz:162424.got - 2010.06.03 13:09:07.
