data_PCOD9199794
_publ_section_title
;
Structure prediction by ZEFSAII (Michael W. Deem and Ramdas Pophale) SiO2 
 PCOD9199794
Probable space group: C 2/M
;
_chemical_formula_sum "Si O2"
_cell_formula_units_Z 40
_cell_length_a 26.735828
_cell_length_b 9.000024
_cell_length_c 21.131903
_cell_angle_alpha 90.000000
_cell_angle_beta 158.095290
_cell_angle_gamma 90.000000
_cell_volume 1896.965009
_symmetry_space_group_name_H-M "C 2/M"
_symmetry_group_IT_number 12
_symmetry_cell_setting 'monoclinic'
loop_
_space_group_symop_operation_xyz
x,y,z
-x,y,-z
-x,-y,-z
x,-y,z
1/2+x,1/2+y,z
1/2-x,1/2+y,-z
1/2-x,1/2-y,-z
1/2+x,1/2-y,z
loop_
_atom_site_type_symbol
_atom_site_label
_atom_site_fract_x
_atom_site_fract_y
_atom_site_fract_z
Si Si1 0.908042 0.669709 0.250390
Si Si2 0.653229 0.675734 0.199202
Si Si3 0.896535 0.824461 0.433577
Si Si4 0.361504 0.171353 0.044919
Si Si5 0.848043 0.321523 0.666961
O O1 0.936864 0.500000 0.302782
O O2 0.894312 0.674894 0.158479
O O3 0.025220 0.776393 0.411304
O O4 0.767725 0.725813 0.114902
O O5 0.673955 0.500000 0.230912
O O6 0.756048 0.740466 0.268634
O O7 0.680845 0.757349 0.297830
O O8 0.500000 0.702885 0.000000
O O9 0.000000 0.781260 0.500000
O O10 0.874413 0.000000 0.404796
O O11 0.496968 0.214653 0.168139
O O12 0.326680 0.000000 0.987541
O O13 0.834504 0.500000 0.649755
O O14 0.750000 0.250000 0.500000
#
# Coordination Sequence:
#
# PCOD9199794 Si02
#       5
#     8   8   8   8   8
#     4  10  20  36  61  91 125 162 206 260 315 375
#     4  11  26  46  67  96 134 174 221 275 330 392
#     4  11  25  43  65  92 125 168 215 264 320 387
#     4   9  20  37  58  89 125 163 205 256 315 379
#     4  11  23  40  66  95 130 173 220 271 326 391
#
# _framework density 21.086314000000002
#
# number of rings (size 3 to 8) (size 9 to 14) (size 15 to 20)
#    0.000    1.600    0.000    3.600    2.800    7.200 
#    0.000    0.000    0.000    0.000    0.000    0.000 
#    0.000    0.000    0.000    0.000    0.000    0.000 
#
# Total GULP energy -111900.268875 kJ/mol
# GULP energy per Si atom -5595.013444 kJ/mol
# Density = 2.103832 g / cm^3
# Si number density = 21.086314 Si / 1000 Ang^3
#
#
#
# Elastic Constant Matrix: (Units=GPa)
#
#
# Indices 1 2 3 4 5 6 
#
# 1 92.0639 46.8648 41.4833 0.0000 29.2747 0.0000
# 2 46.8648 53.5676 50.5659 0.0000 16.6640 0.0000
# 3 41.4833 50.5659 89.5805 0.0000 29.5934 0.0000
# 4 0.0000 0.0000 0.0000 27.4087 0.0000 13.2030
# 5 29.2747 16.6640 29.5934 0.0000 39.9256 0.0000
# 6 0.0000 0.0000 0.0000 13.2030 0.0000 16.0513
#
#
#
# Elastic Compliance Matrix: (Units=1/GPa)
#
#
# Indices 1 2 3 4 5 6 
#
# 1 0.023364 -0.021912 0.005545 0.000000 -0.012096 0.000000
# 2 -0.021912 0.060512 -0.027776 0.000000 0.011398 0.000000
# 3 0.005545 -0.027776 0.028852 0.000000 -0.013859 0.000000
# 4 0.000000 0.000000 0.000000 0.060428 0.000000 -0.049705
# 5 -0.012096 0.011398 -0.013859 0.000000 0.039431 0.000000
# 6 0.000000 0.000000 0.000000 -0.049705 0.000000 0.103185
#
#
# Mechanical properties :
#
#
# Convention : Reuss Voigt Hill
#
# Bulk Modulus (GPa) = 40.91179 57.00444 48.95812
# Shear Modulus (GPa) = 12.12988 23.09698 17.61343
#
# Velocity S-wave (km/s) = 2.40104 3.31320 2.89329
# Velocity P-wave (km/s) = 5.20873 6.45980 5.86770
#
# Compressibility (1/GPa) = 0.02444283
#
# Stress axis : x y z
#
# Youngs Moduli (GPa) = 42.80082 16.52560 34.65939
#
# Poissons Ratio (x) = 0.36212 -0.19220
# Poissons Ratio (y) = 0.93787 0.96269
# Poissons Ratio (z) = -0.23735 0.45901
#
# Static dielectric constant tensor:
#      x y z
#    x 1.777080 0.000000 0.004680 
#    y 0.000000 1.704540 0.000000 
#    z 0.004680 0.000000 1.753140 
# 
# From -- ./inp_files/162490.got.cif
#   From: 2010.05.17/outbox.cif.g08.bks.cpg/sg12_82_cif.got.tgz:162490.got - 2010.06.03 13:09:07.
