data_PCOD9199878
_publ_section_title
;
Structure prediction by ZEFSAII (Michael W. Deem and Ramdas Pophale) SiO2 
 PCOD9199878
Probable space group: C 2/M
;
_chemical_formula_sum "Si O2"
_cell_formula_units_Z 64
_cell_length_a 26.202190
_cell_length_b 8.576396
_cell_length_c 23.223257
_cell_angle_alpha 90.000000
_cell_angle_beta 38.750163
_cell_angle_gamma 90.000000
_cell_volume 3266.542573
_symmetry_space_group_name_H-M "C 2/M"
_symmetry_group_IT_number 12
_symmetry_cell_setting 'monoclinic'
loop_
_space_group_symop_operation_xyz
x,y,z
-x,y,-z
-x,-y,-z
x,-y,z
1/2+x,1/2+y,z
1/2-x,1/2+y,-z
1/2-x,1/2-y,-z
1/2+x,1/2-y,z
loop_
_atom_site_type_symbol
_atom_site_label
_atom_site_fract_x
_atom_site_fract_y
_atom_site_fract_z
Si Si1 0.685798 0.816658 0.885583
Si Si2 0.181489 0.689968 0.408792
Si Si3 0.155593 0.311791 0.301330
Si Si4 0.008979 0.689945 0.613448
Si Si5 0.196357 0.188074 0.600614
Si Si6 0.515288 0.813120 0.739185
Si Si7 0.448293 0.313041 0.910166
Si Si8 0.424681 0.676498 0.111326
O O1 0.775262 0.744442 0.803254
O O2 0.642156 0.774890 0.863141
O O3 0.689504 0.000000 0.889637
O O4 0.628477 0.745846 0.985719
O O5 0.181561 0.500000 0.408178
O O6 0.178306 0.742538 0.345623
O O7 0.097463 0.740709 0.513330
O O8 0.258184 0.736836 0.380316
O O9 0.155657 0.500000 0.301894
O O10 0.065903 0.259619 0.360640
O O11 0.010105 0.500000 0.611172
O O12 0.996164 0.737083 0.690788
O O13 0.250000 0.250000 0.500000
O O14 0.105693 0.253080 0.674612
O O15 0.194209 0.000000 0.600789
O O16 0.453803 0.747076 0.840763
O O17 0.514584 0.000000 0.741871
O O18 0.449200 0.500000 0.911479
O O19 0.531425 0.260866 0.870332
O O20 0.393058 0.500000 0.149209
O O21 0.500000 0.665295 0.000000
#
# Coordination Sequence:
#
# PCOD9199878 Si02
#       8
#     8   8   8   8   8   8   8   8
#     4  11  22  36  54  82 119 151 187 239 296 344
#     4   9  18  34  59  88 114 144 191 241 284 336
#     4  10  20  36  62  86 109 150 199 244 287 337
#     4   9  18  36  60  86 113 147 195 244 287 338
#     4  11  21  36  57  86 121 157 192 237 290 347
#     4  11  22  37  58  87 122 154 190 238 293 351
#     4  10  21  38  59  83 112 151 199 238 280 345
#     4   8  16  32  53  75 104 143 184 228 274 330
#
# _framework density 19.592580999999999
#
# number of rings (size 3 to 8) (size 9 to 14) (size 15 to 20)
#    0.000    2.125    1.250    3.375    1.750    4.250 
#    0.000    2.500    0.000    0.750    0.000    0.000 
#    0.000    0.000    0.000    0.000    0.000    0.000 
#
# Total GULP energy -178678.528282 kJ/mol
# GULP energy per Si atom -5583.704009 kJ/mol
# Density = 1.954799 g / cm^3
# Si number density = 19.592581 Si / 1000 Ang^3
#
#
#
# Elastic Constant Matrix: (Units=GPa)
#
#
# Indices 1 2 3 4 5 6 
#
# 1 91.6145 11.9306 24.2739 0.0168 12.7556 -0.0057
# 2 11.9306 27.3495 5.1763 0.0102 6.1611 0.0053
# 3 24.2739 5.1763 74.4000 0.0130 23.5749 -0.0085
# 4 0.0168 0.0102 0.0130 27.7216 -0.0078 -2.3818
# 5 12.7556 6.1611 23.5749 -0.0078 26.4010 0.0012
# 6 -0.0057 0.0053 -0.0085 -2.3818 0.0012 7.9617
#
#
#
# Elastic Compliance Matrix: (Units=1/GPa)
#
#
# Indices 1 2 3 4 5 6 
#
# 1 0.012628 -0.004402 -0.003076 -0.000005 -0.002327 0.000008
# 2 -0.004402 0.040130 0.001308 -0.000018 -0.008406 -0.000032
# 3 -0.003076 0.001308 0.019496 -0.000011 -0.016227 0.000017
# 4 -0.000005 -0.000018 -0.000011 0.037025 0.000027 0.011076
# 5 -0.002327 -0.008406 -0.016227 0.000027 0.055454 -0.000014
# 6 0.000008 -0.000032 0.000017 0.011076 -0.000014 0.128915
#
#
# Mechanical properties :
#
#
# Convention : Reuss Voigt Hill
#
# Bulk Modulus (GPa) = 16.69119 30.68062 23.68590
# Shear Modulus (GPa) = 15.33938 22.54906 18.94422
#
# Velocity S-wave (km/s) = 2.80110 3.39617 3.11289
# Velocity P-wave (km/s) = 4.35881 5.57422 5.00355
#
# Compressibility (1/GPa) = 0.05991186
#
# Stress axis : x y z
#
# Youngs Moduli (GPa) = 79.19139 24.91888 51.29378
#
# Poissons Ratio (x) = 0.10970 0.15780
# Poissons Ratio (y) = 0.34861 -0.06708
# Poissons Ratio (z) = 0.24363 -0.03259
#
# Static dielectric constant tensor:
#      x y z
#    x 1.693740 -0.000010 0.011680 
#    y -0.000010 1.668600 0.000000 
#    z 0.011680 0.000000 1.690300 
# 
# From -- ./inp_files/324143.got.cif
#   From: 2010.05.17/outbox.cif.g08.bks.cpg/sg12_163_cif.got.tgz:324143.got - 2010.06.03 13:09:07.
