data_PCOD9199867
_publ_section_title
;
Structure prediction by ZEFSAII (Michael W. Deem and Ramdas Pophale) SiO2 
 PCOD9199867
Probable space group: C 2/M
;
_chemical_formula_sum "Si O2"
_cell_formula_units_Z 46
_cell_length_a 9.257153
_cell_length_b 13.529670
_cell_length_c 28.975058
_cell_angle_alpha 90.000000
_cell_angle_beta 141.327473
_cell_angle_gamma 90.000000
_cell_volume 2267.657722
_symmetry_space_group_name_H-M "C 2/M"
_symmetry_group_IT_number 12
_symmetry_cell_setting 'monoclinic'
loop_
_space_group_symop_operation_xyz
x,y,z
-x,y,-z
-x,-y,-z
x,-y,z
1/2+x,1/2+y,z
1/2-x,1/2+y,-z
1/2-x,1/2-y,-z
1/2+x,1/2-y,z
loop_
_atom_site_type_symbol
_atom_site_label
_atom_site_fract_x
_atom_site_fract_y
_atom_site_fract_z
Si Si1 0.339797 0.187112 0.565887
Si Si2 0.823738 0.609953 0.811015
Si Si3 0.847210 0.204657 0.664360
Si Si4 0.008139 0.193460 0.900204
Si Si5 0.000000 0.247987 0.000000
Si Si6 0.459516 0.892157 0.235241
Si Si7 0.500000 0.500000 0.500000
O O1 0.250000 0.250000 0.500000
O O2 0.607739 0.162541 0.623171
O O3 0.328386 0.261039 0.606851
O O4 0.192212 0.088777 0.537306
O O5 0.836930 0.500000 0.833948
O O6 0.564556 0.634991 0.729568
O O7 0.914685 0.695403 0.866998
O O8 0.977905 0.614106 0.803130
O O9 0.904562 0.306303 0.705499
O O10 0.010253 0.183268 0.955964
O O11 0.814803 0.125049 0.829040
O O12 0.264326 0.188838 0.943538
O O13 0.528139 0.000000 0.269866
#
# Coordination Sequence:
#
# PCOD9199867 Si02
#       7
#     8   8   8   8   4   8   2
#     4  12  25  47  67  99 137 175 221 273 325 402
#     4  10  21  39  62  92 124 161 213 265 320 388
#     4  11  23  43  67  94 130 170 212 272 329 383
#     4  10  20  39  58  91 118 170 200 269 308 386
#     4  10  20  36  62  80 128 166 210 242 332 374
#     4  10  21  38  65  92 124 163 215 265 325 387
#     4  12  28  44  74  98 140 180 218 270 340 394
#
# _framework density 20.285246999999998
#
# number of rings (size 3 to 8) (size 9 to 14) (size 15 to 20)
#    0.000    1.391    5.217    0.000    2.435    0.000 
#    1.565    8.696    0.000    0.000    0.000    0.000 
#    0.000    0.000    0.000    0.000    0.000    0.000 
#
# Total GULP energy -128190.936117 kJ/mol
# GULP energy per Si atom -5573.518962 kJ/mol
# Density = 2.023908 g / cm^3
# Si number density = 20.285247 Si / 1000 Ang^3
#
#
#
# Elastic Constant Matrix: (Units=GPa)
#
#
# Indices 1 2 3 4 5 6 
#
# 1 97.5543 8.8692 41.3609 0.0000 33.9622 0.0000
# 2 8.8692 83.7401 22.5469 0.0000 6.7115 0.0000
# 3 41.3609 22.5469 83.9654 0.0000 29.4909 0.0000
# 4 0.0000 0.0000 0.0000 1.6096 0.0000 0.9998
# 5 33.9622 6.7115 29.4909 0.0000 59.3941 0.0000
# 6 0.0000 0.0000 0.0000 0.9998 0.0000 16.0005
#
#
#
# Elastic Compliance Matrix: (Units=1/GPa)
#
#
# Indices 1 2 3 4 5 6 
#
# 1 0.014401 0.000326 -0.005180 0.000000 -0.005700 0.000000
# 2 0.000326 0.012885 -0.003687 0.000000 0.000188 0.000000
# 3 -0.005180 -0.003687 0.017278 0.000000 -0.005200 0.000000
# 4 0.000000 0.000000 0.000000 0.646373 0.000000 -0.040390
# 5 -0.005700 0.000188 -0.005200 0.000000 0.022657 0.000000
# 6 0.000000 0.000000 0.000000 -0.040390 0.000000 0.065022
#
#
# Mechanical properties :
#
#
# Convention : Reuss Voigt Hill
#
# Bulk Modulus (GPa) = 36.38540 45.64595 41.01568
# Shear Modulus (GPa) = 6.21228 28.23301 17.22265
#
# Velocity S-wave (km/s) = 1.75189 3.73473 2.91696
# Velocity P-wave (km/s) = 4.69766 6.41471 5.62212
#
# Compressibility (1/GPa) = 0.02748355
#
# Stress axis : x y z
#
# Youngs Moduli (GPa) = 69.43728 77.61143 57.87832
#
# Poissons Ratio (x) = -0.02531 0.29979
# Poissons Ratio (y) = -0.02265 0.21337
# Poissons Ratio (z) = 0.35966 0.28612
#
# Static dielectric constant tensor:
#      x y z
#    x 1.737470 0.000000 -0.004790 
#    y 0.000000 1.674610 0.000000 
#    z -0.004790 0.000000 1.766180 
# 
# From -- ./inp_files/372336.got.cif
#   From: 2010.05.17/outbox.cif.g08.bks.cpg/sg12_187_cif.got.tgz:372336.got - 2010.06.03 13:09:07.
