data_PCOD9199887
_publ_section_title
;
Structure prediction by ZEFSAII (Michael W. Deem and Ramdas Pophale) SiO2 
 PCOD9199887
Probable space group: C 2/M
;
_chemical_formula_sum "Si O2"
_cell_formula_units_Z 44
_cell_length_a 29.555910
_cell_length_b 9.481795
_cell_length_c 13.993719
_cell_angle_alpha 90.000000
_cell_angle_beta 151.587278
_cell_angle_gamma 90.000000
_cell_volume 1865.994228
_symmetry_space_group_name_H-M "C 2/M"
_symmetry_group_IT_number 12
_symmetry_cell_setting 'monoclinic'
loop_
_space_group_symop_operation_xyz
x,y,z
-x,y,-z
-x,-y,-z
x,-y,z
1/2+x,1/2+y,z
1/2-x,1/2+y,-z
1/2-x,1/2-y,-z
1/2+x,1/2-y,z
loop_
_atom_site_type_symbol
_atom_site_label
_atom_site_fract_x
_atom_site_fract_y
_atom_site_fract_z
Si Si1 0.791283 0.000000 0.077865
Si Si2 0.951074 0.160221 0.696850
Si Si3 0.739489 0.268872 0.107803
Si Si4 0.048121 0.342287 0.490281
Si Si5 0.610024 0.163096 0.242549
Si Si6 0.832974 0.838387 0.827083
O O1 0.830138 0.125159 0.076578
O O2 0.752355 0.122756 0.079116
O O3 0.960619 0.234284 0.612277
O O4 0.891744 0.259304 0.658528
O O5 0.913968 0.000000 0.620657
O O6 0.056049 0.153276 0.937203
O O7 0.839396 0.350954 0.282073
O O8 0.716582 0.260467 0.176496
O O9 0.012256 0.500000 0.398579
O O10 0.000000 0.299247 0.500000
O O11 0.668281 0.253353 0.273573
O O12 0.639599 0.000000 0.302877
O O13 0.500000 0.162412 0.000000
O O14 0.798040 0.000000 0.755362
#
# Coordination Sequence:
#
# PCOD9199887 Si02
#       6
#     4   8   8   8   8   8
#     4  10  24  38  64  80 120 154 200 238 292 334
#     4  10  22  37  59  87 120 156 194 239 292 345
#     4  11  23  41  59  88 116 154 198 245 285 347
#     4  11  25  40  58  86 123 157 192 237 293 349
#     4   9  18  35  58  88 117 150 194 243 290 343
#     4  10  20  36  62  88 117 153 198 245 288 338
#
# _framework density 23.579923000000001
#
# number of rings (size 3 to 8) (size 9 to 14) (size 15 to 20)
#    0.000    1.818    1.818    1.091    7.636    3.273 
#    0.000    0.909    0.000    0.000    0.000    0.000 
#    0.000    0.000    0.000    0.000    0.000    0.000 
#
# Total GULP energy -122607.959754 kJ/mol
# GULP energy per Si atom -5573.089080 kJ/mol
# Density = 2.352625 g / cm^3
# Si number density = 23.579923 Si / 1000 Ang^3
#
#
#
# Elastic Constant Matrix: (Units=GPa)
#
#
# Indices 1 2 3 4 5 6 
#
# 1 170.5292 64.2950 22.0282 0.0000 -55.0445 0.0000
# 2 64.2950 199.1668 42.8463 0.0000 -63.8936 0.0000
# 3 22.0282 42.8463 51.3609 0.0000 -17.5169 0.0000
# 4 0.0000 0.0000 0.0000 27.0418 0.0000 -25.6109
# 5 -55.0445 -63.8936 -17.5169 0.0000 48.7965 0.0000
# 6 0.0000 0.0000 0.0000 -25.6109 0.0000 -67.1004
#
#
#
# Elastic Compliance Matrix: (Units=1/GPa)
#
#
# Indices 1 2 3 4 5 6 
#
# 1 0.009294 0.000765 -0.000806 0.000000 0.011196 0.000000
# 2 0.000765 0.009434 -0.004206 0.000000 0.011706 0.000000
# 3 -0.000806 -0.004206 0.024085 0.000000 0.002230 0.000000
# 4 0.000000 0.000000 0.000000 0.027161 0.000000 -0.010367
# 5 0.011196 0.011706 0.002230 0.000000 0.049251 0.000000
# 6 0.000000 0.000000 0.000000 -0.010367 0.000000 -0.010946
#
#
# Mechanical properties :
#
#
# Convention : Reuss Voigt Hill
#
# Bulk Modulus (GPa) = 29.13798 75.48841 52.31320
# Shear Modulus (GPa) = 38.99804 21.20673 30.10238
#
# Velocity S-wave (km/s) = 4.07119 3.00218 3.57685
# Velocity P-wave (km/s) = 5.87225 6.64084 6.26834
#
# Compressibility (1/GPa) = 0.03431947
#
# Stress axis : x y z
#
# Youngs Moduli (GPa) = 107.59976 105.99855 41.52007
#
# Poissons Ratio (x) = -0.08107 0.03345
# Poissons Ratio (y) = -0.08229 0.17462
# Poissons Ratio (z) = 0.08668 0.44581
#
# Static dielectric constant tensor:
#      x y z
#    x 1.838430 0.000000 0.039010 
#    y 0.000000 1.824510 0.000000 
#    z 0.039010 0.000000 2.046100 
# 
# From -- ./inp_files/181288.got.cif
#   From: 2010.05.17/outbox.cif.g08.bks.cpg/sg12_91_cif.got.tgz:181288.got - 2010.06.03 13:09:07.
