data_PCOD9199278
_publ_section_title
;
Structure prediction by ZEFSAII (Michael W. Deem and Ramdas Pophale) SiO2 
 PCOD9199278
Probable space group: C 2/M
;
_chemical_formula_sum "Si O2"
_cell_formula_units_Z 48
_cell_length_a 26.008450
_cell_length_b 9.516099
_cell_length_c 10.815824
_cell_angle_alpha 90.000000
_cell_angle_beta 112.770817
_cell_angle_gamma 90.000000
_cell_volume 2468.268545
_symmetry_space_group_name_H-M "C 2/M"
_symmetry_group_IT_number 12
_symmetry_cell_setting 'monoclinic'
loop_
_space_group_symop_operation_xyz
x,y,z
-x,y,-z
-x,-y,-z
x,-y,z
1/2+x,1/2+y,z
1/2-x,1/2+y,-z
1/2-x,1/2-y,-z
1/2+x,1/2-y,z
loop_
_atom_site_type_symbol
_atom_site_label
_atom_site_fract_x
_atom_site_fract_y
_atom_site_fract_z
Si Si1 0.344660 0.158085 0.831071
Si Si2 0.135451 0.340382 0.631708
Si Si3 0.256274 0.654476 0.622680
Si Si4 0.968566 0.333691 0.842986
Si Si5 0.691725 0.164689 0.930418
Si Si6 0.960386 0.832722 0.583776
O O1 0.300675 0.273491 0.751450
O O2 0.403264 0.178573 0.818091
O O3 0.324756 0.000000 0.779466
O O4 0.344820 0.165687 0.979170
O O5 0.111691 0.500000 0.617670
O O6 0.195919 0.351549 0.627006
O O7 0.151512 0.284810 0.782714
O O8 0.096501 0.241911 0.513842
O O9 0.275377 0.500000 0.606137
O O10 0.250000 0.750000 0.500000
O O11 0.980708 0.500000 0.831479
O O12 0.979767 0.244118 0.729031
O O13 0.000000 0.292864 0.000000
O O14 0.705979 0.000000 0.917420
O O15 0.750000 0.250000 0.000000
O O16 0.000000 0.814087 0.500000
O O17 0.954281 0.000000 0.599767
#
# Coordination Sequence:
#
# PCOD9199278 Si02
#       6
#     8   8   8   8   8   8
#     4  10  21  37  59  89 123 156 199 252 303 362
#     4  10  22  39  61  88 120 159 206 251 298 363
#     4  11  22  36  56  85 118 155 198 244 300 365
#     4  10  23  43  68  95 122 160 211 260 309 368
#     4  10  20  36  59  90 125 159 201 248 300 363
#     4  11  26  45  64  92 126 162 206 256 313 373
#
# _framework density 19.446829000000001
#
# number of rings (size 3 to 8) (size 9 to 14) (size 15 to 20)
#    0.000    1.667    1.667    2.000    2.333    8.333 
#    0.000    0.000    0.000    0.000    0.000    0.000 
#    0.000    0.000    0.000    0.000    0.000    0.000 
#
# Total GULP energy -133896.096619 kJ/mol
# GULP energy per Si atom -5579.004026 kJ/mol
# Density = 1.940257 g / cm^3
# Si number density = 19.446829 Si / 1000 Ang^3
#
#
#
# Elastic Constant Matrix: (Units=GPa)
#
#
# Indices 1 2 3 4 5 6 
#
# 1 45.8207 38.2803 25.3367 0.0000 -10.8011 0.0000
# 2 38.2803 114.1987 76.8868 0.0000 -4.4836 0.0000
# 3 25.3367 76.8868 149.1673 0.0000 -12.4885 0.0000
# 4 0.0000 0.0000 0.0000 28.1348 0.0000 -9.6885
# 5 -10.8011 -4.4836 -12.4885 0.0000 32.9488 0.0000
# 6 0.0000 0.0000 0.0000 -9.6885 0.0000 16.5007
#
#
#
# Elastic Compliance Matrix: (Units=1/GPa)
#
#
# Indices 1 2 3 4 5 6 
#
# 1 0.033060 -0.011436 0.001091 0.000000 0.009695 0.000000
# 2 -0.011436 0.017388 -0.007370 0.000000 -0.004176 0.000000
# 3 0.001091 -0.007370 0.010600 0.000000 0.003372 0.000000
# 4 0.000000 0.000000 0.000000 0.044551 0.000000 0.026159
# 5 0.009695 -0.004176 0.003372 0.000000 0.034238 0.000000
# 6 0.000000 0.000000 0.000000 0.026159 0.000000 0.075963
#
#
# Mechanical properties :
#
#
# Convention : Reuss Voigt Hill
#
# Bulk Modulus (GPa) = 39.03461 65.57715 52.30588
# Shear Modulus (GPa) = 19.24793 26.76237 23.00515
#
# Velocity S-wave (km/s) = 3.14948 3.71372 3.44317
# Velocity P-wave (km/s) = 5.77422 7.22381 6.53931
#
# Compressibility (1/GPa) = 0.02561829
#
# Stress axis : x y z
#
# Youngs Moduli (GPa) = 30.24782 57.51164 94.34382
#
# Poissons Ratio (x) = 0.65769 -0.10290
# Poissons Ratio (y) = 0.34591 0.69527
# Poissons Ratio (z) = -0.03299 0.42384
#
# Static dielectric constant tensor:
#      x y z
#    x 1.660420 0.000000 -0.040090 
#    y 0.000000 1.671470 0.000000 
#    z -0.040090 0.000000 1.733370 
# 
# From -- ./inp_files/180243.got.cif
#   From: 2010.05.17/outbox.cif.g08.bks.cpg/sg12_91_cif.got.tgz:180243.got - 2010.06.03 13:09:07.
