data_PCOD9199650
_publ_section_title
;
Structure prediction by ZEFSAII (Michael W. Deem and Ramdas Pophale) SiO2 
 PCOD9199650
Probable space group: C 2/M
;
_chemical_formula_sum "Si O2"
_cell_formula_units_Z 30
_cell_length_a 14.293282
_cell_length_b 20.557389
_cell_length_c 6.974927
_cell_angle_alpha 90.000000
_cell_angle_beta 142.027413
_cell_angle_gamma 90.000000
_cell_volume 1261.001128
_symmetry_space_group_name_H-M "C 2/M"
_symmetry_group_IT_number 12
_symmetry_cell_setting 'monoclinic'
loop_
_space_group_symop_operation_xyz
x,y,z
-x,y,-z
-x,-y,-z
x,-y,z
1/2+x,1/2+y,z
1/2-x,1/2+y,-z
1/2-x,1/2-y,-z
1/2+x,1/2-y,z
loop_
_atom_site_type_symbol
_atom_site_label
_atom_site_fract_x
_atom_site_fract_y
_atom_site_fract_z
Si Si1 0.171193 0.077392 0.820035
Si Si2 0.000000 0.000000 0.000000
Si Si3 0.000000 0.227416 0.000000
Si Si4 0.781691 0.110135 0.654851
Si Si5 0.037493 0.345091 0.787511
O O1 0.000000 0.098606 0.500000
O O2 0.186247 0.000000 0.813568
O O3 0.196926 0.088675 0.088317
O O4 0.301724 0.119145 0.929542
O O5 0.113712 0.056390 0.274569
O O6 0.856834 0.179957 0.739299
O O7 0.034360 0.274361 0.877420
O O8 0.601631 0.115116 0.342062
O O9 0.000000 0.340560 0.500000
#
# Coordination Sequence:
#
# PCOD9199650 Si02
#       5
#     8   2   4   8   8
#     4  10  22  41  65  97 133 173 220 275 330 384
#     4  10  20  36  60  94 120 162 220 262 322 372
#     4  11  24  43  63 104 135 170 222 268 329 390
#     4  10  22  40  68  92 131 175 215 272 321 395
#     4  10  24  42  68  98 129 179 217 272 324 394
#
# _framework density 23.790620000000001
#
# number of rings (size 3 to 8) (size 9 to 14) (size 15 to 20)
#    0.000    1.867    1.333    0.800    1.867   13.333 
#    0.000    0.667    0.000    0.000    0.000    0.000 
#    0.000    0.000    0.000    0.000    0.000    0.000 
#
# Total GULP energy -83737.742562 kJ/mol
# GULP energy per Si atom -5582.516171 kJ/mol
# Density = 2.373647 g / cm^3
# Si number density = 23.790620 Si / 1000 Ang^3
#
#
#
# Elastic Constant Matrix: (Units=GPa)
#
#
# Indices 1 2 3 4 5 6 
#
# 1 125.0698 60.5919 57.9366 0.0000 27.2317 0.0000
# 2 60.5919 171.3617 82.8123 0.0000 36.1880 0.0000
# 3 57.9366 82.8123 167.8844 0.0000 45.6474 0.0000
# 4 0.0000 0.0000 0.0000 13.1279 0.0000 -17.7332
# 5 27.2317 36.1880 45.6474 0.0000 53.9503 0.0000
# 6 0.0000 0.0000 0.0000 -17.7332 0.0000 50.4710
#
#
#
# Elastic Compliance Matrix: (Units=1/GPa)
#
#
# Indices 1 2 3 4 5 6 
#
# 1 0.010463 -0.002344 -0.001878 0.000000 -0.002120 0.000000
# 2 -0.002344 0.008461 -0.002783 0.000000 -0.002137 0.000000
# 3 -0.001878 -0.002783 0.009367 0.000000 -0.005111 0.000000
# 4 0.000000 0.000000 0.000000 0.144985 0.000000 0.050941
# 5 -0.002120 -0.002137 -0.005111 0.000000 0.025363 0.000000
# 6 0.000000 0.000000 0.000000 0.050941 0.000000 0.037712
#
#
# Mechanical properties :
#
#
# Convention : Reuss Voigt Hill
#
# Bulk Modulus (GPa) = 70.03169 96.33303 83.18236
# Shear Modulus (GPa) = 19.59850 41.04154 30.32002
#
# Velocity S-wave (km/s) = 2.87329 4.15796 3.57382
# Velocity P-wave (km/s) = 6.36461 7.97693 7.21594
#
# Compressibility (1/GPa) = 0.01427925
#
# Stress axis : x y z
#
# Youngs Moduli (GPa) = 95.57725 118.18976 106.75651
#
# Poissons Ratio (x) = 0.27708 0.20048
# Poissons Ratio (y) = 0.22407 0.29716
# Poissons Ratio (z) = 0.17949 0.32898
#
# Static dielectric constant tensor:
#      x y z
#    x 2.119300 0.000000 -0.038800 
#    y 0.000000 1.843160 0.000000 
#    z -0.038800 0.000000 1.955470 
# 
# From -- ./inp_files/77873.got.cif
#   From: 2010.05.17/outbox.cif.g08.bks.cpg/sg12_39_cif.got.tgz:77873.got - 2010.06.03 13:09:07.
