data_PCOD9199838
_publ_section_title
;
Structure prediction by ZEFSAII (Michael W. Deem and Ramdas Pophale) SiO2 
 PCOD9199838
Probable space group: C 2/M
;
_chemical_formula_sum "Si O2"
_cell_formula_units_Z 64
_cell_length_a 9.147816
_cell_length_b 28.077101
_cell_length_c 15.658948
_cell_angle_alpha 90.000000
_cell_angle_beta 48.377407
_cell_angle_gamma 90.000000
_cell_volume 3006.522883
_symmetry_space_group_name_H-M "C 2/M"
_symmetry_group_IT_number 12
_symmetry_cell_setting 'monoclinic'
loop_
_space_group_symop_operation_xyz
x,y,z
-x,y,-z
-x,-y,-z
x,-y,z
1/2+x,1/2+y,z
1/2-x,1/2+y,-z
1/2-x,1/2-y,-z
1/2+x,1/2-y,z
loop_
_atom_site_type_symbol
_atom_site_label
_atom_site_fract_x
_atom_site_fract_y
_atom_site_fract_z
Si Si1 0.708272 0.343970 0.405285
Si Si2 0.214349 0.447252 0.664358
Si Si3 0.815583 0.555169 0.130014
Si Si4 0.585836 0.054552 0.376488
Si Si5 0.488990 0.230286 0.259172
Si Si6 0.430947 0.706899 0.121902
Si Si7 0.447211 0.380901 0.222814
Si Si8 0.276497 0.809971 0.561496
O O1 0.500000 0.319781 0.500000
O O2 0.673426 0.397381 0.387109
O O3 0.854859 0.315199 0.288763
O O4 0.798471 0.337829 0.463765
O O5 0.311716 0.500000 0.624201
O O6 0.123533 0.444250 0.794022
O O7 0.069786 0.445350 0.639778
O O8 0.756805 0.500000 0.133895
O O9 0.636520 0.591021 0.182668
O O10 0.000000 0.567262 0.000000
O O11 0.500000 0.073615 0.500000
O O12 0.775449 0.082000 0.272054
O O13 0.641434 0.000000 0.373204
O O14 0.521111 0.259774 0.160242
O O15 0.695932 0.214638 0.217309
O O16 0.357545 0.262417 0.375014
O O17 0.485520 0.653160 0.127422
O O18 0.500000 0.717971 0.000000
O O19 0.348097 0.345972 0.330881
O O20 0.500000 0.799682 0.500000
#
# Coordination Sequence:
#
# PCOD9199838 Si02
#       8
#     8   8   8   8   8   8   8   8
#     4  12  22  35  59  89 121 162 207 254 315 382
#     4  10  22  39  59  90 130 169 214 266 321 387
#     4  10  23  44  66  89 124 171 224 280 328 375
#     4  10  20  36  61  93 132 173 209 254 317 387
#     4  11  23  42  64  90 124 165 214 263 319 386
#     4  11  25  44  65  91 124 162 209 270 330 384
#     4  11  22  39  63  93 124 165 214 264 322 385
#     4  11  22  39  61  91 129 166 208 256 311 382
#
# _framework density 21.287049
#
# number of rings (size 3 to 8) (size 9 to 14) (size 15 to 20)
#    0.000    1.250    0.000    7.125    0.000    3.250 
#    0.000    6.250    0.000    3.750    0.000    0.000 
#    0.000    0.000    0.000    0.000    0.000    0.000 
#
# Total GULP energy -178639.451117 kJ/mol
# GULP energy per Si atom -5582.482847 kJ/mol
# Density = 2.123860 g / cm^3
# Si number density = 21.287049 Si / 1000 Ang^3
#
#
#
# Elastic Constant Matrix: (Units=GPa)
#
#
# Indices 1 2 3 4 5 6 
#
# 1 65.5356 11.5521 29.6069 0.0000 -2.5524 0.0000
# 2 11.5521 95.2575 27.8927 0.0000 -6.7347 0.0000
# 3 29.6069 27.8927 105.1449 0.0000 12.5074 0.0000
# 4 0.0000 0.0000 0.0000 9.4812 0.0000 -4.0061
# 5 -2.5524 -6.7347 12.5074 0.0000 38.3597 0.0000
# 6 0.0000 0.0000 0.0000 -4.0061 0.0000 26.3011
#
#
#
# Elastic Compliance Matrix: (Units=1/GPa)
#
#
# Indices 1 2 3 4 5 6 
#
# 1 0.017810 -0.000427 -0.005237 0.000000 0.002817 0.000000
# 2 -0.000427 0.011759 -0.003372 0.000000 0.003135 0.000000
# 3 -0.005237 -0.003372 0.012476 0.000000 -0.005008 0.000000
# 4 0.000000 0.000000 0.000000 0.112726 0.000000 0.017170
# 5 0.002817 0.003135 -0.005008 0.000000 0.028440 0.000000
# 6 0.000000 0.000000 0.000000 0.017170 0.000000 0.040637
#
#
# Mechanical properties :
#
#
# Convention : Reuss Voigt Hill
#
# Bulk Modulus (GPa) = 41.71533 44.89351 43.30442
# Shear Modulus (GPa) = 20.00724 27.95415 23.98069
#
# Velocity S-wave (km/s) = 3.06907 3.62774 3.36004
# Velocity P-wave (km/s) = 5.67433 6.21954 5.95318
#
# Compressibility (1/GPa) = 0.02397200
#
# Stress axis : x y z
#
# Youngs Moduli (GPa) = 56.14917 85.04325 80.15702
#
# Poissons Ratio (x) = 0.03633 0.41976
# Poissons Ratio (y) = 0.02399 0.27029
# Poissons Ratio (z) = 0.29404 0.28677
#
# Static dielectric constant tensor:
#      x y z
#    x 3.853130 0.000000 -0.294590 
#    y 0.000000 1.846170 0.000000 
#    z -0.294590 0.000000 1.812560 
# 
# From -- ./inp_files/201258.got.cif
#   From: 2010.05.17/outbox.cif.g08.bks.cpg/sg12_101_cif.got.tgz:201258.got - 2010.06.03 13:09:07.
