data_PCOD9199004
_publ_section_title
;
Structure prediction by ZEFSAII (Michael W. Deem and Ramdas Pophale) SiO2 
 PCOD9199004
Probable space group: C 2/M
;
_chemical_formula_sum "Si O2"
_cell_formula_units_Z 40
_cell_length_a 6.848409
_cell_length_b 13.441188
_cell_length_c 21.439955
_cell_angle_alpha 90.000000
_cell_angle_beta 52.497701
_cell_angle_gamma 90.000000
_cell_volume 1565.685382
_symmetry_space_group_name_H-M "C 2/M"
_symmetry_group_IT_number 12
_symmetry_cell_setting 'monoclinic'
loop_
_space_group_symop_operation_xyz
x,y,z
-x,y,-z
-x,-y,-z
x,-y,z
1/2+x,1/2+y,z
1/2-x,1/2+y,-z
1/2-x,1/2-y,-z
1/2+x,1/2-y,z
loop_
_atom_site_type_symbol
_atom_site_label
_atom_site_fract_x
_atom_site_fract_y
_atom_site_fract_z
Si Si1 0.794298 0.886572 0.233009
Si Si2 0.423889 0.823269 0.604612
Si Si3 0.353593 0.888541 0.106243
Si Si4 0.596725 0.390233 0.560819
Si Si5 0.494280 0.331779 0.928129
O O1 0.629899 0.825442 0.311828
O O2 0.086265 0.873825 0.192067
O O3 0.785799 0.867473 0.160052
O O4 0.727718 0.000000 0.256758
O O5 0.436350 0.708030 0.582371
O O6 0.207878 0.877507 0.608570
O O7 0.669095 0.876053 0.530657
O O8 0.505961 0.787121 0.085509
O O9 0.444603 0.000000 0.102746
O O10 0.242498 0.883494 0.057132
O O11 0.488264 0.500000 0.574855
O O12 0.500000 0.353036 0.000000
#
# Coordination Sequence:
#
# PCOD9199004 Si02
#       5
#     8   8   8   8   8
#     4   9  20  35  58  82 110 146 182 226 275 323
#     4  10  20  36  59  84 111 146 186 225 273 328
#     4   9  21  37  56  81 108 145 182 226 277 320
#     4  10  21  38  59  82 112 148 183 226 275 325
#     4  10  20  37  58  81 111 145 184 226 270 327
#
# _framework density 25.547917000000002
#
# number of rings (size 3 to 8) (size 9 to 14) (size 15 to 20)
#    1.200    1.200    0.000    3.000    2.800    2.000 
#    0.000   12.000    0.000    0.000    0.000    0.000 
#    0.000    0.000    0.000    0.000    0.000    0.000 
#
# Total GULP energy -111694.142933 kJ/mol
# GULP energy per Si atom -5584.707147 kJ/mol
# Density = 2.548977 g / cm^3
# Si number density = 25.547917 Si / 1000 Ang^3
#
#
#
# Elastic Constant Matrix: (Units=GPa)
#
#
# Indices 1 2 3 4 5 6 
#
# 1 48.3956 16.1198 27.9380 -0.0004 9.5273 0.0002
# 2 16.1198 176.4807 23.1521 -0.0003 -1.9203 0.0002
# 3 27.9380 23.1521 166.1761 -0.0003 17.3563 0.0004
# 4 -0.0004 -0.0003 -0.0003 21.7598 0.0005 8.3207
# 5 9.5273 -1.9203 17.3563 0.0005 26.1361 -0.0004
# 6 0.0002 0.0002 0.0004 8.3207 -0.0004 24.7956
#
#
#
# Elastic Compliance Matrix: (Units=1/GPa)
#
#
# Indices 1 2 3 4 5 6 
#
# 1 0.024473 -0.001902 -0.003120 0.000001 -0.006989 0.000000
# 2 -0.001902 0.005946 -0.000673 0.000000 0.001577 0.000000
# 3 -0.003120 -0.000673 0.007008 0.000000 -0.003566 0.000000
# 4 0.000001 0.000000 0.000000 0.052722 -0.000002 -0.017692
# 5 -0.006989 0.001577 -0.003566 -0.000002 0.043293 0.000001
# 6 0.000000 0.000000 0.000000 -0.017692 0.000001 0.046267
#
#
# Mechanical properties :
#
#
# Convention : Reuss Voigt Hill
#
# Bulk Modulus (GPa) = 38.40623 58.38580 48.39601
# Shear Modulus (GPa) = 25.02774 36.12781 30.57777
#
# Velocity S-wave (km/s) = 3.13331 3.76456 3.46335
# Velocity P-wave (km/s) = 5.30621 6.46521 5.91417
#
# Compressibility (1/GPa) = 0.02603744
#
# Stress axis : x y z
#
# Youngs Moduli (GPa) = 40.86064 168.19213 142.68429
#
# Poissons Ratio (x) = 0.31994 0.44511
# Poissons Ratio (y) = 0.07773 0.09607
# Poissons Ratio (z) = 0.12747 0.11324
#
# Static dielectric constant tensor:
#      x y z
#    x 2.112020 0.000000 -0.018040 
#    y 0.000000 1.944270 0.000000 
#    z -0.018040 0.000000 2.085270 
# 
# From -- ./inp_files/335049.got.cif
#   From: 2010.05.17/outbox.cif.g08.bks.cpg/sg12_168_cif.got.tgz:335049.got - 2010.06.03 13:09:07.
