data_PCOD9199114
_publ_section_title
;
Structure prediction by ZEFSAII (Michael W. Deem and Ramdas Pophale) SiO2 
 PCOD9199114
Probable space group: C 2/M
;
_chemical_formula_sum "Si O2"
_cell_formula_units_Z 64
_cell_length_a 14.983309
_cell_length_b 7.828499
_cell_length_c 22.356793
_cell_angle_alpha 90.000000
_cell_angle_beta 86.863381
_cell_angle_gamma 90.000000
_cell_volume 2618.452134
_symmetry_space_group_name_H-M "C 2/M"
_symmetry_group_IT_number 12
_symmetry_cell_setting 'monoclinic'
loop_
_space_group_symop_operation_xyz
x,y,z
-x,y,-z
-x,-y,-z
x,-y,z
1/2+x,1/2+y,z
1/2-x,1/2+y,-z
1/2-x,1/2-y,-z
1/2+x,1/2-y,z
loop_
_atom_site_type_symbol
_atom_site_label
_atom_site_fract_x
_atom_site_fract_y
_atom_site_fract_z
Si Si1 0.018089 0.703496 0.396071
Si Si2 0.108536 0.707428 0.268222
Si Si3 0.189985 0.201856 0.446028
Si Si4 0.250662 0.298148 0.893532
Si Si5 0.449406 0.801277 0.861729
Si Si6 0.305124 0.194830 0.231361
Si Si7 0.337784 0.210612 0.355721
Si Si8 0.575784 0.694058 0.955445
O O1 0.012752 0.500000 0.394739
O O2 0.060273 0.759036 0.330906
O O3 0.087309 0.745130 0.445682
O O4 0.916587 0.765928 0.397467
O O5 0.122025 0.500000 0.268567
O O6 0.057527 0.744553 0.207969
O O7 0.202983 0.800836 0.258401
O O8 0.250000 0.250000 0.500000
O O9 0.244725 0.272525 0.386757
O O10 0.190528 0.000000 0.441588
O O11 0.264205 0.500000 0.885111
O O12 0.350165 0.222953 0.893900
O O13 0.206041 0.226078 0.833697
O O14 0.174396 0.270930 0.945726
O O15 0.524149 0.698707 0.894245
O O16 0.473565 0.000000 0.865429
O O17 0.355276 0.269229 0.287129
O O18 0.337683 0.000000 0.221804
O O19 0.336107 0.000000 0.353177
O O20 0.589048 0.500000 0.976192
O O21 0.500000 0.779012 0.000000
#
# Coordination Sequence:
#
# PCOD9199114 Si02
#       8
#     8   8   8   8   8   8   8   8
#     4  10  20  36  59  86 115 150 190 233 283 344
#     4   9  18  32  56  87 120 149 183 233 290 344
#     4  11  23  41  61  82 113 154 197 241 287 339
#     4  10  21  37  62  91 121 157 197 245 301 358
#     4  10  21  38  61  90 123 158 197 244 300 360
#     4   9  17  33  58  85 117 152 190 231 282 350
#     4   9  19  35  58  84 114 152 190 228 282 348
#     4  11  25  43  61  84 118 160 207 254 299 354
#
# _framework density 24.441921000000001
#
# number of rings (size 3 to 8) (size 9 to 14) (size 15 to 20)
#    0.000    2.125    1.250    1.500    1.750    3.000 
#    0.000    4.375    0.000    0.000    0.000    0.000 
#    0.000    0.000    0.000    0.000    0.000    0.000 
#
# Total GULP energy -178745.609697 kJ/mol
# GULP energy per Si atom -5585.800303 kJ/mol
# Density = 2.438629 g / cm^3
# Si number density = 24.441921 Si / 1000 Ang^3
#
#
#
# Elastic Constant Matrix: (Units=GPa)
#
#
# Indices 1 2 3 4 5 6 
#
# 1 108.9806 2.4003 13.7754 0.0000 5.9808 0.0000
# 2 2.4003 31.4252 -1.4205 0.0000 -3.2718 0.0000
# 3 13.7754 -1.4205 33.4331 0.0000 5.4653 0.0000
# 4 0.0000 0.0000 0.0000 15.5287 0.0000 3.9452
# 5 5.9808 -3.2718 5.4653 0.0000 36.6107 0.0000
# 6 0.0000 0.0000 0.0000 3.9452 0.0000 13.6744
#
#
#
# Elastic Compliance Matrix: (Units=1/GPa)
#
#
# Indices 1 2 3 4 5 6 
#
# 1 0.009750 -0.001035 -0.003880 0.000000 -0.001106 0.000000
# 2 -0.001035 0.032258 0.001331 0.000000 0.002853 0.000000
# 3 -0.003880 0.001331 0.032229 0.000000 -0.004058 0.000000
# 4 0.000000 0.000000 0.000000 0.069490 0.000000 -0.020049
# 5 -0.001106 0.002853 -0.004058 0.000000 0.028356 0.000000
# 6 0.000000 0.000000 0.000000 -0.020049 0.000000 0.078913
#
#
# Mechanical properties :
#
#
# Convention : Reuss Voigt Hill
#
# Bulk Modulus (GPa) = 14.91044 22.59437 18.75240
# Shear Modulus (GPa) = 17.82387 23.76833 20.79610
#
# Velocity S-wave (km/s) = 2.70336 3.12178 2.92008
# Velocity P-wave (km/s) = 3.98219 4.71786 4.36555
#
# Compressibility (1/GPa) = 0.06706711
#
# Stress axis : x y z
#
# Youngs Moduli (GPa) = 102.56476 31.00021 31.02764
#
# Poissons Ratio (x) = 0.03209 0.12040
# Poissons Ratio (y) = 0.10618 -0.04129
# Poissons Ratio (z) = 0.39800 -0.04125
#
# Static dielectric constant tensor:
#      x y z
#    x 1.923940 0.000000 -0.001560 
#    y 0.000000 1.909770 0.000000 
#    z -0.001560 0.000000 2.029880 
# 
# From -- ./inp_files/338892.got.cif
#   From: 2010.05.17/outbox.cif.g08.bks.cpg/sg12_170_cif.got.tgz:338892.got - 2010.06.03 13:09:07.
