data_PCOD9199829
_publ_section_title
;
Structure prediction by ZEFSAII (Michael W. Deem and Ramdas Pophale) SiO2 
 PCOD9199829
Probable space group: C 2/M
;
_chemical_formula_sum "Si O2"
_cell_formula_units_Z 36
_cell_length_a 5.115551
_cell_length_b 23.295152
_cell_length_c 16.954876
_cell_angle_alpha 90.000000
_cell_angle_beta 111.305290
_cell_angle_gamma 90.000000
_cell_volume 1882.387179
_symmetry_space_group_name_H-M "C 2/M"
_symmetry_group_IT_number 12
_symmetry_cell_setting 'monoclinic'
loop_
_space_group_symop_operation_xyz
x,y,z
-x,y,-z
-x,-y,-z
x,-y,z
1/2+x,1/2+y,z
1/2-x,1/2+y,-z
1/2-x,1/2-y,-z
1/2+x,1/2-y,z
loop_
_atom_site_type_symbol
_atom_site_label
_atom_site_fract_x
_atom_site_fract_y
_atom_site_fract_z
Si Si1 0.896441 0.711176 0.400125
Si Si2 0.380337 0.632877 0.751297
Si Si3 0.070113 0.787547 0.903049
Si Si4 0.000000 0.382804 0.000000
Si Si5 0.958689 0.567953 0.822067
O O1 0.651382 0.758600 0.382195
O O2 0.781920 0.655348 0.342865
O O3 0.000000 0.697629 0.500000
O O4 0.479062 0.690316 0.807435
O O5 0.655649 0.594711 0.768097
O O6 0.182391 0.599170 0.790702
O O7 0.297443 0.737251 0.915988
O O8 0.231432 0.841612 0.958005
O O9 0.022099 0.417923 0.921199
O O10 0.963802 0.500000 0.811197
#
# Coordination Sequence:
#
# PCOD9199829 Si02
#       5
#     8   8   8   4   8
#     4  10  20  36  61  93 124 150 178 217 273 345
#     4  11  22  38  59  84 112 150 188 229 285 335
#     4  11  21  34  52  79 114 144 176 218 273 343
#     4  10  23  38  56  82 108 150 193 238 288 330
#     4  11  24  41  59  78 107 148 200 249 283 321
#
# _framework density 19.124652000000001
#
# number of rings (size 3 to 8) (size 9 to 14) (size 15 to 20)
#    0.000    1.333    0.000    7.000    0.000    7.111 
#    0.000    5.556    0.000    4.000    0.000    0.000 
#    0.000    0.000    0.000    0.000    0.000    0.000 
#
# Total GULP energy -100685.734442 kJ/mol
# GULP energy per Si atom -5593.651913 kJ/mol
# Density = 1.908112 g / cm^3
# Si number density = 19.124652 Si / 1000 Ang^3
#
#
#
# Elastic Constant Matrix: (Units=GPa)
#
#
# Indices 1 2 3 4 5 6 
#
# 1 91.0149 9.4584 10.8662 0.0000 14.4458 0.0000
# 2 9.4584 72.0830 38.4043 0.0000 3.7196 0.0000
# 3 10.8662 38.4043 91.6796 0.0000 14.0787 0.0000
# 4 0.0000 0.0000 0.0000 17.2590 0.0000 0.1343
# 5 14.4458 3.7196 14.0787 0.0000 18.1180 0.0000
# 6 0.0000 0.0000 0.0000 0.1343 0.0000 -2.0688
#
#
#
# Elastic Compliance Matrix: (Units=1/GPa)
#
#
# Indices 1 2 3 4 5 6 
#
# 1 0.012706 -0.001517 0.000724 0.000000 -0.010382 0.000000
# 2 -0.001517 0.018135 -0.007984 0.000000 0.003690 0.000000
# 3 0.000724 -0.007984 0.015900 0.000000 -0.011294 0.000000
# 4 0.000000 0.000000 0.000000 0.057912 0.000000 0.003760
# 5 -0.010382 0.003690 -0.011294 0.000000 0.071489 0.000000
# 6 0.000000 0.000000 0.000000 0.003760 0.000000 -0.483123
#
#
# Mechanical properties :
#
#
# Convention : Reuss Voigt Hill
#
# Bulk Modulus (GPa) = 34.26095 41.35950 37.81022
# Shear Modulus (GPa) = -17.87644 19.73155 0.92755
#
# Velocity S-wave (km/s) = -3.06066 3.21555 0.69718
# Velocity P-wave (km/s) = 2.33736 5.95479 4.52343
#
# Compressibility (1/GPa) = 0.02918775
#
# Stress axis : x y z
#
# Youngs Moduli (GPa) = 78.70144 55.14188 62.89177
#
# Poissons Ratio (x) = 0.08366 -0.04552
# Poissons Ratio (y) = 0.11940 0.50210
# Poissons Ratio (z) = -0.05697 0.44023
#
# Static dielectric constant tensor:
#      x y z
#    x 1.671270 0.000000 0.000410 
#    y 0.000000 1.629590 0.000000 
#    z 0.000410 0.000000 1.701060 
# 
# From -- ./inp_files/252861.got.cif
#   From: 2010.05.17/outbox.cif.g08.bks.cpg/sg12_127_cif.got.tgz:252861.got - 2010.06.03 13:09:07.
