data_PCOD9199490
_publ_section_title
;
Structure prediction by ZEFSAII (Michael W. Deem and Ramdas Pophale) SiO2 
 PCOD9199490
Probable space group: C 2/M
;
_chemical_formula_sum "Si O2"
_cell_formula_units_Z 64
_cell_length_a 15.079190
_cell_length_b 9.111200
_cell_length_c 31.377883
_cell_angle_alpha 90.000000
_cell_angle_beta 52.424876
_cell_angle_gamma 90.000000
_cell_volume 3416.696122
_symmetry_space_group_name_H-M "C 2/M"
_symmetry_group_IT_number 12
_symmetry_cell_setting 'monoclinic'
loop_
_space_group_symop_operation_xyz
x,y,z
-x,y,-z
-x,-y,-z
x,-y,z
1/2+x,1/2+y,z
1/2-x,1/2+y,-z
1/2-x,1/2-y,-z
1/2+x,1/2-y,z
loop_
_atom_site_type_symbol
_atom_site_label
_atom_site_fract_x
_atom_site_fract_y
_atom_site_fract_z
Si Si1 0.756380 0.175407 0.167417
Si Si2 0.183568 0.824617 0.365907
Si Si3 0.800997 0.175604 0.252491
Si Si4 0.439009 0.322011 0.829492
Si Si5 0.756598 0.674128 0.566503
Si Si6 0.197593 0.836039 0.054375
Si Si7 0.577402 0.674446 0.546042
Si Si8 0.904015 0.667071 0.059069
O O1 0.763967 0.210229 0.215133
O O2 0.647078 0.247538 0.177883
O O3 0.864245 0.238878 0.110736
O O4 0.753263 0.000000 0.163155
O O5 0.230693 0.759983 0.308394
O O6 0.247703 0.754126 0.387117
O O7 0.052038 0.788217 0.410024
O O8 0.194400 0.000000 0.363396
O O9 0.932701 0.211359 0.217829
O O10 0.788830 0.000000 0.262101
O O11 0.424587 0.500000 0.832469
O O12 0.405120 0.274606 0.887677
O O13 0.767354 0.500000 0.569238
O O14 0.648917 0.701956 0.568019
O O15 0.862066 0.736959 0.509181
O O16 0.295293 0.843517 0.060979
O O17 0.168570 0.000000 0.048261
O O18 0.250000 0.750000 0.000000
O O19 0.585963 0.500000 0.533922
O O20 0.936960 0.500000 0.061883
O O21 0.000000 0.728701 0.000000
#
# Coordination Sequence:
#
# PCOD9199490 Si02
#       8
#     8   8   8   8   8   8   8   8
#     4  10  21  37  58  84 110 138 182 237 282 326
#     4  11  23  38  57  84 116 151 193 237 281 334
#     4  10  23  41  59  80 110 150 191 234 284 335
#     4   9  20  40  59  75 107 149 182 219 278 344
#     4  10  20  36  60  88 118 154 193 234 281 332
#     4   9  18  31  50  76 103 133 169 213 267 328
#     4   9  20  38  58  84 120 157 190 229 283 340
#     4   9  19  35  53  76 107 142 176 214 272 341
#
# _framework density 18.731545000000001
#
# number of rings (size 3 to 8) (size 9 to 14) (size 15 to 20)
#    0.000    2.375    0.000    2.250    1.750    7.750 
#    0.000    3.750    0.000    0.000    0.000    0.000 
#    0.000    0.000    0.000    0.000    0.000    0.000 
#
# Total GULP energy -178583.903185 kJ/mol
# GULP energy per Si atom -5580.746975 kJ/mol
# Density = 1.868891 g / cm^3
# Si number density = 18.731545 Si / 1000 Ang^3
#
#
#
# Elastic Constant Matrix: (Units=GPa)
#
#
# Indices 1 2 3 4 5 6 
#
# 1 61.4611 31.9509 34.9811 0.0000 12.6384 0.0000
# 2 31.9509 46.2328 44.6191 0.0000 17.1391 0.0000
# 3 34.9811 44.6191 88.4613 0.0000 26.2287 0.0000
# 4 0.0000 0.0000 0.0000 36.6455 0.0000 4.1127
# 5 12.6384 17.1391 26.2287 0.0000 28.4203 0.0000
# 6 0.0000 0.0000 0.0000 4.1127 0.0000 20.5444
#
#
#
# Elastic Compliance Matrix: (Units=1/GPa)
#
#
# Indices 1 2 3 4 5 6 
#
# 1 0.025640 -0.015479 -0.002366 0.000000 0.000116 0.000000
# 2 -0.015479 0.052848 -0.018071 0.000000 -0.008309 0.000000
# 3 -0.002366 -0.018071 0.024522 0.000000 -0.010681 0.000000
# 4 0.000000 0.000000 0.000000 0.027916 0.000000 -0.005588
# 5 0.000116 -0.008309 -0.010681 0.000000 0.050002 0.000000
# 6 0.000000 0.000000 0.000000 -0.005588 0.000000 0.049794
#
#
# Mechanical properties :
#
#
# Convention : Reuss Voigt Hill
#
# Bulk Modulus (GPa) = 32.07521 46.58415 39.32968
# Shear Modulus (GPa) = 15.97714 22.76230 19.36972
#
# Velocity S-wave (km/s) = 2.92371 3.48973 3.21918
# Velocity P-wave (km/s) = 5.34399 6.41568 5.90420
#
# Compressibility (1/GPa) = 0.03117673
#
# Stress axis : x y z
#
# Youngs Moduli (GPa) = 39.00129 18.92220 40.78005
#
# Poissons Ratio (x) = 0.29290 0.09649
# Poissons Ratio (y) = 0.60371 0.73695
# Poissons Ratio (z) = 0.09228 0.34195
#
# Static dielectric constant tensor:
#      x y z
#    x 1.651030 0.000000 -0.009710 
#    y 0.000000 1.642440 0.000000 
#    z -0.009710 0.000000 1.640340 
# 
# From -- ./inp_files/375463.got.cif
#   From: 2010.05.17/outbox.cif.g08.bks.cpg/sg12_188_cif.got.tgz:375463.got - 2010.06.03 13:09:07.
