data_PCOD9199405
_publ_section_title
;
Structure prediction by ZEFSAII (Michael W. Deem and Ramdas Pophale) SiO2 
 PCOD9199405
Probable space group: C 2/M
;
_chemical_formula_sum "Si O2"
_cell_formula_units_Z 32
_cell_length_a 9.063466
_cell_length_b 11.155732
_cell_length_c 13.713047
_cell_angle_alpha 90.000000
_cell_angle_beta 71.743626
_cell_angle_gamma 90.000000
_cell_volume 1316.729152
_symmetry_space_group_name_H-M "C 2/M"
_symmetry_group_IT_number 12
_symmetry_cell_setting 'monoclinic'
loop_
_space_group_symop_operation_xyz
x,y,z
-x,y,-z
-x,-y,-z
x,-y,z
1/2+x,1/2+y,z
1/2-x,1/2+y,-z
1/2-x,1/2-y,-z
1/2+x,1/2-y,z
loop_
_atom_site_type_symbol
_atom_site_label
_atom_site_fract_x
_atom_site_fract_y
_atom_site_fract_z
Si Si1 0.405055 0.237336 0.120433
Si Si2 0.320234 0.000000 0.059693
Si Si3 0.159156 0.195660 0.425838
Si Si4 0.350829 0.500000 0.101934
Si Si5 0.001274 0.636090 0.703872
O O1 0.348358 0.372139 0.156684
O O2 0.511544 0.195919 0.187798
O O3 0.288518 0.124789 0.122574
O O4 0.500000 0.249403 0.000000
O O5 0.500000 0.000000 0.000000
O O6 0.268049 0.000000 0.960392
O O7 0.250000 0.250000 0.500000
O O8 0.913301 0.289971 0.637292
O O9 0.309211 0.132412 0.347912
O O10 0.000000 0.135384 0.500000
O O11 0.500000 0.500000 0.000000
O O12 0.945354 0.500000 0.714601
#
# Coordination Sequence:
#
# PCOD9199405 Si02
#       5
#     8   4   8   4   8
#     4  10  22  42  63  98 140 184 229 277 337 409
#     4  10  20  36  60  86 122 178 224 264 326 388
#     4   9  22  45  70 100 135 171 230 295 357 419
#     4  10  22  38  60  86 128 182 228 278 324 384
#     4  11  23  43  71 103 140 185 231 284 353 427
#
# _framework density 24.302643
#
# number of rings (size 3 to 8) (size 9 to 14) (size 15 to 20)
#    0.000    2.000    1.250    0.750    0.000   13.000 
#    4.500    2.500    0.000    0.000    0.000    0.000 
#    0.000    0.000    0.000    0.000    0.000    0.000 
#
# Total GULP energy -89175.752156 kJ/mol
# GULP energy per Si atom -5573.484510 kJ/mol
# Density = 2.424733 g / cm^3
# Si number density = 24.302643 Si / 1000 Ang^3
#
#
#
# Elastic Constant Matrix: (Units=GPa)
#
#
# Indices 1 2 3 4 5 6 
#
# 1 141.2747 44.3716 41.5934 0.0000 8.1319 0.0000
# 2 44.3716 250.8835 48.6564 0.0000 28.6136 0.0000
# 3 41.5934 48.6564 121.3091 0.0000 24.0848 0.0000
# 4 0.0000 0.0000 0.0000 40.3066 0.0000 2.4971
# 5 8.1319 28.6136 24.0848 0.0000 57.8632 0.0000
# 6 0.0000 0.0000 0.0000 2.4971 0.0000 35.2427
#
#
#
# Elastic Compliance Matrix: (Units=1/GPa)
#
#
# Indices 1 2 3 4 5 6 
#
# 1 0.008091 -0.000999 -0.002448 0.000000 0.000376 0.000000
# 2 -0.000999 0.004576 -0.001168 0.000000 -0.001636 0.000000
# 3 -0.002448 -0.001168 0.010212 0.000000 -0.003329 0.000000
# 4 0.000000 0.000000 0.000000 0.024919 0.000000 -0.001766
# 5 0.000376 -0.001636 -0.003329 0.000000 0.019424 0.000000
# 6 0.000000 0.000000 0.000000 -0.001766 0.000000 0.028500
#
#
# Mechanical properties :
#
#
# Convention : Reuss Voigt Hill
#
# Bulk Modulus (GPa) = 73.26591 86.96778 80.11685
# Shear Modulus (GPa) = 45.66110 51.93891 48.80001
#
# Velocity S-wave (km/s) = 4.33928 4.62797 4.48595
# Velocity P-wave (km/s) = 7.43764 8.02624 7.73754
#
# Compressibility (1/GPa) = 0.01364891
#
# Stress axis : x y z
#
# Youngs Moduli (GPa) = 123.58872 218.54450 97.92199
#
# Poissons Ratio (x) = 0.21835 0.23973
# Poissons Ratio (y) = 0.12348 0.11436
# Poissons Ratio (z) = 0.30257 0.25523
#
# Static dielectric constant tensor:
#      x y z
#    x 1.958750 0.000000 -0.132880 
#    y 0.000000 1.674880 0.000000 
#    z -0.132880 0.000000 1.973230 
# 
# From -- ./inp_files/202467.got.cif
#   From: 2010.05.17/outbox.cif.g08.bks.cpg/sg12_102_cif.got.tgz:202467.got - 2010.06.03 13:09:07.
