data_PCOD9199302
_publ_section_title
;
Structure prediction by ZEFSAII (Michael W. Deem and Ramdas Pophale) SiO2 
 PCOD9199302
Probable space group: C 2/M
;
_chemical_formula_sum "Si O2"
_cell_formula_units_Z 40
_cell_length_a 8.843922
_cell_length_b 34.854693
_cell_length_c 7.953304
_cell_angle_alpha 90.000000
_cell_angle_beta 57.450251
_cell_angle_gamma 90.000000
_cell_volume 2066.533627
_symmetry_space_group_name_H-M "C 2/M"
_symmetry_group_IT_number 12
_symmetry_cell_setting 'monoclinic'
loop_
_space_group_symop_operation_xyz
x,y,z
-x,y,-z
-x,-y,-z
x,-y,z
1/2+x,1/2+y,z
1/2-x,1/2+y,-z
1/2-x,1/2-y,-z
1/2+x,1/2-y,z
loop_
_atom_site_type_symbol
_atom_site_label
_atom_site_fract_x
_atom_site_fract_y
_atom_site_fract_z
Si Si1 0.500000 0.319788 0.500000
Si Si2 0.790323 0.042510 0.571810
Si Si3 0.000000 0.572750 0.000000
Si Si4 0.736188 0.124856 0.461668
Si Si5 0.848141 0.636070 0.846874
Si Si6 0.357811 0.289507 0.929369
O O1 0.640290 0.349397 0.495889
O O2 0.443288 0.294251 0.693262
O O3 0.643135 0.048326 0.807832
O O4 0.753665 0.079504 0.480608
O O5 0.000000 0.044797 0.500000
O O6 0.763744 0.000000 0.513241
O O7 0.877080 0.601054 0.958246
O O8 0.541501 0.138140 0.642494
O O9 0.777015 0.130381 0.240996
O O10 0.778397 0.674497 0.974168
O O11 0.500000 0.290606 0.000000
O O12 0.250000 0.250000 0.000000
#
# Coordination Sequence:
#
# PCOD9199302 Si02
#       6
#     4   8   4   8   8   8
#     4  12  24  44  69  92 128 172 216 262 315 388
#     4  10  20  36  59  93 131 170 215 271 330 382
#     4  10  21  38  64  88 128 178 216 272 322 390
#     4  10  21  40  68  93 122 174 217 264 318 387
#     4  10  22  42  64  92 126 165 221 264 317 393
#     4  12  28  44  65  97 130 168 210 269 327 385
#
# _framework density 19.356083000000002
#
# number of rings (size 3 to 8) (size 9 to 14) (size 15 to 20)
#    0.000    1.400    3.000    2.700    4.200    2.400 
#    0.000    9.000    0.000    2.400    0.000    0.000 
#    0.000    0.000    0.000    0.000    0.000    0.000 
#
# Total GULP energy -111460.715085 kJ/mol
# GULP energy per Si atom -5573.035754 kJ/mol
# Density = 1.931203 g / cm^3
# Si number density = 19.356083 Si / 1000 Ang^3
#
#
#
# Elastic Constant Matrix: (Units=GPa)
#
#
# Indices 1 2 3 4 5 6 
#
# 1 73.0222 36.7736 29.7851 0.0000 9.7498 0.0000
# 2 36.7736 115.5503 67.5760 0.0000 -6.4052 0.0000
# 3 29.7851 67.5760 103.9487 0.0000 14.6431 0.0000
# 4 0.0000 0.0000 0.0000 17.2983 0.0000 -19.5609
# 5 9.7498 -6.4052 14.6431 0.0000 31.6453 0.0000
# 6 0.0000 0.0000 0.0000 -19.5609 0.0000 2.6952
#
#
#
# Elastic Compliance Matrix: (Units=1/GPa)
#
#
# Indices 1 2 3 4 5 6 
#
# 1 0.017592 -0.005692 -0.000443 0.000000 -0.006367 0.000000
# 2 -0.005692 0.017703 -0.011370 0.000000 0.010598 0.000000
# 3 -0.000443 -0.011370 0.018660 0.000000 -0.010799 0.000000
# 4 0.000000 0.000000 0.000000 -0.008021 0.000000 -0.058216
# 5 -0.006367 0.010598 -0.010799 0.000000 0.040704 0.000000
# 6 0.000000 0.000000 0.000000 -0.058216 0.000000 -0.051482
#
#
# Mechanical properties :
#
#
# Convention : Reuss Voigt Hill
#
# Bulk Modulus (GPa) = 52.78963 62.31006 57.54985
# Shear Modulus (GPa) = 65.37409 20.88685 43.13047
#
# Velocity S-wave (km/s) = 5.81788 3.28851 4.72557
# Velocity P-wave (km/s) = 8.51249 6.83230 7.71825
#
# Compressibility (1/GPa) = 0.01894311
#
# Stress axis : x y z
#
# Youngs Moduli (GPa) = 56.84394 56.48796 53.58986
#
# Poissons Ratio (x) = 0.32154 0.02376
# Poissons Ratio (y) = 0.32357 0.60934
# Poissons Ratio (z) = 0.02520 0.64229
#
# Static dielectric constant tensor:
#      x y z
#    x 1.750870 0.000000 0.019630 
#    y 0.000000 1.633960 0.000000 
#    z 0.019630 0.000000 1.702540 
# 
# From -- ./inp_files/41501.got.cif
#   From: 2010.05.17/outbox.cif.g08.bks.cpg/sg12_21_cif.got.tgz:41501.got - 2010.06.03 13:09:07.
