data_PCOD9199211
_publ_section_title
;
Structure prediction by ZEFSAII (Michael W. Deem and Ramdas Pophale) SiO2 
 PCOD9199211
Probable space group: C 2/M
;
_chemical_formula_sum "Si O2"
_cell_formula_units_Z 64
_cell_length_a 29.403932
_cell_length_b 8.555258
_cell_length_c 14.728776
_cell_angle_alpha 90.000000
_cell_angle_beta 72.865449
_cell_angle_gamma 90.000000
_cell_volume 3540.693840
_symmetry_space_group_name_H-M "C 2/M"
_symmetry_group_IT_number 12
_symmetry_cell_setting 'monoclinic'
loop_
_space_group_symop_operation_xyz
x,y,z
-x,y,-z
-x,-y,-z
x,-y,z
1/2+x,1/2+y,z
1/2-x,1/2+y,-z
1/2-x,1/2-y,-z
1/2+x,1/2-y,z
loop_
_atom_site_type_symbol
_atom_site_label
_atom_site_fract_x
_atom_site_fract_y
_atom_site_fract_z
Si Si1 0.103517 0.816593 0.792298
Si Si2 0.946770 0.809586 0.002293
Si Si3 0.054466 0.817844 0.501728
Si Si4 0.530340 0.817564 0.703360
Si Si5 0.370543 0.187430 0.686240
Si Si6 0.291498 0.188773 0.594941
Si Si7 0.570021 0.312823 0.196019
Si Si8 0.812805 0.686431 0.381339
O O1 0.054873 0.785921 0.766070
O O2 0.145169 0.740299 0.709110
O O3 0.113491 0.000000 0.791236
O O4 0.091746 0.756904 0.900302
O O5 0.932767 0.766695 0.908158
O O6 0.947809 0.000000 0.004984
O O7 0.000000 0.756703 0.000000
O O8 0.055976 0.722883 0.594189
O O9 0.088714 0.744254 0.407120
O O10 0.000000 0.811813 0.500000
O O11 0.066561 0.000000 0.509947
O O12 0.475399 0.769037 0.730774
O O13 0.535306 0.000000 0.721413
O O14 0.321792 0.236536 0.664945
O O15 0.383632 0.260646 0.775556
O O16 0.371408 0.000000 0.692789
O O17 0.238101 0.252348 0.623427
O O18 0.316387 0.239508 0.485031
O O19 0.289824 0.000000 0.595171
O O20 0.564636 0.500000 0.206276
O O21 0.812370 0.500000 0.382686
#
# Coordination Sequence:
#
# PCOD9199211 Si02
#       8
#     8   8   8   8   8   8   8   8
#     4  11  21  36  59  82 109 146 185 229 281 336
#     4   9  18  35  57  79 106 145 192 234 276 327
#     4  11  22  34  50  73 104 146 189 221 258 322
#     4  12  23  34  50  76 110 145 182 226 277 325
#     4  11  22  36  55  80 112 148 184 227 280 332
#     4   9  20  38  58  81 113 150 182 217 272 337
#     4  11  21  36  55  76 106 145 190 230 270 328
#     4  10  20  36  59  88 115 141 180 230 278 327
#
# _framework density 18.075554
#
# number of rings (size 3 to 8) (size 9 to 14) (size 15 to 20)
#    0.000    1.500    2.500    3.750    0.000    3.000 
#    0.000    3.125    0.000    0.750    0.000    0.000 
#    0.000    0.000    0.000    0.000    0.000    0.000 
#
# Total GULP energy -178689.982182 kJ/mol
# GULP energy per Si atom -5584.061943 kJ/mol
# Density = 1.803441 g / cm^3
# Si number density = 18.075554 Si / 1000 Ang^3
#
#
#
# Elastic Constant Matrix: (Units=GPa)
#
#
# Indices 1 2 3 4 5 6 
#
# 1 87.5940 7.7158 44.6195 0.0000 15.5258 0.0000
# 2 7.7158 17.6973 11.4114 0.0000 3.3666 0.0000
# 3 44.6195 11.4114 95.9198 0.0000 13.5148 0.0000
# 4 0.0000 0.0000 0.0000 6.9263 0.0000 3.1726
# 5 15.5258 3.3666 13.5148 0.0000 26.7731 0.0000
# 6 0.0000 0.0000 0.0000 3.1726 0.0000 26.8078
#
#
#
# Elastic Compliance Matrix: (Units=1/GPa)
#
#
# Indices 1 2 3 4 5 6 
#
# 1 0.015819 -0.001711 -0.006344 0.000000 -0.005756 0.000000
# 2 -0.001711 0.061855 -0.006036 0.000000 -0.003739 0.000000
# 3 -0.006344 -0.006036 0.014501 0.000000 -0.002882 0.000000
# 4 0.000000 0.000000 0.000000 0.152652 0.000000 -0.018066
# 5 -0.005756 -0.003739 -0.002882 0.000000 0.042614 0.000000
# 6 0.000000 0.000000 0.000000 -0.018066 0.000000 0.039441
#
#
# Mechanical properties :
#
#
# Convention : Reuss Voigt Hill
#
# Bulk Modulus (GPa) = 15.62692 36.52272 26.07482
# Shear Modulus (GPa) = 13.28396 21.26575 17.27485
#
# Velocity S-wave (km/s) = 2.71387 3.43372 3.09480
# Velocity P-wave (km/s) = 4.29933 5.99751 5.21796
#
# Compressibility (1/GPa) = 0.06399212
#
# Stress axis : x y z
#
# Youngs Moduli (GPa) = 63.21596 16.16682 68.96286
#
# Poissons Ratio (x) = 0.02767 0.43750
# Poissons Ratio (y) = 0.10818 0.41626
# Poissons Ratio (z) = 0.40104 0.09758
#
# Static dielectric constant tensor:
#      x y z
#    x 1.618730 0.000000 0.024030 
#    y 0.000000 1.613660 0.000000 
#    z 0.024030 0.000000 1.636250 
# 
# From -- ./inp_files/243814.got.cif
#   From: 2010.05.17/outbox.cif.g08.bks.cpg/sg12_122_cif.got.tgz:243814.got - 2010.06.03 13:09:07.
