data_PCOD9199052
_publ_section_title
;
Structure prediction by ZEFSAII (Michael W. Deem and Ramdas Pophale) SiO2 
 PCOD9199052
Probable space group: C 2/M
;
_chemical_formula_sum "Si O2"
_cell_formula_units_Z 64
_cell_length_a 29.631445
_cell_length_b 8.514106
_cell_length_c 19.548085
_cell_angle_alpha 90.000000
_cell_angle_beta 40.896307
_cell_angle_gamma 90.000000
_cell_volume 3228.740926
_symmetry_space_group_name_H-M "C 2/M"
_symmetry_group_IT_number 12
_symmetry_cell_setting 'monoclinic'
loop_
_space_group_symop_operation_xyz
x,y,z
-x,y,-z
-x,-y,-z
x,-y,z
1/2+x,1/2+y,z
1/2-x,1/2+y,-z
1/2-x,1/2-y,-z
1/2+x,1/2-y,z
loop_
_atom_site_type_symbol
_atom_site_label
_atom_site_fract_x
_atom_site_fract_y
_atom_site_fract_z
Si Si1 0.572825 0.310313 0.883328
Si Si2 0.704978 0.686051 0.820090
Si Si3 0.530967 0.188538 0.791648
Si Si4 0.854783 0.810739 0.610742
Si Si5 0.450863 0.309571 0.381921
Si Si6 0.819395 0.318465 0.889199
Si Si7 0.122441 0.682595 0.031019
Si Si8 0.077818 0.814317 0.330578
O O1 0.571830 0.500000 0.885421
O O2 0.639525 0.257513 0.849956
O O3 0.576994 0.252061 0.800625
O O4 0.500000 0.255374 0.000000
O O5 0.710197 0.500000 0.806940
O O6 0.777630 0.757572 0.715189
O O7 0.682519 0.727327 0.923034
O O8 0.548869 0.243926 0.694881
O O9 0.453272 0.246638 0.898163
O O10 0.529750 0.000000 0.793886
O O11 0.884067 0.765112 0.503232
O O12 0.907222 0.752863 0.610357
O O13 0.856263 0.000000 0.612043
O O14 0.454815 0.500000 0.372602
O O15 0.515800 0.253374 0.354059
O O16 0.811343 0.500000 0.877555
O O17 0.870332 0.311521 0.895815
O O18 0.852099 0.218331 0.791321
O O19 0.750000 0.250000 0.000000
O O20 0.127534 0.500000 0.004712
O O21 0.065002 0.000000 0.351755
#
# Coordination Sequence:
#
# PCOD9199052 Si02
#       8
#     8   8   8   8   8   8   8   8
#     4  10  21  39  61  87 118 151 190 237 289 351
#     4  11  23  38  60  88 117 151 193 240 291 349
#     4  11  22  37  60  90 118 147 189 240 291 342
#     4  10  22  40  60  85 118 155 196 242 290 342
#     4  10  21  39  63  86 115 157 200 240 286 342
#     4  11  22  35  50  77 117 156 194 235 286 343
#     4  10  21  36  54  79 117 154 185 231 289 346
#     4  10  20  36  59  85 113 151 199 242 283 339
#
# _framework density 19.821967999999998
#
# number of rings (size 3 to 8) (size 9 to 14) (size 15 to 20)
#    0.000    1.625    2.500    2.250    0.000    8.250 
#    0.000    0.625    0.000    2.250    0.000    0.000 
#    0.000    0.000    0.000    0.000    0.000    0.000 
#
# Total GULP energy -178682.317903 kJ/mol
# GULP energy per Si atom -5583.822434 kJ/mol
# Density = 1.977685 g / cm^3
# Si number density = 19.821968 Si / 1000 Ang^3
#
#
#
# Elastic Constant Matrix: (Units=GPa)
#
#
# Indices 1 2 3 4 5 6 
#
# 1 80.4826 16.0626 37.3108 0.0041 15.2143 -0.0041
# 2 16.0626 7.6572 6.5401 0.0226 1.1825 -0.0213
# 3 37.3108 6.5401 120.7759 0.0054 14.5986 -0.0080
# 4 0.0041 0.0226 0.0054 23.7601 -0.0006 -0.4706
# 5 15.2143 1.1825 14.5986 -0.0006 26.9218 0.0015
# 6 -0.0041 -0.0213 -0.0080 -0.4706 0.0015 21.3002
#
#
#
# Elastic Compliance Matrix: (Units=1/GPa)
#
#
# Indices 1 2 3 4 5 6 
#
# 1 0.026304 -0.050018 -0.004159 0.000043 -0.010413 -0.000045
# 2 -0.050018 0.232156 0.000745 -0.000208 0.017666 0.000217
# 3 -0.004159 0.000745 0.009892 -0.000002 -0.003047 0.000004
# 4 0.000043 -0.000208 -0.000002 0.042106 -0.000013 0.000930
# 5 -0.010413 0.017666 -0.003047 -0.000013 0.043906 0.000011
# 6 -0.000045 0.000217 0.000004 0.000930 0.000011 0.046969
#
#
# Mechanical properties :
#
#
# Convention : Reuss Voigt Hill
#
# Bulk Modulus (GPa) = 6.19239 36.52695 21.35967
# Shear Modulus (GPa) = 8.89639 24.32988 16.61313
#
# Velocity S-wave (km/s) = 2.12082 3.50726 2.89817
# Velocity P-wave (km/s) = 3.02125 5.90497 4.69024
#
# Compressibility (1/GPa) = 0.16148861
#
# Stress axis : x y z
#
# Youngs Moduli (GPa) = 38.01702 4.30746 101.08689
#
# Poissons Ratio (x) = 0.21545 0.42040
# Poissons Ratio (y) = 1.90154 -0.07532
# Poissons Ratio (z) = 0.15811 -0.00321
#
# Static dielectric constant tensor:
#      x y z
#    x 1.749550 0.000000 0.003320 
#    y 0.000000 1.680100 0.000010 
#    z 0.003320 0.000010 1.690640 
# 
# From -- ./inp_files/295579.got.cif
#   From: 2010.05.17/outbox.cif.g08.bks.cpg/sg12_148_cif.got.tgz:295579.got - 2010.06.03 13:09:07.
