data_PCOD9199376
_publ_section_title
;
Structure prediction by ZEFSAII (Michael W. Deem and Ramdas Pophale) SiO2 
 PCOD9199376
Probable space group: C 2/M
;
_chemical_formula_sum "Si O2"
_cell_formula_units_Z 64
_cell_length_a 15.213238
_cell_length_b 7.904980
_cell_length_c 24.167177
_cell_angle_alpha 90.000000
_cell_angle_beta 76.273751
_cell_angle_gamma 90.000000
_cell_volume 2823.349030
_symmetry_space_group_name_H-M "C 2/M"
_symmetry_group_IT_number 12
_symmetry_cell_setting 'monoclinic'
loop_
_space_group_symop_operation_xyz
x,y,z
-x,y,-z
-x,-y,-z
x,-y,z
1/2+x,1/2+y,z
1/2-x,1/2+y,-z
1/2-x,1/2-y,-z
1/2+x,1/2-y,z
loop_
_atom_site_type_symbol
_atom_site_label
_atom_site_fract_x
_atom_site_fract_y
_atom_site_fract_z
Si Si1 0.586390 0.792664 0.152774
Si Si2 0.782630 0.700667 0.630442
Si Si3 0.501639 0.794949 0.276833
Si Si4 0.691866 0.202734 0.749067
Si Si5 0.237897 0.799121 0.938368
Si Si6 0.832875 0.200952 0.448657
Si Si7 0.103859 0.297399 0.870865
Si Si8 0.976419 0.702219 0.601223
O O1 0.571711 0.738322 0.218714
O O2 0.677433 0.730614 0.110168
O O3 0.496576 0.739577 0.131553
O O4 0.587192 0.000000 0.152652
O O5 0.781177 0.500000 0.621174
O O6 0.769031 0.727733 0.697641
O O7 0.700318 0.771006 0.606314
O O8 0.879366 0.768683 0.595893
O O9 0.402881 0.754084 0.267157
O O10 0.511711 0.730651 0.337608
O O11 0.507171 0.000000 0.278195
O O12 0.675832 0.266082 0.813717
O O13 0.701445 0.000000 0.748332
O O14 0.143907 0.744080 0.924429
O O15 0.241376 0.000000 0.934397
O O16 0.250000 0.750000 0.000000
O O17 0.750000 0.250000 0.500000
O O18 0.932938 0.265130 0.446234
O O19 0.840651 0.000000 0.446550
O O20 0.101294 0.500000 0.865825
O O21 0.967778 0.500000 0.605890
#
# Coordination Sequence:
#
# PCOD9199376 Si02
#       8
#     8   8   8   8   8   8   8   8
#     4   8  17  34  56  81 109 149 191 225 271 340
#     4  10  22  36  56  87 118 147 185 236 284 332
#     4   8  14  29  55  83 109 142 185 222 265 335
#     4   9  17  32  57  85 115 148 182 226 279 338
#     4  11  23  38  58  82 112 150 194 239 283 338
#     4  11  24  42  60  82 115 153 194 239 285 335
#     4   9  19  37  58  82 112 146 188 233 278 331
#     4  10  20  36  60  86 113 149 187 230 280 335
#
# _framework density 22.668116000000001
#
# number of rings (size 3 to 8) (size 9 to 14) (size 15 to 20)
#    0.000    2.500    1.250    2.250    1.750    2.500 
#    0.000    6.250    0.000    1.500    0.000    0.000 
#    0.000    0.000    0.000    0.000    0.000    0.000 
#
# Total GULP energy -178623.293064 kJ/mol
# GULP energy per Si atom -5581.977908 kJ/mol
# Density = 2.261652 g / cm^3
# Si number density = 22.668116 Si / 1000 Ang^3
#
#
#
# Elastic Constant Matrix: (Units=GPa)
#
#
# Indices 1 2 3 4 5 6 
#
# 1 65.3458 8.1631 -0.8037 0.0000 -14.9190 0.0000
# 2 8.1631 15.2559 -9.2603 0.0000 -0.8734 0.0000
# 3 -0.8037 -9.2603 47.5679 0.0000 -9.0767 0.0000
# 4 0.0000 0.0000 0.0000 23.1597 0.0000 -2.2902
# 5 -14.9190 -0.8734 -9.0767 0.0000 35.4778 0.0000
# 6 0.0000 0.0000 0.0000 -2.2902 0.0000 12.3204
#
#
#
# Elastic Compliance Matrix: (Units=1/GPa)
#
#
# Indices 1 2 3 4 5 6 
#
# 1 0.018155 -0.009357 -0.000107 0.000000 0.007377 0.000000
# 2 -0.009357 0.080314 0.015879 0.000000 0.002105 0.000000
# 3 -0.000107 0.015879 0.025419 0.000000 0.006849 0.000000
# 4 0.000000 0.000000 0.000000 0.043987 0.000000 0.008177
# 5 0.007377 0.002105 0.006849 0.000000 0.033093 0.000000
# 6 0.000000 0.000000 0.000000 0.008177 0.000000 0.082686
#
#
# Mechanical properties :
#
#
# Convention : Reuss Voigt Hill
#
# Bulk Modulus (GPa) = 7.31441 13.81865 10.56653
# Shear Modulus (GPa) = 15.80292 22.86294 19.33293
#
# Velocity S-wave (km/s) = 2.64321 3.17928 2.92356
# Velocity P-wave (km/s) = 3.54248 4.42566 4.00847
#
# Compressibility (1/GPa) = 0.13671636
#
# Stress axis : x y z
#
# Youngs Moduli (GPa) = 55.08146 12.45114 39.34085
#
# Poissons Ratio (x) = 0.11651 0.00422
# Poissons Ratio (y) = 0.51540 -0.62468
# Poissons Ratio (z) = 0.00591 -0.19771
#
# Static dielectric constant tensor:
#      x y z
#    x 1.511960 0.000000 -0.343950 
#    y 0.000000 1.830240 0.000000 
#    z -0.343950 0.000000 1.422110 
# 
# From -- ./inp_files/359687.got.cif
#   From: 2010.05.17/outbox.cif.g08.bks.cpg/sg12_180_cif.got.tgz:359687.got - 2010.06.03 13:09:07.
