data_PCOD9199544
_publ_section_title
;
Structure prediction by ZEFSAII (Michael W. Deem and Ramdas Pophale) SiO2 
 PCOD9199544
Probable space group: C 2/M
;
_chemical_formula_sum "Si O2"
_cell_formula_units_Z 48
_cell_length_a 19.425213
_cell_length_b 12.548638
_cell_length_c 12.200549
_cell_angle_alpha 90.000000
_cell_angle_beta 62.761504
_cell_angle_gamma 90.000000
_cell_volume 2644.215144
_symmetry_space_group_name_H-M "C 2/M"
_symmetry_group_IT_number 12
_symmetry_cell_setting 'monoclinic'
loop_
_space_group_symop_operation_xyz
x,y,z
-x,y,-z
-x,-y,-z
x,-y,z
1/2+x,1/2+y,z
1/2-x,1/2+y,-z
1/2-x,1/2-y,-z
1/2+x,1/2-y,z
loop_
_atom_site_type_symbol
_atom_site_label
_atom_site_fract_x
_atom_site_fract_y
_atom_site_fract_z
Si Si1 0.870919 0.226991 0.858568
Si Si2 0.984246 0.121343 0.141094
Si Si3 0.157897 0.276393 0.704712
Si Si4 0.069447 0.378253 0.372286
Si Si5 0.797572 0.618364 0.545589
Si Si6 0.289707 0.127459 0.102147
O O1 0.913076 0.302031 0.740417
O O2 0.798626 0.165919 0.855509
O O3 0.934652 0.147030 0.859616
O O4 0.838680 0.303616 0.978540
O O5 0.919440 0.207548 0.220989
O O6 0.958933 0.000000 0.184073
O O7 0.000000 0.129197 0.000000
O O8 0.155909 0.349233 0.597845
O O9 0.228048 0.196431 0.625584
O O10 0.180840 0.340115 0.798110
O O11 0.051823 0.500000 0.349934
O O12 0.144564 0.380938 0.394543
O O13 0.000000 0.340143 0.500000
O O14 0.766042 0.500000 0.552249
O O15 0.296387 0.000000 0.080967
#
# Coordination Sequence:
#
# PCOD9199544 Si02
#       6
#     8   8   8   8   8   8
#     4  11  22  41  61  89 123 158 196 254 295 362
#     4  11  23  40  62  88 120 159 199 244 302 362
#     4  11  21  40  61  88 121 155 200 254 294 353
#     4  10  20  36  60  89 120 158 199 241 296 356
#     4  10  21  37  61  86 116 159 202 244 292 352
#     4  11  23  39  62  91 120 159 200 248 307 354
#
# _framework density 18.152835
#
# number of rings (size 3 to 8) (size 9 to 14) (size 15 to 20)
#    0.000    1.333    3.333    3.000    0.000    0.000 
#    0.000    3.333    0.000    2.000    0.000    0.000 
#    0.000    0.000    0.000    0.000    0.000    0.000 
#
# Total GULP energy -133997.916440 kJ/mol
# GULP energy per Si atom -5583.246518 kJ/mol
# Density = 1.811152 g / cm^3
# Si number density = 18.152835 Si / 1000 Ang^3
#
#
#
# Elastic Constant Matrix: (Units=GPa)
#
#
# Indices 1 2 3 4 5 6 
#
# 1 57.7150 3.6117 6.6856 0.0000 -0.6532 0.0000
# 2 3.6117 73.8510 17.4679 0.0000 6.9730 0.0000
# 3 6.6856 17.4679 66.3075 0.0000 5.6680 0.0000
# 4 0.0000 0.0000 0.0000 -18.4836 0.0000 -14.7752
# 5 -0.6532 6.9730 5.6680 0.0000 30.5870 0.0000
# 6 0.0000 0.0000 0.0000 -14.7752 0.0000 16.2804
#
#
#
# Elastic Compliance Matrix: (Units=1/GPa)
#
#
# Indices 1 2 3 4 5 6 
#
# 1 0.017566 -0.000534 -0.001700 0.000000 0.000812 0.000000
# 2 -0.000534 0.014668 -0.003580 0.000000 -0.002692 0.000000
# 3 -0.001700 -0.003580 0.016389 0.000000 -0.002257 0.000000
# 4 0.000000 0.000000 0.000000 -0.031355 0.000000 -0.028456
# 5 0.000812 -0.002692 -0.002257 0.000000 0.033743 0.000000
# 6 0.000000 0.000000 0.000000 -0.028456 0.000000 0.035598
#
#
# Mechanical properties :
#
#
# Convention : Reuss Voigt Hill
#
# Bulk Modulus (GPa) = 27.03057 28.15598 27.59327
# Shear Modulus (GPa) = 45.22110 17.01732 31.11921
#
# Velocity S-wave (km/s) = 4.99654 3.06510 4.14489
# Velocity P-wave (km/s) = 6.94335 5.29817 6.17579
#
# Compressibility (1/GPa) = 0.03699515
#
# Stress axis : x y z
#
# Youngs Moduli (GPa) = 56.92812 68.17635 61.01750
#
# Poissons Ratio (x) = 0.03638 0.10373
# Poissons Ratio (y) = 0.03038 0.21845
# Poissons Ratio (z) = 0.09678 0.24408
#
# Static dielectric constant tensor:
#      x y z
#    x 1.614600 0.000000 0.007060 
#    y 0.000000 1.616090 0.000000 
#    z 0.007060 0.000000 1.596470 
# 
# From -- ./inp_files/154215.got.cif
#   From: 2010.05.17/outbox.cif.g08.bks.cpg/sg12_78_cif.got.tgz:154215.got - 2010.06.03 13:09:07.
