data_PCOD9199045
_publ_section_title
;
Structure prediction by ZEFSAII (Michael W. Deem and Ramdas Pophale) SiO2 
 PCOD9199045
Probable space group: C 2/M
;
_chemical_formula_sum "Si O2"
_cell_formula_units_Z 64
_cell_length_a 16.643426
_cell_length_b 18.525220
_cell_length_c 20.519470
_cell_angle_alpha 90.000000
_cell_angle_beta 29.517177
_cell_angle_gamma 90.000000
_cell_volume 3117.030936
_symmetry_space_group_name_H-M "C 2/M"
_symmetry_group_IT_number 12
_symmetry_cell_setting 'monoclinic'
loop_
_space_group_symop_operation_xyz
x,y,z
-x,y,-z
-x,-y,-z
x,-y,z
1/2+x,1/2+y,z
1/2-x,1/2+y,-z
1/2-x,1/2-y,-z
1/2+x,1/2-y,z
loop_
_atom_site_type_symbol
_atom_site_label
_atom_site_fract_x
_atom_site_fract_y
_atom_site_fract_z
Si Si1 0.324865 0.085030 0.422217
Si Si2 0.793594 0.772569 0.771519
Si Si3 0.797298 0.919554 0.953143
Si Si4 0.827455 0.917989 0.329017
Si Si5 0.091183 0.168060 0.496178
Si Si6 0.371900 0.733690 0.237073
Si Si7 0.182267 0.421935 0.896496
Si Si8 0.612156 0.810050 0.166118
O O1 0.278381 0.093078 0.531258
O O2 0.167215 0.113517 0.494180
O O3 0.473527 0.136045 0.293709
O O4 0.356310 0.000000 0.387474
O O5 0.648848 0.745824 0.825995
O O6 0.770362 0.857142 0.799916
O O7 0.812592 0.734838 0.827538
O O8 0.969584 0.772240 0.612426
O O9 0.676803 0.910164 0.977668
O O10 0.752221 0.859933 0.036828
O O11 0.977658 0.916328 0.795165
O O12 0.778009 0.000000 0.994669
O O13 0.815669 0.848403 0.291090
O O14 0.792691 0.000000 0.328592
O O15 0.239018 0.212346 0.360919
O O16 0.000000 0.131071 0.500000
O O17 0.530467 0.759257 0.167345
O O18 0.260791 0.500000 0.829758
O O19 0.000000 0.423486 0.000000
#
# Coordination Sequence:
#
# PCOD9199045 Si02
#       8
#     8   8   8   8   8   8   8   8
#     4  10  20  36  59  85 112 150 196 232 276 341
#     4  11  22  36  59  86 112 148 194 234 279 339
#     4  10  21  37  56  82 116 151 187 232 288 339
#     4  10  21  38  59  79 106 149 196 237 276 328
#     4   9  19  34  53  82 116 147 180 233 292 339
#     4  10  21  38  58  84 116 147 188 235 285 339
#     4  10  21  36  54  79 114 151 187 231 284 344
#     4  11  22  37  59  84 117 152 185 237 290 332
#
# _framework density 20.532360000000001
#
# number of rings (size 3 to 8) (size 9 to 14) (size 15 to 20)
#    0.000    1.875    0.000    4.125    0.000    6.750 
#    0.000    7.500    0.000    6.375    0.000    0.000 
#    0.000    0.000    0.000    0.000    0.000    0.000 
#
# Total GULP energy -178500.291492 kJ/mol
# GULP energy per Si atom -5578.134109 kJ/mol
# Density = 2.048563 g / cm^3
# Si number density = 20.532360 Si / 1000 Ang^3
#
#
#
# Elastic Constant Matrix: (Units=GPa)
#
#
# Indices 1 2 3 4 5 6 
#
# 1 104.2613 53.1186 7.7985 0.0006 3.4359 -0.0021
# 2 53.1186 119.6079 13.9153 -0.0023 12.2240 0.0046
# 3 7.7985 13.9153 54.1641 -0.0052 7.0392 0.0097
# 4 0.0006 -0.0023 -0.0052 30.6425 0.0000 11.7251
# 5 3.4359 12.2240 7.0392 0.0000 11.5869 -0.0004
# 6 -0.0021 0.0046 0.0097 11.7251 -0.0004 16.0117
#
#
#
# Elastic Compliance Matrix: (Units=1/GPa)
#
#
# Indices 1 2 3 4 5 6 
#
# 1 0.012478 -0.005746 -0.000681 -0.000003 0.002776 0.000006
# 2 -0.005746 0.012092 -0.000915 0.000003 -0.010497 -0.000006
# 3 -0.000681 -0.000915 0.020242 0.000011 -0.011130 -0.000021
# 4 -0.000003 0.000003 0.000011 0.045338 -0.000011 -0.033201
# 5 0.002776 -0.010497 -0.011130 -0.000011 0.103317 0.000021
# 6 0.000006 -0.000006 -0.000021 -0.033201 0.000021 0.086767
#
#
# Mechanical properties :
#
#
# Convention : Reuss Voigt Hill
#
# Bulk Modulus (GPa) = 33.19211 47.52200 40.35705
# Shear Modulus (GPa) = 16.39556 25.19496 20.79526
#
# Velocity S-wave (km/s) = 2.82888 3.50678 3.18591
# Velocity P-wave (km/s) = 5.18372 6.29220 5.76467
#
# Compressibility (1/GPa) = 0.03012765
#
# Stress axis : x y z
#
# Youngs Moduli (GPa) = 80.13939 82.70097 49.40221
#
# Poissons Ratio (x) = 0.47521 0.03365
# Poissons Ratio (y) = 0.46049 0.04520
# Poissons Ratio (z) = 0.05458 0.07567
#
# Static dielectric constant tensor:
#      x y z
#    x 1.684570 0.000000 -0.105600 
#    y 0.000000 1.745480 0.000000 
#    z -0.105600 0.000000 1.661730 
# 
# From -- ./inp_files/344358.got.cif
#   From: 2010.05.17/outbox.cif.g08.bks.cpg/sg12_173_cif.got.tgz:344358.got - 2010.06.03 13:09:07.
