data_PCOD9199680
_publ_section_title
;
Structure prediction by ZEFSAII (Michael W. Deem and Ramdas Pophale) SiO2 
 PCOD9199680
Probable space group: C 2/M
;
_chemical_formula_sum "Si O2"
_cell_formula_units_Z 48
_cell_length_a 19.970474
_cell_length_b 14.487067
_cell_length_c 20.405993
_cell_angle_alpha 90.000000
_cell_angle_beta 20.807614
_cell_angle_gamma 90.000000
_cell_volume 2097.189443
_symmetry_space_group_name_H-M "C 2/M"
_symmetry_group_IT_number 12
_symmetry_cell_setting 'monoclinic'
loop_
_space_group_symop_operation_xyz
x,y,z
-x,y,-z
-x,-y,-z
x,-y,z
1/2+x,1/2+y,z
1/2-x,1/2+y,-z
1/2-x,1/2-y,-z
1/2+x,1/2-y,z
loop_
_atom_site_type_symbol
_atom_site_label
_atom_site_fract_x
_atom_site_fract_y
_atom_site_fract_z
Si Si1 0.581186 0.897387 0.996741
Si Si2 0.665936 0.280251 0.983738
Si Si3 0.984296 0.895648 0.437324
Si Si4 0.292507 0.391239 0.326983
Si Si5 0.274670 0.604292 0.198455
Si Si6 0.419033 0.763421 0.395296
O O1 0.558821 0.816045 0.068739
O O2 0.803597 0.902975 0.782832
O O3 0.511153 0.000000 0.077597
O O4 0.500000 0.871121 0.000000
O O5 0.741303 0.321989 0.844712
O O6 0.871289 0.264547 0.828530
O O7 0.497902 0.349118 0.157303
O O8 0.900398 0.816742 0.467716
O O9 0.000000 0.871969 0.500000
O O10 0.902071 0.000000 0.507811
O O11 0.315102 0.500000 0.303138
O O12 0.221333 0.361446 0.319596
O O13 0.134377 0.359559 0.521659
O O14 0.198876 0.500000 0.254629
O O15 0.500000 0.594058 0.000000
O O16 0.250000 0.750000 0.500000
#
# Coordination Sequence:
#
# PCOD9199680 Si02
#       6
#     8   8   8   8   8   8
#     4   9  17  29  51  87 122 151 191 251 317 365
#     4  10  20  36  61  86 125 163 200 250 309 370
#     4   9  20  38  62  89 119 157 209 268 314 365
#     4  10  22  39  63  91 123 161 204 250 307 373
#     4   8  15  30  54  88 119 146 190 247 300 356
#     4  11  26  41  60  90 127 169 210 257 314 377
#
# _framework density 22.887775000000001
#
# number of rings (size 3 to 8) (size 9 to 14) (size 15 to 20)
#    0.000    2.500    0.000    3.000    7.000    2.667 
#    0.000    1.667    0.000    0.000    0.000    0.000 
#    0.000    0.000    0.000    0.000    0.000    0.000 
#
# Total GULP energy -133928.066820 kJ/mol
# GULP energy per Si atom -5580.336117 kJ/mol
# Density = 2.283568 g / cm^3
# Si number density = 22.887775 Si / 1000 Ang^3
#
#
#
# Elastic Constant Matrix: (Units=GPa)
#
#
# Indices 1 2 3 4 5 6 
#
# 1 40.4933 20.3520 21.2691 0.0026 -16.9467 -0.0008
# 2 20.3520 79.2790 30.8443 0.0019 -12.7485 -0.0002
# 3 21.2691 30.8443 116.8975 -0.0045 -14.9426 0.0019
# 4 0.0026 0.0019 -0.0045 28.0737 0.0003 2.4841
# 5 -16.9467 -12.7485 -14.9426 0.0003 36.7954 0.0019
# 6 -0.0008 -0.0002 0.0019 2.4841 0.0019 15.1678
#
#
#
# Elastic Compliance Matrix: (Units=1/GPa)
#
#
# Indices 1 2 3 4 5 6 
#
# 1 0.034462 -0.005575 -0.003183 -0.000004 0.012648 0.000001
# 2 -0.005575 0.015412 -0.002846 -0.000001 0.001617 0.000000
# 3 -0.003183 -0.002846 0.010095 0.000002 0.001648 -0.000002
# 4 -0.000004 -0.000001 0.000002 0.036144 -0.000001 -0.005919
# 5 0.012648 0.001617 0.001648 -0.000001 0.034232 -0.000004
# 6 0.000001 0.000000 -0.000002 -0.005919 -0.000004 0.066899
#
#
# Mechanical properties :
#
#
# Convention : Reuss Voigt Hill
#
# Bulk Modulus (GPa) = 27.20104 42.40007 34.80055
# Shear Modulus (GPa) = 21.48648 26.95435 24.22041
#
# Velocity S-wave (km/s) = 3.06727 3.43545 3.25657
# Velocity P-wave (km/s) = 4.94515 5.85678 5.42016
#
# Compressibility (1/GPa) = 0.03676330
#
# Stress axis : x y z
#
# Youngs Moduli (GPa) = 29.01715 64.88504 99.05867
#
# Poissons Ratio (x) = 0.36172 0.31526
# Poissons Ratio (y) = 0.16177 0.28188
# Poissons Ratio (z) = 0.09235 0.18463
#
# Static dielectric constant tensor:
#      x y z
#    x 1.960280 0.000000 -0.021290 
#    y 0.000000 1.896500 0.000010 
#    z -0.021290 0.000010 1.900340 
# 
# From -- ./inp_files/347474.got.cif
#   From: 2010.05.17/outbox.cif.g08.bks.cpg/sg12_174_cif.got.tgz:347474.got - 2010.06.03 13:09:07.
