data_PCOD9199010
_publ_section_title
;
Structure prediction by ZEFSAII (Michael W. Deem and Ramdas Pophale) SiO2 
 PCOD9199010
Probable space group: C 2/M
;
_chemical_formula_sum "Si O2"
_cell_formula_units_Z 48
_cell_length_a 12.256749
_cell_length_b 15.124516
_cell_length_c 11.656965
_cell_angle_alpha 90.000000
_cell_angle_beta 99.764516
_cell_angle_gamma 90.000000
_cell_volume 2129.632579
_symmetry_space_group_name_H-M "C 2/M"
_symmetry_group_IT_number 12
_symmetry_cell_setting 'monoclinic'
loop_
_space_group_symop_operation_xyz
x,y,z
-x,y,-z
-x,-y,-z
x,-y,z
1/2+x,1/2+y,z
1/2-x,1/2+y,-z
1/2-x,1/2-y,-z
1/2+x,1/2-y,z
loop_
_atom_site_type_symbol
_atom_site_label
_atom_site_fract_x
_atom_site_fract_y
_atom_site_fract_z
Si Si1 0.681178 0.107135 0.270120
Si Si2 0.533287 0.108203 0.635353
Si Si3 0.745309 0.399622 0.213778
Si Si4 0.502572 0.398166 0.169450
Si Si5 0.771047 0.849723 0.035481
Si Si6 0.903915 0.102401 0.407027
O O1 0.562805 0.137714 0.294681
O O2 0.711617 0.128107 0.144406
O O3 0.780695 0.139881 0.370835
O O4 0.683278 0.000000 0.278418
O O5 0.500000 0.131394 0.500000
O O6 0.652829 0.141717 0.699041
O O7 0.537255 0.000000 0.641085
O O8 0.732751 0.500000 0.256751
O O9 0.624180 0.355540 0.197783
O O10 0.771361 0.402539 0.082937
O O11 0.519170 0.500000 0.135752
O O12 0.402927 0.362308 0.074941
O O13 0.452503 0.399492 0.287839
O O14 0.750000 0.750000 0.000000
O O15 0.000000 0.145341 0.500000
O O16 0.890785 0.000000 0.446178
#
# Coordination Sequence:
#
# PCOD9199010 Si02
#       6
#     8   8   8   8   8   8
#     4   9  18  34  55  82 118 150 186 238 286 338
#     4   9  19  34  56  87 117 147 187 235 287 346
#     4  10  20  36  59  84 112 149 190 236 289 341
#     4   9  18  34  57  85 113 142 186 241 289 336
#     4  11  22  37  55  82 113 149 192 239 289 346
#     4   8  14  24  47  82 112 140 174 224 286 336
#
# _framework density 22.539099
#
# number of rings (size 3 to 8) (size 9 to 14) (size 15 to 20)
#    0.000    2.667    0.000    3.000    2.333    2.000 
#    6.000    2.500    0.000    5.000    0.000    0.000 
#    0.000    0.000    0.000    0.000    0.000    0.333 
#
# Total GULP energy -133943.698865 kJ/mol
# GULP energy per Si atom -5580.987453 kJ/mol
# Density = 2.248780 g / cm^3
# Si number density = 22.539099 Si / 1000 Ang^3
#
#
#
# Elastic Constant Matrix: (Units=GPa)
#
#
# Indices 1 2 3 4 5 6 
#
# 1 177.3646 20.7388 70.4879 0.0000 30.6359 0.0000
# 2 20.7388 37.9946 0.9336 0.0000 8.4896 0.0000
# 3 70.4879 0.9336 98.7755 0.0000 37.4762 0.0000
# 4 0.0000 0.0000 0.0000 -138.8433 0.0000 -105.7169
# 5 30.6359 8.4896 37.4762 0.0000 43.0698 0.0000
# 6 0.0000 0.0000 0.0000 -105.7169 0.0000 -72.3079
#
#
#
# Elastic Compliance Matrix: (Units=1/GPa)
#
#
# Indices 1 2 3 4 5 6 
#
# 1 0.008587 -0.004565 -0.006134 0.000000 0.000129 0.000000
# 2 -0.004565 0.030445 0.005994 0.000000 -0.007969 0.000000
# 3 -0.006134 0.005994 0.019761 0.000000 -0.014013 0.000000
# 4 0.000000 0.000000 0.000000 0.063618 0.000000 -0.093013
# 5 0.000129 -0.007969 -0.014013 0.000000 0.036890 0.000000
# 6 0.000000 0.000000 0.000000 -0.093013 0.000000 0.122158
#
#
# Mechanical properties :
#
#
# Convention : Reuss Voigt Hill
#
# Bulk Modulus (GPa) = 20.25020 55.38393 37.81707
# Shear Modulus (GPa) = 16.26903 -18.81800 -1.27449
#
# Velocity S-wave (km/s) = 2.68957 -2.89261 -0.75278
# Velocity P-wave (km/s) = 4.31846 3.67008 4.00740
#
# Compressibility (1/GPa) = 0.04938222
#
# Stress axis : x y z
#
# Youngs Moduli (GPa) = 116.45021 32.84635 50.60416
#
# Poissons Ratio (x) = 0.14996 0.31040
# Poissons Ratio (y) = 0.53164 -0.30330
# Poissons Ratio (z) = 0.71428 -0.19687
#
# Static dielectric constant tensor:
#      x y z
#    x 1.877950 0.000000 0.018470 
#    y 0.000000 1.899010 0.000000 
#    z 0.018470 0.000000 1.826750 
# 
# From -- ./inp_files/131222.got.cif
#   From: 2010.05.17/outbox.cif.g08.bks.cpg/sg12_66_cif.got.tgz:131222.got - 2010.06.03 13:09:07.
