data_PCOD9199804
_publ_section_title
;
Structure prediction by ZEFSAII (Michael W. Deem and Ramdas Pophale) SiO2 
 PCOD9199804
Probable space group: C 2/M
;
_chemical_formula_sum "Si O2"
_cell_formula_units_Z 64
_cell_length_a 24.344582
_cell_length_b 14.329653
_cell_length_c 18.623417
_cell_angle_alpha 90.000000
_cell_angle_beta 149.004671
_cell_angle_gamma 90.000000
_cell_volume 3345.628919
_symmetry_space_group_name_H-M "C 2/M"
_symmetry_group_IT_number 12
_symmetry_cell_setting 'monoclinic'
loop_
_space_group_symop_operation_xyz
x,y,z
-x,y,-z
-x,-y,-z
x,-y,z
1/2+x,1/2+y,z
1/2-x,1/2+y,-z
1/2-x,1/2-y,-z
1/2+x,1/2-y,z
loop_
_atom_site_type_symbol
_atom_site_label
_atom_site_fract_x
_atom_site_fract_y
_atom_site_fract_z
Si Si1 0.695125 0.222622 0.863729
Si Si2 0.043436 0.733958 0.375645
Si Si3 0.666748 0.611878 0.095636
Si Si4 0.244009 0.609669 0.643792
Si Si5 0.412639 0.397289 0.465525
Si Si6 0.259938 0.107327 0.842282
Si Si7 0.976592 0.290700 0.056808
Si Si8 0.138614 0.773238 0.336354
O O1 0.574085 0.193979 0.743887
O O2 0.757055 0.147007 0.883977
O O3 0.698246 0.319065 0.822442
O O4 0.750000 0.250000 0.000000
O O5 0.135252 0.660029 0.497963
O O6 0.063650 0.817814 0.452516
O O7 0.057039 0.776725 0.311266
O O8 0.644269 0.500000 0.066305
O O9 0.721633 0.631113 0.235269
O O10 0.567491 0.684195 0.981900
O O11 0.230758 0.500000 0.624424
O O12 0.332821 0.643715 0.686255
O O13 0.500000 0.393799 0.500000
O O14 0.419073 0.500000 0.505957
O O15 0.297538 0.386076 0.299331
O O16 0.250899 0.000000 0.855930
O O17 0.381181 0.142138 0.974418
O O18 0.083930 0.302542 0.222972
O O19 0.000000 0.304937 0.000000
O O20 0.250000 0.750000 0.500000
#
# Coordination Sequence:
#
# PCOD9199804 Si02
#       8
#     8   8   8   8   8   8   8   8
#     4  11  23  39  59  88 122 164 205 250 312 373
#     4  11  21  37  64  87 124 164 201 251 316 370
#     4  10  22  39  62  93 124 158 205 254 305 370
#     4  10  22  40  62  92 125 161 206 256 309 370
#     4  10  20  36  61  92 119 155 202 249 306 368
#     4  10  22  39  60  89 123 156 203 258 306 364
#     4  11  21  39  67  88 117 165 209 251 305 369
#     4  10  23  41  60  88 122 160 205 258 312 359
#
# _framework density 19.129438
#
# number of rings (size 3 to 8) (size 9 to 14) (size 15 to 20)
#    0.000    1.625    2.500    3.000    1.750    2.500 
#    0.000    7.500    0.000    0.000    0.000    0.000 
#    0.000    0.000    0.000    0.000    0.000    0.000 
#
# Total GULP energy -178455.039131 kJ/mol
# GULP energy per Si atom -5576.719973 kJ/mol
# Density = 1.908590 g / cm^3
# Si number density = 19.129438 Si / 1000 Ang^3
#
#
#
# Elastic Constant Matrix: (Units=GPa)
#
#
# Indices 1 2 3 4 5 6 
#
# 1 83.9138 8.8792 12.8818 0.0000 -6.6858 0.0000
# 2 8.8792 52.8640 1.9536 0.0000 -7.2388 0.0000
# 3 12.8818 1.9536 89.3477 0.0000 -2.0646 0.0000
# 4 0.0000 0.0000 0.0000 -6.3469 0.0000 4.9575
# 5 -6.6858 -7.2388 -2.0646 0.0000 31.6608 0.0000
# 6 0.0000 0.0000 0.0000 4.9575 0.0000 12.1672
#
#
#
# Elastic Compliance Matrix: (Units=1/GPa)
#
#
# Indices 1 2 3 4 5 6 
#
# 1 0.012536 -0.001750 -0.001720 0.000000 0.002135 0.000000
# 2 -0.001750 0.019781 -0.000084 0.000000 0.004148 0.000000
# 3 -0.001720 -0.000084 0.011450 0.000000 0.000364 0.000000
# 4 0.000000 0.000000 0.000000 -0.119521 0.000000 0.048698
# 5 0.002135 0.004148 0.000364 0.000000 0.033008 0.000000
# 6 0.000000 0.000000 0.000000 0.048698 0.000000 0.062346
#
#
# Mechanical properties :
#
#
# Convention : Reuss Voigt Hill
#
# Bulk Modulus (GPa) = 27.27752 30.39497 28.83625
# Shear Modulus (GPa) = 128.43626 20.99028 74.71327
#
# Velocity S-wave (km/s) = 8.20283 3.31611 6.25632
# Velocity P-wave (km/s) = 10.19831 5.53044 8.20339
#
# Compressibility (1/GPa) = 0.03666022
#
# Stress axis : x y z
#
# Youngs Moduli (GPa) = 79.76864 50.55246 87.33277
#
# Poissons Ratio (x) = 0.08845 0.15020
# Poissons Ratio (y) = 0.13957 0.00737
# Poissons Ratio (z) = 0.13719 0.00427
#
# Static dielectric constant tensor:
#      x y z
#    x 1.695250 0.000000 0.011730 
#    y 0.000000 1.669820 0.000000 
#    z 0.011730 0.000000 1.720570 
# 
# From -- ./inp_files/290126.got.cif
#   From: 2010.05.17/outbox.cif.g08.bks.cpg/sg12_146_cif.got.tgz:290126.got - 2010.06.03 13:09:07.
