data_PCOD9199209
_publ_section_title
;
Structure prediction by ZEFSAII (Michael W. Deem and Ramdas Pophale) SiO2 
 PCOD9199209
Probable space group: C 2/M
;
_chemical_formula_sum "Si O2"
_cell_formula_units_Z 48
_cell_length_a 4.910142
_cell_length_b 29.992981
_cell_length_c 14.178352
_cell_angle_alpha 90.000000
_cell_angle_beta 100.626967
_cell_angle_gamma 90.000000
_cell_volume 2052.230270
_symmetry_space_group_name_H-M "C 2/M"
_symmetry_group_IT_number 12
_symmetry_cell_setting 'monoclinic'
loop_
_space_group_symop_operation_xyz
x,y,z
-x,y,-z
-x,-y,-z
x,-y,z
1/2+x,1/2+y,z
1/2-x,1/2+y,-z
1/2-x,1/2-y,-z
1/2+x,1/2-y,z
loop_
_atom_site_type_symbol
_atom_site_label
_atom_site_fract_x
_atom_site_fract_y
_atom_site_fract_z
Si Si1 0.050022 0.278141 0.115322
Si Si2 0.282138 0.364666 0.566125
Si Si3 0.547152 0.724391 0.616752
Si Si4 0.634058 0.911271 0.738441
Si Si5 0.820750 0.128548 0.170351
Si Si6 0.692663 0.000000 0.855925
Si Si7 0.000000 0.428631 0.000000
O O1 0.256196 0.236087 0.138079
O O2 0.202026 0.321893 0.161859
O O3 0.000000 0.285120 0.000000
O O4 0.500000 0.378876 0.500000
O O5 0.432721 0.324316 0.631626
O O6 0.183014 0.402030 0.631894
O O7 0.000000 0.346405 0.500000
O O8 0.500000 0.726298 0.500000
O O9 0.362664 0.762866 0.651491
O O10 0.327102 0.897874 0.752629
O O11 0.706291 0.960553 0.776697
O O12 0.851738 0.878297 0.804385
O O13 0.709033 0.102340 0.071229
O O14 0.651289 0.039019 0.935193
#
# Coordination Sequence:
#
# PCOD9199209 Si02
#       7
#     8   8   8   8   8   4   4
#     4  10  20  36  59  87 127 177 219 246 286 363
#     4  11  22  40  62  86 119 164 209 247 315 380
#     4   9  16  29  53  83 111 144 193 246 291 350
#     4  11  25  41  64  92 128 160 204 278 318 368
#     4  11  22  40  62  95 130 163 213 254 314 364
#     4   9  22  43  66  98 126 156 206 258 326 381
#     4   9  20  40  70  96 124 166 200 252 316 391
#
# _framework density 23.389187
#
# number of rings (size 3 to 8) (size 9 to 14) (size 15 to 20)
#    0.000    1.833    0.833    4.500    0.000    6.667 
#    0.000    5.833    0.000    2.000    0.000    0.000 
#    0.000    0.000    0.000    0.000    0.000    0.000 
#
# Total GULP energy -133805.200387 kJ/mol
# GULP energy per Si atom -5575.216683 kJ/mol
# Density = 2.333595 g / cm^3
# Si number density = 23.389187 Si / 1000 Ang^3
#
#
#
# Elastic Constant Matrix: (Units=GPa)
#
#
# Indices 1 2 3 4 5 6 
#
# 1 81.4358 4.7368 11.8172 0.0000 -6.1569 0.0000
# 2 4.7368 130.0369 35.1470 0.0000 -20.4292 0.0000
# 3 11.8172 35.1470 85.8031 0.0000 -12.8671 0.0000
# 4 0.0000 0.0000 0.0000 37.0227 0.0000 -15.4181
# 5 -6.1569 -20.4292 -12.8671 0.0000 34.4493 0.0000
# 6 0.0000 0.0000 0.0000 -15.4181 0.0000 -20.0061
#
#
#
# Elastic Compliance Matrix: (Units=1/GPa)
#
#
# Indices 1 2 3 4 5 6 
#
# 1 0.012630 0.000250 -0.001569 0.000000 0.001819 0.000000
# 2 0.000250 0.009215 -0.003160 0.000000 0.004329 0.000000
# 3 -0.001569 -0.003160 0.013604 0.000000 0.002927 0.000000
# 4 0.000000 0.000000 0.000000 0.020448 0.000000 -0.015758
# 5 0.001819 0.004329 0.002927 0.000000 0.033014 0.000000
# 6 0.000000 0.000000 0.000000 -0.015758 0.000000 -0.037840
#
#
# Mechanical properties :
#
#
# Convention : Reuss Voigt Hill
#
# Bulk Modulus (GPa) = 37.74828 44.51976 41.13402
# Shear Modulus (GPa) = 72.61129 26.66484 49.63806
#
# Velocity S-wave (km/s) = 5.57783 3.38013 4.61180
# Velocity P-wave (km/s) = 7.59323 5.85742 6.78110
#
# Compressibility (1/GPa) = 0.02649127
#
# Stress axis : x y z
#
# Youngs Moduli (GPa) = 79.17461 108.51573 73.50782
#
# Poissons Ratio (x) = -0.02711 0.11533
# Poissons Ratio (y) = -0.01978 0.23228
# Poissons Ratio (z) = 0.12423 0.34291
#
# Static dielectric constant tensor:
#      x y z
#    x 1.856170 0.000000 0.022550 
#    y 0.000000 1.819290 0.000000 
#    z 0.022550 0.000000 1.959300 
# 
# From -- ./inp_files/192433.got.cif
#   From: 2010.05.17/outbox.cif.g08.bks.cpg/sg12_97_cif.got.tgz:192433.got - 2010.06.03 13:09:07.
