data_PCOD9199203
_publ_section_title
;
Structure prediction by ZEFSAII (Michael W. Deem and Ramdas Pophale) SiO2 
 PCOD9199203
Probable space group: C 2/M
;
_chemical_formula_sum "Si O2"
_cell_formula_units_Z 48
_cell_length_a 15.094981
_cell_length_b 22.202656
_cell_length_c 15.047495
_cell_angle_alpha 90.000000
_cell_angle_beta 151.455478
_cell_angle_gamma 90.000000
_cell_volume 2409.825407
_symmetry_space_group_name_H-M "C 2/M"
_symmetry_group_IT_number 12
_symmetry_cell_setting 'monoclinic'
loop_
_space_group_symop_operation_xyz
x,y,z
-x,y,-z
-x,-y,-z
x,-y,z
1/2+x,1/2+y,z
1/2-x,1/2+y,-z
1/2-x,1/2-y,-z
1/2+x,1/2-y,z
loop_
_atom_site_type_symbol
_atom_site_label
_atom_site_fract_x
_atom_site_fract_y
_atom_site_fract_z
Si Si1 0.475362 0.831763 0.071393
Si Si2 0.503133 0.431044 0.904730
Si Si3 0.676935 0.757941 0.834980
Si Si4 0.109739 0.829006 0.503712
Si Si5 0.698434 0.429318 0.444733
Si Si6 0.882975 0.609408 0.170548
O O1 0.675075 0.814167 0.287094
O O2 0.377247 0.871280 0.061454
O O3 0.500000 0.865945 0.000000
O O4 0.345577 0.774815 0.933267
O O5 0.436740 0.500000 0.857160
O O6 0.378383 0.403973 0.716583
O O7 0.500000 0.402682 0.000000
O O8 0.710079 0.429579 0.048644
O O9 0.494891 0.720886 0.647483
O O10 0.636377 0.828294 0.791112
O O11 0.750000 0.750000 0.000000
O O12 0.114746 0.890376 0.451264
O O13 0.000000 0.834667 0.500000
O O14 0.651223 0.500000 0.410680
O O15 0.919434 0.420914 0.640530
#
# Coordination Sequence:
#
# PCOD9199203 Si02
#       6
#     8   8   8   8   8   8
#     4  10  20  36  59  87 123 163 199 243 303 369
#     4  10  22  41  62  86 119 162 208 262 315 358
#     4  10  21  37  57  87 120 163 205 248 302 358
#     4  11  22  38  63  90 130 167 204 248 307 374
#     4  10  22  40  63  90 123 162 206 258 305 361
#     4  10  22  38  62  88 122 158 206 257 307 367
#
# _framework density 19.918455000000002
#
# number of rings (size 3 to 8) (size 9 to 14) (size 15 to 20)
#    0.000    1.833    1.667    2.500    0.000    9.000 
#    3.000    2.500    0.000    2.500    0.000    0.000 
#    0.000    0.000    0.000    0.000    0.000    0.000 
#
# Total GULP energy -133796.789625 kJ/mol
# GULP energy per Si atom -5574.866234 kJ/mol
# Density = 1.987312 g / cm^3
# Si number density = 19.918455 Si / 1000 Ang^3
#
#
#
# Elastic Constant Matrix: (Units=GPa)
#
#
# Indices 1 2 3 4 5 6 
#
# 1 94.0074 0.9764 14.7592 -0.0001 -15.7332 -0.0001
# 2 0.9764 59.8963 9.4322 0.0001 -11.5639 0.0001
# 3 14.7592 9.4322 83.1100 0.0001 -14.6058 0.0001
# 4 -0.0001 0.0001 0.0001 67.2659 -0.0001 33.0580
# 5 -15.7332 -11.5639 -14.6058 -0.0001 30.9586 0.0000
# 6 -0.0001 0.0001 0.0001 33.0580 0.0000 36.4541
#
#
#
# Elastic Compliance Matrix: (Units=1/GPa)
#
#
# Indices 1 2 3 4 5 6 
#
# 1 0.011792 0.001125 -0.001194 0.000000 0.005850 0.000000
# 2 0.001125 0.018168 -0.001056 0.000000 0.006860 0.000000
# 3 -0.001194 -0.001056 0.013290 0.000000 0.005269 0.000000
# 4 0.000000 0.000000 0.000000 0.026819 0.000000 -0.024320
# 5 0.005850 0.006860 0.005269 0.000000 0.040322 0.000000
# 6 0.000000 0.000000 0.000000 -0.024320 0.000000 0.049486
#
#
# Mechanical properties :
#
#
# Convention : Reuss Voigt Hill
#
# Bulk Modulus (GPa) = 24.38984 31.92768 28.15876
# Shear Modulus (GPa) = 28.44241 41.05877 34.75059
#
# Velocity S-wave (km/s) = 3.78291 4.54513 4.18142
# Velocity P-wave (km/s) = 5.59928 6.60365 6.12210
#
# Compressibility (1/GPa) = 0.04100069
#
# Stress axis : x y z
#
# Youngs Moduli (GPa) = 84.80149 55.04223 75.24417
#
# Poissons Ratio (x) = -0.06193 0.08982
# Poissons Ratio (y) = -0.09542 0.07947
# Poissons Ratio (z) = 0.10123 0.05813
#
# Static dielectric constant tensor:
#      x y z
#    x 1.772650 0.000000 -0.013340 
#    y 0.000000 1.726840 0.000000 
#    z -0.013340 0.000000 1.706050 
# 
# From -- ./inp_files/218405.got.cif
#   From: 2010.05.17/outbox.cif.g08.bks.cpg/sg12_110_cif.got.tgz:218405.got - 2010.06.03 13:09:07.
