data_PCOD9199726
_publ_section_title
;
Structure prediction by ZEFSAII (Michael W. Deem and Ramdas Pophale) SiO2 
 PCOD9199726
Probable space group: C 2/M
;
_chemical_formula_sum "Si O2"
_cell_formula_units_Z 40
_cell_length_a 13.818326
_cell_length_b 13.437916
_cell_length_c 10.479489
_cell_angle_alpha 90.000000
_cell_angle_beta 91.287767
_cell_angle_gamma 90.000000
_cell_volume 1945.439632
_symmetry_space_group_name_H-M "C 2/M"
_symmetry_group_IT_number 12
_symmetry_cell_setting 'monoclinic'
loop_
_space_group_symop_operation_xyz
x,y,z
-x,y,-z
-x,-y,-z
x,-y,z
1/2+x,1/2+y,z
1/2-x,1/2+y,-z
1/2-x,1/2-y,-z
1/2+x,1/2-y,z
loop_
_atom_site_type_symbol
_atom_site_label
_atom_site_fract_x
_atom_site_fract_y
_atom_site_fract_z
Si Si1 0.805772 0.114698 0.228279
Si Si2 0.590571 0.883190 0.152826
Si Si3 0.721828 0.884531 0.629667
Si Si4 0.614252 0.703603 0.509827
Si Si5 0.886347 0.691650 0.133440
O O1 0.690382 0.133118 0.229490
O O2 0.850948 0.139806 0.366543
O O3 0.853425 0.193934 0.133740
O O4 0.820447 0.000000 0.193439
O O5 0.495896 0.821504 0.189183
O O6 0.565027 0.000000 0.160122
O O7 0.612944 0.855147 0.006486
O O8 0.654957 0.814059 0.539199
O O9 0.829940 0.844850 0.607427
O O10 0.685211 0.864079 0.771686
O O11 0.713661 0.000000 0.597722
O O12 0.500000 0.702738 0.500000
#
# Coordination Sequence:
#
# PCOD9199726 Si02
#       5
#     8   8   8   8   8
#     4  10  22  38  57  82 115 153 190 231 282 337
#     4  10  20  38  61  85 116 151 185 231 290 337
#     4  10  21  37  60  88 112 143 192 239 278 334
#     4  10  23  41  58  81 117 155 188 231 288 338
#     4  10  20  36  61  89 115 146 189 234 281 337
#
# _framework density 20.560907
#
# number of rings (size 3 to 8) (size 9 to 14) (size 15 to 20)
#    0.000    2.000    0.000    3.600    0.000   11.600 
#    0.000    2.000    0.000    4.800    0.000    0.000 
#    0.000    0.000    0.000    0.000    0.000    0.000 
#
# Total GULP energy -111780.042358 kJ/mol
# GULP energy per Si atom -5589.002118 kJ/mol
# Density = 2.051411 g / cm^3
# Si number density = 20.560907 Si / 1000 Ang^3
#
#
#
# Elastic Constant Matrix: (Units=GPa)
#
#
# Indices 1 2 3 4 5 6 
#
# 1 166.3450 67.2140 27.5530 0.0000 -14.1767 0.0000
# 2 67.2140 111.7217 -6.1089 0.0000 6.9983 0.0000
# 3 27.5530 -6.1089 49.4118 0.0000 -15.4566 0.0000
# 4 0.0000 0.0000 0.0000 15.5514 0.0000 -6.7021
# 5 -14.1767 6.9983 -15.4566 0.0000 29.0565 0.0000
# 6 0.0000 0.0000 0.0000 -6.7021 0.0000 21.1681
#
#
#
# Elastic Compliance Matrix: (Units=1/GPa)
#
#
# Indices 1 2 3 4 5 6 
#
# 1 0.009726 -0.006354 -0.005094 0.000000 0.003566 0.000000
# 2 -0.006354 0.013250 0.003854 0.000000 -0.004241 0.000000
# 3 -0.005094 0.003854 0.026976 0.000000 0.010936 0.000000
# 4 0.000000 0.000000 0.000000 0.074464 0.000000 0.023576
# 5 0.003566 -0.004241 0.010936 0.000000 0.042995 0.000000
# 6 0.000000 0.000000 0.000000 0.023576 0.000000 0.054706
#
#
# Mechanical properties :
#
#
# Convention : Reuss Voigt Hill
#
# Bulk Modulus (GPa) = 28.76330 56.08829 42.42580
# Shear Modulus (GPa) = 20.08917 29.07654 24.58286
#
# Velocity S-wave (km/s) = 3.12918 3.76462 3.46151
# Velocity P-wave (km/s) = 5.20340 6.79962 6.05435
#
# Compressibility (1/GPa) = 0.03476652
#
# Stress axis : x y z
#
# Youngs Moduli (GPa) = 102.81222 75.47377 37.07008
#
# Poissons Ratio (x) = 0.47953 0.18882
# Poissons Ratio (y) = 0.65322 -0.14288
# Poissons Ratio (z) = 0.52368 -0.29091
#
# Static dielectric constant tensor:
#      x y z
#    x 1.731890 0.000000 0.013340 
#    y 0.000000 1.729760 0.000000 
#    z 0.013340 0.000000 1.764780 
# 
# From -- ./inp_files/129140.got.cif
#   From: 2010.05.17/outbox.cif.g08.bks.cpg/sg12_65_cif.got.tgz:129140.got - 2010.06.03 13:09:07.
