data_PCOD9199061
_publ_section_title
;
Structure prediction by ZEFSAII (Michael W. Deem and Ramdas Pophale) SiO2 
 PCOD9199061
Probable space group: C 2/M
;
_chemical_formula_sum "Si O2"
_cell_formula_units_Z 64
_cell_length_a 15.620400
_cell_length_b 8.197113
_cell_length_c 24.057573
_cell_angle_alpha 90.000000
_cell_angle_beta 84.775440
_cell_angle_gamma 90.000000
_cell_volume 3067.586598
_symmetry_space_group_name_H-M "C 2/M"
_symmetry_group_IT_number 12
_symmetry_cell_setting 'monoclinic'
loop_
_space_group_symop_operation_xyz
x,y,z
-x,y,-z
-x,-y,-z
x,-y,z
1/2+x,1/2+y,z
1/2-x,1/2+y,-z
1/2-x,1/2-y,-z
1/2+x,1/2-y,z
loop_
_atom_site_type_symbol
_atom_site_label
_atom_site_fract_x
_atom_site_fract_y
_atom_site_fract_z
Si Si1 0.892557 0.696312 0.357518
Si Si2 0.346629 0.698981 0.746692
Si Si3 0.395222 0.692333 0.863408
Si Si4 0.353957 0.801258 0.238008
Si Si5 0.074557 0.803101 0.375323
Si Si6 0.732805 0.691259 0.938796
Si Si7 0.730404 0.696996 0.438943
Si Si8 0.427739 0.193165 0.115772
O O1 0.888927 0.500000 0.355648
O O2 0.895301 0.756003 0.293482
O O3 0.806259 0.753240 0.393202
O O4 0.977054 0.747258 0.385410
O O5 0.348431 0.500000 0.746915
O O6 0.393396 0.756213 0.800005
O O7 0.246421 0.745505 0.755382
O O8 0.388966 0.753653 0.686726
O O9 0.411817 0.500000 0.861171
O O10 0.301258 0.721373 0.894502
O O11 0.471231 0.771969 0.894423
O O12 0.398860 0.745330 0.178830
O O13 0.357177 0.000000 0.237462
O O14 0.139322 0.746591 0.419502
O O15 0.076025 0.000000 0.374787
O O16 0.749106 0.500000 0.933978
O O17 0.636012 0.727803 0.924840
O O18 0.750000 0.750000 0.000000
O O19 0.730108 0.500000 0.437513
O O20 0.750000 0.750000 0.500000
O O21 0.413158 0.000000 0.114102
#
# Coordination Sequence:
#
# PCOD9199061 Si02
#       8
#     8   8   8   8   8   8   8   8
#     4  10  20  36  59  85 114 150 191 235 289 348
#     4   9  16  32  60  88 118 155 191 232 289 353
#     4  11  22  39  64  94 126 161 197 242 298 357
#     4   9  16  32  60  88 118 155 191 232 289 353
#     4  10  20  36  59  85 114 150 191 235 289 348
#     4  12  26  45  66  90 120 159 207 254 299 352
#     4  10  22  39  58  78 108 151 195 240 289 344
#     4  11  22  39  64  94 126 161 197 242 298 357
#
# _framework density 20.863306999999999
#
# number of rings (size 3 to 8) (size 9 to 14) (size 15 to 20)
#    0.000    1.750    2.500    2.625    0.000    2.000 
#    0.000    6.250    0.000    0.000    0.000    0.000 
#    0.000    0.000    0.000    0.000    0.000    0.000 
#
# Total GULP energy -178827.226810 kJ/mol
# GULP energy per Si atom -5588.350838 kJ/mol
# Density = 2.081582 g / cm^3
# Si number density = 20.863307 Si / 1000 Ang^3
#
#
#
# Elastic Constant Matrix: (Units=GPa)
#
#
# Indices 1 2 3 4 5 6 
#
# 1 101.1358 -0.9546 12.0645 0.0000 40.0939 0.0000
# 2 -0.9546 17.4491 8.9846 0.0000 2.6701 0.0000
# 3 12.0645 8.9846 84.5373 0.0000 39.0531 0.0000
# 4 0.0000 0.0000 0.0000 21.4135 0.0000 0.5666
# 5 40.0939 2.6701 39.0531 0.0000 31.6573 0.0000
# 6 0.0000 0.0000 0.0000 0.5666 0.0000 27.0181
#
#
#
# Elastic Compliance Matrix: (Units=1/GPa)
#
#
# Indices 1 2 3 4 5 6 
#
# 1 0.085074 -0.007898 0.088733 0.000000 -0.216543 0.000000
# 2 -0.007898 0.061958 -0.017820 0.000000 0.026761 0.000000
# 3 0.088733 -0.017820 0.121552 0.000000 -0.260828 0.000000
# 4 0.000000 0.000000 0.000000 0.046725 0.000000 -0.000980
# 5 -0.216543 0.026761 -0.260828 0.000000 0.625347 0.000000
# 6 0.000000 0.000000 0.000000 -0.000980 0.000000 0.037033
#
#
# Mechanical properties :
#
#
# Convention : Reuss Voigt Hill
#
# Bulk Modulus (GPa) = 2.53412 27.03458 14.78435
# Shear Modulus (GPa) = 5.08545 28.21962 16.65253
#
# Velocity S-wave (km/s) = 1.56295 3.68175 2.82826
# Velocity P-wave (km/s) = 2.11526 5.57314 4.21510
#
# Compressibility (1/GPa) = 0.39461451
#
# Stress axis : x y z
#
# Youngs Moduli (GPa) = 11.75449 16.13992 8.22690
#
# Poissons Ratio (x) = 0.12748 -0.73000
# Poissons Ratio (y) = 0.09284 0.14660
# Poissons Ratio (z) = -1.04302 0.28762
#
# Static dielectric constant tensor:
#      x y z
#    x 1.727800 0.000000 0.005350 
#    y 0.000000 1.728900 0.000000 
#    z 0.005350 0.000000 1.738800 
# 
# From -- ./inp_files/338667.got.cif
#   From: 2010.05.17/outbox.cif.g08.bks.cpg/sg12_170_cif.got.tgz:338667.got - 2010.06.03 13:09:07.
