data_PCOD9199654
_publ_section_title
;
Structure prediction by ZEFSAII (Michael W. Deem and Ramdas Pophale) SiO2 
 PCOD9199654
Probable space group: C 2/M
;
_chemical_formula_sum "Si O2"
_cell_formula_units_Z 64
_cell_length_a 20.241445
_cell_length_b 24.431350
_cell_length_c 16.088441
_cell_angle_alpha 90.000000
_cell_angle_beta 24.427954
_cell_angle_gamma 90.000000
_cell_volume 3290.255270
_symmetry_space_group_name_H-M "C 2/M"
_symmetry_group_IT_number 12
_symmetry_cell_setting 'monoclinic'
loop_
_space_group_symop_operation_xyz
x,y,z
-x,y,-z
-x,-y,-z
x,-y,z
1/2+x,1/2+y,z
1/2-x,1/2+y,-z
1/2-x,1/2-y,-z
1/2+x,1/2-y,z
loop_
_atom_site_type_symbol
_atom_site_label
_atom_site_fract_x
_atom_site_fract_y
_atom_site_fract_z
Si Si1 0.837197 0.346277 0.434300
Si Si2 0.096367 0.063475 0.127492
Si Si3 0.092011 0.436128 0.115731
Si Si4 0.266086 0.741893 0.178026
Si Si5 0.633360 0.640066 0.512234
Si Si6 0.020673 0.256509 0.614312
Si Si7 0.847429 0.634709 0.114879
Si Si8 0.996023 0.139829 0.911663
O O1 0.779993 0.341877 0.404214
O O2 0.934370 0.295335 0.360577
O O3 0.673776 0.351940 0.672994
O O4 0.944206 0.400421 0.317823
O O5 0.956592 0.089375 0.344108
O O6 0.095254 0.099463 0.045856
O O7 0.065354 0.000000 0.145467
O O8 0.261171 0.068168 0.988747
O O9 0.052311 0.500000 0.149814
O O10 0.142840 0.408034 0.970822
O O11 0.159634 0.738188 0.384510
O O12 0.333118 0.803433 0.097042
O O13 0.145205 0.730218 0.240723
O O14 0.405234 0.697671 0.019028
O O15 0.519447 0.692911 0.640897
O O16 0.695949 0.627210 0.348994
O O17 0.000000 0.629432 0.000000
O O18 0.000000 0.117301 0.000000
#
# Coordination Sequence:
#
# PCOD9199654 Si02
#       8
#     8   8   8   8   8   8   8   8
#     4  11  22  38  61  90 126 160 203 253 302 359
#     4  10  24  44  64  88 123 159 206 260 300 352
#     4  11  25  44  63  88 122 163 206 255 306 356
#     4  10  21  36  62  92 129 158 200 247 297 368
#     4  10  22  39  62  95 123 163 204 248 298 360
#     4  10  20  36  60  94 127 163 195 244 305 367
#     4  11  22  40  64  92 126 165 200 248 302 363
#     4  11  22  41  66  92 121 162 200 251 307 366
#
# _framework density 19.451377999999998
#
# number of rings (size 3 to 8) (size 9 to 14) (size 15 to 20)
#    0.000    1.500    2.500    2.250    1.750    6.500 
#    0.000    5.625    0.000    1.500    0.000    0.000 
#    0.000    0.000    0.000    0.000    0.000    0.000 
#
# Total GULP energy -178913.405765 kJ/mol
# GULP energy per Si atom -5591.043930 kJ/mol
# Density = 1.940711 g / cm^3
# Si number density = 19.451378 Si / 1000 Ang^3
#
#
#
# Elastic Constant Matrix: (Units=GPa)
#
#
# Indices 1 2 3 4 5 6 
#
# 1 58.1843 12.5803 3.6360 -0.0486 -5.2547 -0.1981
# 2 12.5803 80.2087 10.8161 -0.0578 -0.7880 0.1365
# 3 3.6360 10.8161 31.1526 -0.0627 4.4324 -0.1397
# 4 -0.0486 -0.0578 -0.0627 55.9953 0.0231 7.4557
# 5 -5.2547 -0.7880 4.4324 0.0231 22.4489 0.1070
# 6 -0.1981 0.1365 -0.1397 7.4557 0.1070 -259.2379
#
#
#
# Elastic Compliance Matrix: (Units=1/GPa)
#
#
# Indices 1 2 3 4 5 6 
#
# 1 0.018272 -0.002566 -0.001890 0.000011 0.004560 -0.000012
# 2 -0.002566 0.013483 -0.004490 0.000005 0.000759 0.000012
# 3 -0.001890 -0.004490 0.034947 0.000039 -0.007500 -0.000022
# 4 0.000011 0.000005 0.000039 0.017791 -0.000026 0.000512
# 5 0.004560 0.000759 -0.007500 -0.000026 0.047120 0.000020
# 6 -0.000012 0.000012 -0.000022 0.000512 0.000020 -0.003843
#
#
# Mechanical properties :
#
#
# Convention : Reuss Voigt Hill
#
# Bulk Modulus (GPa) = 20.48821 24.84562 22.66691
# Shear Modulus (GPa) = 30.87735 -26.65787 2.10974
#
# Velocity S-wave (km/s) = 3.98856 -3.70603 1.04258
# Velocity P-wave (km/s) = 5.63625 2.34775 3.62322
#
# Compressibility (1/GPa) = 0.04880856
#
# Stress axis : x y z
#
# Youngs Moduli (GPa) = 54.73001 74.16856 28.61512
#
# Poissons Ratio (x) = 0.19032 0.05410
# Poissons Ratio (y) = 0.14044 0.12847
# Poissons Ratio (z) = 0.10347 0.33299
#
# Static dielectric constant tensor:
#      x y z
#    x 1.688900 0.000000 -0.002710 
#    y 0.000000 1.636490 0.000010 
#    z -0.002710 0.000010 1.696040 
# 
# From -- ./inp_files/228114.got.cif
#   From: 2010.05.17/outbox.cif.g08.bks.cpg/sg12_115_cif.got.tgz:228114.got - 2010.06.03 13:09:07.
