data_PCOD9199042
_publ_section_title
;
Structure prediction by ZEFSAII (Michael W. Deem and Ramdas Pophale) SiO2 
 PCOD9199042
Probable space group: C 2/M
;
_chemical_formula_sum "Si O2"
_cell_formula_units_Z 48
_cell_length_a 25.816102
_cell_length_b 8.552213
_cell_length_c 24.779444
_cell_angle_alpha 90.000000
_cell_angle_beta 150.792344
_cell_angle_gamma 90.000000
_cell_volume 2669.681558
_symmetry_space_group_name_H-M "C 2/M"
_symmetry_group_IT_number 12
_symmetry_cell_setting 'monoclinic'
loop_
_space_group_symop_operation_xyz
x,y,z
-x,y,-z
-x,-y,-z
x,-y,z
1/2+x,1/2+y,z
1/2-x,1/2+y,-z
1/2-x,1/2-y,-z
1/2+x,1/2-y,z
loop_
_atom_site_type_symbol
_atom_site_label
_atom_site_fract_x
_atom_site_fract_y
_atom_site_fract_z
Si Si1 0.571327 0.809675 0.013777
Si Si2 0.685773 0.813729 0.622094
Si Si3 0.593629 0.189426 0.224162
Si Si4 0.519042 0.687271 0.383026
Si Si5 0.810258 0.189352 0.254763
Si Si6 0.368218 0.812721 0.618820
O O1 0.692518 0.757636 0.130445
O O2 0.573166 0.000000 0.016280
O O3 0.500000 0.759802 0.000000
O O4 0.510112 0.762312 0.903840
O O5 0.802306 0.755781 0.710445
O O6 0.602114 0.744082 0.503725
O O7 0.664132 0.754902 0.662826
O O8 0.681051 0.000000 0.615720
O O9 0.595735 0.237369 0.288571
O O10 0.600528 0.000000 0.228333
O O11 0.523831 0.500000 0.384756
O O12 0.401902 0.734594 0.296192
O O13 0.554952 0.754493 0.358428
O O14 0.809460 0.000000 0.257751
O O15 0.250000 0.750000 0.500000
O O16 0.364151 0.000000 0.614104
#
# Coordination Sequence:
#
# PCOD9199042 Si02
#       6
#     8   8   8   8   8   8
#     4   9  16  32  61  86 107 142 190 234 271 329
#     4  12  23  34  55  85 118 148 181 232 288 340
#     4  10  20  36  59  85 112 145 188 232 277 334
#     4  11  23  38  57  81 114 152 191 233 281 336
#     4  10  21  38  59  83 112 150 191 231 279 338
#     4  11  22  36  58  84 114 150 189 234 280 330
#
# _framework density 17.979672000000001
#
# number of rings (size 3 to 8) (size 9 to 14) (size 15 to 20)
#    0.000    1.500    3.333    3.000    0.000    4.000 
#    0.000    2.500    0.000    0.000    0.000    0.000 
#    0.000    0.000    0.000    0.000    0.000    0.000 
#
# Total GULP energy -134080.400435 kJ/mol
# GULP energy per Si atom -5586.683351 kJ/mol
# Density = 1.793875 g / cm^3
# Si number density = 17.979672 Si / 1000 Ang^3
#
#
#
# Elastic Constant Matrix: (Units=GPa)
#
#
# Indices 1 2 3 4 5 6 
#
# 1 152.5712 27.1453 39.8910 0.0000 -8.5731 0.0000
# 2 27.1453 24.4559 9.3812 0.0000 -2.9774 0.0000
# 3 39.8910 9.3812 57.6850 0.0000 -14.8481 0.0000
# 4 0.0000 0.0000 0.0000 7.3343 0.0000 -3.7605
# 5 -8.5731 -2.9774 -14.8481 0.0000 33.1483 0.0000
# 6 0.0000 0.0000 0.0000 -3.7605 0.0000 29.7442
#
#
#
# Elastic Compliance Matrix: (Units=1/GPa)
#
#
# Indices 1 2 3 4 5 6 
#
# 1 0.009415 -0.008500 -0.005311 0.000000 -0.000707 0.000000
# 2 -0.008500 0.051304 -0.002086 0.000000 0.001476 0.000000
# 3 -0.005311 -0.002086 0.023675 0.000000 0.009044 0.000000
# 4 0.000000 0.000000 0.000000 0.145796 0.000000 0.018432
# 5 -0.000707 0.001476 0.009044 0.000000 0.034168 0.000000
# 6 0.000000 0.000000 0.000000 0.018432 0.000000 0.035950
#
#
# Mechanical properties :
#
#
# Convention : Reuss Voigt Hill
#
# Bulk Modulus (GPa) = 19.01068 43.06079 31.03574
# Shear Modulus (GPa) = 14.30061 24.59835 19.44948
#
# Velocity S-wave (km/s) = 2.82330 3.70282 3.29256
# Velocity P-wave (km/s) = 4.60700 6.50253 5.63504
#
# Compressibility (1/GPa) = 0.05260200
#
# Stress axis : x y z
#
# Youngs Moduli (GPa) = 106.20922 19.49159 42.23831
#
# Poissons Ratio (x) = 0.16567 0.22432
# Poissons Ratio (y) = 0.90275 0.08811
# Poissons Ratio (z) = 0.56405 0.04066
#
# Static dielectric constant tensor:
#      x y z
#    x 1.599160 0.000000 0.000280 
#    y 0.000000 1.613940 0.000000 
#    z 0.000280 0.000000 1.605090 
# 
# From -- ./inp_files/172416.got.cif
#   From: 2010.05.17/outbox.cif.g08.bks.cpg/sg12_87_cif.got.tgz:172416.got - 2010.06.03 13:09:07.
