data_PCOD9199514
_publ_section_title
;
Structure prediction by ZEFSAII (Michael W. Deem and Ramdas Pophale) SiO2 
 PCOD9199514
Probable space group: C 2/M
;
_chemical_formula_sum "Si O2"
_cell_formula_units_Z 56
_cell_length_a 24.808776
_cell_length_b 8.150588
_cell_length_c 14.139676
_cell_angle_alpha 90.000000
_cell_angle_beta 125.111688
_cell_angle_gamma 90.000000
_cell_volume 2338.860091
_symmetry_space_group_name_H-M "C 2/M"
_symmetry_group_IT_number 12
_symmetry_cell_setting 'monoclinic'
loop_
_space_group_symop_operation_xyz
x,y,z
-x,y,-z
-x,-y,-z
x,-y,z
1/2+x,1/2+y,z
1/2-x,1/2+y,-z
1/2-x,1/2-y,-z
1/2+x,1/2-y,z
loop_
_atom_site_type_symbol
_atom_site_label
_atom_site_fract_x
_atom_site_fract_y
_atom_site_fract_z
Si Si1 0.067058 0.312332 0.094445
Si Si2 0.415071 0.808512 0.193722
Si Si3 0.227715 0.311612 0.685005
Si Si4 0.407289 0.686973 0.394029
Si Si5 0.679010 0.813032 0.055142
Si Si6 0.166180 0.304845 0.347553
Si Si7 0.557149 0.304770 0.370428
O O1 0.052102 0.500000 0.112769
O O2 0.111620 0.235028 0.219105
O O3 0.112169 0.324486 0.048738
O O4 0.000000 0.227064 0.000000
O O5 0.405081 0.785608 0.295137
O O6 0.350686 0.740875 0.072356
O O7 0.488778 0.739774 0.248713
O O8 0.416833 0.000000 0.171884
O O9 0.206280 0.500000 0.661741
O O10 0.166291 0.193703 0.637740
O O11 0.267531 0.275203 0.627406
O O12 0.272892 0.281846 0.824543
O O13 0.425391 0.500000 0.387742
O O14 0.450325 0.744908 0.526857
O O15 0.704824 0.000000 0.067409
O O16 0.175692 0.500000 0.344149
O O17 0.124577 0.275304 0.400005
O O18 0.565674 0.500000 0.376186
#
# Coordination Sequence:
#
# PCOD9199514 Si02
#       7
#     8   8   8   8   8   8   8
#     4   8  13  25  48  78 111 147 186 228 281 345
#     4  11  23  40  65  94 122 157 202 251 303 359
#     4  11  23  40  63  92 123 157 202 251 300 359
#     4  11  25  44  63  84 119 165 207 252 303 356
#     4   9  19  36  58  86 121 158 195 240 298 361
#     4  10  20  36  60  88 121 159 197 245 302 359
#     4  11  24  41  62  90 123 160 203 251 303 358
#
# _framework density 23.943287000000002
#
# number of rings (size 3 to 8) (size 9 to 14) (size 15 to 20)
#    0.000    1.857    0.000    5.143    0.000    8.571 
#    0.000    0.000    0.000    4.714    0.000    0.000 
#    0.000    0.000    0.000    0.000    0.000    0.000 
#
# Total GULP energy -156297.325222 kJ/mol
# GULP energy per Si atom -5582.047329 kJ/mol
# Density = 2.388879 g / cm^3
# Si number density = 23.943287 Si / 1000 Ang^3
#
#
#
# Elastic Constant Matrix: (Units=GPa)
#
#
# Indices 1 2 3 4 5 6 
#
# 1 62.9589 1.6152 -1.9055 0.0000 -4.0604 0.0000
# 2 1.6152 56.8519 4.2250 0.0000 -2.0134 0.0000
# 3 -1.9055 4.2250 79.6576 0.0000 -19.3254 0.0000
# 4 0.0000 0.0000 0.0000 21.1963 0.0000 -3.1368
# 5 -4.0604 -2.0134 -19.3254 0.0000 32.4926 0.0000
# 6 0.0000 0.0000 0.0000 -3.1368 0.0000 25.8997
#
#
#
# Elastic Compliance Matrix: (Units=1/GPa)
#
#
# Indices 1 2 3 4 5 6 
#
# 1 0.016094 -0.000442 0.001040 0.000000 0.002602 0.000000
# 2 -0.000442 0.017682 -0.000813 0.000000 0.000557 0.000000
# 3 0.001040 -0.000813 0.014773 0.000000 0.008866 0.000000
# 4 0.000000 0.000000 0.000000 0.048039 0.000000 0.005818
# 5 0.002602 0.000557 0.008866 0.000000 0.036409 0.000000
# 6 0.000000 0.000000 0.000000 0.005818 0.000000 0.039315
#
#
# Mechanical properties :
#
#
# Convention : Reuss Voigt Hill
#
# Bulk Modulus (GPa) = 20.78271 23.03754 21.91013
# Shear Modulus (GPa) = 26.48543 28.95331 27.71937
#
# Velocity S-wave (km/s) = 3.32953 3.48119 3.40620
# Velocity P-wave (km/s) = 4.84560 5.07946 4.96390
#
# Compressibility (1/GPa) = 0.04811692
#
# Stress axis : x y z
#
# Youngs Moduli (GPa) = 62.13488 56.55380 67.69270
#
# Poissons Ratio (x) = 0.02502 -0.07038
# Poissons Ratio (y) = 0.02749 0.05506
# Poissons Ratio (z) = -0.06460 0.04600
#
# Static dielectric constant tensor:
#      x y z
#    x 1.961230 0.000000 -0.009860 
#    y 0.000000 1.835820 0.000000 
#    z -0.009860 0.000000 2.027720 
# 
# From -- ./inp_files/238982.got.cif
#   From: 2010.05.17/outbox.cif.g08.bks.cpg/sg12_120_cif.got.tgz:238982.got - 2010.06.03 13:09:07.
