data_PCOD9199029
_publ_section_title
;
Structure prediction by ZEFSAII (Michael W. Deem and Ramdas Pophale) SiO2 
 PCOD9199029
Probable space group: C 2/M
;
_chemical_formula_sum "Si O2"
_cell_formula_units_Z 42
_cell_length_a 8.280481
_cell_length_b 32.380311
_cell_length_c 8.896234
_cell_angle_alpha 90.000000
_cell_angle_beta 117.020908
_cell_angle_gamma 90.000000
_cell_volume 2124.921430
_symmetry_space_group_name_H-M "C 2/M"
_symmetry_group_IT_number 12
_symmetry_cell_setting 'monoclinic'
loop_
_space_group_symop_operation_xyz
x,y,z
-x,y,-z
-x,-y,-z
x,-y,z
1/2+x,1/2+y,z
1/2-x,1/2+y,-z
1/2-x,1/2-y,-z
1/2+x,1/2-y,z
loop_
_atom_site_type_symbol
_atom_site_label
_atom_site_fract_x
_atom_site_fract_y
_atom_site_fract_z
Si Si1 0.206556 0.500000 0.647014
Si Si2 0.500000 0.500000 0.500000
Si Si3 0.784158 0.500000 0.880940
Si Si4 0.623348 0.691904 0.681003
Si Si5 0.500841 0.216026 0.324682
Si Si6 0.708300 0.429580 0.078194
Si Si7 0.824248 0.343263 0.031545
O O1 0.373553 0.500000 0.600890
O O2 0.231709 0.459257 0.761126
O O3 0.000000 0.500000 0.500000
O O4 0.691222 0.500000 0.680518
O O5 0.722015 0.458632 0.938711
O O6 0.000000 0.500000 0.000000
O O7 0.500000 0.671452 0.500000
O O8 0.530169 0.734867 0.690735
O O9 0.810510 0.704509 0.676320
O O10 0.662668 0.665243 0.845488
O O11 0.500000 0.203792 0.500000
O O12 0.346494 0.192344 0.165269
O O13 0.818626 0.387681 0.106322
O O14 0.500000 0.417067 0.000000
O O15 0.000000 0.341536 0.000000
#
# Coordination Sequence:
#
# PCOD9199029 Si02
#       7
#     4   2   4   8   8   8   8
#     4  11  24  43  70 100 122 169 214 262 321 395
#     4  12  20  42  72  98 128 158 232 256 316 400
#     4  11  22  41  68  92 124 169 206 264 319 383
#     4  10  20  37  58  86 117 158 210 257 310 365
#     4  10  20  36  59  84 120 157 207 258 308 374
#     4  11  22  43  60  87 132 157 201 253 316 376
#     4  10  23  39  59  87 121 166 205 253 318 377
#
# _framework density 19.765436999999999
#
# number of rings (size 3 to 8) (size 9 to 14) (size 15 to 20)
#    0.000    1.524    1.905    5.143    0.000    3.810 
#    1.714    3.810    0.000    0.000    0.000    0.000 
#    0.000    0.000    0.000    0.000    0.000    0.000 
#
# Total GULP energy -116946.895638 kJ/mol
# GULP energy per Si atom -5568.899792 kJ/mol
# Density = 1.972045 g / cm^3
# Si number density = 19.765437 Si / 1000 Ang^3
#
#
#
# Elastic Constant Matrix: (Units=GPa)
#
#
# Indices 1 2 3 4 5 6 
#
# 1 46.2697 -0.6702 22.4691 0.0000 -4.5865 0.0000
# 2 -0.6702 56.4444 41.9937 0.0000 -12.6871 0.0000
# 3 22.4691 41.9937 158.5878 0.0000 5.1922 0.0000
# 4 0.0000 0.0000 0.0000 -20.0594 0.0000 -2.3922
# 5 -4.5865 -12.6871 5.1922 0.0000 29.2517 0.0000
# 6 0.0000 0.0000 0.0000 -2.3922 0.0000 6.7968
#
#
#
# Elastic Compliance Matrix: (Units=1/GPa)
#
#
# Indices 1 2 3 4 5 6 
#
# 1 0.025051 0.005978 -0.005377 0.000000 0.007475 0.000000
# 2 0.005978 0.027384 -0.008567 0.000000 0.014335 0.000000
# 3 -0.005377 -0.008567 0.009541 0.000000 -0.006252 0.000000
# 4 0.000000 0.000000 0.000000 -0.047844 0.000000 -0.016839
# 5 0.007475 0.014335 -0.006252 0.000000 0.042685 0.000000
# 6 0.000000 0.000000 0.000000 -0.016839 0.000000 0.141202
#
#
# Mechanical properties :
#
#
# Convention : Reuss Voigt Hill
#
# Bulk Modulus (GPa) = 21.71891 43.20967 32.46429
# Shear Modulus (GPa) = 21.80554 16.36510 19.08532
#
# Velocity S-wave (km/s) = 3.32507 2.88056 3.11077
# Velocity P-wave (km/s) = 5.07481 5.74214 5.41876
#
# Compressibility (1/GPa) = 0.04604284
#
# Stress axis : x y z
#
# Youngs Moduli (GPa) = 39.91831 36.51815 104.81263
#
# Poissons Ratio (x) = -0.21831 0.56358
# Poissons Ratio (y) = -0.23863 0.89798
# Poissons Ratio (z) = 0.21464 0.31287
#
# Static dielectric constant tensor:
#      x y z
#    x 1.708070 0.000000 0.006350 
#    y 0.000000 1.541800 0.000000 
#    z 0.006350 0.000000 1.704300 
# 
# From -- ./inp_files/42391.got.cif
#   From: 2010.05.17/outbox.cif.g08.bks.cpg/sg12_22_cif.got.tgz:42391.got - 2010.06.03 13:09:07.
