data_PCOD9199109
_publ_section_title
;
Structure prediction by ZEFSAII (Michael W. Deem and Ramdas Pophale) SiO2 
 PCOD9199109
Probable space group: C 2/M
;
_chemical_formula_sum "Si O2"
_cell_formula_units_Z 48
_cell_length_a 20.501477
_cell_length_b 8.718654
_cell_length_c 19.730215
_cell_angle_alpha 90.000000
_cell_angle_beta 130.506181
_cell_angle_gamma 90.000000
_cell_volume 2681.463609
_symmetry_space_group_name_H-M "C 2/M"
_symmetry_group_IT_number 12
_symmetry_cell_setting 'monoclinic'
loop_
_space_group_symop_operation_xyz
x,y,z
-x,y,-z
-x,-y,-z
x,-y,z
1/2+x,1/2+y,z
1/2-x,1/2+y,-z
1/2-x,1/2-y,-z
1/2+x,1/2-y,z
loop_
_atom_site_type_symbol
_atom_site_label
_atom_site_fract_x
_atom_site_fract_y
_atom_site_fract_z
Si Si1 0.777795 0.183022 0.728693
Si Si2 0.222439 0.182069 0.553274
Si Si3 0.744192 0.183806 0.070808
Si Si4 0.869723 0.815633 0.274500
Si Si5 0.035898 0.319211 0.448128
Si Si6 0.598911 0.814691 0.078733
O O1 0.775803 0.244385 0.651036
O O2 0.695628 0.254672 0.712171
O O3 0.859597 0.238122 0.827085
O O4 0.770629 0.000000 0.724556
O O5 0.250000 0.250000 0.500000
O O6 0.123531 0.227652 0.498678
O O7 0.232752 0.000000 0.561015
O O8 0.824882 0.225780 0.173000
O O9 0.659424 0.230513 0.056067
O O10 0.742520 0.000000 0.065084
O O11 0.750000 0.250000 0.000000
O O12 0.961749 0.741083 0.348534
O O13 0.874895 0.000000 0.283013
O O14 0.052077 0.500000 0.448741
O O15 0.000000 0.298692 0.500000
O O16 0.605465 0.000000 0.090462
O O17 0.500000 0.774917 0.000000
#
# Coordination Sequence:
#
# PCOD9199109 Si02
#       6
#     8   8   8   8   8   8
#     4  11  21  36  59  87 117 151 193 240 290 347
#     4  12  25  42  62  85 119 157 194 239 294 347
#     4   9  19  35  56  83 113 147 184 232 289 339
#     4  10  20  36  59  86 114 153 198 238 285 342
#     4  11  22  37  61  91 119 149 194 241 284 346
#     4   9  19  38  61  83 110 148 195 239 283 344
#
# _framework density 17.900672
#
# number of rings (size 3 to 8) (size 9 to 14) (size 15 to 20)
#    0.000    1.667    1.667    5.000    0.000    4.333 
#    3.000    0.000    0.000    0.000    0.000    0.000 
#    0.000    0.000    0.000    0.000    0.000    0.000 
#
# Total GULP energy -134072.535403 kJ/mol
# GULP energy per Si atom -5586.355642 kJ/mol
# Density = 1.785993 g / cm^3
# Si number density = 17.900672 Si / 1000 Ang^3
#
#
#
# Elastic Constant Matrix: (Units=GPa)
#
#
# Indices 1 2 3 4 5 6 
#
# 1 55.6223 22.7970 64.5876 0.0000 -7.7567 0.0000
# 2 22.7970 60.5646 40.2923 0.0000 -7.4198 0.0000
# 3 64.5876 40.2923 154.3184 0.0000 -12.9415 0.0000
# 4 0.0000 0.0000 0.0000 27.7543 0.0000 -6.0993
# 5 -7.7567 -7.4198 -12.9415 0.0000 37.0452 0.0000
# 6 0.0000 0.0000 0.0000 -6.0993 0.0000 26.9859
#
#
#
# Elastic Compliance Matrix: (Units=1/GPa)
#
#
# Indices 1 2 3 4 5 6 
#
# 1 0.035985 -0.004115 -0.013829 0.000000 0.001879 0.000000
# 2 -0.004115 0.020636 -0.003494 0.000000 0.002051 0.000000
# 3 -0.013829 -0.003494 0.013267 0.000000 0.001040 0.000000
# 4 0.000000 0.000000 0.000000 0.037914 0.000000 0.008569
# 5 0.001879 0.002051 0.001040 0.000000 0.028162 0.000000
# 6 0.000000 0.000000 0.000000 0.008569 0.000000 0.038993
#
#
# Mechanical properties :
#
#
# Convention : Reuss Voigt Hill
#
# Bulk Modulus (GPa) = 37.01899 58.42879 47.72389
# Shear Modulus (GPa) = 22.04240 27.87898 24.96069
#
# Velocity S-wave (km/s) = 3.51290 3.95071 3.73822
# Velocity P-wave (km/s) = 6.09746 7.31589 6.73429
#
# Compressibility (1/GPa) = 0.02701316
#
# Stress axis : x y z
#
# Youngs Moduli (GPa) = 27.78945 48.45969 75.37249
#
# Poissons Ratio (x) = 0.19939 1.04233
# Poissons Ratio (y) = 0.11434 0.26334
# Poissons Ratio (z) = 0.38430 0.16931
#
# Static dielectric constant tensor:
#      x y z
#    x 1.594970 0.000000 0.002990 
#    y 0.000000 1.598340 0.000000 
#    z 0.002990 0.000000 1.608310 
# 
# From -- ./inp_files/280783.got.cif
#   From: 2010.05.17/outbox.cif.g08.bks.cpg/sg12_141_cif.got.tgz:280783.got - 2010.06.03 13:09:07.
