data_PCOD9199214
_publ_section_title
;
Structure prediction by ZEFSAII (Michael W. Deem and Ramdas Pophale) SiO2 
 PCOD9199214
Probable space group: C 2/M
;
_chemical_formula_sum "Si O2"
_cell_formula_units_Z 64
_cell_length_a 20.274947
_cell_length_b 14.105832
_cell_length_c 12.992418
_cell_angle_alpha 90.000000
_cell_angle_beta 70.134729
_cell_angle_gamma 90.000000
_cell_volume 3494.657137
_symmetry_space_group_name_H-M "C 2/M"
_symmetry_group_IT_number 12
_symmetry_cell_setting 'monoclinic'
loop_
_space_group_symop_operation_xyz
x,y,z
-x,y,-z
-x,-y,-z
x,-y,z
1/2+x,1/2+y,z
1/2-x,1/2+y,-z
1/2-x,1/2-y,-z
1/2+x,1/2-y,z
loop_
_atom_site_type_symbol
_atom_site_label
_atom_site_fract_x
_atom_site_fract_y
_atom_site_fract_z
Si Si1 0.440165 0.611427 0.115979
Si Si2 0.299145 0.104606 0.275807
Si Si3 0.489771 0.890241 0.628528
Si Si4 0.847193 0.285618 0.723474
Si Si5 0.302901 0.609864 0.857280
Si Si6 0.690595 0.305573 0.469119
Si Si7 0.091689 0.753692 0.690413
Si Si8 0.214879 0.887984 0.893592
O O1 0.443741 0.500000 0.142249
O O2 0.448033 0.680255 0.208262
O O3 0.362734 0.629412 0.109905
O O4 0.500000 0.628993 0.000000
O O5 0.265455 0.115841 0.180489
O O6 0.232422 0.111570 0.388827
O O7 0.351446 0.188427 0.279122
O O8 0.331332 0.000000 0.267398
O O9 0.500000 0.882226 0.500000
O O10 0.411847 0.856192 0.699259
O O11 0.543005 0.819988 0.656410
O O12 0.501145 0.000000 0.650636
O O13 0.855554 0.187352 0.782150
O O14 0.838475 0.258346 0.608533
O O15 0.775234 0.331247 0.802935
O O16 0.327539 0.500000 0.840005
O O17 0.285667 0.632909 0.984302
O O18 0.750000 0.250000 0.500000
O O19 0.630799 0.319872 0.585398
O O20 0.229102 0.000000 0.873994
#
# Coordination Sequence:
#
# PCOD9199214 Si02
#       8
#     8   8   8   8   8   8   8   8
#     4  10  23  41  62  89 119 153 198 246 299 356
#     4   9  18  34  57  86 119 154 193 243 300 353
#     4  11  24  41  60  87 120 158 199 240 294 358
#     4  11  20  36  58  85 118 154 198 246 294 348
#     4   9  19  34  57  86 117 150 194 245 297 352
#     4   9  18  32  53  82 110 144 191 238 287 347
#     4  11  21  39  59  82 119 158 198 241 296 357
#     4  10  20  36  59  88 115 150 200 248 294 347
#
# _framework density 18.313669999999998
#
# number of rings (size 3 to 8) (size 9 to 14) (size 15 to 20)
#    0.000    2.000    1.250    3.375    1.750    0.500 
#    0.000    1.875    0.000    1.500    0.000    0.000 
#    0.000    0.000    0.000    0.000    0.000    0.000 
#
# Total GULP energy -178477.576076 kJ/mol
# GULP energy per Si atom -5577.424252 kJ/mol
# Density = 1.827199 g / cm^3
# Si number density = 18.313670 Si / 1000 Ang^3
#
#
#
# Elastic Constant Matrix: (Units=GPa)
#
#
# Indices 1 2 3 4 5 6 
#
# 1 43.6020 30.2673 18.4250 0.0000 -10.7290 0.0000
# 2 30.2673 82.1892 53.0312 0.0000 -7.0628 0.0000
# 3 18.4250 53.0312 89.6381 0.0000 -3.2897 0.0000
# 4 0.0000 0.0000 0.0000 24.5556 0.0000 -3.5659
# 5 -10.7290 -7.0628 -3.2897 0.0000 29.1651 0.0000
# 6 0.0000 0.0000 0.0000 -3.5659 0.0000 22.8511
#
#
#
# Elastic Compliance Matrix: (Units=1/GPa)
#
#
# Indices 1 2 3 4 5 6 
#
# 1 0.033187 -0.011699 0.000446 0.000000 0.009426 0.000000
# 2 -0.011699 0.024159 -0.011880 0.000000 0.000207 0.000000
# 3 0.000446 -0.011880 0.018068 0.000000 -0.000675 0.000000
# 4 0.000000 0.000000 0.000000 0.041668 0.000000 0.006502
# 5 0.009426 0.000207 -0.000675 0.000000 0.037729 0.000000
# 6 0.000000 0.000000 0.000000 0.006502 0.000000 0.044776
#
#
# Mechanical properties :
#
#
# Convention : Reuss Voigt Hill
#
# Bulk Modulus (GPa) = 34.30961 46.54183 40.42572
# Shear Modulus (GPa) = 19.56411 22.89476 21.22944
#
# Velocity S-wave (km/s) = 3.27200 3.53958 3.40841
# Velocity P-wave (km/s) = 5.74889 6.49413 6.13284
#
# Compressibility (1/GPa) = 0.02914635
#
# Stress axis : x y z
#
# Youngs Moduli (GPa) = 30.13230 41.39284 55.34605
#
# Poissons Ratio (x) = 0.48426 -0.02467
# Poissons Ratio (y) = 0.35252 0.65753
# Poissons Ratio (z) = -0.01343 0.49176
#
# Static dielectric constant tensor:
#      x y z
#    x 1.629000 0.000000 0.004550 
#    y 0.000000 1.635660 0.000000 
#    z 0.004550 0.000000 1.619510 
# 
# From -- ./inp_files/167264.got.cif
#   From: 2010.05.17/outbox.cif.g08.bks.cpg/sg12_84_cif.got.tgz:167264.got - 2010.06.03 13:09:07.
