data_PCOD9199735
_publ_section_title
;
Structure prediction by ZEFSAII (Michael W. Deem and Ramdas Pophale) SiO2 
 PCOD9199735
Probable space group: C 2/M
;
_chemical_formula_sum "Si O2"
_cell_formula_units_Z 56
_cell_length_a 19.697257
_cell_length_b 8.993335
_cell_length_c 21.285521
_cell_angle_alpha 90.000000
_cell_angle_beta 125.553201
_cell_angle_gamma 90.000000
_cell_volume 3067.671967
_symmetry_space_group_name_H-M "C 2/M"
_symmetry_group_IT_number 12
_symmetry_cell_setting 'monoclinic'
loop_
_space_group_symop_operation_xyz
x,y,z
-x,y,-z
-x,-y,-z
x,-y,z
1/2+x,1/2+y,z
1/2-x,1/2+y,-z
1/2-x,1/2-y,-z
1/2+x,1/2-y,z
loop_
_atom_site_type_symbol
_atom_site_label
_atom_site_fract_x
_atom_site_fract_y
_atom_site_fract_z
Si Si1 0.158570 0.677219 0.636134
Si Si2 0.994223 0.178098 0.374874
Si Si3 0.598778 0.330347 0.046203
Si Si4 0.659367 0.824320 0.954112
Si Si5 0.771599 0.324365 0.801193
Si Si6 0.886737 0.173200 0.194070
Si Si7 0.672791 0.822317 0.495625
O O1 0.153589 0.500000 0.644256
O O2 0.070964 0.750746 0.610610
O O3 0.229583 0.748839 0.718228
O O4 0.178139 0.703115 0.573633
O O5 0.954088 0.204988 0.284467
O O6 0.084952 0.249913 0.428259
O O7 0.997424 0.000000 0.386229
O O8 0.629886 0.500000 0.055776
O O9 0.645596 0.255268 0.129980
O O10 0.500000 0.333736 0.000000
O O11 0.618383 0.236498 0.995031
O O12 0.610095 0.773515 0.865488
O O13 0.667714 0.000000 0.960837
O O14 0.750000 0.750000 0.000000
O O15 0.783595 0.500000 0.797288
O O16 0.702741 0.307866 0.819750
O O17 0.894138 0.000000 0.179678
O O18 0.750000 0.750000 0.500000
O O19 0.671551 0.000000 0.484383
#
# Coordination Sequence:
#
# PCOD9199735 Si02
#       7
#     8   8   8   8   8   8   8
#     4  10  21  38  62  90 119 154 196 242 291 349
#     4  10  21  38  63  91 120 154 195 245 293 347
#     4  11  24  41  60  84 117 159 200 243 296 352
#     4  12  23  36  60  88 118 156 198 245 295 347
#     4  10  20  36  61  89 118 153 195 244 292 346
#     4   9  19  36  58  88 119 150 192 244 294 344
#     4  11  24  41  61  87 121 159 197 241 295 353
#
# _framework density 18.254887
#
# number of rings (size 3 to 8) (size 9 to 14) (size 15 to 20)
#    0.000    1.571    1.429    4.714    0.000    8.000 
#    2.571    0.000    0.000    0.000    0.000    0.000 
#    0.000    0.000    0.000    0.000    0.000    0.000 
#
# Total GULP energy -156457.371790 kJ/mol
# GULP energy per Si atom -5587.763278 kJ/mol
# Density = 1.821334 g / cm^3
# Si number density = 18.254887 Si / 1000 Ang^3
#
#
#
# Elastic Constant Matrix: (Units=GPa)
#
#
# Indices 1 2 3 4 5 6 
#
# 1 97.4449 71.7043 69.1176 0.0000 5.2968 0.0000
# 2 71.7043 146.7902 88.6295 0.0000 -0.9064 0.0000
# 3 69.1176 88.6295 116.3859 0.0000 10.9786 0.0000
# 4 0.0000 0.0000 0.0000 35.0889 0.0000 0.2792
# 5 5.2968 -0.9064 10.9786 0.0000 24.5698 0.0000
# 6 0.0000 0.0000 0.0000 0.2792 0.0000 30.8636
#
#
#
# Elastic Compliance Matrix: (Units=1/GPa)
#
#
# Indices 1 2 3 4 5 6 
#
# 1 0.019317 -0.004747 -0.007776 0.000000 -0.000865 0.000000
# 2 -0.004747 0.014385 -0.008647 0.000000 0.005418 0.000000
# 3 -0.007776 -0.008647 0.020532 0.000000 -0.007817 0.000000
# 4 0.000000 0.000000 0.000000 0.028501 0.000000 -0.000258
# 5 -0.000865 0.005418 -0.007817 0.000000 0.044580 0.000000
# 6 0.000000 0.000000 0.000000 -0.000258 0.000000 0.032403
#
#
# Mechanical properties :
#
#
# Convention : Reuss Voigt Hill
#
# Bulk Modulus (GPa) = 84.05992 91.05820 87.55906
# Shear Modulus (GPa) = 24.26927 26.84908 25.55918
#
# Velocity S-wave (km/s) = 3.65014 3.83925 3.74589
# Velocity P-wave (km/s) = 7.99453 8.34523 8.17177
#
# Compressibility (1/GPa) = 0.01189628
#
# Stress axis : x y z
#
# Youngs Moduli (GPa) = 51.76711 69.51497 48.70498
#
# Poissons Ratio (x) = 0.32997 0.37871
# Poissons Ratio (y) = 0.24572 0.42114
# Poissons Ratio (z) = 0.40252 0.60108
#
# Static dielectric constant tensor:
#      x y z
#    x 1.598020 0.000000 0.001020 
#    y 0.000000 1.614270 0.000000 
#    z 0.001020 0.000000 1.626470 
# 
# From -- ./inp_files/314404.got.cif
#   From: 2010.05.17/outbox.cif.g08.bks.cpg/sg12_158_cif.got.tgz:314404.got - 2010.06.03 13:09:07.
