data_PCOD9199905
_publ_section_title
;
Structure prediction by ZEFSAII (Michael W. Deem and Ramdas Pophale) SiO2 
 PCOD9199905
Probable space group: C 2/M
;
_chemical_formula_sum "Si O2"
_cell_formula_units_Z 48
_cell_length_a 24.911444
_cell_length_b 7.924268
_cell_length_c 11.177300
_cell_angle_alpha 90.000000
_cell_angle_beta 108.415711
_cell_angle_gamma 90.000000
_cell_volume 2093.460636
_symmetry_space_group_name_H-M "C 2/M"
_symmetry_group_IT_number 12
_symmetry_cell_setting 'monoclinic'
loop_
_space_group_symop_operation_xyz
x,y,z
-x,y,-z
-x,-y,-z
x,-y,z
1/2+x,1/2+y,z
1/2-x,1/2+y,-z
1/2-x,1/2-y,-z
1/2+x,1/2-y,z
loop_
_atom_site_type_symbol
_atom_site_label
_atom_site_fract_x
_atom_site_fract_y
_atom_site_fract_z
Si Si1 0.784793 0.298770 0.143657
Si Si2 0.393188 0.298470 0.086397
Si Si3 0.085620 0.303844 0.538908
Si Si4 0.324450 0.296279 0.807844
Si Si5 0.007625 0.194654 0.694367
Si Si6 0.815109 0.699563 0.540345
O O1 0.789654 0.500000 0.158671
O O2 0.847134 0.232819 0.159124
O O3 0.740553 0.238421 0.213221
O O4 0.750000 0.250000 0.000000
O O5 0.398822 0.500000 0.078613
O O6 0.454851 0.235510 0.169669
O O7 0.365225 0.233742 0.943407
O O8 0.089099 0.500000 0.580216
O O9 0.052200 0.201741 0.615451
O O10 0.146290 0.234167 0.540931
O O11 0.045950 0.294580 0.392749
O O12 0.323681 0.500000 0.815095
O O13 0.341137 0.247059 0.686864
O O14 0.991260 0.000000 0.705108
O O15 0.817298 0.500000 0.527260
O O16 0.750000 0.750000 0.500000
#
# Coordination Sequence:
#
# PCOD9199905 Si02
#       6
#     8   8   8   8   8   8
#     4   9  17  29  48  75 109 146 182 224 273 324
#     4   9  19  34  54  84 115 144 184 232 281 335
#     4  10  22  40  58  82 115 149 188 235 284 334
#     4   9  19  36  54  78 114 149 185 230 278 334
#     4  10  20  36  62  90 113 144 188 234 281 335
#     4  11  25  41  59  82 112 151 193 233 280 339
#
# _framework density 22.928542
#
# number of rings (size 3 to 8) (size 9 to 14) (size 15 to 20)
#    0.000    2.333    0.000    4.000    2.333    7.333 
#    0.000    0.833    0.000    5.000    0.000    0.000 
#    0.000    0.000    0.000    0.000    0.000    0.000 
#
# Total GULP energy -133952.940141 kJ/mol
# GULP energy per Si atom -5581.372506 kJ/mol
# Density = 2.287636 g / cm^3
# Si number density = 22.928542 Si / 1000 Ang^3
#
#
#
# Elastic Constant Matrix: (Units=GPa)
#
#
# Indices 1 2 3 4 5 6 
#
# 1 53.0932 -7.8032 12.2789 0.0000 4.6986 0.0000
# 2 -7.8032 25.3458 -0.4901 0.0000 4.4463 0.0000
# 3 12.2789 -0.4901 72.2051 0.0000 13.4564 0.0000
# 4 0.0000 0.0000 0.0000 18.8422 0.0000 1.2702
# 5 4.6986 4.4463 13.4564 0.0000 43.7659 0.0000
# 6 0.0000 0.0000 0.0000 1.2702 0.0000 21.3588
#
#
#
# Elastic Compliance Matrix: (Units=1/GPa)
#
#
# Indices 1 2 3 4 5 6 
#
# 1 0.020705 0.006655 -0.003114 0.000000 -0.001941 0.000000
# 2 0.006655 0.042391 0.000097 0.000000 -0.005051 0.000000
# 3 -0.003114 0.000097 0.015190 0.000000 -0.004346 0.000000
# 4 0.000000 0.000000 0.000000 0.053286 0.000000 -0.003169
# 5 -0.001941 -0.005051 -0.004346 0.000000 0.024907 0.000000
# 6 0.000000 0.000000 0.000000 -0.003169 0.000000 0.047007
#
#
# Mechanical properties :
#
#
# Convention : Reuss Voigt Hill
#
# Bulk Modulus (GPa) = 11.68750 17.62395 14.65572
# Shear Modulus (GPa) = 22.24895 26.57062 24.40979
#
# Velocity S-wave (km/s) = 3.11844 3.40787 3.26636
# Velocity P-wave (km/s) = 4.25143 4.81539 4.54217
#
# Compressibility (1/GPa) = 0.08556152
#
# Stress axis : x y z
#
# Youngs Moduli (GPa) = 48.29787 23.58993 65.83470
#
# Poissons Ratio (x) = -0.15698 0.20501
# Poissons Ratio (y) = -0.32141 -0.00641
# Poissons Ratio (z) = 0.15040 -0.00230
#
# Static dielectric constant tensor:
#      x y z
#    x 1.843180 0.000000 0.032900 
#    y 0.000000 1.775600 0.000000 
#    z 0.032900 0.000000 1.921010 
# 
# From -- ./inp_files/173081.got.cif
#   From: 2010.05.17/outbox.cif.g08.bks.cpg/sg12_87_cif.got.tgz:173081.got - 2010.06.03 13:09:07.
