data_PCOD9199741
_publ_section_title
;
Structure prediction by ZEFSAII (Michael W. Deem and Ramdas Pophale) SiO2 
 PCOD9199741
Probable space group: C 2/M
;
_chemical_formula_sum "Si O2"
_cell_formula_units_Z 56
_cell_length_a 8.532697
_cell_length_b 21.217298
_cell_length_c 15.029055
_cell_angle_alpha 90.000000
_cell_angle_beta 86.181669
_cell_angle_gamma 90.000000
_cell_volume 2714.832011
_symmetry_space_group_name_H-M "C 2/M"
_symmetry_group_IT_number 12
_symmetry_cell_setting 'monoclinic'
loop_
_space_group_symop_operation_xyz
x,y,z
-x,y,-z
-x,-y,-z
x,-y,z
1/2+x,1/2+y,z
1/2-x,1/2+y,-z
1/2-x,1/2-y,-z
1/2+x,1/2-y,z
loop_
_atom_site_type_symbol
_atom_site_label
_atom_site_fract_x
_atom_site_fract_y
_atom_site_fract_z
Si Si1 0.711883 0.804249 0.570957
Si Si2 0.404527 0.571499 0.729157
Si Si3 0.204061 0.423749 0.087109
Si Si4 0.431031 0.242962 0.699603
Si Si5 0.157386 0.575670 0.881554
Si Si6 0.816991 0.931792 0.532010
Si Si7 0.143683 0.837163 0.778475
O O1 0.750000 0.750000 0.500000
O O2 0.552891 0.791081 0.629516
O O3 0.844642 0.795602 0.642184
O O4 0.720614 0.869313 0.516892
O O5 0.446445 0.500000 0.754946
O O6 0.284516 0.600023 0.806477
O O7 0.316825 0.566440 0.639174
O O8 0.563341 0.611345 0.717241
O O9 0.228939 0.500000 0.099685
O O10 0.322291 0.377866 0.134511
O O11 0.025309 0.407075 0.124335
O O12 0.206700 0.411637 0.981219
O O13 0.303867 0.193438 0.738195
O O14 0.522341 0.278480 0.776023
O O15 0.157776 0.500000 0.871767
O O16 0.000000 0.923876 0.500000
O O17 0.764577 0.000000 0.498606
#
# Coordination Sequence:
#
# PCOD9199741 Si02
#       7
#     8   8   8   8   8   8   8
#     4  11  21  40  65  87 112 158 211 252 303 363
#     4  10  20  36  61  89 122 159 195 249 316 370
#     4   9  18  35  62  94 123 153 196 256 312 365
#     4  10  24  38  56  87 115 157 210 257 285 364
#     4   8  17  34  60  94 122 153 201 248 305 377
#     4  10  21  36  58  91 124 154 191 246 310 366
#     4  11  22  37  57  84 121 157 203 251 302 349
#
# _framework density 20.627427999999998
#
# number of rings (size 3 to 8) (size 9 to 14) (size 15 to 20)
#    0.000    2.143    1.429    2.571    4.000    0.571 
#    0.000    2.857    0.000   12.000    0.000    0.000 
#    0.000    0.000    0.000    0.000    0.000    0.000 
#
# Total GULP energy -156115.365307 kJ/mol
# GULP energy per Si atom -5575.548761 kJ/mol
# Density = 2.058048 g / cm^3
# Si number density = 20.627428 Si / 1000 Ang^3
#
#
#
# Elastic Constant Matrix: (Units=GPa)
#
#
# Indices 1 2 3 4 5 6 
#
# 1 74.8638 33.1256 26.2195 0.0000 -8.9612 0.0000
# 2 33.1256 103.9423 17.5933 0.0000 -12.7530 0.0000
# 3 26.2195 17.5933 59.1020 0.0000 -3.5691 0.0000
# 4 0.0000 0.0000 0.0000 29.0866 0.0000 8.5817
# 5 -8.9612 -12.7530 -3.5691 0.0000 28.8884 0.0000
# 6 0.0000 0.0000 0.0000 8.5817 0.0000 36.8424
#
#
#
# Elastic Compliance Matrix: (Units=1/GPa)
#
#
# Indices 1 2 3 4 5 6 
#
# 1 0.017846 -0.004239 -0.006482 0.000000 0.002864 0.000000
# 2 -0.004239 0.011652 -0.001367 0.000000 0.003660 0.000000
# 3 -0.006482 -0.001367 0.020195 0.000000 -0.000119 0.000000
# 4 0.000000 0.000000 0.000000 0.036917 0.000000 -0.008599
# 5 0.002864 0.003660 -0.000119 0.000000 0.037105 0.000000
# 6 0.000000 0.000000 0.000000 -0.008599 0.000000 0.029146
#
#
# Mechanical properties :
#
#
# Convention : Reuss Voigt Hill
#
# Bulk Modulus (GPa) = 39.18929 43.53164 41.36047
# Shear Modulus (GPa) = 26.94770 29.69478 28.32124
#
# Velocity S-wave (km/s) = 3.61834 3.79829 3.70941
# Velocity P-wave (km/s) = 6.04122 6.35497 6.20008
#
# Compressibility (1/GPa) = 0.02551717
#
# Stress axis : x y z
#
# Youngs Moduli (GPa) = 56.03383 85.82159 49.51609
#
# Poissons Ratio (x) = 0.36379 0.32099
# Poissons Ratio (y) = 0.23752 0.06769
# Poissons Ratio (z) = 0.36324 0.11732
#
# Static dielectric constant tensor:
#      x y z
#    x 1.762150 0.000000 0.022400 
#    y 0.000000 1.810200 0.000000 
#    z 0.022400 0.000000 1.753860 
# 
# From -- ./inp_files/197500.got.cif
#   From: 2010.05.17/outbox.cif.g08.bks.cpg/sg12_99_cif.got.tgz:197500.got - 2010.06.03 13:09:07.
