data_PCOD9199666
_publ_section_title
;
Structure prediction by ZEFSAII (Michael W. Deem and Ramdas Pophale) SiO2 
 PCOD9199666
Probable space group: C 2/M
;
_chemical_formula_sum "Si O2"
_cell_formula_units_Z 58
_cell_length_a 18.363655
_cell_length_b 7.734430
_cell_length_c 22.535315
_cell_angle_alpha 90.000000
_cell_angle_beta 122.923215
_cell_angle_gamma 90.000000
_cell_volume 2686.704408
_symmetry_space_group_name_H-M "C 2/M"
_symmetry_group_IT_number 12
_symmetry_cell_setting 'monoclinic'
loop_
_space_group_symop_operation_xyz
x,y,z
-x,y,-z
-x,-y,-z
x,-y,z
1/2+x,1/2+y,z
1/2-x,1/2+y,-z
1/2-x,1/2-y,-z
1/2+x,1/2-y,z
loop_
_atom_site_type_symbol
_atom_site_label
_atom_site_fract_x
_atom_site_fract_y
_atom_site_fract_z
Si Si1 0.000000 0.000000 0.000000
Si Si2 0.391928 0.797232 0.902326
Si Si3 0.248004 0.709986 0.748087
Si Si4 0.101680 0.701451 0.774567
Si Si5 0.930893 0.296984 0.515226
Si Si6 0.750493 0.288563 0.388142
Si Si7 0.567848 0.700185 0.354547
Si Si8 0.241161 0.795120 0.927461
O O1 0.966926 0.844275 0.939563
O O2 0.334826 0.779102 0.817626
O O3 0.324882 0.740081 0.925692
O O4 0.415904 0.000000 0.920463
O O5 0.250580 0.500000 0.752671
O O6 0.167206 0.769748 0.752741
O O7 0.238878 0.760768 0.675901
O O8 0.087904 0.500000 0.757168
O O9 0.154774 0.721405 0.858858
O O10 0.008026 0.785131 0.727253
O O11 0.923997 0.500000 0.497667
O O12 0.833699 0.228073 0.462208
O O13 0.960479 0.282068 0.595890
O O14 0.000000 0.220069 0.500000
O O15 0.746722 0.500000 0.387479
O O16 0.659027 0.224986 0.372909
O O17 0.581498 0.500000 0.374159
O O18 0.236524 0.000000 0.918926
O O19 0.250000 0.750000 0.000000
#
# Coordination Sequence:
#
# PCOD9199666 Si02
#       8
#     2   8   8   8   8   8   8   8
#     4  12  22  40  64  86 124 168 200 246 318 374
#     4  10  22  39  60  91 121 158 206 255 303 370
#     4   9  17  37  63  82 107 153 202 245 297 354
#     4  10  20  36  61  84 110 152 201 245 290 350
#     4  10  20  37  61  85 109 148 199 241 280 345
#     4   9  19  35  57  84 115 153 191 234 296 359
#     4  11  22  36  53  83 122 152 184 236 297 354
#     4  10  21  38  62  89 120 154 200 254 305 364
#
# _framework density 21.587786000000001
#
# number of rings (size 3 to 8) (size 9 to 14) (size 15 to 20)
#    0.000    2.069    0.690    2.690    1.931    3.034 
#    2.483    2.759    0.000    0.000    0.000    0.000 
#    0.000    0.000    0.000    0.000    0.000    0.000 
#
# Total GULP energy -161707.388179 kJ/mol
# GULP energy per Si atom -5576.116834 kJ/mol
# Density = 2.153865 g / cm^3
# Si number density = 21.587786 Si / 1000 Ang^3
#
#
#
# Elastic Constant Matrix: (Units=GPa)
#
#
# Indices 1 2 3 4 5 6 
#
# 1 60.0012 4.9209 30.6442 0.0000 9.9059 0.0000
# 2 4.9209 61.0801 -1.2935 0.0000 7.1567 0.0000
# 3 30.6442 -1.2935 101.6074 0.0000 6.3458 0.0000
# 4 0.0000 0.0000 0.0000 26.0636 0.0000 2.3159
# 5 9.9059 7.1567 6.3458 0.0000 33.5767 0.0000
# 6 0.0000 0.0000 0.0000 2.3159 0.0000 6.7383
#
#
#
# Elastic Compliance Matrix: (Units=1/GPa)
#
#
# Indices 1 2 3 4 5 6 
#
# 1 0.020568 -0.001234 -0.005926 0.000000 -0.004685 0.000000
# 2 -0.001234 0.016885 0.000798 0.000000 -0.003386 0.000000
# 3 -0.005926 0.000798 0.011679 0.000000 -0.000629 0.000000
# 4 0.000000 0.000000 0.000000 0.039576 0.000000 -0.013602
# 5 -0.004685 -0.003386 -0.000629 0.000000 0.032005 0.000000
# 6 0.000000 0.000000 0.000000 -0.013602 0.000000 0.153081
#
#
# Mechanical properties :
#
#
# Convention : Reuss Voigt Hill
#
# Bulk Modulus (GPa) = 27.46611 32.35910 29.91261
# Shear Modulus (GPa) = 16.74187 25.83684 21.28935
#
# Velocity S-wave (km/s) = 2.78785 3.46327 3.14375
# Velocity P-wave (km/s) = 4.80764 5.56906 5.20230
#
# Compressibility (1/GPa) = 0.03640850
#
# Stress axis : x y z
#
# Youngs Moduli (GPa) = 48.62004 59.22433 85.62700
#
# Poissons Ratio (x) = 0.07306 0.50744
# Poissons Ratio (y) = 0.05998 -0.06837
# Poissons Ratio (z) = 0.28813 -0.04729
#
# Static dielectric constant tensor:
#      x y z
#    x 1.810380 0.000000 0.041900 
#    y 0.000000 1.792490 0.000000 
#    z 0.041900 0.000000 1.676050 
# 
# From -- ./inp_files/314787.got.cif
#   From: 2010.05.17/outbox.cif.g08.bks.cpg/sg12_158_cif.got.tgz:314787.got - 2010.06.03 13:09:07.
