data_PCOD9199387
_publ_section_title
;
Structure prediction by ZEFSAII (Michael W. Deem and Ramdas Pophale) SiO2 
 PCOD9199387
Probable space group: C 2/M
;
_chemical_formula_sum "Si O2"
_cell_formula_units_Z 56
_cell_length_a 29.547788
_cell_length_b 11.420237
_cell_length_c 15.179545
_cell_angle_alpha 90.000000
_cell_angle_beta 37.039403
_cell_angle_gamma 90.000000
_cell_volume 3085.445890
_symmetry_space_group_name_H-M "C 2/M"
_symmetry_group_IT_number 12
_symmetry_cell_setting 'monoclinic'
loop_
_space_group_symop_operation_xyz
x,y,z
-x,y,-z
-x,-y,-z
x,-y,z
1/2+x,1/2+y,z
1/2-x,1/2+y,-z
1/2-x,1/2-y,-z
1/2+x,1/2-y,z
loop_
_atom_site_type_symbol
_atom_site_label
_atom_site_fract_x
_atom_site_fract_y
_atom_site_fract_z
Si Si1 0.835853 0.226281 0.600728
Si Si2 0.315912 0.360223 0.122955
Si Si3 0.417127 0.361437 0.126876
Si Si4 0.199923 0.140084 0.539477
Si Si5 0.515827 0.862838 0.578250
Si Si6 0.803359 0.121928 0.829688
Si Si7 0.857626 0.289524 0.892507
O O1 0.769001 0.317155 0.728897
O O2 0.818970 0.170663 0.532083
O O3 0.916320 0.288465 0.485832
O O4 0.828539 0.133031 0.690402
O O5 0.316443 0.500000 0.117457
O O6 0.364411 0.315820 0.130795
O O7 0.351376 0.305336 0.980111
O O8 0.424826 0.500000 0.095427
O O9 0.374638 0.352585 0.285050
O O10 0.500000 0.308694 0.000000
O O11 0.250000 0.250000 0.500000
O O12 0.225887 0.000000 0.506901
O O13 0.500000 0.830367 0.500000
O O14 0.439033 0.844353 0.752390
O O15 0.536234 0.000000 0.546873
O O16 0.836337 0.228351 0.833545
O O17 0.830128 0.000000 0.827666
O O18 0.713135 0.127877 0.976510
#
# Coordination Sequence:
#
# PCOD9199387 Si02
#       7
#     8   8   8   8   8   8   8
#     4  11  22  38  60  89 119 158 203 251 312 367
#     4  10  20  36  60  86 114 156 205 249 299 371
#     4   9  19  36  58  85 116 155 199 250 304 362
#     4  11  23  41  67  94 125 162 208 261 317 376
#     4  11  23  40  60  85 122 164 208 259 311 369
#     4  10  20  37  56  79 115 152 193 244 300 363
#     4  10  21  36  56  85 111 153 201 242 302 364
#
# _framework density 18.149726000000001
#
# number of rings (size 3 to 8) (size 9 to 14) (size 15 to 20)
#    0.000    1.714    2.857    1.714    2.000    0.571 
#    0.000    2.857    0.000    0.429    0.000    0.000 
#    0.000    0.000    0.000    0.000    0.000    0.000 
#
# Total GULP energy -155988.374352 kJ/mol
# GULP energy per Si atom -5571.013370 kJ/mol
# Density = 1.810842 g / cm^3
# Si number density = 18.149726 Si / 1000 Ang^3
#
#
#
# Elastic Constant Matrix: (Units=GPa)
#
#
# Indices 1 2 3 4 5 6 
#
# 1 83.3029 27.7667 42.9034 0.0000 10.6313 0.0000
# 2 27.7667 84.1527 23.6344 0.0000 -1.6822 0.0000
# 3 42.9034 23.6344 84.2425 0.0000 -4.8552 0.0000
# 4 0.0000 0.0000 0.0000 274.2407 0.0000 138.2895
# 5 10.6313 -1.6822 -4.8552 0.0000 39.5611 0.0000
# 6 0.0000 0.0000 0.0000 138.2895 0.0000 89.9625
#
#
#
# Elastic Compliance Matrix: (Units=1/GPa)
#
#
# Indices 1 2 3 4 5 6 
#
# 1 0.018571 -0.003794 -0.008753 0.000000 -0.006226 0.000000
# 2 -0.003794 0.013675 -0.001825 0.000000 0.001377 0.000000
# 3 -0.008753 -0.001825 0.017092 0.000000 0.004372 0.000000
# 4 0.000000 0.000000 0.000000 0.016217 0.000000 -0.024929
# 5 -0.006226 0.001377 0.004372 0.000000 0.027546 0.000000
# 6 0.000000 0.000000 0.000000 -0.024929 0.000000 0.049436
#
#
# Mechanical properties :
#
#
# Convention : Reuss Voigt Hill
#
# Bulk Modulus (GPa) = 48.55448 48.92300 48.73874
# Shear Modulus (GPa) = 28.06692 91.24576 59.65634
#
# Velocity S-wave (km/s) = 3.93671 7.09810 5.73937
# Velocity P-wave (km/s) = 6.89013 9.70521 8.41620
#
# Compressibility (1/GPa) = 0.02059542
#
# Stress axis : x y z
#
# Youngs Moduli (GPa) = 53.84613 73.12556 58.50690
#
# Poissons Ratio (x) = 0.27744 0.51208
# Poissons Ratio (y) = 0.20430 0.10677
# Poissons Ratio (z) = 0.47129 0.13345
#
# Static dielectric constant tensor:
#      x y z
#    x 1.641430 0.000000 -0.005510 
#    y 0.000000 1.644180 0.000000 
#    z -0.005510 0.000000 1.606960 
# 
# From -- ./inp_files/245644.got.cif
#   From: 2010.05.17/outbox.cif.g08.bks.cpg/sg12_123_cif.got.tgz:245644.got - 2010.06.03 13:09:07.
