data_PCOD9199530
_publ_section_title
;
Structure prediction by ZEFSAII (Michael W. Deem and Ramdas Pophale) SiO2 
 PCOD9199530
Probable space group: C 2/M
;
_chemical_formula_sum "Si O2"
_cell_formula_units_Z 48
_cell_length_a 15.370429
_cell_length_b 8.898632
_cell_length_c 26.795105
_cell_angle_alpha 90.000000
_cell_angle_beta 134.170653
_cell_angle_gamma 90.000000
_cell_volume 2628.729596
_symmetry_space_group_name_H-M "C 2/M"
_symmetry_group_IT_number 12
_symmetry_cell_setting 'monoclinic'
loop_
_space_group_symop_operation_xyz
x,y,z
-x,y,-z
-x,-y,-z
x,-y,z
1/2+x,1/2+y,z
1/2-x,1/2+y,-z
1/2-x,1/2-y,-z
1/2+x,1/2-y,z
loop_
_atom_site_type_symbol
_atom_site_label
_atom_site_fract_x
_atom_site_fract_y
_atom_site_fract_z
Si Si1 0.621502 0.679934 0.580440
Si Si2 0.187249 0.319128 0.426198
Si Si3 0.944871 0.820973 0.086547
Si Si4 0.216261 0.319838 0.062940
Si Si5 0.408300 0.820108 0.323461
Si Si6 0.799961 0.679949 0.827065
O O1 0.500000 0.711269 0.500000
O O2 0.624818 0.500000 0.590997
O O3 0.735336 0.722540 0.591501
O O4 0.618657 0.765459 0.631303
O O5 0.192834 0.500000 0.433032
O O6 0.250000 0.250000 0.500000
O O7 0.046911 0.274452 0.366960
O O8 0.847693 0.785603 0.091337
O O9 0.074042 0.742800 0.144112
O O10 0.959998 0.000000 0.090603
O O11 0.882640 0.762278 0.010771
O O12 0.197086 0.500000 0.050838
O O13 0.207605 0.278483 0.117336
O O14 0.312809 0.746974 0.247852
O O15 0.400093 0.000000 0.317218
O O16 0.798778 0.500000 0.823196
#
# Coordination Sequence:
#
# PCOD9199530 Si02
#       6
#     8   8   8   8   8   8
#     4  10  20  37  61  85 112 146 185 228 281 345
#     4  10  21  37  59  85 112 144 184 232 282 337
#     4  10  20  36  60  89 118 149 192 240 284 331
#     4   9  20  38  59  85 117 154 194 232 281 342
#     4  11  24  39  56  84 117 148 190 239 288 338
#     4  11  23  39  58  80 115 157 194 233 285 344
#
# _framework density 18.259772000000002
#
# number of rings (size 3 to 8) (size 9 to 14) (size 15 to 20)
#    0.000    1.833    1.667    2.000    0.000    7.000 
#    0.000    3.333    0.000    0.000    0.000    0.000 
#    0.000    0.000    0.000    0.000    0.000    0.000 
#
# Total GULP energy -134095.996498 kJ/mol
# GULP energy per Si atom -5587.333187 kJ/mol
# Density = 1.821821 g / cm^3
# Si number density = 18.259772 Si / 1000 Ang^3
#
#
#
# Elastic Constant Matrix: (Units=GPa)
#
#
# Indices 1 2 3 4 5 6 
#
# 1 106.1335 30.8097 45.0861 0.0000 26.0629 0.0000
# 2 30.8097 31.5036 32.5958 0.0000 11.8016 0.0000
# 3 45.0861 32.5958 87.4281 0.0000 33.6688 0.0000
# 4 0.0000 0.0000 0.0000 37.0825 0.0000 -0.8286
# 5 26.0629 11.8016 33.6688 0.0000 28.3645 0.0000
# 6 0.0000 0.0000 0.0000 -0.8286 0.0000 26.0051
#
#
#
# Elastic Compliance Matrix: (Units=1/GPa)
#
#
# Indices 1 2 3 4 5 6 
#
# 1 0.014882 -0.011115 -0.000084 0.000000 -0.008950 0.000000
# 2 -0.011115 0.060076 -0.020213 0.000000 0.009210 0.000000
# 3 -0.000084 -0.020213 0.029010 0.000000 -0.025948 0.000000
# 4 0.000000 0.000000 0.000000 0.026986 0.000000 0.000860
# 5 -0.008950 0.009210 -0.025948 0.000000 0.070447 0.000000
# 6 0.000000 0.000000 0.000000 0.000860 0.000000 0.038481
#
#
# Mechanical properties :
#
#
# Convention : Reuss Voigt Hill
#
# Bulk Modulus (GPa) = 24.30458 49.11649 36.71053
# Shear Modulus (GPa) = 15.80173 26.06200 20.93187
#
# Velocity S-wave (km/s) = 2.94493 3.78205 3.38943
# Velocity P-wave (km/s) = 4.99028 6.78447 5.95533
#
# Compressibility (1/GPa) = 0.04114452
#
# Stress axis : x y z
#
# Youngs Moduli (GPa) = 67.19459 16.64560 34.47105
#
# Poissons Ratio (x) = 0.18501 0.00289
# Poissons Ratio (y) = 0.74684 0.69677
# Poissons Ratio (z) = 0.00564 0.33646
#
# Static dielectric constant tensor:
#      x y z
#    x 1.624990 0.000000 0.015410 
#    y 0.000000 1.612730 0.000000 
#    z 0.015410 0.000000 1.583550 
# 
# From -- ./inp_files/308610.got.cif
#   From: 2010.05.17/outbox.cif.g08.bks.cpg/sg12_155_cif.got.tgz:308610.got - 2010.06.03 13:09:07.
