data_PCOD9199069
_publ_section_title
;
Structure prediction by ZEFSAII (Michael W. Deem and Ramdas Pophale) SiO2 
 PCOD9199069
Probable space group: C 2/M
;
_chemical_formula_sum "Si O2"
_cell_formula_units_Z 56
_cell_length_a 16.708117
_cell_length_b 16.313794
_cell_length_c 15.622358
_cell_angle_alpha 90.000000
_cell_angle_beta 128.686216
_cell_angle_gamma 90.000000
_cell_volume 3323.892229
_symmetry_space_group_name_H-M "C 2/M"
_symmetry_group_IT_number 12
_symmetry_cell_setting 'monoclinic'
loop_
_space_group_symop_operation_xyz
x,y,z
-x,y,-z
-x,-y,-z
x,-y,z
1/2+x,1/2+y,z
1/2-x,1/2+y,-z
1/2-x,1/2-y,-z
1/2+x,1/2-y,z
loop_
_atom_site_type_symbol
_atom_site_label
_atom_site_fract_x
_atom_site_fract_y
_atom_site_fract_z
Si Si1 0.230122 0.179954 0.104667
Si Si2 0.981236 0.137514 0.275685
Si Si3 0.335147 0.500000 0.890818
Si Si4 0.606991 0.593799 0.520092
Si Si5 0.437073 0.910294 0.870960
Si Si6 0.216494 0.164694 0.747175
Si Si7 0.582097 0.777543 0.885082
Si Si8 0.508653 0.500000 0.152817
O O1 0.262754 0.244948 0.200220
O O2 0.316978 0.181217 0.088901
O O3 0.219392 0.087755 0.131911
O O4 0.127566 0.218020 0.990628
O O5 0.872704 0.124818 0.252965
O O6 0.969974 0.225172 0.224587
O O7 0.072678 0.125514 0.404328
O O8 0.996472 0.076107 0.207816
O O9 0.387811 0.500000 0.832989
O O10 0.420590 0.500000 0.022684
O O11 0.500000 0.589135 0.500000
O O12 0.647954 0.500000 0.543371
O O13 0.676536 0.654099 0.623231
O O14 0.323166 0.882985 0.819934
O O15 0.498991 0.842097 0.860670
O O16 0.434909 0.000000 0.827146
O O17 0.500000 0.916748 0.000000
#
# Coordination Sequence:
#
# PCOD9199069 Si02
#       8
#     8   8   4   8   8   8   8   4
#     4  10  21  38  55  80 110 152 190 229 277 331
#     4  10  20  36  59  85 115 147 183 236 286 335
#     4  11  24  34  56  81 113 154 183 225 283 336
#     4   9  17  32  57  87 113 142 183 234 287 334
#     4  11  23  34  53  81 114 153 187 229 275 330
#     4  10  21  36  57  83 116 147 183 229 289 336
#     4  10  21  37  55  80 112 150 190 233 271 334
#     4  11  22  32  55  89 112 139 186 238 282 334
#
# _framework density 16.847718
#
# number of rings (size 3 to 8) (size 9 to 14) (size 15 to 20)
#    0.000    1.857    3.571    0.429    5.000    0.000 
#    0.000    0.714    0.000    0.000    0.000    2.500 
#    0.000    0.000    0.000    0.000    0.000    0.000 
#
# Total GULP energy -155973.740390 kJ/mol
# GULP energy per Si atom -5570.490728 kJ/mol
# Density = 1.680937 g / cm^3
# Si number density = 16.847718 Si / 1000 Ang^3
#
#
#
# Elastic Constant Matrix: (Units=GPa)
#
#
# Indices 1 2 3 4 5 6 
#
# 1 78.4044 54.5668 34.5823 0.0000 -7.7146 0.0000
# 2 54.5668 103.3192 41.5948 0.0000 -6.1300 0.0000
# 3 34.5823 41.5948 102.9219 0.0000 -5.9289 0.0000
# 4 0.0000 0.0000 0.0000 23.6967 0.0000 0.0504
# 5 -7.7146 -6.1300 -5.9289 0.0000 20.2702 0.0000
# 6 0.0000 0.0000 0.0000 0.0504 0.0000 17.4411
#
#
#
# Elastic Compliance Matrix: (Units=1/GPa)
#
#
# Indices 1 2 3 4 5 6 
#
# 1 0.021303 -0.009811 -0.002947 0.000000 0.004279 0.000000
# 2 -0.009811 0.016172 -0.003227 0.000000 0.000213 0.000000
# 3 -0.002947 -0.003227 0.012093 0.000000 0.001440 0.000000
# 4 0.000000 0.000000 0.000000 0.042200 0.000000 -0.000122
# 5 0.004279 0.000213 0.001440 0.000000 0.051448 0.000000
# 6 0.000000 0.000000 0.000000 -0.000122 0.000000 0.057336
#
#
# Mechanical properties :
#
#
# Convention : Reuss Voigt Hill
#
# Bulk Modulus (GPa) = 56.81936 60.68146 58.75041
# Shear Modulus (GPa) = 20.97424 22.54170 21.75797
#
# Velocity S-wave (km/s) = 3.53218 3.66179 3.59757
# Velocity P-wave (km/s) = 7.10166 7.34671 7.22522
#
# Compressibility (1/GPa) = 0.01759963
#
# Stress axis : x y z
#
# Youngs Moduli (GPa) = 46.94149 61.83518 82.69082
#
# Poissons Ratio (x) = 0.60666 0.24365
# Poissons Ratio (y) = 0.46054 0.26684
# Poissons Ratio (z) = 0.13831 0.19954
#
# Static dielectric constant tensor:
#      x y z
#    x 1.572210 0.000000 0.002270 
#    y 0.000000 1.613130 0.000000 
#    z 0.002270 0.000000 1.579600 
# 
# From -- ./inp_files/225422.got.cif
#   From: 2010.05.17/outbox.cif.g08.bks.cpg/sg12_113_cif.got.tgz:225422.got - 2010.06.03 13:09:07.
