data_PCOD9199325
_publ_section_title
;
Structure prediction by ZEFSAII (Michael W. Deem and Ramdas Pophale) SiO2 
 PCOD9199325
Probable space group: C 2/M
;
_chemical_formula_sum "Si O2"
_cell_formula_units_Z 56
_cell_length_a 27.722135
_cell_length_b 14.107306
_cell_length_c 9.302010
_cell_angle_alpha 90.000000
_cell_angle_beta 122.986311
_cell_angle_gamma 90.000000
_cell_volume 3051.450509
_symmetry_space_group_name_H-M "C 2/M"
_symmetry_group_IT_number 12
_symmetry_cell_setting 'monoclinic'
loop_
_space_group_symop_operation_xyz
x,y,z
-x,y,-z
-x,-y,-z
x,-y,z
1/2+x,1/2+y,z
1/2-x,1/2+y,-z
1/2-x,1/2-y,-z
1/2+x,1/2-y,z
loop_
_atom_site_type_symbol
_atom_site_label
_atom_site_fract_x
_atom_site_fract_y
_atom_site_fract_z
Si Si1 0.271574 0.229858 0.375659
Si Si2 0.693492 0.275369 0.999438
Si Si3 0.122750 0.388456 0.356104
Si Si4 0.526698 0.606357 0.384487
Si Si5 0.117453 0.611020 0.003379
Si Si6 0.502266 0.208661 0.174815
Si Si7 0.659625 0.610609 0.679560
O O1 0.250000 0.250000 0.500000
O O2 0.219761 0.190526 0.193463
O O3 0.324623 0.158184 0.474801
O O4 0.296755 0.325610 0.343454
O O5 0.656671 0.181997 0.975364
O O6 0.750000 0.250000 0.000000
O O7 0.660047 0.348390 0.843030
O O8 0.120013 0.500000 0.376174
O O9 0.129718 0.374285 0.194287
O O10 0.062948 0.340969 0.305271
O O11 0.500000 0.610991 0.500000
O O12 0.515785 0.500000 0.309737
O O13 0.500415 0.690337 0.248651
O O14 0.595502 0.619197 0.511424
O O15 0.126164 0.500000 0.985538
O O16 0.051451 0.642310 0.872513
O O17 0.500000 0.222389 0.000000
O O18 0.675955 0.500000 0.705879
#
# Coordination Sequence:
#
# PCOD9199325 Si02
#       7
#     8   8   8   8   8   8   8
#     4  11  21  38  62  88 120 155 203 254 307 348
#     4  10  22  37  59  85 117 160 200 246 289 351
#     4  10  20  36  60  91 122 155 195 244 303 366
#     4  10  20  36  60  83 113 157 196 240 298 354
#     4  10  20  37  62  90 120 159 196 239 304 364
#     4  10  20  36  62  90 122 152 193 250 303 360
#     4  10  22  40  59  82 116 159 200 242 300 363
#
# _framework density 18.351927
#
# number of rings (size 3 to 8) (size 9 to 14) (size 15 to 20)
#    0.000    1.857    2.857    1.286    0.000    5.429 
#    0.000    2.143    0.000    2.571    0.000    0.000 
#    0.000    0.000    0.000    0.000    0.000    0.000 
#
# Total GULP energy -156240.185401 kJ/mol
# GULP energy per Si atom -5580.006621 kJ/mol
# Density = 1.831016 g / cm^3
# Si number density = 18.351927 Si / 1000 Ang^3
#
#
#
# Elastic Constant Matrix: (Units=GPa)
#
#
# Indices 1 2 3 4 5 6 
#
# 1 76.8587 36.5457 12.9139 0.0000 -4.4610 0.0000
# 2 36.5457 132.1231 38.4543 0.0000 -1.1035 0.0000
# 3 12.9139 38.4543 65.4435 0.0000 1.1257 0.0000
# 4 0.0000 0.0000 0.0000 30.0118 0.0000 -8.9121
# 5 -4.4610 -1.1035 1.1257 0.0000 20.5111 0.0000
# 6 0.0000 0.0000 0.0000 -8.9121 0.0000 23.7753
#
#
#
# Elastic Compliance Matrix: (Units=1/GPa)
#
#
# Indices 1 2 3 4 5 6 
#
# 1 0.015201 -0.003968 -0.000722 0.000000 0.003132 0.000000
# 2 -0.003968 0.010179 -0.005197 0.000000 -0.000030 0.000000
# 3 -0.000722 -0.005197 0.018502 0.000000 -0.001452 0.000000
# 4 0.000000 0.000000 0.000000 0.037494 0.000000 0.014054
# 5 0.003132 -0.000030 -0.001452 0.000000 0.049513 0.000000
# 6 0.000000 0.000000 0.000000 0.014054 0.000000 0.047329
#
#
# Mechanical properties :
#
#
# Convention : Reuss Voigt Hill
#
# Bulk Modulus (GPa) = 41.48265 50.02812 45.75538
# Shear Modulus (GPa) = 24.26858 27.29374 25.78116
#
# Velocity S-wave (km/s) = 3.64043 3.86066 3.75216
# Velocity P-wave (km/s) = 6.35006 6.86968 6.61498
#
# Compressibility (1/GPa) = 0.02410647
#
# Stress axis : x y z
#
# Youngs Moduli (GPa) = 65.78564 98.24315 54.04908
#
# Poissons Ratio (x) = 0.38987 0.03900
# Poissons Ratio (y) = 0.26107 0.28092
# Poissons Ratio (z) = 0.04747 0.51061
#
# Static dielectric constant tensor:
#      x y z
#    x 1.627000 0.000000 0.011910 
#    y 0.000000 1.606520 0.000000 
#    z 0.011910 0.000000 1.652930 
# 
# From -- ./inp_files/111727.got.cif
#   From: 2010.05.17/outbox.cif.g08.bks.cpg/sg12_56_cif.got.tgz:111727.got - 2010.06.03 13:09:07.
