data_PCOD9199571
_publ_section_title
;
Structure prediction by ZEFSAII (Michael W. Deem and Ramdas Pophale) SiO2 
 PCOD9199571
Probable space group: C 2/M
;
_chemical_formula_sum "Si O2"
_cell_formula_units_Z 64
_cell_length_a 17.617722
_cell_length_b 12.591615
_cell_length_c 16.269932
_cell_angle_alpha 90.000000
_cell_angle_beta 99.025062
_cell_angle_gamma 90.000000
_cell_volume 3564.566519
_symmetry_space_group_name_H-M "C 2/M"
_symmetry_group_IT_number 12
_symmetry_cell_setting 'monoclinic'
loop_
_space_group_symop_operation_xyz
x,y,z
-x,y,-z
-x,-y,-z
x,-y,z
1/2+x,1/2+y,z
1/2-x,1/2+y,-z
1/2-x,1/2-y,-z
1/2+x,1/2-y,z
loop_
_atom_site_type_symbol
_atom_site_label
_atom_site_fract_x
_atom_site_fract_y
_atom_site_fract_z
Si Si1 0.415894 0.384070 0.448906
Si Si2 0.086258 0.627059 0.298389
Si Si3 0.336354 0.378229 0.144748
Si Si4 0.674673 0.213549 0.158131
Si Si5 0.917008 0.728204 0.293091
Si Si6 0.314873 0.712292 0.572800
Si Si7 0.737920 0.117211 0.715654
Si Si8 0.591877 0.622349 0.024233
O O1 0.500000 0.390621 0.500000
O O2 0.389936 0.500000 0.414055
O O3 0.415128 0.301191 0.374303
O O4 0.369368 0.350509 0.521057
O O5 0.084903 0.500000 0.314048
O O6 0.121962 0.648705 0.213629
O O7 0.140335 0.692674 0.371862
O O8 0.000986 0.678821 0.290781
O O9 0.348093 0.500000 0.173845
O O10 0.244789 0.353685 0.131064
O O11 0.384353 0.300168 0.212667
O O12 0.368773 0.367754 0.058272
O O13 0.721156 0.298363 0.220048
O O14 0.625086 0.284166 0.086887
O O15 0.852855 0.638578 0.297822
O O16 0.250000 0.750000 0.500000
O O17 0.274319 0.638695 0.633170
O O18 0.755289 0.000000 0.747374
O O19 0.606646 0.500000 0.056478
O O20 0.500000 0.632961 0.000000
#
# Coordination Sequence:
#
# PCOD9199571 Si02
#       8
#     8   8   8   8   8   8   8   8
#     4  11  22  38  58  81 114 150 191 240 288 338
#     4  11  24  40  60  83 115 153 191 237 288 345
#     4  10  21  37  61  89 117 152 191 235 287 342
#     4  10  21  38  59  84 119 151 191 234 285 340
#     4  11  21  39  58  83 117 148 194 236 288 342
#     4  11  22  40  56  83 113 147 192 238 287 341
#     4  10  21  36  57  82 111 148 188 234 287 339
#     4  10  20  36  60  90 119 152 193 235 285 339
#
# _framework density 17.954498000000001
#
# number of rings (size 3 to 8) (size 9 to 14) (size 15 to 20)
#    0.000    1.500    2.500    3.000    0.000    1.000 
#    0.000    1.875    0.000    9.000    0.000    0.000 
#    0.000    0.000    0.000    0.000    0.000    0.000 
#
# Total GULP energy -178443.959606 kJ/mol
# GULP energy per Si atom -5576.373738 kJ/mol
# Density = 1.791363 g / cm^3
# Si number density = 17.954498 Si / 1000 Ang^3
#
#
#
# Elastic Constant Matrix: (Units=GPa)
#
#
# Indices 1 2 3 4 5 6 
#
# 1 135.3671 36.6151 40.6371 0.0000 -19.7396 0.0000
# 2 36.6151 76.1324 12.1113 0.0000 -8.6591 0.0000
# 3 40.6371 12.1113 60.9736 0.0000 -10.7142 0.0000
# 4 0.0000 0.0000 0.0000 -68.0279 0.0000 -10.5903
# 5 -19.7396 -8.6591 -10.7142 0.0000 34.0578 0.0000
# 6 0.0000 0.0000 0.0000 -10.5903 0.0000 18.4430
#
#
#
# Elastic Compliance Matrix: (Units=1/GPa)
#
#
# Indices 1 2 3 4 5 6 
#
# 1 0.010636 -0.003817 -0.005734 0.000000 0.003390 0.000000
# 2 -0.003817 0.015182 -0.000193 0.000000 0.001587 0.000000
# 3 -0.005734 -0.000193 0.020819 0.000000 0.003177 0.000000
# 4 0.000000 0.000000 0.000000 -0.013494 0.000000 -0.007748
# 5 0.003390 0.001587 0.003177 0.000000 0.032729 0.000000
# 6 0.000000 0.000000 0.000000 -0.007748 0.000000 0.049772
#
#
# Mechanical properties :
#
#
# Convention : Reuss Voigt Hill
#
# Bulk Modulus (GPa) = 36.83552 50.13335 43.48443
# Shear Modulus (GPa) = 34.67834 9.10189 21.89012
#
# Velocity S-wave (km/s) = 4.39960 2.25398 3.49549
# Velocity P-wave (km/s) = 6.80950 5.89550 6.36892
#
# Compressibility (1/GPa) = 0.02714771
#
# Stress axis : x y z
#
# Youngs Moduli (GPa) = 94.02345 65.86721 48.03341
#
# Poissons Ratio (x) = 0.25144 0.27544
# Poissons Ratio (y) = 0.35892 0.00925
# Poissons Ratio (z) = 0.53917 0.01269
#
# Static dielectric constant tensor:
#      x y z
#    x 1.594370 0.000000 0.004330 
#    y 0.000000 1.636960 0.000000 
#    z 0.004330 0.000000 1.586420 
# 
# From -- ./inp_files/223816.got.cif
#   From: 2010.05.17/outbox.cif.g08.bks.cpg/sg12_112_cif.got.tgz:223816.got - 2010.06.03 13:09:07.
