data_PCOD9199050
_publ_section_title
;
Structure prediction by ZEFSAII (Michael W. Deem and Ramdas Pophale) SiO2 
 PCOD9199050
Probable space group: C 2/M
;
_chemical_formula_sum "Si O2"
_cell_formula_units_Z 48
_cell_length_a 17.413941
_cell_length_b 31.625645
_cell_length_c 9.550302
_cell_angle_alpha 90.000000
_cell_angle_beta 30.454132
_cell_angle_gamma 90.000000
_cell_volume 2665.825187
_symmetry_space_group_name_H-M "C 2/M"
_symmetry_group_IT_number 12
_symmetry_cell_setting 'monoclinic'
loop_
_space_group_symop_operation_xyz
x,y,z
-x,y,-z
-x,-y,-z
x,-y,z
1/2+x,1/2+y,z
1/2-x,1/2+y,-z
1/2-x,1/2-y,-z
1/2+x,1/2-y,z
loop_
_atom_site_type_symbol
_atom_site_label
_atom_site_fract_x
_atom_site_fract_y
_atom_site_fract_z
Si Si1 0.409772 0.592914 0.995595
Si Si2 0.550111 0.335583 0.580691
Si Si3 0.950734 0.500000 0.415334
Si Si4 0.090438 0.665719 0.002549
Si Si5 0.090105 0.000000 0.004180
Si Si6 0.547088 0.092856 0.589210
Si Si7 0.924555 0.257313 0.764242
O O1 0.440201 0.546041 0.881457
O O2 0.229762 0.596623 0.305946
O O3 0.500000 0.594678 0.000000
O O4 0.467789 0.630742 0.808292
O O5 0.500000 0.343790 0.500000
O O6 0.730821 0.338791 0.307049
O O7 0.498464 0.287370 0.690939
O O8 0.769135 0.500000 0.692946
O O9 0.000002 0.545815 0.283203
O O10 0.000000 0.500000 0.500000
O O11 0.063637 0.708439 0.132928
O O12 0.000000 0.666213 0.000000
O O13 0.031487 0.627828 0.192859
O O14 0.000000 0.000000 0.000000
O O15 0.500000 0.096882 0.500000
O O16 0.000000 0.272134 0.500000
O O17 0.750000 0.250000 0.000000
#
# Coordination Sequence:
#
# PCOD9199050 Si02
#       7
#     8   8   4   8   4   8   8
#     4  10  20  36  59  85 113 151 194 234 278 333
#     4  11  23  40  58  84 117 147 189 237 284 342
#     4   8  16  32  54  86 112 142 200 240 264 330
#     4  12  25  39  58  90 121 147 189 242 289 341
#     4   8  16  32  54  80 112 148 188 230 276 332
#     4  10  20  36  62  85 113 157 196 234 282 340
#     4  11  23  44  65  83 112 155 192 230 289 348
#
# _framework density 18.005680999999999
#
# number of rings (size 3 to 8) (size 9 to 14) (size 15 to 20)
#    0.000    1.667    3.333    2.500    2.333    1.333 
#    0.000    1.667    0.000    0.000    0.000    0.000 
#    0.000    0.000    0.000    0.000    0.000    0.000 
#
# Total GULP energy -133883.612512 kJ/mol
# GULP energy per Si atom -5578.483855 kJ/mol
# Density = 1.796470 g / cm^3
# Si number density = 18.005681 Si / 1000 Ang^3
#
#
#
# Elastic Constant Matrix: (Units=GPa)
#
#
# Indices 1 2 3 4 5 6 
#
# 1 105.7945 49.3604 31.8522 0.0000 -24.6423 0.0000
# 2 49.3604 177.0712 61.3160 0.0000 10.9831 0.0000
# 3 31.8522 61.3160 85.0706 0.0000 -18.7285 0.0000
# 4 0.0000 0.0000 0.0000 31.4596 0.0000 12.1040
# 5 -24.6423 10.9831 -18.7285 0.0000 34.5101 0.0000
# 6 0.0000 0.0000 0.0000 12.1040 0.0000 -36.4636
#
#
#
# Elastic Compliance Matrix: (Units=1/GPa)
#
#
# Indices 1 2 3 4 5 6 
#
# 1 0.014479 -0.005196 0.001095 0.000000 0.012586 0.000000
# 2 -0.005196 0.010702 -0.008330 0.000000 -0.011637 0.000000
# 3 0.001095 -0.008330 0.020562 0.000000 0.014592 0.000000
# 4 0.000000 0.000000 0.000000 0.028187 0.000000 0.009357
# 5 0.012586 -0.011637 0.014592 0.000000 0.049587 0.000000
# 6 0.000000 0.000000 0.000000 0.009357 0.000000 -0.024319
#
#
# Mechanical properties :
#
#
# Convention : Reuss Voigt Hill
#
# Bulk Modulus (GPa) = 47.89315 72.55482 60.22399
# Shear Modulus (GPa) = 38.16203 20.92839 29.54521
#
# Velocity S-wave (km/s) = 4.60874 3.41298 4.05518
# Velocity P-wave (km/s) = 7.41466 7.47758 7.44619
#
# Compressibility (1/GPa) = 0.02087981
#
# Stress axis : x y z
#
# Youngs Moduli (GPa) = 69.06746 93.43807 48.63426
#
# Poissons Ratio (x) = 0.48549 -0.05325
# Poissons Ratio (y) = 0.35887 0.40514
# Poissons Ratio (z) = -0.07562 0.77837
#
# Static dielectric constant tensor:
#      x y z
#    x 1.590060 0.000000 -0.010580 
#    y 0.000000 1.654780 0.000000 
#    z -0.010580 0.000000 1.658380 
# 
# From -- ./inp_files/80643.got.cif
#   From: 2010.05.17/outbox.cif.g08.bks.cpg/sg12_41_cif.got.tgz:80643.got - 2010.06.03 13:09:07.
