data_PCOD9200814
_publ_section_title
;
Structure prediction by ZEFSAII (Michael W. Deem and Ramdas Pophale) SiO2 
 PCOD9200814
Probable space group: C 2/M
;
_chemical_formula_sum "Si O2"
_cell_formula_units_Z 64
_cell_length_a 15.586740
_cell_length_b 14.647714
_cell_length_c 16.488480
_cell_angle_alpha 90.000000
_cell_angle_beta 52.451352
_cell_angle_gamma 90.000000
_cell_volume 2984.621217
_symmetry_space_group_name_H-M "C 2/M"
_symmetry_group_IT_number 12
_symmetry_cell_setting 'monoclinic'
loop_
_space_group_symop_operation_xyz
x,y,z
-x,y,-z
-x,-y,-z
x,-y,z
1/2+x,1/2+y,z
1/2-x,1/2+y,-z
1/2-x,1/2-y,-z
1/2+x,1/2-y,z
loop_
_atom_site_type_symbol
_atom_site_label
_atom_site_fract_x
_atom_site_fract_y
_atom_site_fract_z
Si Si1 0.272112 0.109961 0.793655
Si Si2 0.075647 0.390083 0.836305
Si Si3 0.943830 0.732513 0.613977
Si Si4 0.427744 0.395627 0.196070
Si Si5 0.349521 0.888756 0.029442
Si Si6 0.836904 0.888539 0.972817
Si Si7 0.634763 0.336734 0.597729
Si Si8 0.741120 0.680628 0.382663
O O1 0.380836 0.159593 0.704298
O O2 0.178533 0.142573 0.785415
O O3 0.225707 0.132639 0.908723
O O4 0.286188 0.000000 0.780880
O O5 0.079274 0.500000 0.832863
O O6 0.150751 0.355119 0.721659
O O7 0.949387 0.364312 0.913004
O O8 0.124624 0.358943 0.894545
O O9 0.853572 0.801881 0.628469
O O10 0.000000 0.692916 0.500000
O O11 0.036828 0.779882 0.613523
O O12 0.430371 0.500000 0.165554
O O13 0.415470 0.394020 0.299925
O O14 0.540917 0.353423 0.102874
O O15 0.236297 0.856454 0.059597
O O16 0.347689 0.000000 0.032511
O O17 0.842060 0.000000 0.965513
O O18 0.694598 0.378654 0.484716
O O19 0.722729 0.274395 0.594225
#
# Coordination Sequence:
#
# PCOD9200814 Si02
#       8
#     8   8   8   8   8   8   8   8
#     4  10  20  37  60  85 112 144 189 236 275 328
#     4   9  18  33  56  81 110 146 183 225 272 326
#     4  10  22  40  59  80 113 152 185 230 289 337
#     4  10  20  37  60  83 112 148 188 232 276 330
#     4   8  16  32  51  79 114 144 176 222 279 331
#     4   9  18  32  54  82 112 143 178 225 282 330
#     4  10  22  39  58  80 111 153 187 226 289 340
#     4  10  21  39  58  78 113 150 185 232 284 339
#
# _framework density 21.443256999999999
#
# number of rings (size 3 to 8) (size 9 to 14) (size 15 to 20)
#    0.000    2.500    1.250    1.125    3.500    2.250 
#    0.000    3.125    0.000    2.250    0.000    0.000 
#    0.000    0.000    0.000    0.000    0.000    0.000 
#
# Total GULP energy -178556.881368 kJ/mol
# GULP energy per Si atom -5579.902543 kJ/mol
# Density = 2.139445 g / cm^3
# Si number density = 21.443257 Si / 1000 Ang^3
#
#
#
# Elastic Constant Matrix: (Units=GPa)
#
#
# Indices 1 2 3 4 5 6 
#
# 1 76.1624 -3.7507 -18.3807 0.0000 -8.5831 0.0000
# 2 -3.7507 33.3467 1.6340 0.0000 -1.4606 0.0000
# 3 -18.3807 1.6340 81.2644 0.0000 -17.9230 0.0000
# 4 0.0000 0.0000 0.0000 30.3270 0.0000 -0.1374
# 5 -8.5831 -1.4606 -17.9230 0.0000 28.8191 0.0000
# 6 0.0000 0.0000 0.0000 -0.1374 0.0000 12.4227
#
#
#
# Elastic Compliance Matrix: (Units=1/GPa)
#
#
# Indices 1 2 3 4 5 6 
#
# 1 0.015357 0.001819 0.005176 0.000000 0.007885 0.000000
# 2 0.001819 0.030277 0.000302 0.000000 0.002264 0.000000
# 3 0.005176 0.000302 0.016009 0.000000 0.011513 0.000000
# 4 0.000000 0.000000 0.000000 0.032976 0.000000 0.000365
# 5 0.007885 0.002264 0.011513 0.000000 0.044323 0.000000
# 6 0.000000 0.000000 0.000000 0.000365 0.000000 0.080502
#
#
# Mechanical properties :
#
#
# Convention : Reuss Voigt Hill
#
# Bulk Modulus (GPa) = 13.11685 16.64206 14.87945
# Shear Modulus (GPa) = 21.71440 28.39849 25.05645
#
# Velocity S-wave (km/s) = 3.18566 3.64312 3.42204
# Velocity P-wave (km/s) = 4.43413 5.04720 4.75057
#
# Compressibility (1/GPa) = 0.07623784
#
# Stress axis : x y z
#
# Youngs Moduli (GPa) = 65.11606 33.02840 62.46305
#
# Poissons Ratio (x) = -0.06008 -0.32331
# Poissons Ratio (y) = -0.11845 -0.01886
# Poissons Ratio (z) = -0.33704 -0.00997
#
# Static dielectric constant tensor:
#      x y z
#    x 1.763110 0.000000 0.001350 
#    y 0.000000 1.812830 0.000000 
#    z 0.001350 0.000000 1.792840 
# 
# From -- ./inp_files/169704.got.cif
#   From: 2010.05.17/outbox.cif.g08.bks.cpg/sg12_85_cif.got.tgz:169704.got - 2010.06.03 13:09:07.
