data_PCOD9200397
_publ_section_title
;
Structure prediction by ZEFSAII (Michael W. Deem and Ramdas Pophale) SiO2 
 PCOD9200397
Probable space group: C 2/M
;
_chemical_formula_sum "Si O2"
_cell_formula_units_Z 56
_cell_length_a 18.253724
_cell_length_b 9.368517
_cell_length_c 17.007700
_cell_angle_alpha 90.000000
_cell_angle_beta 62.736810
_cell_angle_gamma 90.000000
_cell_volume 2585.392851
_symmetry_space_group_name_H-M "C 2/M"
_symmetry_group_IT_number 12
_symmetry_cell_setting 'monoclinic'
loop_
_space_group_symop_operation_xyz
x,y,z
-x,y,-z
-x,-y,-z
x,-y,z
1/2+x,1/2+y,z
1/2-x,1/2+y,-z
1/2-x,1/2-y,-z
1/2+x,1/2-y,z
loop_
_atom_site_type_symbol
_atom_site_label
_atom_site_fract_x
_atom_site_fract_y
_atom_site_fract_z
Si Si1 0.749279 0.830675 0.868538
Si Si2 0.091294 0.336156 0.690106
Si Si3 0.194632 0.838482 0.753143
Si Si4 0.912760 0.837794 0.588752
Si Si5 0.321089 0.836103 0.509038
Si Si6 0.931834 0.166231 0.767616
Si Si7 0.908061 0.162215 0.046711
O O1 0.748876 0.766482 0.779954
O O2 0.842689 0.803423 0.849808
O O3 0.670727 0.751460 0.946184
O O4 0.736126 0.000000 0.874090
O O5 0.101665 0.500000 0.710821
O O6 0.161762 0.236513 0.692170
O O7 0.103133 0.331715 0.590361
O O8 0.003641 0.272221 0.757230
O O9 0.115148 0.848704 0.849910
O O10 0.226399 0.000000 0.729770
O O11 0.850834 0.730167 0.576166
O O12 0.924959 0.819837 0.675885
O O13 0.000000 0.826078 0.500000
O O14 0.882059 0.000000 0.590919
O O15 0.250000 0.750000 0.500000
O O16 0.296186 0.000000 0.529434
O O17 0.953305 0.000000 0.772630
O O18 0.908996 0.000000 0.013476
O O19 0.000000 0.223729 0.000000
#
# Coordination Sequence:
#
# PCOD9200397 Si02
#       7
#     8   8   8   8   8   8   8
#     4   9  18  32  52  82 111 137 173 215 258 309
#     4  11  23  37  53  75 105 138 177 223 264 310
#     4   9  19  34  54  78 106 139 172 209 260 313
#     4  10  20  37  58  77 100 137 180 220 268 319
#     4  11  25  39  53  75 103 136 176 225 273 317
#     4  10  21  36  55  77 107 142 176 219 267 319
#     4   8  16  32  54  81 110 140 175 214 258 309
#
# _framework density 21.660150000000002
#
# number of rings (size 3 to 8) (size 9 to 14) (size 15 to 20)
#    0.857    1.429    1.429    1.286    2.000    4.000 
#    0.000    0.000    0.000    0.857    0.000    0.000 
#    0.000    0.000    0.000    0.000    0.000    0.000 
#
# Total GULP energy -156099.590263 kJ/mol
# GULP energy per Si atom -5574.985367 kJ/mol
# Density = 2.161085 g / cm^3
# Si number density = 21.660150 Si / 1000 Ang^3
#
#
#
# Elastic Constant Matrix: (Units=GPa)
#
#
# Indices 1 2 3 4 5 6 
#
# 1 47.2654 52.1537 3.9129 0.0000 -18.8874 0.0000
# 2 52.1537 106.2607 -1.7823 0.0000 -10.7099 0.0000
# 3 3.9129 -1.7823 51.9024 0.0000 -16.7401 0.0000
# 4 0.0000 0.0000 0.0000 18.9939 0.0000 -6.9247
# 5 -18.8874 -10.7099 -16.7401 0.0000 43.0604 0.0000
# 6 0.0000 0.0000 0.0000 -6.9247 0.0000 33.9563
#
#
#
# Elastic Compliance Matrix: (Units=1/GPa)
#
#
# Indices 1 2 3 4 5 6 
#
# 1 0.058035 -0.026533 0.000909 0.000000 0.019210 0.000000
# 2 -0.026533 0.021856 0.000858 0.000000 -0.005868 0.000000
# 3 0.000909 0.000858 0.022210 0.000000 0.009247 0.000000
# 4 0.000000 0.000000 0.000000 0.056877 0.000000 0.011599
# 5 0.019210 -0.005868 0.009247 0.000000 0.033784 0.000000
# 6 0.000000 0.000000 0.000000 0.011599 0.000000 0.031815
#
#
# Mechanical properties :
#
#
# Convention : Reuss Voigt Hill
#
# Bulk Modulus (GPa) = 19.02185 34.88855 26.95520
# Shear Modulus (GPa) = 17.14496 29.27842 23.21169
#
# Velocity S-wave (km/s) = 2.81649 3.68056 3.27713
# Velocity P-wave (km/s) = 4.40203 5.84844 5.17601
#
# Compressibility (1/GPa) = 0.05257114
#
# Stress axis : x y z
#
# Youngs Moduli (GPa) = 17.23108 45.75369 45.02439
#
# Poissons Ratio (x) = 1.21396 -0.04095
# Poissons Ratio (y) = 0.45718 -0.03864
# Poissons Ratio (z) = -0.01567 -0.03926
#
# Static dielectric constant tensor:
#      x y z
#    x 1.786840 0.000000 -0.020050 
#    y 0.000000 1.750290 0.000000 
#    z -0.020050 0.000000 1.871270 
# 
# From -- ./inp_files/313680.got.cif
#   From: 2010.05.17/outbox.cif.g08.bks.cpg/sg12_157_cif.got.tgz:313680.got - 2010.06.03 13:09:07.
