data_PCOD9200240
_publ_section_title
;
Structure prediction by ZEFSAII (Michael W. Deem and Ramdas Pophale) SiO2 
 PCOD9200240
Probable space group: C 2/M
;
_chemical_formula_sum "Si O2"
_cell_formula_units_Z 56
_cell_length_a 7.145409
_cell_length_b 26.686328
_cell_length_c 17.205066
_cell_angle_alpha 90.000000
_cell_angle_beta 45.059733
_cell_angle_gamma 90.000000
_cell_volume 2322.253114
_symmetry_space_group_name_H-M "C 2/M"
_symmetry_group_IT_number 12
_symmetry_cell_setting 'monoclinic'
loop_
_space_group_symop_operation_xyz
x,y,z
-x,y,-z
-x,-y,-z
x,-y,z
1/2+x,1/2+y,z
1/2-x,1/2+y,-z
1/2-x,1/2-y,-z
1/2+x,1/2-y,z
loop_
_atom_site_type_symbol
_atom_site_label
_atom_site_fract_x
_atom_site_fract_y
_atom_site_fract_z
Si Si1 0.206960 0.699556 0.556854
Si Si2 0.949883 0.102096 0.750210
Si Si3 0.546254 0.910357 0.278290
Si Si4 0.333505 0.194929 0.805330
Si Si5 0.697712 0.301705 0.113878
Si Si6 0.306918 0.500000 0.129748
Si Si7 0.250214 0.500000 0.870946
Si Si8 0.788251 0.593228 0.505028
O O1 0.500000 0.685157 0.500000
O O2 0.250000 0.750000 0.500000
O O3 0.124760 0.650932 0.533988
O O4 0.973423 0.712395 0.684686
O O5 0.844931 0.157486 0.804736
O O6 0.770998 0.053546 0.821629
O O7 0.206622 0.096980 0.733053
O O8 0.035572 0.096640 0.635136
O O9 0.525115 0.859276 0.234110
O O10 0.624677 0.952192 0.194484
O O11 0.314474 0.924964 0.407909
O O12 0.363841 0.243016 0.851018
O O13 0.021231 0.184814 0.886748
O O14 0.000000 0.305939 0.000000
O O15 0.495357 0.500000 0.148769
O O16 0.500000 0.500000 0.000000
O O17 0.000000 0.500000 0.000000
O O18 0.000000 0.566702 0.500000
#
# Coordination Sequence:
#
# PCOD9200240 Si02
#       8
#     8   8   8   8   8   4   4   8
#     4  11  20  32  52  79 110 147 187 234 282 339
#     4   9  18  33  56  81 108 142 183 230 283 335
#     4   8  18  34  55  82 112 140 181 232 279 335
#     4  10  21  36  52  78 110 144 183 228 277 328
#     4  11  21  35  53  77 109 149 189 232 276 327
#     4  10  20  37  59  81 107 146 185 224 275 333
#     4  10  20  37  55  79 109 140 183 232 274 329
#     4   9  17  33  54  79 109 142 179 229 287 340
#
# _framework density 24.114512000000001
#
# number of rings (size 3 to 8) (size 9 to 14) (size 15 to 20)
#    0.000    2.286    0.000    3.857    0.000    1.143 
#    0.000    8.571    0.000    0.000    0.000    9.500 
#    0.000    0.000    0.000    0.000    0.000    0.000 
#
# Total GULP energy -156121.150825 kJ/mol
# GULP energy per Si atom -5575.755387 kJ/mol
# Density = 2.405963 g / cm^3
# Si number density = 24.114512 Si / 1000 Ang^3
#
#
#
# Elastic Constant Matrix: (Units=GPa)
#
#
# Indices 1 2 3 4 5 6 
#
# 1 86.8534 -9.0589 0.9724 0.0000 -3.8441 0.0000
# 2 -9.0589 137.3917 73.6439 0.0000 8.0164 0.0000
# 3 0.9724 73.6439 156.6405 0.0001 -8.8659 0.0000
# 4 0.0000 0.0000 0.0001 20.1471 0.0000 -3.2494
# 5 -3.8441 8.0164 -8.8659 0.0000 33.5211 0.0000
# 6 0.0000 0.0000 0.0000 -3.2494 0.0000 5.0599
#
#
#
# Elastic Compliance Matrix: (Units=1/GPa)
#
#
# Indices 1 2 3 4 5 6 
#
# 1 0.011663 0.000963 -0.000470 0.000000 0.000983 0.000000
# 2 0.000963 0.010255 -0.005035 0.000000 -0.003674 0.000000
# 3 -0.000470 -0.005035 0.008954 0.000000 0.003518 0.000000
# 4 0.000000 0.000000 0.000000 0.055370 0.000000 0.035557
# 5 0.000983 -0.003674 0.003518 0.000000 0.031754 0.000000
# 6 0.000000 0.000000 0.000000 0.035557 0.000000 0.220466
#
#
# Mechanical properties :
#
#
# Convention : Reuss Voigt Hill
#
# Bulk Modulus (GPa) = 45.89619 56.88894 51.39257
# Shear Modulus (GPa) = 14.09214 32.76750 23.42982
#
# Velocity S-wave (km/s) = 2.42003 3.69023 3.12044
# Velocity P-wave (km/s) = 5.18485 6.46525 5.86012
#
# Compressibility (1/GPa) = 0.02178830
#
# Stress axis : x y z
#
# Youngs Moduli (GPa) = 85.74195 97.50933 111.68799
#
# Poissons Ratio (x) = -0.09394 0.05246
# Poissons Ratio (y) = -0.08261 0.56240
# Poissons Ratio (z) = 0.04027 0.49101
#
# Static dielectric constant tensor:
#      x y z
#    x 1.321840 0.000000 0.398300 
#    y 0.000000 1.979690 0.000000 
#    z 0.398300 0.000000 1.709120 
# 
# From -- ./inp_files/259835.got.cif
#   From: 2010.05.17/outbox.cif.g08.bks.cpg/sg12_130_cif.got.tgz:259835.got - 2010.06.03 13:09:07.
