data_PCOD9200540
_publ_section_title
;
Structure prediction by ZEFSAII (Michael W. Deem and Ramdas Pophale) SiO2 
 PCOD9200540
Probable space group: C 2/M
;
_chemical_formula_sum "Si O2"
_cell_formula_units_Z 56
_cell_length_a 14.709600
_cell_length_b 21.460869
_cell_length_c 9.405561
_cell_angle_alpha 90.000000
_cell_angle_beta 67.448906
_cell_angle_gamma 90.000000
_cell_volume 2742.127193
_symmetry_space_group_name_H-M "C 2/M"
_symmetry_group_IT_number 12
_symmetry_cell_setting 'monoclinic'
loop_
_space_group_symop_operation_xyz
x,y,z
-x,y,-z
-x,-y,-z
x,-y,z
1/2+x,1/2+y,z
1/2-x,1/2+y,-z
1/2-x,1/2-y,-z
1/2+x,1/2-y,z
loop_
_atom_site_type_symbol
_atom_site_label
_atom_site_fract_x
_atom_site_fract_y
_atom_site_fract_z
Si Si1 0.898959 0.744270 0.797074
Si Si2 0.717310 0.428097 0.066239
Si Si3 0.605133 0.628217 0.379834
Si Si4 0.178685 0.812559 0.897991
Si Si5 0.227444 0.180417 0.563217
Si Si6 0.896850 0.429426 0.140943
Si Si7 0.943091 0.641114 0.402063
O O1 0.904599 0.805517 0.695406
O O2 0.789990 0.714947 0.841346
O O3 0.986634 0.698011 0.695618
O O4 0.892971 0.769416 0.963691
O O5 0.728878 0.500000 0.014247
O O6 0.643977 0.420782 0.242395
O O7 0.818316 0.401999 0.076842
O O8 0.683251 0.381087 0.964685
O O9 0.500000 0.609504 0.500000
O O10 0.679104 0.640866 0.465887
O O11 0.158305 0.817015 0.742974
O O12 0.250000 0.250000 0.500000
O O13 0.336884 0.156996 0.530856
O O14 0.862116 0.500000 0.189061
O O15 0.915834 0.396445 0.277639
O O16 0.000000 0.431073 0.000000
O O17 0.000000 0.609911 0.500000
#
# Coordination Sequence:
#
# PCOD9200540 Si02
#       7
#     8   8   8   8   8   8   8
#     4  10  20  37  58  86 126 163 201 248 309 388
#     4  10  22  43  64  88 125 171 219 262 301 371
#     4  11  22  41  64  91 122 162 212 263 319 377
#     4  10  21  37  61  88 123 163 207 253 313 365
#     4  12  22  37  61  91 128 160 197 261 324 377
#     4  10  22  39  60  87 123 169 215 249 302 374
#     4  12  22  36  59  93 127 163 201 253 316 377
#
# _framework density 20.422101000000001
#
# number of rings (size 3 to 8) (size 9 to 14) (size 15 to 20)
#    0.000    1.286    4.286    2.143    0.000    1.714 
#    0.000    8.571    0.000    0.857    0.000    0.000 
#    0.000    0.000    0.000    0.000    0.000    0.000 
#
# Total GULP energy -156310.751407 kJ/mol
# GULP energy per Si atom -5582.526836 kJ/mol
# Density = 2.037562 g / cm^3
# Si number density = 20.422101 Si / 1000 Ang^3
#
#
#
# Elastic Constant Matrix: (Units=GPa)
#
#
# Indices 1 2 3 4 5 6 
#
# 1 46.6942 -8.2299 3.3194 0.0000 -5.9481 0.0000
# 2 -8.2299 30.6468 3.3382 0.0000 13.8913 0.0000
# 3 3.3194 3.3382 109.2046 0.0000 10.5882 0.0000
# 4 0.0000 0.0000 0.0000 9.3810 0.0000 1.2979
# 5 -5.9481 13.8913 10.5882 0.0000 41.2013 0.0000
# 6 0.0000 0.0000 0.0000 1.2979 0.0000 3.7923
#
#
#
# Elastic Compliance Matrix: (Units=1/GPa)
#
#
# Indices 1 2 3 4 5 6 
#
# 1 0.022662 0.005424 -0.001020 0.000000 0.001705 0.000000
# 2 0.005424 0.039815 -0.000160 0.000000 -0.012600 0.000000
# 3 -0.001020 -0.000160 0.009437 0.000000 -0.002518 0.000000
# 4 0.000000 0.000000 0.000000 0.111897 0.000000 -0.038297
# 5 0.001705 -0.012600 -0.002518 0.000000 0.029412 0.000000
# 6 0.000000 0.000000 0.000000 -0.038297 0.000000 0.276798
#
#
# Mechanical properties :
#
#
# Convention : Reuss Voigt Hill
#
# Bulk Modulus (GPa) = 12.43770 20.37791 16.40781
# Shear Modulus (GPa) = 9.83606 23.41613 16.62609
#
# Velocity S-wave (km/s) = 2.19701 3.38983 2.85638
# Velocity P-wave (km/s) = 3.54109 5.03203 4.35090
#
# Compressibility (1/GPa) = 0.08040070
#
# Stress axis : x y z
#
# Youngs Moduli (GPa) = 44.12757 25.11627 105.96360
#
# Poissons Ratio (x) = -0.13623 0.10808
# Poissons Ratio (y) = -0.23934 0.01699
# Poissons Ratio (z) = 0.04501 0.00403
#
# Static dielectric constant tensor:
#      x y z
#    x 2.674040 0.000000 -0.590030 
#    y 0.000000 1.738820 0.000000 
#    z -0.590030 0.000000 2.188890 
# 
# From -- ./inp_files/65306.got.cif
#   From: 2010.05.17/outbox.cif.g08.bks.cpg/sg12_33_cif.got.tgz:65306.got - 2010.06.03 13:09:07.
