data_PCOD9200298
_publ_section_title
;
Structure prediction by ZEFSAII (Michael W. Deem and Ramdas Pophale) SiO2 
 PCOD9200298
Probable space group: C 2/M
;
_chemical_formula_sum "Si O2"
_cell_formula_units_Z 56
_cell_length_a 25.080366
_cell_length_b 12.571919
_cell_length_c 9.389639
_cell_angle_alpha 90.000000
_cell_angle_beta 110.081718
_cell_angle_gamma 90.000000
_cell_volume 2780.636429
_symmetry_space_group_name_H-M "C 2/M"
_symmetry_group_IT_number 12
_symmetry_cell_setting 'monoclinic'
loop_
_space_group_symop_operation_xyz
x,y,z
-x,y,-z
-x,-y,-z
x,-y,z
1/2+x,1/2+y,z
1/2-x,1/2+y,-z
1/2-x,1/2-y,-z
1/2+x,1/2-y,z
loop_
_atom_site_type_symbol
_atom_site_label
_atom_site_fract_x
_atom_site_fract_y
_atom_site_fract_z
Si Si1 0.107180 0.617364 0.526603
Si Si2 0.278078 0.879188 0.187358
Si Si3 0.986701 0.816866 0.835342
Si Si4 0.104668 0.121650 0.816014
Si Si5 0.093903 0.378298 0.189351
Si Si6 0.559397 0.342185 0.490498
Si Si7 0.184408 0.723754 0.059523
O O1 0.083310 0.500000 0.536586
O O2 0.162922 0.632260 0.673416
O O3 0.121716 0.619964 0.372249
O O4 0.064450 0.714501 0.507343
O O5 0.233467 0.787577 0.187249
O O6 0.257467 0.000000 0.191273
O O7 0.290474 0.859232 0.031241
O O8 0.959026 0.702377 0.844744
O O9 0.943277 0.867782 0.679864
O O10 0.046915 0.817445 0.809917
O O11 0.000000 0.868924 0.000000
O O12 0.106385 0.119994 0.645440
O O13 0.101564 0.000000 0.862856
O O14 0.154517 0.185932 0.935146
O O15 0.078138 0.500000 0.139202
O O16 0.138082 0.330466 0.117402
O O17 0.500000 0.381170 0.500000
#
# Coordination Sequence:
#
# PCOD9200298 Si02
#       7
#     8   8   8   8   8   8   8
#     4   9  18  35  57  82 113 146 180 226 280 329
#     4  10  21  37  59  83 110 145 187 234 279 326
#     4  10  20  37  56  85 113 145 185 228 274 329
#     4  11  22  38  56  79 113 152 188 229 280 326
#     4  10  21  38  59  84 116 149 181 225 281 334
#     4   9  19  34  55  79 112 147 187 224 273 329
#     4  11  21  37  58  85 111 144 190 233 275 329
#
# _framework density 20.139275000000001
#
# number of rings (size 3 to 8) (size 9 to 14) (size 15 to 20)
#    0.000    2.000    2.857    0.857    0.000    4.000 
#    0.000    2.143    0.000    0.000    0.000    0.000 
#    0.000    0.000    0.000    0.000    0.000    0.000 
#
# Total GULP energy -155993.062398 kJ/mol
# GULP energy per Si atom -5571.180800 kJ/mol
# Density = 2.009344 g / cm^3
# Si number density = 20.139275 Si / 1000 Ang^3
#
#
#
# Elastic Constant Matrix: (Units=GPa)
#
#
# Indices 1 2 3 4 5 6 
#
# 1 38.5801 30.4429 9.8208 0.0000 -0.7492 0.0000
# 2 30.4429 116.3069 19.9370 0.0000 -4.8360 0.0000
# 3 9.8208 19.9370 97.4639 0.0000 -4.7949 0.0000
# 4 0.0000 0.0000 0.0000 70.9048 0.0000 16.8499
# 5 -0.7492 -4.8360 -4.7949 0.0000 19.7137 0.0000
# 6 0.0000 0.0000 0.0000 16.8499 0.0000 12.1648
#
#
#
# Elastic Compliance Matrix: (Units=1/GPa)
#
#
# Indices 1 2 3 4 5 6 
#
# 1 0.032938 -0.008387 -0.001663 0.000000 -0.001210 0.000000
# 2 -0.008387 0.011107 -0.001324 0.000000 0.002084 0.000000
# 3 -0.001663 -0.001324 0.010809 0.000000 0.002241 0.000000
# 4 0.000000 0.000000 0.000000 0.021024 0.000000 -0.029121
# 5 -0.001210 0.002084 0.002241 0.000000 0.051736 0.000000
# 6 0.000000 0.000000 0.000000 -0.029121 0.000000 0.122540
#
#
# Mechanical properties :
#
#
# Convention : Reuss Voigt Hill
#
# Bulk Modulus (GPa) = 31.14727 41.41693 36.28210
# Shear Modulus (GPa) = 17.63029 33.36669 25.49849
#
# Velocity S-wave (km/s) = 2.96196 4.07479 3.56210
# Velocity P-wave (km/s) = 5.21508 6.53823 5.91378
#
# Compressibility (1/GPa) = 0.03210555
#
# Stress axis : x y z
#
# Youngs Moduli (GPa) = 30.36048 90.03533 92.51603
#
# Poissons Ratio (x) = 0.75509 0.15385
# Poissons Ratio (y) = 0.25462 0.12253
# Poissons Ratio (z) = 0.05049 0.11924
#
# Static dielectric constant tensor:
#      x y z
#    x 1.680890 0.000000 0.006310 
#    y 0.000000 1.722970 0.000000 
#    z 0.006310 0.000000 1.782500 
# 
# From -- ./inp_files/96485.got.cif
#   From: 2010.05.17/outbox.cif.g08.bks.cpg/sg12_49_cif.got.tgz:96485.got - 2010.06.03 13:09:07.
