data_PCOD9200878
_publ_section_title
;
Structure prediction by ZEFSAII (Michael W. Deem and Ramdas Pophale) SiO2 
 PCOD9200878
Probable space group: C 2/M
;
_chemical_formula_sum "Si O2"
_cell_formula_units_Z 40
_cell_length_a 13.869946
_cell_length_b 10.702122
_cell_length_c 13.742733
_cell_angle_alpha 90.000000
_cell_angle_beta 72.519530
_cell_angle_gamma 90.000000
_cell_volume 1945.736051
_symmetry_space_group_name_H-M "C 2/M"
_symmetry_group_IT_number 12
_symmetry_cell_setting 'monoclinic'
loop_
_space_group_symop_operation_xyz
x,y,z
-x,y,-z
-x,-y,-z
x,-y,z
1/2+x,1/2+y,z
1/2-x,1/2+y,-z
1/2-x,1/2-y,-z
1/2+x,1/2-y,z
loop_
_atom_site_type_symbol
_atom_site_label
_atom_site_fract_x
_atom_site_fract_y
_atom_site_fract_z
Si Si1 0.324210 0.252591 0.251452
Si Si2 0.761395 0.143636 0.915511
Si Si3 0.602300 0.859768 0.368227
Si Si4 0.026463 0.860497 0.259653
Si Si5 0.816121 0.632977 0.453354
O O1 0.308635 0.183574 0.154280
O O2 0.220644 0.329636 0.304269
O O3 0.423565 0.336850 0.231822
O O4 0.339358 0.151992 0.333586
O O5 0.875994 0.146482 0.839588
O O6 0.740259 0.000000 0.953161
O O7 0.750000 0.250000 0.000000
O O8 0.542832 0.746918 0.335322
O O9 0.601595 0.863623 0.486104
O O10 0.576153 0.000000 0.340693
O O11 0.024605 0.000000 0.303892
O O12 0.762406 0.500000 0.481480
O O13 0.750000 0.750000 0.500000
#
# Coordination Sequence:
#
# PCOD9200878 Si02
#       5
#     8   8   8   8   8
#     4  10  20  37  60  85 113 150 191 235 280 334
#     4  10  23  42  62  84 112 146 186 237 293 346
#     4   9  19  35  56  84 118 154 190 230 274 324
#     4  10  22  39  60  86 115 150 190 232 282 340
#     4   9  18  33  55  83 117 156 194 231 275 328
#
# _framework density 20.557773000000001
#
# number of rings (size 3 to 8) (size 9 to 14) (size 15 to 20)
#    0.000    2.400    0.000    1.200    0.000   12.800 
#    0.000    6.000    0.000    0.000    0.000    0.000 
#    0.000    0.000    0.000    0.000    0.000    0.000 
#
# Total GULP energy -111512.264949 kJ/mol
# GULP energy per Si atom -5575.613247 kJ/mol
# Density = 2.051098 g / cm^3
# Si number density = 20.557773 Si / 1000 Ang^3
#
#
#
# Elastic Constant Matrix: (Units=GPa)
#
#
# Indices 1 2 3 4 5 6 
#
# 1 116.6007 61.6289 25.7805 0.0000 17.6892 0.0000
# 2 61.6289 220.0704 75.4412 0.0000 17.9097 0.0000
# 3 25.7805 75.4412 89.6348 0.0000 30.7417 0.0000
# 4 0.0000 0.0000 0.0000 31.9139 0.0000 5.1605
# 5 17.6892 17.9097 30.7417 0.0000 24.1430 0.0000
# 6 0.0000 0.0000 0.0000 5.1605 0.0000 26.0477
#
#
#
# Elastic Compliance Matrix: (Units=1/GPa)
#
#
# Indices 1 2 3 4 5 6 
#
# 1 0.011107 -0.003298 0.002722 0.000000 -0.009157 0.000000
# 2 -0.003298 0.007562 -0.007671 0.000000 0.006574 0.000000
# 3 0.002722 -0.007671 0.027627 0.000000 -0.031482 0.000000
# 4 0.000000 0.000000 0.000000 0.032371 0.000000 -0.006413
# 5 -0.009157 0.006574 -0.031482 0.000000 0.083338 0.000000
# 6 0.000000 0.000000 0.000000 -0.006413 0.000000 0.039662
#
#
# Mechanical properties :
#
#
# Convention : Reuss Voigt Hill
#
# Bulk Modulus (GPa) = 33.55503 83.55636 58.55570
# Shear Modulus (GPa) = 21.92063 33.98461 27.95262
#
# Velocity S-wave (km/s) = 3.26896 4.07028 3.69143
# Velocity P-wave (km/s) = 5.53226 7.92606 6.83477
#
# Compressibility (1/GPa) = 0.02980179
#
# Stress axis : x y z
#
# Youngs Moduli (GPa) = 90.03372 132.23556 36.19676
#
# Poissons Ratio (x) = 0.43616 -0.09853
# Poissons Ratio (y) = 0.29696 0.27766
# Poissons Ratio (z) = -0.24508 1.01436
#
# Static dielectric constant tensor:
#      x y z
#    x 1.783710 0.000000 -0.034980 
#    y 0.000000 1.719600 0.000000 
#    z -0.034980 0.000000 1.744280 
# 
# From -- ./inp_files/211210.got.cif
#   From: 2010.05.17/outbox.cif.g08.bks.cpg/sg12_106_cif.got.tgz:211210.got - 2010.06.03 13:09:07.
