data_PCOD9200190
_publ_section_title
;
Structure prediction by ZEFSAII (Michael W. Deem and Ramdas Pophale) SiO2 
 PCOD9200190
Probable space group: C 2/M
;
_chemical_formula_sum "Si O2"
_cell_formula_units_Z 48
_cell_length_a 17.287955
_cell_length_b 15.412794
_cell_length_c 17.800396
_cell_angle_alpha 90.000000
_cell_angle_beta 151.004592
_cell_angle_gamma 90.000000
_cell_volume 2299.127687
_symmetry_space_group_name_H-M "C 2/M"
_symmetry_group_IT_number 12
_symmetry_cell_setting 'monoclinic'
loop_
_space_group_symop_operation_xyz
x,y,z
-x,y,-z
-x,-y,-z
x,-y,z
1/2+x,1/2+y,z
1/2-x,1/2+y,-z
1/2-x,1/2-y,-z
1/2+x,1/2-y,z
loop_
_atom_site_type_symbol
_atom_site_label
_atom_site_fract_x
_atom_site_fract_y
_atom_site_fract_z
Si Si1 0.387713 0.094960 0.000859
Si Si2 0.330433 0.344723 0.057922
Si Si3 0.261286 0.597141 0.349379
Si Si4 0.393037 0.313925 0.599170
Si Si5 0.319804 0.274160 0.269138
Si Si6 0.319395 0.597766 0.875776
O O1 0.276743 0.096181 0.979526
O O2 0.322422 0.173097 0.894563
O O3 0.369166 0.000000 0.947887
O O4 0.570233 0.106149 0.179658
O O5 0.508399 0.342255 0.243512
O O6 0.250000 0.250000 0.000000
O O7 0.322589 0.375671 0.966186
O O8 0.306733 0.500000 0.364340
O O9 0.316808 0.612342 0.481763
O O10 0.333451 0.669843 0.356158
O O11 0.250000 0.250000 0.500000
O O12 0.530827 0.275526 0.661083
O O13 0.273831 0.175111 0.244518
O O14 0.255395 0.500000 0.812419
O O15 0.500000 0.598452 0.000000
#
# Coordination Sequence:
#
# PCOD9200190 Si02
#       6
#     8   8   8   8   8   8
#     4  10  20  36  66  99 129 167 212 264 324 390
#     4  11  21  42  66  94 124 171 220 270 318 382
#     4  11  24  41  66 103 138 168 207 265 333 395
#     4  11  25  40  64  94 133 175 213 257 332 388
#     4  11  23  41  67  92 132 174 217 266 318 386
#     4  11  24  41  68  97 123 163 223 278 317 368
#
# _framework density 20.877483000000002
#
# number of rings (size 3 to 8) (size 9 to 14) (size 15 to 20)
#    0.000    1.167    3.333    4.000    2.333    6.000 
#    0.000    0.000    0.000    2.000    0.000    0.000 
#    0.000    0.000    0.000    0.000    0.000    0.000 
#
# Total GULP energy -134095.758832 kJ/mol
# GULP energy per Si atom -5587.323285 kJ/mol
# Density = 2.082997 g / cm^3
# Si number density = 20.877483 Si / 1000 Ang^3
#
#
#
# Elastic Constant Matrix: (Units=GPa)
#
#
# Indices 1 2 3 4 5 6 
#
# 1 71.5851 32.6083 15.4635 0.0014 4.5662 0.0000
# 2 32.6083 169.5264 42.8135 0.0026 2.9432 0.0009
# 3 15.4635 42.8135 102.3999 0.0034 9.5780 0.0016
# 4 0.0014 0.0026 0.0034 5.0294 0.0024 -20.4590
# 5 4.5662 2.9432 9.5780 0.0024 40.5694 0.0008
# 6 0.0000 0.0009 0.0016 -20.4590 0.0008 -6.9488
#
#
#
# Elastic Compliance Matrix: (Units=1/GPa)
#
#
# Indices 1 2 3 4 5 6 
#
# 1 0.015512 -0.002684 -0.001100 0.000000 -0.001292 0.000000
# 2 -0.002684 0.007061 -0.002584 0.000000 0.000400 0.000000
# 3 -0.001100 -0.002584 0.011231 0.000000 -0.002340 0.000001
# 4 0.000000 0.000000 0.000000 0.015322 0.000000 -0.045112
# 5 -0.001292 0.000400 -0.002340 0.000000 0.025318 0.000003
# 6 0.000000 0.000000 0.000001 -0.045112 0.000003 -0.011090
#
#
# Mechanical properties :
#
#
# Convention : Reuss Voigt Hill
#
# Bulk Modulus (GPa) = 47.46398 58.36470 52.91434
# Shear Modulus (GPa) = 60.16028 24.57174 42.36601
#
# Velocity S-wave (km/s) = 5.37386 3.43439 4.50963
# Velocity P-wave (km/s) = 7.82869 6.61387 7.24678
#
# Compressibility (1/GPa) = 0.02106861
#
# Stress axis : x y z
#
# Youngs Moduli (GPa) = 64.46744 141.62981 89.03877
#
# Poissons Ratio (x) = 0.38007 0.09791
# Poissons Ratio (y) = 0.17300 0.23010
# Poissons Ratio (z) = 0.07089 0.36600
#
# Static dielectric constant tensor:
#      x y z
#    x 1.751570 0.000000 -0.027710 
#    y 0.000000 1.772910 0.000000 
#    z -0.027710 0.000000 1.799590 
# 
# From -- ./inp_files/278217.got.cif
#   From: 2010.05.17/outbox.cif.g08.bks.cpg/sg12_140_cif.got.tgz:278217.got - 2010.06.03 13:09:07.
