data_PCOD9200118
_publ_section_title
;
Structure prediction by ZEFSAII (Michael W. Deem and Ramdas Pophale) SiO2 
 PCOD9200118
Probable space group: C 2/M
;
_chemical_formula_sum "Si O2"
_cell_formula_units_Z 44
_cell_length_a 9.324680
_cell_length_b 30.723550
_cell_length_c 7.921335
_cell_angle_alpha 90.000000
_cell_angle_beta 90.783338
_cell_angle_gamma 90.000000
_cell_volume 2269.149566
_symmetry_space_group_name_H-M "C 2/M"
_symmetry_group_IT_number 12
_symmetry_cell_setting 'monoclinic'
loop_
_space_group_symop_operation_xyz
x,y,z
-x,y,-z
-x,-y,-z
x,-y,z
1/2+x,1/2+y,z
1/2-x,1/2+y,-z
1/2-x,1/2-y,-z
1/2+x,1/2-y,z
loop_
_atom_site_type_symbol
_atom_site_label
_atom_site_fract_x
_atom_site_fract_y
_atom_site_fract_z
Si Si1 0.834960 0.087329 0.958498
Si Si2 0.758327 0.729745 0.726843
Si Si3 0.829789 0.448457 0.350464
Si Si4 0.000000 0.254462 0.500000
Si Si5 0.846651 0.553019 0.728272
Si Si6 0.163740 0.810532 0.058358
O O1 0.784517 0.062096 0.792575
O O2 0.823829 0.138440 0.913994
O O3 0.737612 0.074628 0.118380
O O4 0.000000 0.077568 0.000000
O O5 0.892274 0.718060 0.612863
O O6 0.609922 0.727667 0.620744
O O7 0.786109 0.779630 0.788541
O O8 0.755119 0.702294 0.895974
O O9 0.846137 0.500000 0.369440
O O10 0.792429 0.433504 0.539795
O O11 0.985305 0.433936 0.281791
O O12 0.837024 0.500000 0.748466
O O13 0.000000 0.799970 0.000000
#
# Coordination Sequence:
#
# PCOD9200118 Si02
#       6
#     8   8   8   4   8   8
#     4  11  23  37  54  86 119 156 183 226 289 345
#     4  10  20  40  60  82 112 144 192 228 278 336
#     4   9  19  39  62  83 111 149 192 237 283 331
#     4  10  20  36  64  90 100 140 194 238 276 326
#     4   9  19  39  62  83 111 149 192 237 283 331
#     4  10  21  40  56  76 116 157 179 226 283 339
#
# _framework density 19.390523000000002
#
# number of rings (size 3 to 8) (size 9 to 14) (size 15 to 20)
#    0.000    2.182    1.818    2.182    0.000    3.636 
#   13.091    1.818    0.000    0.000    0.000    0.000 
#    0.000    0.000    0.000    0.000    0.000    0.000 
#
# Total GULP energy -122668.381943 kJ/mol
# GULP energy per Si atom -5575.835543 kJ/mol
# Density = 1.934639 g / cm^3
# Si number density = 19.390523 Si / 1000 Ang^3
#
#
#
# Elastic Constant Matrix: (Units=GPa)
#
#
# Indices 1 2 3 4 5 6 
#
# 1 61.8193 11.1431 19.7094 0.0000 10.8754 0.0000
# 2 11.1431 9.3955 6.5168 0.0000 6.3456 0.0000
# 3 19.7094 6.5168 70.7737 0.0000 9.4672 0.0000
# 4 0.0000 0.0000 0.0000 -1.3532 0.0000 2.3246
# 5 10.8754 6.3456 9.4672 0.0000 26.3557 0.0000
# 6 0.0000 0.0000 0.0000 2.3246 0.0000 16.2714
#
#
#
# Elastic Compliance Matrix: (Units=1/GPa)
#
#
# Indices 1 2 3 4 5 6 
#
# 1 0.021662 -0.021461 -0.003731 0.000000 -0.002431 0.000000
# 2 -0.021461 0.152820 -0.004578 0.000000 -0.026294 0.000000
# 3 -0.003731 -0.004578 0.016006 0.000000 -0.003108 0.000000
# 4 0.000000 0.000000 0.000000 -0.593366 0.000000 0.084772
# 5 -0.002431 -0.026294 -0.003108 0.000000 0.046393 0.000000
# 6 0.000000 0.000000 0.000000 0.084772 0.000000 0.049347
#
#
# Mechanical properties :
#
#
# Convention : Reuss Voigt Hill
#
# Bulk Modulus (GPa) = 7.63661 24.08079 15.85870
# Shear Modulus (GPa) = -24.51593 15.22938 -4.64328
#
# Velocity S-wave (km/s) = -3.55959 2.80555 -1.54913
# Velocity P-wave (km/s) = 3.59825 4.78963 2.23531
#
# Compressibility (1/GPa) = 0.13094813
#
# Stress axis : x y z
#
# Youngs Moduli (GPa) = 46.16408 6.54363 62.47718
#
# Poissons Ratio (x) = 0.14043 0.23311
# Poissons Ratio (y) = 0.99073 0.28601
# Poissons Ratio (z) = 0.17225 0.02996
#
# Static dielectric constant tensor:
#      x y z
#    x 1.689340 0.000000 -0.012660 
#    y 0.000000 1.661290 0.000000 
#    z -0.012660 0.000000 1.695420 
# 
# From -- ./inp_files/41631.got.cif
#   From: 2010.05.17/outbox.cif.g08.bks.cpg/sg12_21_cif.got.tgz:41631.got - 2010.06.03 13:09:07.
