data_PCOD9200145
_publ_section_title
;
Structure prediction by ZEFSAII (Michael W. Deem and Ramdas Pophale) SiO2 
 PCOD9200145
Probable space group: C 2/M
;
_chemical_formula_sum "Si O2"
_cell_formula_units_Z 44
_cell_length_a 12.078558
_cell_length_b 20.827509
_cell_length_c 9.503035
_cell_angle_alpha 90.000000
_cell_angle_beta 103.698979
_cell_angle_gamma 90.000000
_cell_volume 2322.637309
_symmetry_space_group_name_H-M "C 2/M"
_symmetry_group_IT_number 12
_symmetry_cell_setting 'monoclinic'
loop_
_space_group_symop_operation_xyz
x,y,z
-x,y,-z
-x,-y,-z
x,-y,z
1/2+x,1/2+y,z
1/2-x,1/2+y,-z
1/2-x,1/2-y,-z
1/2+x,1/2-y,z
loop_
_atom_site_type_symbol
_atom_site_label
_atom_site_fract_x
_atom_site_fract_y
_atom_site_fract_z
Si Si1 0.743724 0.425523 0.019281
Si Si2 0.683967 0.311051 0.539867
Si Si3 0.969889 0.354948 0.154140
Si Si4 0.982039 0.785426 0.273066
Si Si5 0.500000 0.368973 0.000000
Si Si6 0.808105 0.573807 0.711103
O O1 0.771313 0.500000 0.056250
O O2 0.840194 0.379972 0.116777
O O3 0.617018 0.409395 0.034343
O O4 0.754045 0.417605 0.852019
O O5 0.750000 0.250000 0.500000
O O6 0.578582 0.315765 0.401602
O O7 0.635267 0.293983 0.678885
O O8 0.754295 0.375867 0.585504
O O9 0.994189 0.290325 0.248012
O O10 0.058826 0.408918 0.230697
O O11 0.000000 0.341333 0.000000
O O12 0.988339 0.823245 0.130718
O O13 0.791370 0.500000 0.665016
#
# Coordination Sequence:
#
# PCOD9200145 Si02
#       6
#     8   8   8   8   4   8
#     4  10  22  38  61  93 131 167 206 258 320 378
#     4  11  23  42  63  90 129 169 212 260 318 378
#     4  10  20  36  64  96 123 159 209 268 316 368
#     4  11  24  38  63  95 125 165 214 263 316 373
#     4  12  23  40  64  92 131 166 210 262 310 380
#     4  10  20  40  65  92 126 169 212 261 317 379
#
# _framework density 18.943981999999998
#
# number of rings (size 3 to 8) (size 9 to 14) (size 15 to 20)
#    0.000    1.455    4.545    0.818    2.545    2.909 
#    0.000    3.636    0.000    1.091    0.000    0.000 
#    0.000    0.000    0.000    0.000    0.000    0.000 
#
# Total GULP energy -122756.902947 kJ/mol
# GULP energy per Si atom -5579.859225 kJ/mol
# Density = 1.890087 g / cm^3
# Si number density = 18.943982 Si / 1000 Ang^3
#
#
#
# Elastic Constant Matrix: (Units=GPa)
#
#
# Indices 1 2 3 4 5 6 
#
# 1 108.8158 38.9051 28.1260 0.0000 7.9652 0.0000
# 2 38.9051 125.1247 48.7513 0.0000 14.4172 0.0000
# 3 28.1260 48.7513 75.8470 0.0000 1.3730 0.0000
# 4 0.0000 0.0000 0.0000 30.0835 0.0000 4.8677
# 5 7.9652 14.4172 1.3730 0.0000 17.8725 0.0000
# 6 0.0000 0.0000 0.0000 4.8677 0.0000 27.7352
#
#
#
# Elastic Compliance Matrix: (Units=1/GPa)
#
#
# Indices 1 2 3 4 5 6 
#
# 1 0.010809 -0.001963 -0.002691 0.000000 -0.003027 0.000000
# 2 -0.001963 0.012329 -0.007042 0.000000 -0.008529 0.000000
# 3 -0.002691 -0.007042 0.018610 0.000000 0.005451 0.000000
# 4 0.000000 0.000000 0.000000 0.034212 0.000000 -0.006005
# 5 -0.003027 -0.008529 0.005451 0.000000 0.063763 0.000000
# 6 0.000000 0.000000 0.000000 -0.006005 0.000000 0.037109
#
#
# Mechanical properties :
#
#
# Convention : Reuss Voigt Hill
#
# Bulk Modulus (GPa) = 54.48324 60.15026 57.31675
# Shear Modulus (GPa) = 24.23130 28.07190 26.15160
#
# Velocity S-wave (km/s) = 3.58033 3.85364 3.71950
# Velocity P-wave (km/s) = 6.77601 7.18480 6.98340
#
# Compressibility (1/GPa) = 0.01835427
#
# Stress axis : x y z
#
# Youngs Moduli (GPa) = 92.51502 81.10891 53.73394
#
# Poissons Ratio (x) = 0.15926 0.14462
# Poissons Ratio (y) = 0.18165 0.37840
# Poissons Ratio (z) = 0.24900 0.57118
#
# Static dielectric constant tensor:
#      x y z
#    x 1.727460 0.000000 0.064620 
#    y 0.000000 1.637090 0.000000 
#    z 0.064620 0.000000 1.741110 
# 
# From -- ./inp_files/49273.got.cif
#   From: 2010.05.17/outbox.cif.g08.bks.cpg/sg12_25_cif.got.tgz:49273.got - 2010.06.03 13:09:07.
