data_PCOD9200907
_publ_section_title
;
Structure prediction by ZEFSAII (Michael W. Deem and Ramdas Pophale) SiO2 
 PCOD9200907
Probable space group: C 2/M
;
_chemical_formula_sum "Si O2"
_cell_formula_units_Z 60
_cell_length_a 11.982102
_cell_length_b 17.332675
_cell_length_c 23.730928
_cell_angle_alpha 90.000000
_cell_angle_beta 31.913984
_cell_angle_gamma 90.000000
_cell_volume 2605.420871
_symmetry_space_group_name_H-M "C 2/M"
_symmetry_group_IT_number 12
_symmetry_cell_setting 'monoclinic'
loop_
_space_group_symop_operation_xyz
x,y,z
-x,y,-z
-x,-y,-z
x,-y,z
1/2+x,1/2+y,z
1/2-x,1/2+y,-z
1/2-x,1/2-y,-z
1/2+x,1/2-y,z
loop_
_atom_site_type_symbol
_atom_site_label
_atom_site_fract_x
_atom_site_fract_y
_atom_site_fract_z
Si Si1 0.843766 0.660019 0.452956
Si Si2 0.812770 0.094133 0.256751
Si Si3 0.000000 0.705642 0.000000
Si Si4 0.789069 0.177953 0.612255
Si Si5 0.986396 0.582825 0.908143
Si Si6 0.559636 0.294001 0.224804
Si Si7 0.423543 0.622973 0.672365
Si Si8 0.949395 0.091219 0.959898
O O1 0.750000 0.750000 0.500000
O O2 0.812422 0.641245 0.399813
O O3 0.675862 0.609317 0.561289
O O4 0.084744 0.636125 0.362965
O O5 0.981250 0.125281 0.231078
O O6 0.915745 0.119171 0.152022
O O7 0.793609 0.000000 0.267048
O O8 0.977209 0.650503 0.956148
O O9 0.229918 0.739191 0.892219
O O10 0.625897 0.236093 0.708005
O O11 0.866399 0.127385 0.630900
O O12 0.000000 0.220335 0.500000
O O13 0.931717 0.500000 0.958040
O O14 0.223059 0.578721 0.783169
O O15 0.800611 0.598697 0.943628
O O16 0.584535 0.303505 0.281468
O O17 0.997041 0.000000 0.940680
O O18 0.000000 0.122084 0.000000
#
# Coordination Sequence:
#
# PCOD9200907 Si02
#       8
#     8   8   4   8   8   8   8   8
#     4  11  22  44  69  90 130 177 218 267 328 394
#     4  11  24  40  67 103 132 166 217 279 328 376
#     4  10  21  38  58  92 122 168 209 260 322 390
#     4  10  22  41  67  89 121 173 222 265 319 392
#     4  10  20  37  60  85 123 165 205 254 317 388
#     4  11  22  39  64  89 130 163 215 269 324 390
#     4  10  23  38  60  93 118 164 220 254 320 387
#     4   9  19  37  60  88 126 167 208 256 321 392
#
# _framework density 23.02891
#
# number of rings (size 3 to 8) (size 9 to 14) (size 15 to 20)
#    0.000    1.733    2.667    1.800    1.867    2.667 
#    0.000    4.667    0.000    2.400    0.000    0.000 
#    0.000    0.000    0.000    0.000    0.000    0.000 
#
# Total GULP energy -167059.551837 kJ/mol
# GULP energy per Si atom -5568.651728 kJ/mol
# Density = 2.297649 g / cm^3
# Si number density = 23.028910 Si / 1000 Ang^3
#
#
#
# Elastic Constant Matrix: (Units=GPa)
#
#
# Indices 1 2 3 4 5 6 
#
# 1 57.6929 -1.0461 19.8854 -0.0032 0.1075 -0.0011
# 2 -1.0461 40.6327 24.9222 -0.0021 -9.2629 0.0018
# 3 19.8854 24.9222 167.1075 -0.0001 -19.3289 -0.0012
# 4 -0.0032 -0.0021 -0.0001 21.5600 0.0060 -7.1749
# 5 0.1075 -9.2629 -19.3289 0.0060 41.1746 0.0030
# 6 -0.0011 0.0018 -0.0012 -7.1749 0.0030 8.7615
#
#
#
# Elastic Compliance Matrix: (Units=1/GPa)
#
#
# Indices 1 2 3 4 5 6 
#
# 1 0.018244 0.001840 -0.002541 0.000005 -0.000827 0.000006
# 2 0.001840 0.028064 -0.003886 -0.000001 0.004485 -0.000008
# 3 -0.002541 -0.003886 0.007154 -0.000002 0.002491 -0.000001
# 4 0.000005 -0.000001 -0.000002 0.063758 -0.000014 0.052212
# 5 -0.000827 0.004485 0.002491 -0.000014 0.026467 -0.000021
# 6 0.000006 -0.000008 -0.000001 0.052212 -0.000021 0.156894
#
#
# Mechanical properties :
#
#
# Convention : Reuss Voigt Hill
#
# Bulk Modulus (GPa) = 22.57943 39.21735 30.89839
# Shear Modulus (GPa) = 15.40753 29.07734 22.24243
#
# Velocity S-wave (km/s) = 2.58941 3.55723 3.11118
# Velocity P-wave (km/s) = 4.33199 5.82567 5.13345
#
# Compressibility (1/GPa) = 0.04428810
#
# Stress axis : x y z
#
# Youngs Moduli (GPa) = 54.81296 35.63326 139.77902
#
# Poissons Ratio (x) = -0.06556 0.35517
# Poissons Ratio (y) = -0.10084 0.54312
# Poissons Ratio (z) = 0.13928 0.13846
#
# Static dielectric constant tensor:
#      x y z
#    x 2.114020 -0.000060 -0.071900 
#    y -0.000060 1.992700 0.000020 
#    z -0.071900 0.000020 1.900890 
# 
# From -- ./inp_files/336848.got.cif
#   From: 2010.05.17/outbox.cif.g08.bks.cpg/sg12_169_cif.got.tgz:336848.got - 2010.06.03 13:09:07.
