data_PCOD9200350
_publ_section_title
;
Structure prediction by ZEFSAII (Michael W. Deem and Ramdas Pophale) SiO2 
 PCOD9200350
Probable space group: C 2/M
;
_chemical_formula_sum "Si O2"
_cell_formula_units_Z 58
_cell_length_a 19.336983
_cell_length_b 13.799050
_cell_length_c 13.043774
_cell_angle_alpha 90.000000
_cell_angle_beta 75.190064
_cell_angle_gamma 90.000000
_cell_volume 3364.870940
_symmetry_space_group_name_H-M "C 2/M"
_symmetry_group_IT_number 12
_symmetry_cell_setting 'monoclinic'
loop_
_space_group_symop_operation_xyz
x,y,z
-x,y,-z
-x,-y,-z
x,-y,z
1/2+x,1/2+y,z
1/2-x,1/2+y,-z
1/2-x,1/2-y,-z
1/2+x,1/2-y,z
loop_
_atom_site_type_symbol
_atom_site_label
_atom_site_fract_x
_atom_site_fract_y
_atom_site_fract_z
Si Si1 0.210260 0.889306 0.569830
Si Si2 0.793788 0.615323 0.153951
Si Si3 0.935794 0.886303 0.247125
Si Si4 0.068984 0.153195 0.316732
Si Si5 0.202287 0.773653 0.361178
Si Si6 0.000000 0.000000 0.500000
Si Si7 0.843674 0.107295 0.916291
Si Si8 0.417868 0.741470 0.053952
O O1 0.134447 0.887553 0.656461
O O2 0.200950 0.838959 0.463745
O O3 0.265368 0.828319 0.616982
O O4 0.232493 0.000000 0.548064
O O5 0.799621 0.500000 0.172828
O O6 0.755108 0.672887 0.261205
O O7 0.739357 0.626020 0.078160
O O8 0.868544 0.667824 0.103225
O O9 0.919962 0.836741 0.145401
O O10 0.996364 0.824839 0.282939
O O11 0.959208 0.000000 0.228594
O O12 0.122821 0.231485 0.344190
O O13 0.117732 0.106066 0.209049
O O14 0.043333 0.083124 0.417086
O O15 0.851332 0.000000 0.960182
O O16 0.881060 0.187074 0.972061
O O17 0.500000 0.767750 0.000000
#
# Coordination Sequence:
#
# PCOD9200350 Si02
#       8
#     8   8   8   8   8   2   8   8
#     4  10  21  36  59  88 119 147 188 238 285 347
#     4  10  22  40  59  79 109 150 201 240 276 339
#     4  11  21  35  54  87 121 145 185 234 298 346
#     4  11  21  32  54  85 120 150 180 227 278 351
#     4  10  21  37  58  87 115 154 188 231 293 338
#     4  12  20  32  56  90 118 144 190 230 288 322
#     4  10  20  37  57  82 112 146 187 227 293 343
#     4  12  23  36  57  81 113 153 186 239 291 344
#
# _framework density 17.236916999999998
#
# number of rings (size 3 to 8) (size 9 to 14) (size 15 to 20)
#    0.000    1.379    4.138    2.069    3.862    0.828 
#    0.000    0.000    0.000    0.828    0.000    2.414 
#    0.000    0.000    0.000    0.000    0.000    0.000 
#
# Total GULP energy -161442.895183 kJ/mol
# GULP energy per Si atom -5566.996386 kJ/mol
# Density = 1.719769 g / cm^3
# Si number density = 17.236917 Si / 1000 Ang^3
#
#
#
# Elastic Constant Matrix: (Units=GPa)
#
#
# Indices 1 2 3 4 5 6 
#
# 1 97.5969 38.5610 30.7589 0.0000 4.4936 0.0000
# 2 38.5610 60.6456 12.7835 0.0000 3.8231 0.0000
# 3 30.7589 12.7835 46.2285 0.0000 -7.4232 0.0000
# 4 0.0000 0.0000 0.0000 19.2584 0.0000 -2.0832
# 5 4.4936 3.8231 -7.4232 0.0000 27.8285 0.0000
# 6 0.0000 0.0000 0.0000 -2.0832 0.0000 -0.2337
#
#
#
# Elastic Compliance Matrix: (Units=1/GPa)
#
#
# Indices 1 2 3 4 5 6 
#
# 1 0.016731 -0.008386 -0.009468 0.000000 -0.004075 0.000000
# 2 -0.008386 0.022119 -0.000844 0.000000 -0.001910 0.000000
# 3 -0.009468 -0.000844 0.029701 0.000000 0.009567 0.000000
# 4 0.000000 0.000000 0.000000 0.026435 0.000000 -0.235646
# 5 -0.004075 -0.001910 0.009567 0.000000 0.039407 0.000000
# 6 0.000000 0.000000 0.000000 -0.235646 0.000000 -2.178460
#
#
# Mechanical properties :
#
#
# Convention : Reuss Voigt Hill
#
# Bulk Modulus (GPa) = 32.09565 40.96420 36.52992
# Shear Modulus (GPa) = -2.50465 17.52849 7.51192
#
# Velocity S-wave (km/s) = -1.20674 3.19237 2.08986
# Velocity P-wave (km/s) = 4.08890 6.11599 5.20213
#
# Compressibility (1/GPa) = 0.03115687
#
# Stress axis : x y z
#
# Youngs Moduli (GPa) = 59.76956 45.20916 33.66918
#
# Poissons Ratio (x) = 0.37911 0.31877
# Poissons Ratio (y) = 0.50121 0.02841
# Poissons Ratio (z) = 0.56588 0.03815
#
# Static dielectric constant tensor:
#      x y z
#    x 1.614060 0.000000 0.009830 
#    y 0.000000 1.555270 0.000000 
#    z 0.009830 0.000000 1.589530 
# 
# From -- ./inp_files/156042.got.cif
#   From: 2010.05.17/outbox.cif.g08.bks.cpg/sg12_79_cif.got.tgz:156042.got - 2010.06.03 13:09:07.
