data_PCOD9200179
_publ_section_title
;
Structure prediction by ZEFSAII (Michael W. Deem and Ramdas Pophale) SiO2 
 PCOD9200179
Probable space group: C 2/M
;
_chemical_formula_sum "Si O2"
_cell_formula_units_Z 50
_cell_length_a 10.181138
_cell_length_b 25.101916
_cell_length_c 10.252293
_cell_angle_alpha 90.000000
_cell_angle_beta 68.090396
_cell_angle_gamma 90.000000
_cell_volume 2430.895402
_symmetry_space_group_name_H-M "C 2/M"
_symmetry_group_IT_number 12
_symmetry_cell_setting 'monoclinic'
loop_
_space_group_symop_operation_xyz
x,y,z
-x,y,-z
-x,-y,-z
x,-y,z
1/2+x,1/2+y,z
1/2-x,1/2+y,-z
1/2-x,1/2-y,-z
1/2+x,1/2-y,z
loop_
_atom_site_type_symbol
_atom_site_label
_atom_site_fract_x
_atom_site_fract_y
_atom_site_fract_z
Si Si1 0.849168 0.387833 0.123387
Si Si2 0.104720 0.199524 0.650446
Si Si3 0.371486 0.000000 0.650604
Si Si4 0.937761 0.500000 0.169373
Si Si5 0.871062 0.074189 0.353300
Si Si6 0.500000 0.500000 0.500000
Si Si7 0.389527 0.560203 0.934194
Si Si8 0.207646 0.787579 0.313221
O O1 0.857258 0.443422 0.201960
O O2 0.739231 0.401733 0.048703
O O3 0.792852 0.338905 0.229735
O O4 0.000000 0.377104 0.000000
O O5 0.125170 0.136983 0.662572
O O6 0.160291 0.206623 0.481519
O O7 0.193624 0.235483 0.717577
O O8 0.939166 0.215465 0.712030
O O9 0.500000 0.000000 0.500000
O O10 0.444227 0.000000 0.763782
O O11 0.266548 0.049692 0.664948
O O12 0.000000 0.500000 0.000000
O O13 0.890004 0.046954 0.486329
O O14 0.015945 0.055401 0.230182
O O15 0.344850 0.500000 0.988110
O O16 0.500000 0.580288 0.000000
#
# Coordination Sequence:
#
# PCOD9200179 Si02
#       8
#     8   8   4   4   8   2   8   8
#     4  11  24  41  66  97 133 181 228 285 342 417
#     4  10  22  42  69  94 126 172 223 282 340 402
#     4  11  27  40  58 107 144 176 217 288 356 420
#     4  10  25  41  63  93 146 182 221 268 353 423
#     4  11  23  40  67  95 137 172 225 273 345 412
#     4  10  20  36  66 104 130 166 214 282 326 412
#     4  11  23  39  66  95 131 176 223 271 332 416
#     4  10  22  43  65  95 126 169 228 276 339 404
#
# _framework density 20.568553000000001
#
# number of rings (size 3 to 8) (size 9 to 14) (size 15 to 20)
#    0.000    1.440    4.000    0.960    6.720    2.560 
#    2.880    1.600    0.000    0.000    0.000    0.000 
#    0.000    0.000    0.000    0.000    0.000    0.000 
#
# Total GULP energy -139319.503497 kJ/mol
# GULP energy per Si atom -5572.780140 kJ/mol
# Density = 2.052174 g / cm^3
# Si number density = 20.568553 Si / 1000 Ang^3
#
#
#
# Elastic Constant Matrix: (Units=GPa)
#
#
# Indices 1 2 3 4 5 6 
#
# 1 183.4460 99.1529 47.3998 0.0000 2.7266 0.0000
# 2 99.1529 193.8644 15.5775 0.0000 2.6131 0.0000
# 3 47.3998 15.5775 52.4887 0.0000 -14.5171 0.0000
# 4 0.0000 0.0000 0.0000 20.7098 0.0000 -7.6670
# 5 2.7266 2.6131 -14.5171 0.0000 38.8697 0.0000
# 6 0.0000 0.0000 0.0000 -7.6670 0.0000 20.8081
#
#
#
# Elastic Compliance Matrix: (Units=1/GPa)
#
#
# Indices 1 2 3 4 5 6 
#
# 1 0.010235 -0.004464 -0.008959 0.000000 -0.003764 0.000000
# 2 -0.004464 0.007270 0.002035 0.000000 0.000585 0.000000
# 3 -0.008959 0.002035 0.029746 0.000000 0.011601 0.000000
# 4 0.000000 0.000000 0.000000 0.055914 0.000000 0.020602
# 5 -0.003764 0.000585 0.011601 0.000000 0.030285 0.000000
# 6 0.000000 0.000000 0.000000 0.020602 0.000000 0.055649
#
#
# Mechanical properties :
#
#
# Convention : Reuss Voigt Hill
#
# Bulk Modulus (GPa) = 40.85549 83.78441 62.31995
# Shear Modulus (GPa) = 22.72397 33.92209 28.32303
#
# Velocity S-wave (km/s) = 3.32745 4.06547 3.71483
# Velocity P-wave (km/s) = 5.88802 7.92843 6.98315
#
# Compressibility (1/GPa) = 0.02447651
#
# Stress axis : x y z
#
# Youngs Moduli (GPa) = 97.70671 137.55222 33.61758
#
# Poissons Ratio (x) = 0.61404 0.30117
# Poissons Ratio (y) = 0.43616 -0.06842
# Poissons Ratio (z) = 0.87531 -0.27996
#
# Static dielectric constant tensor:
#      x y z
#    x 1.744750 0.000000 0.002410 
#    y 0.000000 1.712360 0.000000 
#    z 0.002410 0.000000 1.852830 
# 
# From -- ./inp_files/123617.got.cif
#   From: 2010.05.17/outbox.cif.g08.bks.cpg/sg12_62_cif.got.tgz:123617.got - 2010.06.03 13:09:07.
