data_PCOD9200679
_publ_section_title
;
Structure prediction by ZEFSAII (Michael W. Deem and Ramdas Pophale) SiO2 
 PCOD9200679
Probable space group: C 2/M
;
_chemical_formula_sum "Si O2"
_cell_formula_units_Z 48
_cell_length_a 16.061178
_cell_length_b 14.694875
_cell_length_c 17.316463
_cell_angle_alpha 90.000000
_cell_angle_beta 34.290371
_cell_angle_gamma 90.000000
_cell_volume 2302.552086
_symmetry_space_group_name_H-M "C 2/M"
_symmetry_group_IT_number 12
_symmetry_cell_setting 'monoclinic'
loop_
_space_group_symop_operation_xyz
x,y,z
-x,y,-z
-x,-y,-z
x,-y,z
1/2+x,1/2+y,z
1/2-x,1/2+y,-z
1/2-x,1/2-y,-z
1/2+x,1/2-y,z
loop_
_atom_site_type_symbol
_atom_site_label
_atom_site_fract_x
_atom_site_fract_y
_atom_site_fract_z
Si Si1 0.088650 0.394638 0.814627
Si Si2 0.367219 0.292634 0.158789
Si Si3 0.060187 0.894813 0.739050
Si Si4 0.811440 0.610042 0.433548
Si Si5 0.620267 0.895589 0.260804
Si Si6 0.230821 0.642066 0.006042
O O1 0.118368 0.500000 0.811640
O O2 0.138565 0.316645 0.834492
O O3 0.166622 0.369701 0.673153
O O4 0.913198 0.382924 0.932994
O O5 0.408037 0.332587 0.211166
O O6 0.216466 0.335428 0.243957
O O7 0.500000 0.320286 0.000000
O O8 0.161926 0.862009 0.590372
O O9 0.099806 0.000000 0.726778
O O10 0.886358 0.892049 0.854872
O O11 0.818109 0.500000 0.430822
O O12 0.955762 0.640837 0.370403
O O13 0.699226 0.894992 0.116298
O O14 0.613433 0.000000 0.293559
O O15 0.250000 0.750000 0.000000
#
# Coordination Sequence:
#
# PCOD9200679 Si02
#       6
#     8   8   8   8   8   8
#     4  10  21  40  61  82 115 157 196 243 289 332
#     4  12  23  35  55  89 121 152 195 236 279 357
#     4  11  21  35  60  90 120 148 183 240 296 342
#     4   8  19  38  61  88 112 145 194 238 289 351
#     4  10  20  37  59  84 121 155 184 235 297 347
#     4  11  19  36  58  89 119 147 197 237 281 349
#
# _framework density 20.846433999999999
#
# number of rings (size 3 to 8) (size 9 to 14) (size 15 to 20)
#    0.000    1.667    3.333    3.000    0.000    2.333 
#    0.000    2.500    3.667    0.000    0.000    2.333 
#    0.000    0.000    0.000    0.000    0.000    0.000 
#
# Total GULP energy -134144.449833 kJ/mol
# GULP energy per Si atom -5589.352076 kJ/mol
# Density = 2.079899 g / cm^3
# Si number density = 20.846434 Si / 1000 Ang^3
#
#
#
# Elastic Constant Matrix: (Units=GPa)
#
#
# Indices 1 2 3 4 5 6 
#
# 1 31.7408 13.1250 15.8513 0.0003 -4.9708 -0.0001
# 2 13.1250 108.1132 0.8195 -0.0002 -0.1619 0.0001
# 3 15.8513 0.8195 142.2142 -0.0002 -11.1690 0.0001
# 4 0.0003 -0.0002 -0.0002 17.7127 -0.0003 6.2823
# 5 -4.9708 -0.1619 -11.1690 -0.0003 16.3333 0.0002
# 6 -0.0001 0.0001 0.0001 6.2823 0.0002 26.8478
#
#
#
# Elastic Compliance Matrix: (Units=1/GPa)
#
#
# Indices 1 2 3 4 5 6 
#
# 1 0.036350 -0.004375 -0.003340 -0.000001 0.008735 0.000000
# 2 -0.004375 0.009776 0.000353 0.000000 -0.000993 0.000000
# 3 -0.003340 0.000353 0.007738 0.000000 0.004278 0.000000
# 4 -0.000001 0.000000 0.000000 0.061566 0.000001 -0.014406
# 5 0.008735 -0.000993 0.004278 0.000001 0.066799 -0.000001
# 6 0.000000 0.000000 0.000000 -0.014406 -0.000001 0.040618
#
#
# Mechanical properties :
#
#
# Convention : Reuss Voigt Hill
#
# Bulk Modulus (GPa) = 25.54843 37.96220 31.75532
# Shear Modulus (GPa) = 19.95068 28.99692 24.47380
#
# Velocity S-wave (km/s) = 3.09695 3.73363 3.43009
# Velocity P-wave (km/s) = 5.00702 6.06931 5.56358
#
# Compressibility (1/GPa) = 0.03914134
#
# Stress axis : x y z
#
# Youngs Moduli (GPa) = 27.51012 102.28634 129.23355
#
# Poissons Ratio (x) = 0.44746 0.43169
# Poissons Ratio (y) = 0.12034 -0.04566
# Poissons Ratio (z) = 0.09189 -0.03614
#
# Static dielectric constant tensor:
#      x y z
#    x 1.714450 0.000000 0.007510 
#    y 0.000000 1.846020 0.000000 
#    z 0.007510 0.000000 1.760720 
# 
# From -- ./inp_files/278048.got.cif
#   From: 2010.05.17/outbox.cif.g08.bks.cpg/sg12_140_cif.got.tgz:278048.got - 2010.06.03 13:09:07.
