data_PCOD9200490
_publ_section_title
;
Structure prediction by ZEFSAII (Michael W. Deem and Ramdas Pophale) SiO2 
 PCOD9200490
Probable space group: C 2/M
;
_chemical_formula_sum "Si O2"
_cell_formula_units_Z 40
_cell_length_a 18.196391
_cell_length_b 24.726031
_cell_length_c 5.031854
_cell_angle_alpha 90.000000
_cell_angle_beta 58.406872
_cell_angle_gamma 90.000000
_cell_volume 1928.413323
_symmetry_space_group_name_H-M "C 2/M"
_symmetry_group_IT_number 12
_symmetry_cell_setting 'monoclinic'
loop_
_space_group_symop_operation_xyz
x,y,z
-x,y,-z
-x,-y,-z
x,-y,z
1/2+x,1/2+y,z
1/2-x,1/2+y,-z
1/2-x,1/2-y,-z
1/2+x,1/2-y,z
loop_
_atom_site_type_symbol
_atom_site_label
_atom_site_fract_x
_atom_site_fract_y
_atom_site_fract_z
Si Si1 0.759584 0.119828 0.596745
Si Si2 0.941247 0.063744 0.372003
Si Si3 0.732976 0.192293 0.162147
Si Si4 0.446580 0.826319 0.367755
Si Si5 0.907275 0.560292 0.328415
O O1 0.847603 0.089699 0.508323
O O2 0.781903 0.158903 0.301625
O O3 0.678653 0.080370 0.668530
O O4 0.729542 0.153557 0.910704
O O5 0.000000 0.086289 0.500000
O O6 0.926714 0.000000 0.452505
O O7 0.000000 0.068836 0.000000
O O8 0.643553 0.202033 0.487515
O O9 0.750000 0.250000 0.000000
O O10 0.500000 0.800524 0.500000
O O11 0.422351 0.888402 0.489727
O O12 0.500000 0.826754 0.000000
O O13 0.892064 0.500000 0.467675
O O14 0.000000 0.557238 0.000000
#
# Coordination Sequence:
#
# PCOD9200490 Si02
#       5
#     8   8   8   8   8
#     4  11  22  39  62  88 122 161 202 252 304 362
#     4  10  21  39  63  91 125 163 204 254 313 373
#     4  11  23  40  61  86 117 157 204 254 306 354
#     4  10  20  37  58  83 118 156 193 236 291 357
#     4   9  18  33  56  88 122 154 189 231 286 359
#
# _framework density 20.742440999999999
#
# number of rings (size 3 to 8) (size 9 to 14) (size 15 to 20)
#    0.000    1.800    0.000    6.000    0.000    0.400 
#    0.000   19.000    0.000    6.000    0.000    0.000 
#    0.000    0.000    0.000    0.000    0.000    0.000 
#
# Total GULP energy -111335.643923 kJ/mol
# GULP energy per Si atom -5566.782196 kJ/mol
# Density = 2.069523 g / cm^3
# Si number density = 20.742441 Si / 1000 Ang^3
#
#
#
# Elastic Constant Matrix: (Units=GPa)
#
#
# Indices 1 2 3 4 5 6 
#
# 1 159.1708 32.1841 36.9812 0.0000 -12.4023 0.0000
# 2 32.1841 73.6431 55.0743 0.0000 -15.1943 0.0000
# 3 36.9812 55.0743 79.2316 0.0000 -0.6854 0.0000
# 4 0.0000 0.0000 0.0000 22.2922 0.0000 3.1998
# 5 -12.4023 -15.1943 -0.6854 0.0000 43.3377 0.0000
# 6 0.0000 0.0000 0.0000 3.1998 0.0000 -2.1114
#
#
#
# Elastic Compliance Matrix: (Units=1/GPa)
#
#
# Indices 1 2 3 4 5 6 
#
# 1 0.007228 -0.000565 -0.002965 0.000000 0.001823 0.000000
# 2 -0.000565 0.032980 -0.022566 0.000000 0.011044 0.000000
# 3 -0.002965 -0.022566 0.029619 0.000000 -0.008292 0.000000
# 4 0.000000 0.000000 0.000000 0.036844 0.000000 0.055836
# 5 0.001823 0.011044 -0.008292 0.000000 0.027337 0.000000
# 6 0.000000 0.000000 0.000000 0.055836 0.000000 -0.388997
#
#
# Mechanical properties :
#
#
# Convention : Reuss Voigt Hill
#
# Bulk Modulus (GPa) = 56.70312 62.28053 59.49182
# Shear Modulus (GPa) = -25.39121 25.22409 -0.08356
#
# Velocity S-wave (km/s) = -3.50254 3.49099 -0.20093
# Velocity P-wave (km/s) = 3.32251 6.80736 5.35627
#
# Compressibility (1/GPa) = 0.01763571
#
# Stress axis : x y z
#
# Youngs Moduli (GPa) = 138.35529 30.32097 33.76242
#
# Poissons Ratio (x) = 0.01714 0.10010
# Poissons Ratio (y) = 0.07821 0.76187
# Poissons Ratio (z) = 0.41020 0.68421
#
# Static dielectric constant tensor:
#      x y z
#    x 1.771760 0.000000 -0.021600 
#    y 0.000000 1.785300 0.000000 
#    z -0.021600 0.000000 1.723900 
# 
# From -- ./inp_files/16516.got.cif
#   From: 2010.05.17/outbox.cif.g08.bks.cpg/sg12_9_cif.got.tgz:16516.got - 2010.06.03 13:09:07.
