data_PCOD9200953
_publ_section_title
;
Structure prediction by ZEFSAII (Michael W. Deem and Ramdas Pophale) SiO2 
 PCOD9200953
Probable space group: C 2/M
;
_chemical_formula_sum "Si O2"
_cell_formula_units_Z 64
_cell_length_a 26.569304
_cell_length_b 14.016800
_cell_length_c 18.562013
_cell_angle_alpha 90.000000
_cell_angle_beta 151.404212
_cell_angle_gamma 90.000000
_cell_volume 3308.655919
_symmetry_space_group_name_H-M "C 2/M"
_symmetry_group_IT_number 12
_symmetry_cell_setting 'monoclinic'
loop_
_space_group_symop_operation_xyz
x,y,z
-x,y,-z
-x,-y,-z
x,-y,z
1/2+x,1/2+y,z
1/2-x,1/2+y,-z
1/2-x,1/2-y,-z
1/2+x,1/2-y,z
loop_
_atom_site_type_symbol
_atom_site_label
_atom_site_fract_x
_atom_site_fract_y
_atom_site_fract_z
Si Si1 0.527616 0.889446 0.885568
Si Si2 0.167501 0.889884 0.409588
Si Si3 0.452324 0.614608 0.515739
Si Si4 0.163947 0.731772 0.292721
Si Si5 0.725177 0.197664 0.212040
Si Si6 0.259254 0.217645 0.108367
Si Si7 0.153041 0.613076 0.905340
Si Si8 0.055003 0.888661 0.792478
O O1 0.441369 0.819478 0.810357
O O2 0.553059 0.872775 0.832607
O O3 0.497337 0.000000 0.857186
O O4 0.637806 0.869086 0.064416
O O5 0.174882 0.833884 0.344073
O O6 0.242057 0.834173 0.558774
O O7 0.048462 0.884517 0.288175
O O8 0.198892 0.000000 0.444291
O O9 0.500000 0.649205 0.500000
O O10 0.458904 0.500000 0.524944
O O11 0.330736 0.642670 0.366235
O O12 0.516758 0.648050 0.666424
O O13 0.172468 0.737684 0.217866
O O14 0.760714 0.273549 0.195827
O O15 0.346576 0.158754 0.173887
O O16 0.245780 0.325703 0.060732
O O17 0.149568 0.167917 0.947572
O O18 0.172980 0.500000 0.928603
O O19 0.085642 0.000000 0.823974
#
# Coordination Sequence:
#
# PCOD9200953 Si02
#       8
#     8   8   8   8   8   8   8   8
#     4  10  21  34  57  87 120 154 192 240 292 348
#     4  10  21  38  59  82 112 150 197 242 291 350
#     4  10  22  36  56  86 120 152 187 238 300 355
#     4  11  22  38  58  83 117 155 195 242 293 350
#     4  11  22  38  55  87 122 154 194 241 297 350
#     4  10  21  35  59  86 116 155 194 241 296 346
#     4   9  19  35  53  81 116 151 191 236 282 341
#     4  10  20  37  60  87 116 152 193 237 293 354
#
# _framework density 19.343202000000002
#
# number of rings (size 3 to 8) (size 9 to 14) (size 15 to 20)
#    0.000    1.875    1.250    3.000    5.250    2.500 
#    0.000    1.250    0.000    3.000    0.000    0.875 
#    0.000    0.000    0.000    0.000    0.000    0.000 
#
# Total GULP energy -178616.536409 kJ/mol
# GULP energy per Si atom -5581.766763 kJ/mol
# Density = 1.929918 g / cm^3
# Si number density = 19.343202 Si / 1000 Ang^3
#
#
#
# Elastic Constant Matrix: (Units=GPa)
#
#
# Indices 1 2 3 4 5 6 
#
# 1 150.6282 48.2768 8.5611 0.0000 -12.3379 0.0000
# 2 48.2768 83.4024 6.3901 0.0000 -12.2607 0.0000
# 3 8.5611 6.3901 48.2849 0.0000 5.0061 0.0000
# 4 0.0000 0.0000 0.0000 14.5803 0.0000 8.1727
# 5 -12.3379 -12.2607 5.0061 0.0000 28.1398 0.0000
# 6 0.0000 0.0000 0.0000 8.1727 0.0000 17.2832
#
#
#
# Elastic Compliance Matrix: (Units=1/GPa)
#
#
# Indices 1 2 3 4 5 6 
#
# 1 0.008274 -0.004429 -0.001077 0.000000 0.001890 0.000000
# 2 -0.004429 0.015441 -0.001787 0.000000 0.005104 0.000000
# 3 -0.001077 -0.001787 0.021667 0.000000 -0.005105 0.000000
# 4 0.000000 0.000000 0.000000 0.093322 0.000000 -0.044129
# 5 0.001890 0.005104 -0.005105 0.000000 0.039497 0.000000
# 6 0.000000 0.000000 0.000000 -0.044129 0.000000 0.078727
#
#
# Mechanical properties :
#
#
# Convention : Reuss Voigt Hill
#
# Bulk Modulus (GPa) = 32.47187 45.41907 38.94547
# Shear Modulus (GPa) = 17.74426 26.60649 22.17538
#
# Velocity S-wave (km/s) = 3.03205 3.71279 3.38955
# Velocity P-wave (km/s) = 5.39272 6.47390 5.95788
#
# Compressibility (1/GPa) = 0.03079589
#
# Stress axis : x y z
#
# Youngs Moduli (GPa) = 120.85394 64.76202 46.15270
#
# Poissons Ratio (x) = 0.28685 0.04970
# Poissons Ratio (y) = 0.53530 0.08249
# Poissons Ratio (z) = 0.13014 0.11575
#
# Static dielectric constant tensor:
#      x y z
#    x 1.731070 0.000000 0.012420 
#    y 0.000000 1.671370 0.000000 
#    z 0.012420 0.000000 1.664500 
# 
# From -- ./inp_files/290139.got.cif
#   From: 2010.05.17/outbox.cif.g08.bks.cpg/sg12_146_cif.got.tgz:290139.got - 2010.06.03 13:09:07.
