data_PCOD9200648
_publ_section_title
;
Structure prediction by ZEFSAII (Michael W. Deem and Ramdas Pophale) SiO2 
 PCOD9200648
Probable space group: C 2/M
;
_chemical_formula_sum "Si O2"
_cell_formula_units_Z 32
_cell_length_a 21.466867
_cell_length_b 9.531070
_cell_length_c 21.507282
_cell_angle_alpha 90.000000
_cell_angle_beta 21.176811
_cell_angle_gamma 90.000000
_cell_volume 1589.645743
_symmetry_space_group_name_H-M "C 2/M"
_symmetry_group_IT_number 12
_symmetry_cell_setting 'monoclinic'
loop_
_space_group_symop_operation_xyz
x,y,z
-x,y,-z
-x,-y,-z
x,-y,z
1/2+x,1/2+y,z
1/2-x,1/2+y,-z
1/2-x,1/2-y,-z
1/2+x,1/2-y,z
loop_
_atom_site_type_symbol
_atom_site_label
_atom_site_fract_x
_atom_site_fract_y
_atom_site_fract_z
Si Si1 0.238849 0.000000 0.289625
Si Si2 0.498883 0.000000 0.410070
Si Si3 0.088276 0.500000 0.647133
Si Si4 0.123239 0.000000 0.716167
Si Si5 0.410401 0.774138 0.895430
Si Si6 0.500000 0.753656 0.500000
Si Si7 0.133006 0.500000 0.965473
O O1 0.254297 0.000000 0.200657
O O2 0.140258 0.144320 0.397059
O O3 0.430659 0.000000 0.136784
O O4 0.287371 0.000000 0.609769
O O5 0.559585 0.860856 0.390071
O O6 0.527289 0.000000 0.309115
O O7 0.280490 0.500000 0.440744
O O8 0.044479 0.367609 0.730646
O O9 0.005569 0.863985 0.829990
O O10 0.250000 0.750000 0.000000
O O11 0.339700 0.864348 0.018243
#
# Coordination Sequence:
#
# PCOD9200648 Si02
#       7
#     4   4   4   4   8   4   4
#     4  10  22  40  61  85 111 162 192 248 286 348
#     4   9  21  35  61  85 116 142 195 252 287 346
#     4   9  22  37  57  86 114 159 190 238 296 346
#     4  10  20  37  59  83 116 156 192 236 294 342
#     4  11  22  39  58  89 123 155 194 244 291 361
#     4  10  20  40  60  86 110 148 206 242 288 338
#     4  10  23  39  58  83 125 151 196 234 304 351
#
# _framework density 20.130269999999999
#
# number of rings (size 3 to 8) (size 9 to 14) (size 15 to 20)
#    0.750    1.250    0.000    3.750    3.500    0.000 
#    0.000    0.000    0.000    6.000    0.000    0.000 
#    0.000    0.000    0.000    0.000    0.000    0.000 
#
# Total GULP energy -89251.407769 kJ/mol
# GULP energy per Si atom -5578.212986 kJ/mol
# Density = 2.008445 g / cm^3
# Si number density = 20.130270 Si / 1000 Ang^3
#
#
#
# Elastic Constant Matrix: (Units=GPa)
#
#
# Indices 1 2 3 4 5 6 
#
# 1 59.2592 17.6253 -15.3345 -0.0001 7.5198 0.0000
# 2 17.6253 136.3124 6.0463 -0.0006 0.2275 -0.0002
# 3 -15.3345 6.0463 22.7752 -0.0016 -7.5326 -0.0018
# 4 -0.0001 -0.0006 -0.0016 26.1497 0.0005 4.7913
# 5 7.5198 0.2275 -7.5326 0.0005 33.8535 0.0005
# 6 0.0000 -0.0002 -0.0018 4.7913 0.0005 28.3568
#
#
#
# Elastic Compliance Matrix: (Units=1/GPa)
#
#
# Indices 1 2 3 4 5 6 
#
# 1 0.022075 -0.003531 0.015313 0.000001 -0.001472 0.000001
# 2 -0.003531 0.007997 -0.004597 0.000000 -0.000292 0.000000
# 3 0.015313 -0.004597 0.058639 0.000003 0.009677 0.000003
# 4 0.000001 0.000000 0.000003 0.039463 0.000000 -0.006668
# 5 -0.001472 -0.000292 0.009677 0.000000 0.032021 0.000000
# 6 0.000001 0.000000 0.000003 -0.006668 0.000000 0.036391
#
#
# Mechanical properties :
#
#
# Convention : Reuss Voigt Hill
#
# Bulk Modulus (GPa) = 9.70112 26.11344 17.90728
# Shear Modulus (GPa) = 23.08654 31.67265 27.37959
#
# Velocity S-wave (km/s) = 3.39020 3.97089 3.69198
# Velocity P-wave (km/s) = 4.48935 5.83304 5.20474
#
# Compressibility (1/GPa) = 0.10308091
#
# Stress axis : x y z
#
# Youngs Moduli (GPa) = 45.30067 125.04594 17.05353
#
# Poissons Ratio (x) = 0.44155 -0.26115
# Poissons Ratio (y) = 0.15996 0.07840
# Poissons Ratio (z) = -0.69371 0.57486
#
# Static dielectric constant tensor:
#      x y z
#    x 1.701040 0.000000 -0.006960 
#    y 0.000000 1.700410 0.000000 
#    z -0.006960 0.000000 1.708880 
# 
# From -- ./inp_files/81842.got.cif
#   From: 2010.05.17/outbox.cif.g08.bks.cpg/sg12_41_cif.got.tgz:81842.got - 2010.06.03 13:09:07.
