data_PCOD9200881
_publ_section_title
;
Structure prediction by ZEFSAII (Michael W. Deem and Ramdas Pophale) SiO2 
 PCOD9200881
Probable space group: C 2/M
;
_chemical_formula_sum "Si O2"
_cell_formula_units_Z 58
_cell_length_a 16.489136
_cell_length_b 8.888794
_cell_length_c 22.039419
_cell_angle_alpha 90.000000
_cell_angle_beta 100.796019
_cell_angle_gamma 90.000000
_cell_volume 3173.110129
_symmetry_space_group_name_H-M "C 2/M"
_symmetry_group_IT_number 12
_symmetry_cell_setting 'monoclinic'
loop_
_space_group_symop_operation_xyz
x,y,z
-x,y,-z
-x,-y,-z
x,-y,z
1/2+x,1/2+y,z
1/2-x,1/2+y,-z
1/2-x,1/2-y,-z
1/2+x,1/2-y,z
loop_
_atom_site_type_symbol
_atom_site_label
_atom_site_fract_x
_atom_site_fract_y
_atom_site_fract_z
Si Si1 0.228851 0.321294 0.061823
Si Si2 0.529791 0.832949 0.627756
Si Si3 0.000000 0.500000 0.500000
Si Si4 0.824734 0.323799 0.182580
Si Si5 0.053355 0.820345 0.067633
Si Si6 0.484768 0.176051 0.811061
Si Si7 0.608757 0.680349 0.312126
Si Si8 0.288607 0.817326 0.312623
O O1 0.225084 0.500000 0.055798
O O2 0.294284 0.272694 0.121921
O O3 0.142134 0.253891 0.071139
O O4 0.250000 0.250000 0.000000
O O5 0.455878 0.740696 0.647402
O O6 0.621916 0.767612 0.650082
O O7 0.528811 0.000000 0.658816
O O8 0.514289 0.871406 0.555389
O O9 0.805025 0.500000 0.168327
O O10 0.784539 0.278180 0.240801
O O11 0.923125 0.311290 0.202836
O O12 0.014972 0.750682 0.122810
O O13 0.060772 0.000000 0.075108
O O14 0.000000 0.789039 0.000000
O O15 0.422884 0.258978 0.757049
O O16 0.463643 0.000000 0.813379
O O17 0.607248 0.500000 0.311581
O O18 0.704172 0.731780 0.333422
O O19 0.289853 0.000000 0.316801
#
# Coordination Sequence:
#
# PCOD9200881 Si02
#       8
#     8   8   2   8   8   8   8   8
#     4  12  25  40  58  81 113 153 203 259 318 388
#     4   9  18  40  63  89 117 167 210 243 301 367
#     4   8  20  36  78  84 120 170 220 248 298 380
#     4  10  20  37  60  85 113 161 200 251 313 377
#     4  11  24  41  59  81 114 154 201 261 322 382
#     4  11  22  37  60  89 117 160 208 253 310 378
#     4  11  21  34  60  94 127 162 201 261 314 366
#     4   9  18  35  60  85 124 160 200 247 305 371
#
# _framework density 18.278594999999999
#
# number of rings (size 3 to 8) (size 9 to 14) (size 15 to 20)
#    0.414    1.241    1.379    4.138    0.000    5.517 
#    0.000    3.103    0.000    0.000    0.000    0.000 
#    0.000    0.000    0.000    0.000    0.000    0.000 
#
# Total GULP energy -161581.207217 kJ/mol
# GULP energy per Si atom -5571.765766 kJ/mol
# Density = 1.823699 g / cm^3
# Si number density = 18.278595 Si / 1000 Ang^3
#
#
#
# Elastic Constant Matrix: (Units=GPa)
#
#
# Indices 1 2 3 4 5 6 
#
# 1 125.4383 39.7260 49.2103 0.0000 -1.5349 0.0000
# 2 39.7260 59.0229 30.1988 0.0000 -2.6182 0.0000
# 3 49.2103 30.1988 109.2529 0.0000 -2.2074 0.0000
# 4 0.0000 0.0000 0.0000 23.7977 0.0000 2.5163
# 5 -1.5349 -2.6182 -2.2074 0.0000 5.6264 0.0000
# 6 0.0000 0.0000 0.0000 2.5163 0.0000 11.7329
#
#
#
# Elastic Compliance Matrix: (Units=1/GPa)
#
#
# Indices 1 2 3 4 5 6 
#
# 1 0.011141 -0.005783 -0.003440 0.000000 -0.001001 0.000000
# 2 -0.005783 0.023020 -0.003602 0.000000 0.007721 0.000000
# 3 -0.003440 -0.003602 0.011738 0.000000 0.001991 0.000000
# 4 0.000000 0.000000 0.000000 0.042996 0.000000 -0.009221
# 5 -0.001001 0.007721 0.001991 0.000000 0.181833 0.000000
# 6 0.000000 0.000000 0.000000 -0.009221 0.000000 0.087208
#
#
# Mechanical properties :
#
#
# Convention : Reuss Voigt Hill
#
# Bulk Modulus (GPa) = 49.38403 59.10937 54.24670
# Shear Modulus (GPa) = 12.80948 19.87002 16.33975
#
# Velocity S-wave (km/s) = 2.65012 3.30064 2.99311
# Velocity P-wave (km/s) = 6.03657 6.85083 6.45655
#
# Compressibility (1/GPa) = 0.02024946
#
# Stress axis : x y z
#
# Youngs Moduli (GPa) = 89.76135 43.43973 85.19028
#
# Poissons Ratio (x) = 0.25120 0.29304
# Poissons Ratio (y) = 0.51907 0.30689
# Poissons Ratio (z) = 0.30876 0.15649
#
# Static dielectric constant tensor:
#      x y z
#    x 1.674260 0.000000 -0.001880 
#    y 0.000000 1.620680 0.000000 
#    z -0.001880 0.000000 1.643910 
# 
# From -- ./inp_files/338118.got.cif
#   From: 2010.05.17/outbox.cif.g08.bks.cpg/sg12_170_cif.got.tgz:338118.got - 2010.06.03 13:09:07.
