data_PCOD9200935
_publ_section_title
;
Structure prediction by ZEFSAII (Michael W. Deem and Ramdas Pophale) SiO2 
 PCOD9200935
Probable space group: C 2/M
;
_chemical_formula_sum "Si O2"
_cell_formula_units_Z 56
_cell_length_a 14.977238
_cell_length_b 8.767452
_cell_length_c 24.580693
_cell_angle_alpha 90.000000
_cell_angle_beta 62.728203
_cell_angle_gamma 90.000000
_cell_volume 2868.958412
_symmetry_space_group_name_H-M "C 2/M"
_symmetry_group_IT_number 12
_symmetry_cell_setting 'monoclinic'
loop_
_space_group_symop_operation_xyz
x,y,z
-x,y,-z
-x,-y,-z
x,-y,z
1/2+x,1/2+y,z
1/2-x,1/2+y,-z
1/2-x,1/2-y,-z
1/2+x,1/2-y,z
loop_
_atom_site_type_symbol
_atom_site_label
_atom_site_fract_x
_atom_site_fract_y
_atom_site_fract_z
Si Si1 0.617371 0.826854 0.485775
Si Si2 0.225926 0.818665 0.066102
Si Si3 0.824602 0.819231 0.639871
Si Si4 0.949405 0.817278 0.387654
Si Si5 0.511889 0.181921 0.150933
Si Si6 0.414835 0.679845 0.070106
Si Si7 0.884124 0.181932 0.283542
O O1 0.500000 0.829042 0.500000
O O2 0.670617 0.726172 0.425158
O O3 0.615650 0.761214 0.546907
O O4 0.656095 0.000000 0.473115
O O5 0.125066 0.744001 0.117235
O O6 0.318573 0.774252 0.078319
O O7 0.213563 0.000000 0.064897
O O8 0.250000 0.750000 0.000000
O O9 0.731127 0.732105 0.691972
O O10 0.933142 0.777392 0.634976
O O11 0.811120 0.000000 0.649430
O O12 0.915457 0.777330 0.336563
O O13 0.941242 0.000000 0.396830
O O14 0.456891 0.257892 0.114796
O O15 0.455089 0.234438 0.220953
O O16 0.511174 0.000000 0.145963
O O17 0.390919 0.500000 0.080669
O O18 0.500000 0.697253 0.000000
O O19 0.894108 0.000000 0.274562
#
# Coordination Sequence:
#
# PCOD9200935 Si02
#       7
#     8   8   8   8   8   8   8
#     4   9  17  31  55  87 118 151 196 251 307 360
#     4  12  24  41  67  98 130 164 203 250 306 365
#     4  10  20  37  60  86 118 156 203 253 307 368
#     4   9  20  38  60  84 116 158 201 249 305 363
#     4  12  26  44  65  92 128 167 210 256 309 372
#     4  11  23  41  68  98 128 162 203 252 307 364
#     4  11  24  42  61  85 120 161 206 254 306 366
#
# _framework density 19.519279999999998
#
# number of rings (size 3 to 8) (size 9 to 14) (size 15 to 20)
#    0.000    1.429    1.429    4.286    0.000    5.714 
#    0.000    4.286    0.000    0.000    0.000    0.000 
#    0.000    0.000    0.000    0.000    0.000    0.000 
#
# Total GULP energy -156616.192814 kJ/mol
# GULP energy per Si atom -5593.435458 kJ/mol
# Density = 1.947485 g / cm^3
# Si number density = 19.519280 Si / 1000 Ang^3
#
#
#
# Elastic Constant Matrix: (Units=GPa)
#
#
# Indices 1 2 3 4 5 6 
#
# 1 55.4127 -6.1326 11.9829 0.0000 -0.7490 0.0000
# 2 -6.1326 56.2754 21.3748 0.0000 2.8370 0.0000
# 3 11.9829 21.3748 66.4267 0.0000 -8.0567 0.0000
# 4 0.0000 0.0000 0.0000 35.5677 0.0000 -1.9635
# 5 -0.7490 2.8370 -8.0567 0.0000 31.3394 0.0000
# 6 0.0000 0.0000 0.0000 -1.9635 0.0000 27.9597
#
#
#
# Elastic Compliance Matrix: (Units=1/GPa)
#
#
# Indices 1 2 3 4 5 6 
#
# 1 0.019561 0.004086 -0.004987 0.000000 -0.001184 0.000000
# 2 0.004086 0.021503 -0.008134 0.000000 -0.003940 0.000000
# 3 -0.004987 -0.008134 0.019246 0.000000 0.005565 0.000000
# 4 0.000000 0.000000 0.000000 0.028225 0.000000 0.001982
# 5 -0.001184 -0.003940 0.005565 0.000000 0.033668 0.000000
# 6 0.000000 0.000000 0.000000 0.001982 0.000000 0.035905
#
#
# Mechanical properties :
#
#
# Convention : Reuss Voigt Hill
#
# Bulk Modulus (GPa) = 23.67476 25.84057 24.75767
# Shear Modulus (GPa) = 26.28004 29.03269 27.65636
#
# Velocity S-wave (km/s) = 3.67326 3.86085 3.76822
# Velocity P-wave (km/s) = 5.49051 5.75692 5.62529
#
# Compressibility (1/GPa) = 0.04223907
#
# Stress axis : x y z
#
# Youngs Moduli (GPa) = 51.12223 46.50486 51.95843
#
# Poissons Ratio (x) = -0.19000 0.25911
# Poissons Ratio (y) = -0.20886 0.42264
# Poissons Ratio (z) = 0.25494 0.37828
#
# Static dielectric constant tensor:
#      x y z
#    x 1.697090 0.000000 -0.004400 
#    y 0.000000 1.653090 0.000000 
#    z -0.004400 0.000000 1.646360 
# 
# From -- ./inp_files/338573.got.cif
#   From: 2010.05.17/outbox.cif.g08.bks.cpg/sg12_170_cif.got.tgz:338573.got - 2010.06.03 13:09:07.
