data_PCOD9200626
_publ_section_title
;
Structure prediction by ZEFSAII (Michael W. Deem and Ramdas Pophale) SiO2 
 PCOD9200626
Probable space group: C 2/M
;
_chemical_formula_sum "Si O2"
_cell_formula_units_Z 64
_cell_length_a 24.702200
_cell_length_b 7.626337
_cell_length_c 29.203107
_cell_angle_alpha 90.000000
_cell_angle_beta 32.746487
_cell_angle_gamma 90.000000
_cell_volume 2975.884396
_symmetry_space_group_name_H-M "C 2/M"
_symmetry_group_IT_number 12
_symmetry_cell_setting 'monoclinic'
loop_
_space_group_symop_operation_xyz
x,y,z
-x,y,-z
-x,-y,-z
x,-y,z
1/2+x,1/2+y,z
1/2-x,1/2+y,-z
1/2-x,1/2-y,-z
1/2+x,1/2-y,z
loop_
_atom_site_type_symbol
_atom_site_label
_atom_site_fract_x
_atom_site_fract_y
_atom_site_fract_z
Si Si1 0.697061 0.791630 0.755330
Si Si2 0.568881 0.788396 0.410232
Si Si3 0.716808 0.701636 0.143300
Si Si4 0.534561 0.213182 0.333172
Si Si5 0.851505 0.710132 0.400498
Si Si6 0.885702 0.285270 0.088040
Si Si7 0.079885 0.716102 0.748275
Si Si8 0.145810 0.695105 0.097105
O O1 0.815473 0.762384 0.667595
O O2 0.657128 0.723294 0.832648
O O3 0.638981 0.725783 0.751610
O O4 0.679032 0.000000 0.769159
O O5 0.500000 0.721055 0.500000
O O6 0.525325 0.733051 0.392259
O O7 0.566113 0.000000 0.413059
O O8 0.731230 0.500000 0.118348
O O9 0.637098 0.711518 0.240703
O O10 0.818410 0.772774 0.092988
O O11 0.669380 0.799796 0.134256
O O12 0.444156 0.272930 0.365450
O O13 0.540076 0.000000 0.327198
O O14 0.858659 0.500000 0.393306
O O15 0.750000 0.750000 0.500000
O O16 0.866738 0.772655 0.337293
O O17 0.879856 0.500000 0.091861
O O18 0.000000 0.234878 0.000000
O O19 0.080026 0.500000 0.747319
O O20 0.963809 0.779399 0.831849
O O21 0.130408 0.500000 0.090622
O O22 0.250000 0.750000 0.000000
#
# Coordination Sequence:
#
# PCOD9200626 Si02
#       8
#     8   8   8   8   8   8   8   8
#     4  10  20  37  59  83 111 147 188 235 280 329
#     4  10  22  38  57  82 114 154 191 230 289 350
#     4  11  21  36  61  89 113 146 194 242 286 336
#     4  10  20  38  60  79 113 155 191 235 292 347
#     4  10  21  38  57  83 111 148 192 234 286 341
#     4   9  19  34  56  85 114 146 187 230 280 339
#     4   9  20  38  59  80 113 153 189 228 285 345
#     4  11  23  41  62  87 118 155 194 236 285 342
#
# _framework density 21.506211
#
# number of rings (size 3 to 8) (size 9 to 14) (size 15 to 20)
#    0.000    2.000    2.500    0.750    3.500    0.750 
#    0.000    1.250    0.000    1.875    0.000    0.000 
#    0.000    0.000    0.000    0.000    0.000    0.000 
#
# Total GULP energy -178661.805269 kJ/mol
# GULP energy per Si atom -5583.181415 kJ/mol
# Density = 2.145726 g / cm^3
# Si number density = 21.506211 Si / 1000 Ang^3
#
#
#
# Elastic Constant Matrix: (Units=GPa)
#
#
# Indices 1 2 3 4 5 6 
#
# 1 110.8731 -2.7006 18.7782 0.1837 -6.5139 0.1420
# 2 -2.7006 38.1154 -7.3147 0.1910 2.1859 0.1287
# 3 18.7782 -7.3147 99.6929 0.1062 -1.0693 0.0895
# 4 0.1837 0.1910 0.1062 88.6245 -0.0671 48.1101
# 5 -6.5139 2.1859 -1.0693 -0.0671 40.9920 -0.0436
# 6 0.1420 0.1287 0.0895 48.1101 -0.0436 41.0505
#
#
#
# Elastic Compliance Matrix: (Units=1/GPa)
#
#
# Indices 1 2 3 4 5 6 
#
# 1 0.009404 0.000251 -0.001738 -0.000005 0.001436 -0.000023
# 2 0.000251 0.026695 0.001897 -0.000034 -0.001334 -0.000050
# 3 -0.001738 0.001897 0.010496 -0.000002 -0.000104 -0.000021
# 4 -0.000005 -0.000034 -0.000002 0.031017 0.000013 -0.036351
# 5 0.001436 -0.001334 -0.000104 0.000013 0.024692 0.000010
# 6 -0.000023 -0.000050 -0.000021 -0.036351 0.000010 0.066963
#
#
# Mechanical properties :
#
#
# Convention : Reuss Voigt Hill
#
# Bulk Modulus (GPa) = 21.09006 29.57859 25.33432
# Shear Modulus (GPa) = 27.13695 50.12796 38.63245
#
# Velocity S-wave (km/s) = 3.55606 4.83314 4.24292
# Velocity P-wave (km/s) = 5.16610 6.70291 5.98404
#
# Compressibility (1/GPa) = 0.04741571
#
# Stress axis : x y z
#
# Youngs Moduli (GPa) = 106.33670 37.46044 95.27259
#
# Poissons Ratio (x) = -0.00939 0.16554
# Poissons Ratio (y) = -0.02665 -0.18075
# Poissons Ratio (z) = 0.18477 -0.07107
#
# Static dielectric constant tensor:
#      x y z
#    x 1.777710 0.000010 0.017000 
#    y 0.000010 1.882050 -0.000010 
#    z 0.017000 -0.000010 1.771410 
# 
# From -- ./inp_files/382231.got.cif
#   From: 2010.05.17/outbox.cif.g08.bks.cpg/sg12_192_cif.got.tgz:382231.got - 2010.06.03 13:09:07.
