data_PCOD9200133
_publ_section_title
;
Structure prediction by ZEFSAII (Michael W. Deem and Ramdas Pophale) SiO2 
 PCOD9200133
Probable space group: C 2/M
;
_chemical_formula_sum "Si O2"
_cell_formula_units_Z 36
_cell_length_a 11.282406
_cell_length_b 15.655642
_cell_length_c 14.068533
_cell_angle_alpha 90.000000
_cell_angle_beta 42.395658
_cell_angle_gamma 90.000000
_cell_volume 1675.483174
_symmetry_space_group_name_H-M "C 2/M"
_symmetry_group_IT_number 12
_symmetry_cell_setting 'monoclinic'
loop_
_space_group_symop_operation_xyz
x,y,z
-x,y,-z
-x,-y,-z
x,-y,z
1/2+x,1/2+y,z
1/2-x,1/2+y,-z
1/2-x,1/2-y,-z
1/2+x,1/2-y,z
loop_
_atom_site_type_symbol
_atom_site_label
_atom_site_fract_x
_atom_site_fract_y
_atom_site_fract_z
Si Si1 0.322538 0.227295 0.786381
Si Si2 0.291858 0.094961 0.647065
Si Si3 0.000000 0.333284 0.000000
Si Si4 0.575830 0.901947 0.751327
Si Si5 0.359494 0.663150 0.451356
O O1 0.245582 0.169425 0.747147
O O2 0.163062 0.273234 0.932889
O O3 0.442829 0.163716 0.777500
O O4 0.444483 0.301132 0.668320
O O5 0.500000 0.104719 0.500000
O O6 0.183298 0.105879 0.614965
O O7 0.266390 0.000000 0.701592
O O8 0.058574 0.386621 0.873642
O O9 0.769444 0.881503 0.594589
O O10 0.532663 0.000000 0.753006
O O11 0.250000 0.750000 0.500000
#
# Coordination Sequence:
#
# PCOD9200133 Si02
#       5
#     8   8   4   8   8
#     4  11  23  42  64  92 122 163 205 250 302 368
#     4  11  20  35  64  98 123 148 194 260 314 354
#     4  12  27  42  61  86 126 174 210 240 293 368
#     4  11  23  42  63  90 123 161 203 255 307 356
#     4  10  20  36  64  93 119 152 201 253 304 358
#
# _framework density 21.486339000000001
#
# number of rings (size 3 to 8) (size 9 to 14) (size 15 to 20)
#    0.000    1.111    4.444    5.000    0.000    0.000 
#    0.000   10.000    0.000    0.000    0.000    0.000 
#    0.000    0.000    0.000    0.000    0.000    0.000 
#
# Total GULP energy -100601.955279 kJ/mol
# GULP energy per Si atom -5588.997516 kJ/mol
# Density = 2.143744 g / cm^3
# Si number density = 21.486339 Si / 1000 Ang^3
#
#
#
# Elastic Constant Matrix: (Units=GPa)
#
#
# Indices 1 2 3 4 5 6 
#
# 1 74.7645 33.9830 32.9235 -0.0002 16.8833 0.0001
# 2 33.9830 100.7566 46.4965 -0.0002 -2.6697 0.0001
# 3 32.9235 46.4965 106.1065 -0.0002 7.8393 0.0000
# 4 -0.0002 -0.0002 -0.0002 40.1799 0.0003 14.4747
# 5 16.8833 -2.6697 7.8393 0.0003 40.4183 -0.0001
# 6 0.0001 0.0001 0.0000 14.4747 -0.0001 32.5968
#
#
#
# Elastic Compliance Matrix: (Units=1/GPa)
#
#
# Indices 1 2 3 4 5 6 
#
# 1 0.018747 -0.005137 -0.003005 0.000000 -0.007587 0.000000
# 2 -0.005137 0.013995 -0.004835 0.000000 0.004008 0.000000
# 3 -0.003005 -0.004835 0.012587 0.000000 -0.001505 0.000000
# 4 0.000000 0.000000 0.000000 0.029628 0.000000 -0.013156
# 5 -0.007587 0.004008 -0.001505 0.000000 0.028467 0.000000
# 6 0.000000 0.000000 0.000000 -0.013156 0.000000 0.036520
#
#
# Mechanical properties :
#
#
# Convention : Reuss Voigt Hill
#
# Bulk Modulus (GPa) = 51.61452 56.49264 54.05358
# Shear Modulus (GPa) = 29.00969 33.85398 31.43183
#
# Velocity S-wave (km/s) = 3.67842 3.97370 3.82890
# Velocity P-wave (km/s) = 6.48962 6.88499 6.69023
#
# Compressibility (1/GPa) = 0.01937439
#
# Stress axis : x y z
#
# Youngs Moduli (GPa) = 53.34143 71.45475 79.44810
#
# Poissons Ratio (x) = 0.36708 0.23877
# Poissons Ratio (y) = 0.27402 0.38411
# Poissons Ratio (z) = 0.16031 0.34547
#
# Static dielectric constant tensor:
#      x y z
#    x 1.617850 0.000000 -0.080990 
#    y 0.000000 1.971750 0.000000 
#    z -0.080990 0.000000 1.726880 
# 
# From -- ./inp_files/204800.got.cif
#   From: 2010.05.17/outbox.cif.g08.bks.cpg/sg12_103_cif.got.tgz:204800.got - 2010.06.03 13:09:07.
