data_PCOD9200485
_publ_section_title
;
Structure prediction by ZEFSAII (Michael W. Deem and Ramdas Pophale) SiO2 
 PCOD9200485
Probable space group: C 2/M
;
_chemical_formula_sum "Si O2"
_cell_formula_units_Z 56
_cell_length_a 11.960595
_cell_length_b 14.552388
_cell_length_c 19.487478
_cell_angle_alpha 90.000000
_cell_angle_beta 70.528739
_cell_angle_gamma 90.000000
_cell_volume 3197.910603
_symmetry_space_group_name_H-M "C 2/M"
_symmetry_group_IT_number 12
_symmetry_cell_setting 'monoclinic'
loop_
_space_group_symop_operation_xyz
x,y,z
-x,y,-z
-x,-y,-z
x,-y,z
1/2+x,1/2+y,z
1/2-x,1/2+y,-z
1/2-x,1/2-y,-z
1/2+x,1/2-y,z
loop_
_atom_site_type_symbol
_atom_site_label
_atom_site_fract_x
_atom_site_fract_y
_atom_site_fract_z
Si Si1 0.562496 0.401778 0.413302
Si Si2 0.892696 0.500000 0.433636
Si Si3 0.122571 0.860600 0.667493
Si Si4 0.274803 0.195283 0.422671
Si Si5 0.217807 0.107278 0.050146
Si Si6 0.548133 0.394866 0.836957
Si Si7 0.835802 0.500000 0.606574
Si Si8 0.631490 0.723073 0.941508
O O1 0.500000 0.404382 0.500000
O O2 0.625072 0.500000 0.390401
O O3 0.465497 0.395356 0.373954
O O4 0.654837 0.320379 0.403967
O O5 0.831679 0.595555 0.423685
O O6 0.869102 0.500000 0.519939
O O7 0.033403 0.500000 0.386335
O O8 0.142414 0.756345 0.641739
O O9 0.067728 0.875449 0.753151
O O10 0.248712 0.913872 0.638876
O O11 0.250000 0.250000 0.500000
O O12 0.305247 0.178309 0.069858
O O13 0.089757 0.111023 0.113396
O O14 0.254086 0.000000 0.039927
O O15 0.198983 0.151956 0.978521
O O16 0.586255 0.500000 0.843803
O O17 0.618306 0.323615 0.870279
O O18 0.500000 0.733121 0.000000
#
# Coordination Sequence:
#
# PCOD9200485 Si02
#       8
#     8   4   8   8   8   8   4   8
#     4  11  21  37  60  80 109 141 189 250 293 353
#     4  11  24  41  57  83 115 146 191 254 308 358
#     4  12  24  38  59  89 112 154 201 244 306 354
#     4  12  24  38  60  84 110 147 194 246 306 361
#     4   9  18  34  59  90 120 152 193 233 279 331
#     4  10  20  37  58  83 116 151 193 239 283 341
#     4  11  22  39  61  83 118 146 195 249 301 361
#     4   9  18  34  59  89 119 154 191 231 279 340
#
# _framework density 17.511434000000001
#
# number of rings (size 3 to 8) (size 9 to 14) (size 15 to 20)
#    0.000    1.429    5.000    0.429    2.000    3.143 
#    0.000    0.000    1.571    0.000    0.000    0.000 
#    0.000    0.000    0.000    0.000    0.000    0.000 
#
# Total GULP energy -156046.692045 kJ/mol
# GULP energy per Si atom -5573.096144 kJ/mol
# Density = 1.747158 g / cm^3
# Si number density = 17.511434 Si / 1000 Ang^3
#
#
#
# Elastic Constant Matrix: (Units=GPa)
#
#
# Indices 1 2 3 4 5 6 
#
# 1 84.4715 53.2757 30.6691 0.0000 15.2250 0.0000
# 2 53.2757 151.8993 34.6297 0.0000 8.0928 0.0000
# 3 30.6691 34.6297 82.6825 0.0000 15.4262 0.0000
# 4 0.0000 0.0000 0.0000 11.6155 0.0000 -31.7828
# 5 15.2250 8.0928 15.4262 0.0000 16.1763 0.0000
# 6 0.0000 0.0000 0.0000 -31.7828 0.0000 -27.3345
#
#
#
# Elastic Compliance Matrix: (Units=1/GPa)
#
#
# Indices 1 2 3 4 5 6 
#
# 1 0.018160 -0.005197 -0.002257 0.000000 -0.012339 0.000000
# 2 -0.005197 0.008776 -0.002240 0.000000 0.002637 0.000000
# 3 -0.002257 -0.002240 0.016135 0.000000 -0.012142 0.000000
# 4 0.000000 0.000000 0.000000 0.020589 0.000000 -0.023939
# 5 -0.012339 0.002637 -0.012142 0.000000 0.083692 0.000000
# 6 0.000000 0.000000 0.000000 -0.023939 0.000000 -0.008749
#
#
# Mechanical properties :
#
#
# Convention : Reuss Voigt Hill
#
# Bulk Modulus (GPa) = 42.22484 61.80025 52.01254
# Shear Modulus (GPa) = 30.14133 13.45673 21.79903
#
# Velocity S-wave (km/s) = 4.15328 2.77511 3.53206
# Velocity P-wave (km/s) = 6.86766 6.75546 6.81179
#
# Compressibility (1/GPa) = 0.02368274
#
# Stress axis : x y z
#
# Youngs Moduli (GPa) = 55.06732 113.94339 61.97642
#
# Poissons Ratio (x) = 0.59218 0.13988
# Poissons Ratio (y) = 0.28619 0.13883
# Poissons Ratio (z) = 0.12429 0.25523
#
# Static dielectric constant tensor:
#      x y z
#    x 1.638610 0.000000 0.002790 
#    y 0.000000 1.626470 0.000000 
#    z 0.002790 0.000000 1.552340 
# 
# From -- ./inp_files/305146.got.cif
#   From: 2010.05.17/outbox.cif.g08.bks.cpg/sg12_153_cif.got.tgz:305146.got - 2010.06.03 13:09:07.
