data_PCOD9200471
_publ_section_title
;
Structure prediction by ZEFSAII (Michael W. Deem and Ramdas Pophale) SiO2 
 PCOD9200471
Probable space group: C 2/M
;
_chemical_formula_sum "Si O2"
_cell_formula_units_Z 48
_cell_length_a 21.226610
_cell_length_b 17.943302
_cell_length_c 8.401764
_cell_angle_alpha 90.000000
_cell_angle_beta 118.738428
_cell_angle_gamma 90.000000
_cell_volume 2805.859085
_symmetry_space_group_name_H-M "C 2/M"
_symmetry_group_IT_number 12
_symmetry_cell_setting 'monoclinic'
loop_
_space_group_symop_operation_xyz
x,y,z
-x,y,-z
-x,-y,-z
x,-y,z
1/2+x,1/2+y,z
1/2-x,1/2+y,-z
1/2-x,1/2-y,-z
1/2+x,1/2-y,z
loop_
_atom_site_type_symbol
_atom_site_label
_atom_site_fract_x
_atom_site_fract_y
_atom_site_fract_z
Si Si1 0.162443 0.413486 0.110877
Si Si2 0.713221 0.308835 0.328191
Si Si3 0.078444 0.714087 0.172205
Si Si4 0.322467 0.415151 0.450689
Si Si5 0.921871 0.780819 0.471442
Si Si6 0.808155 0.692668 0.144364
O O1 0.141675 0.500000 0.071176
O O2 0.109192 0.367337 0.162190
O O3 0.243574 0.410064 0.277295
O O4 0.169560 0.371179 0.951241
O O5 0.750000 0.250000 0.500000
O O6 0.641516 0.267627 0.179525
O O7 0.689057 0.382930 0.387760
O O8 0.768622 0.330124 0.259333
O O9 0.076097 0.736337 0.356743
O O10 0.000000 0.724596 0.000000
O O11 0.347152 0.500000 0.474093
O O12 0.377043 0.356577 0.440597
O O13 0.879186 0.734014 0.288676
O O14 0.000000 0.796269 0.500000
O O15 0.750000 0.750000 0.000000
#
# Coordination Sequence:
#
# PCOD9200471 Si02
#       6
#     8   8   8   8   8   8
#     4  11  22  36  57  86 115 148 186 231 291 338
#     4  11  18  37  60  85 107 148 192 234 272 331
#     4  11  21  37  58  84 112 151 189 234 280 334
#     4  10  20  37  58  82 116 151 185 230 286 338
#     4  11  22  36  59  87 111 150 195 232 279 333
#     4  12  19  35  61  85 112 145 189 241 269 333
#
# _framework density 17.107061000000002
#
# number of rings (size 3 to 8) (size 9 to 14) (size 15 to 20)
#    0.000    1.000    8.333    1.000    0.000    1.333 
#    0.000    0.833    0.000   10.000    0.000    0.000 
#    0.000    0.000    0.000    0.000    0.000    0.000 
#
# Total GULP energy -133830.361562 kJ/mol
# GULP energy per Si atom -5576.265065 kJ/mol
# Density = 1.706812 g / cm^3
# Si number density = 17.107061 Si / 1000 Ang^3
#
#
#
# Elastic Constant Matrix: (Units=GPa)
#
#
# Indices 1 2 3 4 5 6 
#
# 1 71.7542 33.2547 13.0254 0.0000 14.4220 0.0000
# 2 33.2547 131.5351 49.1335 0.0000 0.9165 0.0000
# 3 13.0254 49.1335 68.0154 0.0000 19.0843 0.0000
# 4 0.0000 0.0000 0.0000 22.9071 0.0000 -2.2851
# 5 14.4220 0.9165 19.0843 0.0000 34.2191 0.0000
# 6 0.0000 0.0000 0.0000 -2.2851 0.0000 3.8620
#
#
#
# Elastic Compliance Matrix: (Units=1/GPa)
#
#
# Indices 1 2 3 4 5 6 
#
# 1 0.017807 -0.005649 0.003241 0.000000 -0.009161 0.000000
# 2 -0.005649 0.012866 -0.010413 0.000000 0.007844 0.000000
# 3 0.003241 -0.010413 0.025974 0.000000 -0.015573 0.000000
# 4 0.000000 0.000000 0.000000 0.046393 0.000000 0.027449
# 5 -0.009161 0.007844 -0.015573 0.000000 0.041560 0.000000
# 6 0.000000 0.000000 0.000000 0.027449 0.000000 0.275172
#
#
# Mechanical properties :
#
#
# Convention : Reuss Voigt Hill
#
# Bulk Modulus (GPa) = 32.25288 51.34800 41.80044
# Shear Modulus (GPa) = 10.97096 23.92370 17.44733
#
# Velocity S-wave (km/s) = 2.53516 3.74367 3.19704
# Velocity P-wave (km/s) = 5.24060 6.98338 6.17379
#
# Compressibility (1/GPa) = 0.03100498
#
# Stress axis : x y z
#
# Youngs Moduli (GPa) = 56.15614 77.72591 38.50051
#
# Poissons Ratio (x) = 0.43907 -0.12478
# Poissons Ratio (y) = 0.31722 0.40091
# Poissons Ratio (z) = -0.18200 0.80937
#
# Static dielectric constant tensor:
#      x y z
#    x 1.624950 0.000000 -0.013350 
#    y 0.000000 1.577080 0.000000 
#    z -0.013350 0.000000 1.607970 
# 
# From -- ./inp_files/87137.got.cif
#   From: 2010.05.17/outbox.cif.g08.bks.cpg/sg12_44_cif.got.tgz:87137.got - 2010.06.03 13:09:07.
