data_PCOD9200170
_publ_section_title
;
Structure prediction by ZEFSAII (Michael W. Deem and Ramdas Pophale) SiO2 
 PCOD9200170
Probable space group: C 2/M
;
_chemical_formula_sum "Si O2"
_cell_formula_units_Z 56
_cell_length_a 15.117012
_cell_length_b 9.521611
_cell_length_c 24.064439
_cell_angle_alpha 90.000000
_cell_angle_beta 134.649178
_cell_angle_gamma 90.000000
_cell_volume 2464.223557
_symmetry_space_group_name_H-M "C 2/M"
_symmetry_group_IT_number 12
_symmetry_cell_setting 'monoclinic'
loop_
_space_group_symop_operation_xyz
x,y,z
-x,y,-z
-x,-y,-z
x,-y,z
1/2+x,1/2+y,z
1/2-x,1/2+y,-z
1/2-x,1/2-y,-z
1/2+x,1/2-y,z
loop_
_atom_site_type_symbol
_atom_site_label
_atom_site_fract_x
_atom_site_fract_y
_atom_site_fract_z
Si Si1 0.632951 0.500000 0.116449
Si Si2 0.807025 0.659266 0.650563
Si Si3 0.259883 0.795353 0.825834
Si Si4 0.394767 0.841355 0.500483
Si Si5 0.039396 0.666390 0.674447
Si Si6 0.794738 0.181191 0.067915
Si Si7 0.444708 0.158658 0.816054
Si Si8 0.650384 0.500000 0.991105
O O1 0.709097 0.633369 0.165600
O O2 0.636013 0.500000 0.051480
O O3 0.499160 0.500000 0.086166
O O4 0.758822 0.500000 0.633010
O O5 0.715491 0.749790 0.573098
O O6 0.941190 0.656944 0.680990
O O7 0.838197 0.709829 0.726627
O O8 0.248072 0.831555 0.885549
O O9 0.379690 0.855788 0.847188
O O10 0.133051 0.791680 0.734534
O O11 0.500000 0.846436 0.500000
O O12 0.462596 0.789914 0.585925
O O13 0.349445 0.000000 0.491790
O O14 0.079100 0.500000 0.681499
O O15 0.702788 0.500000 0.944450
O O16 0.711520 0.331038 0.011883
O O17 0.935075 0.243826 0.132761
O O18 0.484832 0.000000 0.817237
#
# Coordination Sequence:
#
# PCOD9200170 Si02
#       8
#     4   8   8   8   8   8   8   4
#     4  11  22  40  70  89 124 164 219 265 312 383
#     4  10  21  41  65  90 124 171 218 260 315 390
#     4  12  23  42  67  96 124 172 215 262 319 383
#     4  10  21  38  59  93 130 163 207 268 323 374
#     4  10  20  36  65  93 122 165 215 259 315 379
#     4  12  26  42  68  93 127 169 213 264 325 383
#     4  11  26  45  63  94 133 169 213 267 323 383
#     4  11  24  44  60  98 126 160 221 272 316 382
#
# _framework density 22.725211999999999
#
# number of rings (size 3 to 8) (size 9 to 14) (size 15 to 20)
#    0.000    1.143    5.000    1.286    3.000    0.857 
#    2.571    2.143    0.000    0.000    0.000    0.000 
#    0.000    0.000    0.000    0.000    0.000    0.000 
#
# Total GULP energy -155975.437838 kJ/mol
# GULP energy per Si atom -5570.551351 kJ/mol
# Density = 2.267349 g / cm^3
# Si number density = 22.725212 Si / 1000 Ang^3
#
#
#
# Elastic Constant Matrix: (Units=GPa)
#
#
# Indices 1 2 3 4 5 6 
#
# 1 134.6147 18.8033 25.0686 0.0000 -22.6089 0.0000
# 2 18.8033 76.1903 35.7446 0.0000 -14.3936 0.0000
# 3 25.0686 35.7446 101.8577 0.0000 -23.5985 0.0000
# 4 0.0000 0.0000 0.0000 -20.2373 0.0000 -45.2366
# 5 -22.6089 -14.3936 -23.5985 0.0000 32.3271 0.0000
# 6 0.0000 0.0000 0.0000 -45.2366 0.0000 34.5693
#
#
#
# Elastic Compliance Matrix: (Units=1/GPa)
#
#
# Indices 1 2 3 4 5 6 
#
# 1 0.008524 -0.000847 -0.000610 0.000000 0.005139 0.000000
# 2 -0.000847 0.016147 -0.004729 0.000000 0.003145 0.000000
# 3 -0.000610 -0.004729 0.013288 0.000000 0.007168 0.000000
# 4 0.000000 0.000000 0.000000 -0.012589 0.000000 -0.016474
# 5 0.005139 0.003145 0.007168 0.000000 0.041160 0.000000
# 6 0.000000 0.000000 0.000000 -0.016474 0.000000 0.007370
#
#
# Mechanical properties :
#
#
# Convention : Reuss Voigt Hill
#
# Bulk Modulus (GPa) = 39.08319 52.43285 45.75802
# Shear Modulus (GPa) = 52.74233 24.86823 38.80528
#
# Velocity S-wave (km/s) = 4.82277 3.31161 4.13678
# Velocity P-wave (km/s) = 6.94605 6.14370 6.55716
#
# Compressibility (1/GPa) = 0.02558645
#
# Stress axis : x y z
#
# Youngs Moduli (GPa) = 117.32182 61.93160 75.25545
#
# Poissons Ratio (x) = 0.05243 0.04591
# Poissons Ratio (y) = 0.09931 0.35591
# Poissons Ratio (z) = 0.07158 0.29290
#
# Static dielectric constant tensor:
#      x y z
#    x 1.921180 0.000000 -0.015110 
#    y 0.000000 1.762320 0.000000 
#    z -0.015110 0.000000 1.892660 
# 
# From -- ./inp_files/375923.got.cif
#   From: 2010.05.17/outbox.cif.g08.bks.cpg/sg12_188_cif.got.tgz:375923.got - 2010.06.03 13:09:07.
