data_PCOD9200873
_publ_section_title
;
Structure prediction by ZEFSAII (Michael W. Deem and Ramdas Pophale) SiO2 
 PCOD9200873
Probable space group: C 2/M
;
_chemical_formula_sum "Si O2"
_cell_formula_units_Z 48
_cell_length_a 14.276147
_cell_length_b 8.747396
_cell_length_c 19.471484
_cell_angle_alpha 90.000000
_cell_angle_beta 66.361591
_cell_angle_gamma 90.000000
_cell_volume 2227.557679
_symmetry_space_group_name_H-M "C 2/M"
_symmetry_group_IT_number 12
_symmetry_cell_setting 'monoclinic'
loop_
_space_group_symop_operation_xyz
x,y,z
-x,y,-z
-x,-y,-z
x,-y,z
1/2+x,1/2+y,z
1/2-x,1/2+y,-z
1/2-x,1/2-y,-z
1/2+x,1/2-y,z
loop_
_atom_site_type_symbol
_atom_site_label
_atom_site_fract_x
_atom_site_fract_y
_atom_site_fract_z
Si Si1 0.275546 0.183811 0.793840
Si Si2 0.667816 0.317155 0.076029
Si Si3 0.915789 0.676752 0.325794
Si Si4 0.362013 0.815268 0.486108
Si Si5 0.954303 0.817238 0.173308
Si Si6 0.670960 0.322633 0.362907
O O1 0.309632 0.261310 0.853783
O O2 0.157072 0.233134 0.818348
O O3 0.335172 0.237187 0.708016
O O4 0.280938 0.000000 0.797511
O O5 0.672322 0.500000 0.070732
O O6 0.550023 0.266374 0.099365
O O7 0.750000 0.250000 0.000000
O O8 0.947614 0.500000 0.312846
O O9 0.928850 0.732863 0.400175
O O10 0.966431 0.765877 0.248653
O O11 0.793145 0.682374 0.346207
O O12 0.250000 0.750000 0.500000
O O13 0.384043 0.754824 0.555743
O O14 0.359621 0.000000 0.487644
O O15 0.953087 0.000000 0.172924
O O16 0.642250 0.500000 0.365174
#
# Coordination Sequence:
#
# PCOD9200873 Si02
#       6
#     8   8   8   8   8   8
#     4  10  20  37  60  85 112 147 185 226 274 328
#     4  11  24  42  61  85 113 143 179 224 276 334
#     4   8  15  26  44  72 106 142 184 227 269 316
#     4   9  15  23  38  67 105 144 185 230 272 318
#     4   9  20  37  58  82 112 147 184 224 273 329
#     4   9  16  27  45  73 107 145 185 227 271 322
#
# _framework density 21.548264
#
# number of rings (size 3 to 8) (size 9 to 14) (size 15 to 20)
#    0.000    2.667    0.000    3.000    0.000    7.333 
#    0.000    3.333    0.000    1.000    0.000    7.000 
#    0.000    0.000    0.000    0.000    0.000    0.000 
#
# Total GULP energy -134027.628157 kJ/mol
# GULP energy per Si atom -5584.484507 kJ/mol
# Density = 2.149922 g / cm^3
# Si number density = 21.548264 Si / 1000 Ang^3
#
#
#
# Elastic Constant Matrix: (Units=GPa)
#
#
# Indices 1 2 3 4 5 6 
#
# 1 55.8665 4.1282 25.3085 0.0000 -8.8378 0.0000
# 2 4.1282 39.4751 13.3325 0.0000 -5.0363 0.0000
# 3 25.3085 13.3325 94.7140 0.0000 -22.1050 0.0000
# 4 0.0000 0.0000 0.0000 41.6236 0.0000 10.3461
# 5 -8.8378 -5.0363 -22.1050 0.0000 31.8593 0.0000
# 6 0.0000 0.0000 0.0000 10.3461 0.0000 12.6350
#
#
#
# Elastic Compliance Matrix: (Units=1/GPa)
#
#
# Indices 1 2 3 4 5 6 
#
# 1 0.020501 -0.000194 -0.004929 0.000000 0.002237 0.000000
# 2 -0.000194 0.026697 -0.003262 0.000000 0.001903 0.000000
# 3 -0.004929 -0.003262 0.014193 0.000000 0.007965 0.000000
# 4 0.000000 0.000000 0.000000 0.030164 0.000000 -0.024700
# 5 0.002237 0.001903 0.007965 0.000000 0.037835 0.000000
# 6 0.000000 0.000000 0.000000 -0.024700 0.000000 0.099370
#
#
# Mechanical properties :
#
#
# Convention : Reuss Voigt Hill
#
# Bulk Modulus (GPa) = 22.41058 30.62155 26.51607
# Shear Modulus (GPa) = 19.20092 27.04270 23.12181
#
# Velocity S-wave (km/s) = 2.98831 3.54642 3.27926
# Velocity P-wave (km/s) = 4.72540 5.56875 5.16432
#
# Compressibility (1/GPa) = 0.04462177
#
# Stress axis : x y z
#
# Youngs Moduli (GPa) = 48.77875 37.45702 70.45649
#
# Poissons Ratio (x) = 0.00726 0.34726
# Poissons Ratio (y) = 0.00946 0.22983
# Poissons Ratio (z) = 0.24042 0.12219
#
# Static dielectric constant tensor:
#      x y z
#    x 1.908330 0.000000 -0.052620 
#    y 0.000000 1.718370 0.000000 
#    z -0.052620 0.000000 1.773660 
# 
# From -- ./inp_files/313605.got.cif
#   From: 2010.05.17/outbox.cif.g08.bks.cpg/sg12_157_cif.got.tgz:313605.got - 2010.06.03 13:09:07.
