data_PCOD9200144
_publ_section_title
;
Structure prediction by ZEFSAII (Michael W. Deem and Ramdas Pophale) SiO2 
 PCOD9200144
Probable space group: C 2/M
;
_chemical_formula_sum "Si O2"
_cell_formula_units_Z 38
_cell_length_a 25.666188
_cell_length_b 10.694369
_cell_length_c 13.544179
_cell_angle_alpha 90.000000
_cell_angle_beta 146.436707
_cell_angle_gamma 90.000000
_cell_volume 2055.335276
_symmetry_space_group_name_H-M "C 2/M"
_symmetry_group_IT_number 12
_symmetry_cell_setting 'monoclinic'
loop_
_space_group_symop_operation_xyz
x,y,z
-x,y,-z
-x,-y,-z
x,-y,z
1/2+x,1/2+y,z
1/2-x,1/2+y,-z
1/2-x,1/2-y,-z
1/2+x,1/2-y,z
loop_
_atom_site_type_symbol
_atom_site_label
_atom_site_fract_x
_atom_site_fract_y
_atom_site_fract_z
Si Si1 0.874839 0.269714 0.610389
Si Si2 0.656556 0.000000 0.581495
Si Si3 0.901376 0.255032 0.064763
Si Si4 0.500000 0.000000 0.500000
Si Si5 0.188109 0.354738 0.273372
Si Si6 0.184655 0.000000 0.999488
Si Si7 0.660996 0.000000 0.911926
O O1 0.842234 0.381356 0.487784
O O2 0.857286 0.308251 0.695945
O O3 0.800951 0.160818 0.465803
O O4 0.985671 0.251594 0.768444
O O5 0.559513 0.000000 0.488648
O O6 0.741212 0.000000 0.792678
O O7 0.864315 0.375689 0.066936
O O8 0.852653 0.272961 0.880911
O O9 0.871873 0.128214 0.073463
O O10 0.597228 0.000000 0.714475
O O11 0.164400 0.500000 0.218582
O O12 0.234580 0.000000 0.970863
#
# Coordination Sequence:
#
# PCOD9200144 Si02
#       7
#     8   4   8   2   8   4   4
#     4  11  23  40  63  94 125 169 206 263 317 378
#     4  11  19  41  62  87 123 164 212 253 314 373
#     4  12  23  43  67  95 126 168 214 262 318 377
#     4  10  20  36  64  96 108 160 220 264 292 380
#     4  11  24  40  63  93 130 165 214 263 315 380
#     4  11  26  41  61  94 133 162 207 269 319 369
#     4  11  23  41  70  90 125 169 217 261 310 379
#
# _framework density 18.488468000000001
#
# number of rings (size 3 to 8) (size 9 to 14) (size 15 to 20)
#    0.000    0.842    6.316    1.263    1.474    0.842 
#    0.000    1.053    0.000    1.895    0.000    0.000 
#    0.000    0.000    0.000    0.000    0.000    0.000 
#
# Total GULP energy -105772.654237 kJ/mol
# GULP energy per Si atom -5566.981802 kJ/mol
# Density = 1.844639 g / cm^3
# Si number density = 18.488468 Si / 1000 Ang^3
#
#
#
# Elastic Constant Matrix: (Units=GPa)
#
#
# Indices 1 2 3 4 5 6 
#
# 1 133.8279 51.4760 49.5262 0.0000 8.6073 0.0000
# 2 51.4760 100.3203 21.7134 0.0000 17.9517 0.0000
# 3 49.5262 21.7134 83.1059 0.0000 16.8775 0.0000
# 4 0.0000 0.0000 0.0000 -2.4434 0.0000 -7.5207
# 5 8.6073 17.9517 16.8775 0.0000 39.5242 0.0000
# 6 0.0000 0.0000 0.0000 -7.5207 0.0000 22.4956
#
#
#
# Elastic Compliance Matrix: (Units=1/GPa)
#
#
# Indices 1 2 3 4 5 6 
#
# 1 0.011467 -0.005004 -0.006001 0.000000 0.002338 0.000000
# 2 -0.005004 0.013348 0.000552 0.000000 -0.005209 0.000000
# 3 -0.006001 0.000552 0.016699 0.000000 -0.006074 0.000000
# 4 0.000000 0.000000 0.000000 -0.201704 0.000000 -0.067434
# 5 0.002338 -0.005209 -0.006074 0.000000 0.029751 0.000000
# 6 0.000000 0.000000 0.000000 -0.067434 0.000000 0.021909
#
#
# Mechanical properties :
#
#
# Convention : Reuss Voigt Hill
#
# Bulk Modulus (GPa) = 48.52364 62.52058 55.52211
# Shear Modulus (GPa) = -61.91639 24.88451 -18.51594
#
# Velocity S-wave (km/s) = -5.79326 3.67270 -3.16806
# Velocity P-wave (km/s) = 4.29498 7.20238 4.08824
#
# Compressibility (1/GPa) = 0.02060851
#
# Stress axis : x y z
#
# Youngs Moduli (GPa) = 87.20313 74.91725 59.88489
#
# Poissons Ratio (x) = 0.37485 0.35940
# Poissons Ratio (y) = 0.43633 -0.03307
# Poissons Ratio (z) = 0.52334 -0.04137
#
# Static dielectric constant tensor:
#      x y z
#    x 1.642390 0.000000 0.020820 
#    y 0.000000 1.650410 0.000000 
#    z 0.020820 0.000000 1.621120 
# 
# From -- ./inp_files/165427.got.cif
#   From: 2010.05.17/outbox.cif.g08.bks.cpg/sg12_83_cif.got.tgz:165427.got - 2010.06.03 13:09:07.
