data_PCOD9200821
_publ_section_title
;
Structure prediction by ZEFSAII (Michael W. Deem and Ramdas Pophale) SiO2 
 PCOD9200821
Probable space group: C 2/M
;
_chemical_formula_sum "Si O2"
_cell_formula_units_Z 48
_cell_length_a 19.235659
_cell_length_b 7.736184
_cell_length_c 17.175011
_cell_angle_alpha 90.000000
_cell_angle_beta 133.863772
_cell_angle_gamma 90.000000
_cell_volume 1842.721768
_symmetry_space_group_name_H-M "C 2/M"
_symmetry_group_IT_number 12
_symmetry_cell_setting 'monoclinic'
loop_
_space_group_symop_operation_xyz
x,y,z
-x,y,-z
-x,-y,-z
x,-y,z
1/2+x,1/2+y,z
1/2-x,1/2+y,-z
1/2-x,1/2-y,-z
1/2+x,1/2-y,z
loop_
_atom_site_type_symbol
_atom_site_label
_atom_site_fract_x
_atom_site_fract_y
_atom_site_fract_z
Si Si1 0.171674 0.297558 0.335984
Si Si2 0.970426 0.287967 0.223305
Si Si3 0.907761 0.303316 0.331942
Si Si4 0.676631 0.794796 0.012427
Si Si5 0.377794 0.300300 0.475967
Si Si6 0.897609 0.798478 0.887663
O O1 0.179972 0.500000 0.360890
O O2 0.080325 0.225611 0.311954
O O3 0.278178 0.223379 0.430571
O O4 0.140852 0.284948 0.221310
O O5 0.970269 0.500000 0.226726
O O6 0.902211 0.228626 0.240897
O O7 0.924372 0.237695 0.105829
O O8 0.872783 0.500000 0.308473
O O9 0.024775 0.302783 0.432468
O O10 0.867300 0.202635 0.373618
O O11 0.676845 0.000000 0.021969
O O12 0.750000 0.750000 0.000000
O O13 0.678245 0.717400 0.099776
O O14 0.392365 0.500000 0.509584
O O15 0.911411 0.000000 0.880876
O O16 0.000000 0.726972 0.000000
#
# Coordination Sequence:
#
# PCOD9200821 Si02
#       6
#     8   8   8   8   8   8
#     4  10  21  39  61  84 113 154 196 234 288 349
#     4   9  20  38  59  83 113 151 192 233 283 343
#     4  10  20  37  60  83 113 152 188 231 286 347
#     4  11  23  40  61  86 119 157 197 240 288 345
#     4  10  21  37  58  86 114 145 188 239 286 341
#     4  11  23  39  59  87 120 153 194 243 287 342
#
# _framework density 26.048425999999999
#
# number of rings (size 3 to 8) (size 9 to 14) (size 15 to 20)
#    0.000    1.833    1.667    3.000    2.333    2.667 
#    0.000    4.167    0.000    0.000    0.000    0.000 
#    0.000    0.000    0.000    0.000    0.000    0.000 
#
# Total GULP energy -134287.050938 kJ/mol
# GULP energy per Si atom -5595.293789 kJ/mol
# Density = 2.598914 g / cm^3
# Si number density = 26.048426 Si / 1000 Ang^3
#
#
#
# Elastic Constant Matrix: (Units=GPa)
#
#
# Indices 1 2 3 4 5 6 
#
# 1 118.8727 -0.7334 8.2398 0.0000 -1.3775 0.0000
# 2 -0.7334 82.6127 4.5337 0.0000 -0.8552 0.0000
# 3 8.2398 4.5337 64.6088 0.0000 -9.5585 0.0000
# 4 0.0000 0.0000 0.0000 20.8375 0.0000 -6.6893
# 5 -1.3775 -0.8552 -9.5585 0.0000 56.9336 0.0000
# 6 0.0000 0.0000 0.0000 -6.6893 0.0000 20.9932
#
#
#
# Elastic Compliance Matrix: (Units=1/GPa)
#
#
# Indices 1 2 3 4 5 6 
#
# 1 0.008489 0.000135 -0.001088 0.000000 0.000025 0.000000
# 2 0.000135 0.012154 -0.000864 0.000000 0.000041 0.000000
# 3 -0.001088 -0.000864 0.016071 0.000000 0.002659 0.000000
# 4 0.000000 0.000000 0.000000 0.053459 0.000000 0.017034
# 5 0.000025 0.000041 0.002659 0.000000 0.018012 0.000000
# 6 0.000000 0.000000 0.000000 0.017034 0.000000 0.053062
#
#
# Mechanical properties :
#
#
# Convention : Reuss Voigt Hill
#
# Bulk Modulus (GPa) = 30.23082 32.24160 31.23621
# Shear Modulus (GPa) = 28.42416 36.68980 32.55698
#
# Velocity S-wave (km/s) = 3.30692 3.75710 3.53918
# Velocity P-wave (km/s) = 5.11975 5.58798 5.35898
#
# Compressibility (1/GPa) = 0.03307882
#
# Stress axis : x y z
#
# Youngs Moduli (GPa) = 117.80051 82.27933 62.22556
#
# Poissons Ratio (x) = -0.01114 0.06773
# Poissons Ratio (y) = -0.01594 0.05377
# Poissons Ratio (z) = 0.12822 0.07110
#
# Static dielectric constant tensor:
#      x y z
#    x 2.094530 0.000000 0.032800 
#    y 0.000000 1.908200 0.000000 
#    z 0.032800 0.000000 2.144980 
# 
# From -- ./inp_files/274587.got.cif
#   From: 2010.05.17/outbox.cif.g08.bks.cpg/sg12_138_cif.got.tgz:274587.got - 2010.06.03 13:09:07.
