data_PCOD9200053
_publ_section_title
;
Structure prediction by ZEFSAII (Michael W. Deem and Ramdas Pophale) SiO2 
 PCOD9200053
Probable space group: C 2/M
;
_chemical_formula_sum "Si O2"
_cell_formula_units_Z 48
_cell_length_a 15.804652
_cell_length_b 13.934001
_cell_length_c 17.705113
_cell_angle_alpha 90.000000
_cell_angle_beta 32.833997
_cell_angle_gamma 90.000000
_cell_volume 2114.094987
_symmetry_space_group_name_H-M "C 2/M"
_symmetry_group_IT_number 12
_symmetry_cell_setting 'monoclinic'
loop_
_space_group_symop_operation_xyz
x,y,z
-x,y,-z
-x,-y,-z
x,-y,z
1/2+x,1/2+y,z
1/2-x,1/2+y,-z
1/2-x,1/2-y,-z
1/2+x,1/2-y,z
loop_
_atom_site_type_symbol
_atom_site_label
_atom_site_fract_x
_atom_site_fract_y
_atom_site_fract_z
Si Si1 0.678430 0.603423 0.701398
Si Si2 0.237102 0.685739 0.671609
Si Si3 0.264033 0.701567 0.820694
Si Si4 0.598617 0.888637 0.087186
Si Si5 0.848107 0.891943 0.034054
Si Si6 0.381861 0.330109 0.415939
O O1 0.752829 0.500000 0.662365
O O2 0.776538 0.700212 0.640870
O O3 0.630016 0.605001 0.649175
O O4 0.519105 0.611293 0.869030
O O5 0.252694 0.655743 0.746486
O O6 0.336513 0.632072 0.533293
O O7 0.055623 0.674114 0.785671
O O8 0.184716 0.806518 0.883555
O O9 0.444394 0.709853 0.707769
O O10 0.176416 0.640135 0.949854
O O11 0.725160 0.875402 0.058195
O O12 0.552344 0.000000 0.121464
O O13 0.824555 0.000000 0.082118
O O14 0.250000 0.250000 0.500000
#
# Coordination Sequence:
#
# PCOD9200053 Si02
#       6
#     8   8   8   8   8   8
#     4  10  20  38  63  90 120 159 206 250 298 360
#     4  11  24  39  59  93 127 164 196 251 313 370
#     4  12  22  39  63  89 128 159 200 254 313 365
#     4  11  23  40  62  89 122 163 211 257 301 358
#     4  10  20  36  63  92 118 157 207 254 298 356
#     4  10  22  40  62  85 118 164 207 245 295 358
#
# _framework density 22.704751000000002
#
# number of rings (size 3 to 8) (size 9 to 14) (size 15 to 20)
#    0.000    1.333    3.333    3.500    0.000    2.667 
#    0.000    6.667    0.000    8.000    0.000    0.000 
#    0.000    0.000    0.000    0.000    0.000    0.000 
#
# Total GULP energy -134192.861893 kJ/mol
# GULP energy per Si atom -5591.369246 kJ/mol
# Density = 2.265307 g / cm^3
# Si number density = 22.704751 Si / 1000 Ang^3
#
#
#
# Elastic Constant Matrix: (Units=GPa)
#
#
# Indices 1 2 3 4 5 6 
#
# 1 68.7802 4.8320 15.5903 0.0002 19.2312 0.0001
# 2 4.8320 54.9346 -0.9847 -0.0005 1.4050 0.0000
# 3 15.5903 -0.9847 96.3163 -0.0004 21.5851 0.0000
# 4 0.0002 -0.0005 -0.0004 -3.0193 0.0002 -10.9356
# 5 19.2312 1.4050 21.5851 0.0002 42.6607 0.0000
# 6 0.0001 0.0000 0.0000 -10.9356 0.0000 3.4009
#
#
#
# Elastic Compliance Matrix: (Units=1/GPa)
#
#
# Indices 1 2 3 4 5 6 
#
# 1 0.016844 -0.001325 -0.001182 0.000000 -0.006951 0.000000
# 2 -0.001325 0.018334 0.000455 0.000000 -0.000237 -0.000001
# 3 -0.001182 0.000455 0.011800 0.000000 -0.005453 0.000000
# 4 0.000000 0.000000 0.000000 -0.026190 0.000000 -0.084213
# 5 -0.006951 -0.000237 -0.005453 0.000000 0.029341 0.000000
# 6 0.000000 -0.000001 0.000000 -0.084213 0.000000 0.023251
#
#
# Mechanical properties :
#
#
# Convention : Reuss Voigt Hill
#
# Bulk Modulus (GPa) = 23.32409 28.76737 26.04573
# Shear Modulus (GPa) = 54.48034 21.98137 38.23086
#
# Velocity S-wave (km/s) = 4.90380 3.11487 4.10790
# Velocity P-wave (km/s) = 6.50831 5.06303 5.83062
#
# Compressibility (1/GPa) = 0.04287413
#
# Stress axis : x y z
#
# Youngs Moduli (GPa) = 59.36938 54.54283 84.74239
#
# Poissons Ratio (x) = 0.07227 0.10018
# Poissons Ratio (y) = 0.07866 -0.03855
# Poissons Ratio (z) = 0.07018 -0.02481
#
# Static dielectric constant tensor:
#      x y z
#    x 1.867690 0.000000 0.047840 
#    y 0.000000 1.857550 0.000000 
#    z 0.047840 0.000000 1.816920 
# 
# From -- ./inp_files/104947.got.cif
#   From: 2010.05.17/outbox.cif.g08.bks.cpg/sg12_53_cif.got.tgz:104947.got - 2010.06.03 13:09:07.
