data_PCOD9200284
_publ_section_title
;
Structure prediction by ZEFSAII (Michael W. Deem and Ramdas Pophale) SiO2 
 PCOD9200284
Probable space group: C 2/M
;
_chemical_formula_sum "Si O2"
_cell_formula_units_Z 42
_cell_length_a 19.501762
_cell_length_b 7.636582
_cell_length_c 18.185138
_cell_angle_alpha 90.000000
_cell_angle_beta 128.961966
_cell_angle_gamma 90.000000
_cell_volume 2105.839965
_symmetry_space_group_name_H-M "C 2/M"
_symmetry_group_IT_number 12
_symmetry_cell_setting 'monoclinic'
loop_
_space_group_symop_operation_xyz
x,y,z
-x,y,-z
-x,-y,-z
x,-y,z
1/2+x,1/2+y,z
1/2-x,1/2+y,-z
1/2-x,1/2-y,-z
1/2+x,1/2-y,z
loop_
_atom_site_type_symbol
_atom_site_label
_atom_site_fract_x
_atom_site_fract_y
_atom_site_fract_z
Si Si1 0.505212 0.803182 0.735289
Si Si2 0.252022 0.789964 0.228209
Si Si3 0.197779 0.199063 0.892834
Si Si4 0.000000 0.500000 0.000000
Si Si5 0.950339 0.714523 0.393056
Si Si6 0.438346 0.297392 0.845871
O O1 0.610211 0.809732 0.821485
O O2 0.502530 0.727040 0.650866
O O3 0.463600 0.710352 0.777178
O O4 0.469043 0.000000 0.708754
O O5 0.242500 0.718495 0.139127
O O6 0.347603 0.729611 0.321659
O O7 0.164734 0.746342 0.214073
O O8 0.256468 0.000000 0.226720
O O9 0.167646 0.000000 0.878998
O O10 0.250000 0.250000 0.000000
O O11 0.991274 0.655940 0.929846
O O12 0.950901 0.500000 0.391683
O O13 0.000000 0.770385 0.500000
O O14 0.450047 0.500000 0.878830
#
# Coordination Sequence:
#
# PCOD9200284 Si02
#       6
#     8   8   8   2   8   8
#     4  10  20  37  56  82 117 154 195 245 297 352
#     4   9  20  37  55  81 114 150 190 244 298 350
#     4  11  22  33  52  76 107 146 192 241 292 346
#     4  12  26  40  60  86 116 172 206 238 300 346
#     4   8  15  33  63  90 113 149 197 245 304 363
#     4  11  24  40  59  85 123 161 204 247 292 349
#
# _framework density 19.944534999999998
#
# number of rings (size 3 to 8) (size 9 to 14) (size 15 to 20)
#    0.000    2.095    0.952    3.714    4.000    0.000 
#    0.000    0.952    0.000   14.286    0.000    0.000 
#    0.000    0.000    0.000    0.000    0.000    0.000 
#
# Total GULP energy -116911.835173 kJ/mol
# GULP energy per Si atom -5567.230246 kJ/mol
# Density = 1.989914 g / cm^3
# Si number density = 19.944535 Si / 1000 Ang^3
#
#
#
# Elastic Constant Matrix: (Units=GPa)
#
#
# Indices 1 2 3 4 5 6 
#
# 1 130.6761 17.6740 53.4800 0.0000 -30.6419 0.0000
# 2 17.6740 86.2968 15.4833 0.0000 -6.1699 0.0000
# 3 53.4800 15.4833 134.3767 0.0000 -39.6466 0.0000
# 4 0.0000 0.0000 0.0000 6.3190 0.0000 -2.2817
# 5 -30.6419 -6.1699 -39.6466 0.0000 21.2745 0.0000
# 6 0.0000 0.0000 0.0000 -2.2817 0.0000 16.7419
#
#
#
# Elastic Compliance Matrix: (Units=1/GPa)
#
#
# Indices 1 2 3 4 5 6 
#
# 1 0.011715 -0.001255 0.000784 0.000000 0.017972 0.000000
# 2 -0.001255 0.012005 -0.000866 0.000000 0.000060 0.000000
# 3 0.000784 -0.000866 0.016635 0.000000 0.031880 0.000000
# 4 0.000000 0.000000 0.000000 0.166444 0.000000 0.022684
# 5 0.017972 0.000060 0.031880 0.000000 0.132317 0.000000
# 6 0.000000 0.000000 0.000000 0.022684 0.000000 0.062822
#
#
# Mechanical properties :
#
#
# Convention : Reuss Voigt Hill
#
# Bulk Modulus (GPa) = 26.53813 58.29159 42.41486
# Shear Modulus (GPa) = 11.98546 26.51455 19.25000
#
# Velocity S-wave (km/s) = 2.45407 3.65007 3.11010
# Velocity P-wave (km/s) = 4.62220 6.85961 5.84889
#
# Compressibility (1/GPa) = 0.03768163
#
# Stress axis : x y z
#
# Youngs Moduli (GPa) = 85.35787 83.30116 60.11364
#
# Poissons Ratio (x) = 0.10456 -0.04716
# Poissons Ratio (y) = 0.10714 0.05206
# Poissons Ratio (z) = -0.06696 0.07214
#
# Static dielectric constant tensor:
#      x y z
#    x 1.686670 0.000000 -0.023910 
#    y 0.000000 1.730890 0.000000 
#    z -0.023910 0.000000 1.673950 
# 
# From -- ./inp_files/280598.got.cif
#   From: 2010.05.17/outbox.cif.g08.bks.cpg/sg12_141_cif.got.tgz:280598.got - 2010.06.03 13:09:07.
