data_PCOD9200286
_publ_section_title
;
Structure prediction by ZEFSAII (Michael W. Deem and Ramdas Pophale) SiO2 
 PCOD9200286
Probable space group: C 2/M
;
_chemical_formula_sum "Si O2"
_cell_formula_units_Z 40
_cell_length_a 17.774075
_cell_length_b 13.386391
_cell_length_c 30.585394
_cell_angle_alpha 90.000000
_cell_angle_beta 163.801297
_cell_angle_gamma 90.000000
_cell_volume 2030.117207
_symmetry_space_group_name_H-M "C 2/M"
_symmetry_group_IT_number 12
_symmetry_cell_setting 'monoclinic'
loop_
_space_group_symop_operation_xyz
x,y,z
-x,y,-z
-x,-y,-z
x,-y,z
1/2+x,1/2+y,z
1/2-x,1/2+y,-z
1/2-x,1/2-y,-z
1/2+x,1/2-y,z
loop_
_atom_site_type_symbol
_atom_site_label
_atom_site_fract_x
_atom_site_fract_y
_atom_site_fract_z
Si Si1 0.196958 0.709777 0.335046
Si Si2 0.315964 0.686516 0.579902
Si Si3 0.242668 0.391199 0.700643
Si Si4 0.340604 0.301743 0.006086
Si Si5 0.598002 0.891593 0.104182
O O1 0.500000 0.663793 0.500000
O O2 0.143631 0.742716 0.355045
O O3 0.214122 0.807489 0.312669
O O4 0.926320 0.655746 0.166530
O O5 0.250000 0.750000 0.500000
O O6 0.582042 0.624023 0.718310
O O7 0.060135 0.621163 0.451063
O O8 0.291013 0.500000 0.708255
O O9 0.432109 0.375514 0.848830
O O10 0.467828 0.208759 0.050830
O O11 0.250000 0.250000 0.000000
O O12 0.529738 0.000000 0.087255
O O13 0.500000 0.896388 0.000000
#
# Coordination Sequence:
#
# PCOD9200286 Si02
#       5
#     8   8   8   8   8
#     4   9  20  35  57  83 111 152 188 232 283 332
#     4  11  20  35  58  84 121 152 181 232 288 340
#     4  10  21  36  59  87 114 151 192 233 282 334
#     4  10  20  37  56  82 118 151 185 234 283 343
#     4  11  22  36  59  88 115 146 185 239 293 334
#
# _framework density 19.703296999999999
#
# number of rings (size 3 to 8) (size 9 to 14) (size 15 to 20)
#    0.000    1.800    4.000    0.600    0.000    7.600 
#    0.000    0.000    0.000    7.200    0.000    0.000 
#    0.000    0.000    0.000    0.000    0.000    0.000 
#
# Total GULP energy -111438.457494 kJ/mol
# GULP energy per Si atom -5571.922875 kJ/mol
# Density = 1.965845 g / cm^3
# Si number density = 19.703297 Si / 1000 Ang^3
#
#
#
# Elastic Constant Matrix: (Units=GPa)
#
#
# Indices 1 2 3 4 5 6 
#
# 1 77.9977 7.7066 14.1719 -0.0012 -11.9370 -0.0011
# 2 7.7066 21.3495 -0.2625 0.0175 -1.5724 -0.0034
# 3 14.1719 -0.2625 135.9528 0.0462 -16.9650 -0.0108
# 4 -0.0012 0.0175 0.0462 -3.8188 -0.0054 -3.5256
# 5 -11.9370 -1.5724 -16.9650 -0.0054 34.0859 0.0022
# 6 -0.0011 -0.0034 -0.0108 -3.5256 0.0022 16.0487
#
#
#
# Elastic Compliance Matrix: (Units=1/GPa)
#
#
# Indices 1 2 3 4 5 6 
#
# 1 0.014118 -0.004795 -0.000951 -0.000036 0.004250 -0.000009
# 2 -0.004795 0.048646 0.000708 0.000184 0.000917 0.000051
# 3 -0.000951 0.000708 0.007910 0.000075 0.003637 0.000021
# 4 -0.000036 0.000184 0.000075 -0.217707 0.000002 -0.047826
# 5 0.004250 0.000917 0.003637 0.000002 0.032678 -0.000001
# 6 -0.000009 0.000051 0.000021 -0.047826 -0.000001 0.051804
#
#
# Mechanical properties :
#
#
# Convention : Reuss Voigt Hill
#
# Bulk Modulus (GPa) = 16.50176 30.94798 23.72487
# Shear Modulus (GPa) = -154.90950 23.50877 -65.70037
#
# Velocity S-wave (km/s) = -8.87647 3.45793 -5.78077
# Velocity P-wave (km/s) = 9.83170 5.62887 5.69992
#
# Compressibility (1/GPa) = 0.06059959
#
# Stress axis : x y z
#
# Youngs Moduli (GPa) = 70.83280 20.55647 126.42668
#
# Poissons Ratio (x) = 0.09856 0.12018
# Poissons Ratio (y) = 0.33963 -0.08953
# Poissons Ratio (z) = 0.06733 -0.01456
#
# Static dielectric constant tensor:
#      x y z
#    x 1.638070 0.000070 0.010870 
#    y 0.000070 1.847110 -0.000060 
#    z 0.010870 -0.000060 1.752470 
# 
# From -- ./inp_files/155592.got.cif
#   From: 2010.05.17/outbox.cif.g08.bks.cpg/sg12_78_cif.got.tgz:155592.got - 2010.06.03 13:09:07.
