data_PCOD9200842
_publ_section_title
;
Structure prediction by ZEFSAII (Michael W. Deem and Ramdas Pophale) SiO2 
 PCOD9200842
Probable space group: C 2/M
;
_chemical_formula_sum "Si O2"
_cell_formula_units_Z 56
_cell_length_a 28.046001
_cell_length_b 8.529437
_cell_length_c 14.011798
_cell_angle_alpha 90.000000
_cell_angle_beta 120.020332
_cell_angle_gamma 90.000000
_cell_volume 2902.196381
_symmetry_space_group_name_H-M "C 2/M"
_symmetry_group_IT_number 12
_symmetry_cell_setting 'monoclinic'
loop_
_space_group_symop_operation_xyz
x,y,z
-x,y,-z
-x,-y,-z
x,-y,z
1/2+x,1/2+y,z
1/2-x,1/2+y,-z
1/2-x,1/2-y,-z
1/2+x,1/2-y,z
loop_
_atom_site_type_symbol
_atom_site_label
_atom_site_fract_x
_atom_site_fract_y
_atom_site_fract_z
Si Si1 0.404826 0.812168 0.548679
Si Si2 0.619028 0.310382 0.686576
Si Si3 0.831429 0.188493 0.831449
Si Si4 0.951983 0.808768 0.023774
Si Si5 0.738986 0.688286 0.882970
Si Si6 0.308167 0.188324 0.596460
Si Si7 0.522725 0.689756 0.734934
O O1 0.391528 0.752692 0.429522
O O2 0.356987 0.760818 0.573949
O O3 0.463684 0.749442 0.641858
O O4 0.406076 0.000000 0.549431
O O5 0.618263 0.500000 0.682238
O O6 0.678607 0.261494 0.785846
O O7 0.570637 0.259931 0.710088
O O8 0.785283 0.249629 0.857566
O O9 0.819675 0.249196 0.713714
O O10 0.830291 0.000000 0.830022
O O11 0.891922 0.240276 0.927280
O O12 0.963866 0.758237 0.143867
O O13 0.952290 0.000000 0.024103
O O14 0.000000 0.756838 0.000000
O O15 0.740142 0.500000 0.885158
O O16 0.750000 0.750000 0.000000
O O17 0.250000 0.250000 0.500000
O O18 0.306841 0.000000 0.597098
O O19 0.521697 0.500000 0.733696
#
# Coordination Sequence:
#
# PCOD9200842 Si02
#       7
#     8   8   8   8   8   8   8
#     4  11  24  39  57  85 118 149 187 240 296 346
#     4  10  22  39  59  83 113 153 197 238 282 343
#     4  11  22  38  62  90 119 152 194 242 291 345
#     4   9  18  34  58  86 114 149 193 236 281 342
#     4  11  23  40  62  88 120 156 196 241 290 344
#     4  11  24  41  60  85 117 153 195 241 292 349
#     4  10  20  37  60  84 112 149 194 237 280 340
#
# _framework density 19.295732000000001
#
# number of rings (size 3 to 8) (size 9 to 14) (size 15 to 20)
#    0.000    1.571    0.000    4.714    0.000   11.429 
#    0.000    2.857    0.000    3.857    0.000    0.000 
#    0.000    0.000    0.000    0.000    0.000    0.000 
#
# Total GULP energy -156582.991270 kJ/mol
# GULP energy per Si atom -5592.249688 kJ/mol
# Density = 1.925181 g / cm^3
# Si number density = 19.295732 Si / 1000 Ang^3
#
#
#
# Elastic Constant Matrix: (Units=GPa)
#
#
# Indices 1 2 3 4 5 6 
#
# 1 245.8593 44.8222 151.0038 0.0000 -0.6971 0.0000
# 2 44.8222 31.1396 41.0364 0.0000 0.4445 0.0000
# 3 151.0038 41.0364 244.5787 0.0000 -0.5051 0.0000
# 4 0.0000 0.0000 0.0000 32.2417 0.0000 -0.8989
# 5 -0.6971 0.4445 -0.5051 0.0000 46.9443 0.0000
# 6 0.0000 0.0000 0.0000 -0.8989 0.0000 31.0075
#
#
#
# Elastic Compliance Matrix: (Units=1/GPa)
#
#
# Indices 1 2 3 4 5 6 
#
# 1 0.007301 -0.005869 -0.003523 0.000000 0.000126 0.000000
# 2 -0.005869 0.045957 -0.004089 0.000000 -0.000566 0.000000
# 3 -0.003523 -0.004089 0.006950 0.000000 0.000061 0.000000
# 4 0.000000 0.000000 0.000000 0.031041 0.000000 0.000900
# 5 0.000126 -0.000566 0.000061 0.000000 0.021310 0.000000
# 6 0.000000 0.000000 0.000000 0.000900 0.000000 0.032276
#
#
# Mechanical properties :
#
#
# Convention : Reuss Voigt Hill
#
# Bulk Modulus (GPa) = 30.07729 110.58914 70.33321
# Shear Modulus (GPa) = 27.34054 41.01973 34.18013
#
# Velocity S-wave (km/s) = 3.76829 4.61569 4.21335
# Velocity P-wave (km/s) = 5.87832 9.26517 7.75880
#
# Compressibility (1/GPa) = 0.03324768
#
# Stress axis : x y z
#
# Youngs Moduli (GPa) = 136.95957 21.75940 143.88711
#
# Poissons Ratio (x) = 0.12770 0.50691
# Poissons Ratio (y) = 0.80379 0.58830
# Poissons Ratio (z) = 0.48251 0.08897
#
# Static dielectric constant tensor:
#      x y z
#    x 1.648330 0.000000 -0.000300 
#    y 0.000000 1.664020 0.000000 
#    z -0.000300 0.000000 1.625740 
# 
# From -- ./inp_files/181017.got.cif
#   From: 2010.05.17/outbox.cif.g08.bks.cpg/sg12_91_cif.got.tgz:181017.got - 2010.06.03 13:09:07.
