data_PCOD9200843
_publ_section_title
;
Structure prediction by ZEFSAII (Michael W. Deem and Ramdas Pophale) SiO2 
 PCOD9200843
Probable space group: C 2/M
;
_chemical_formula_sum "Si O2"
_cell_formula_units_Z 56
_cell_length_a 20.783453
_cell_length_b 7.732547
_cell_length_c 19.652970
_cell_angle_alpha 90.000000
_cell_angle_beta 58.336577
_cell_angle_gamma 90.000000
_cell_volume 2688.269010
_symmetry_space_group_name_H-M "C 2/M"
_symmetry_group_IT_number 12
_symmetry_cell_setting 'monoclinic'
loop_
_space_group_symop_operation_xyz
x,y,z
-x,y,-z
-x,-y,-z
x,-y,z
1/2+x,1/2+y,z
1/2-x,1/2+y,-z
1/2-x,1/2-y,-z
1/2+x,1/2-y,z
loop_
_atom_site_type_symbol
_atom_site_label
_atom_site_fract_x
_atom_site_fract_y
_atom_site_fract_z
Si Si1 0.129475 0.797659 0.240937
Si Si2 0.680974 0.706140 0.487524
Si Si3 0.834657 0.791235 0.930449
Si Si4 0.469981 0.702363 0.946245
Si Si5 0.400409 0.790152 0.230175
Si Si6 0.228182 0.212118 0.311710
Si Si7 0.541378 0.796548 0.655195
O O1 0.146030 0.725051 0.156332
O O2 0.179211 0.724908 0.275110
O O3 0.040879 0.784887 0.307183
O O4 0.149633 0.000000 0.225717
O O5 0.677493 0.500000 0.486093
O O6 0.750000 0.750000 0.500000
O O7 0.697498 0.771023 0.402202
O O8 0.601992 0.768602 0.562332
O O9 0.895353 0.723231 0.951686
O O10 0.843390 0.000000 0.923779
O O11 0.750000 0.750000 0.000000
O O12 0.453399 0.500000 0.969145
O O13 0.537057 0.717233 0.854772
O O14 0.500000 0.781029 0.000000
O O15 0.315807 0.737732 0.257714
O O16 0.420313 0.734530 0.295828
O O17 0.403609 0.000000 0.226032
O O18 0.225813 0.000000 0.313951
O O19 0.528053 0.000000 0.669822
#
# Coordination Sequence:
#
# PCOD9200843 Si02
#       7
#     8   8   8   8   8   8   8
#     4  10  21  40  62  83 112 153 195 233 282 347
#     4  11  21  37  60  87 118 152 192 239 290 341
#     4  10  22  38  58  83 113 149 187 228 282 342
#     4  10  22  39  57  84 118 148 185 236 288 339
#     4  10  20  37  60  84 112 150 195 236 275 334
#     4   9  20  38  59  85 115 148 191 238 283 336
#     4  11  22  38  60  86 117 152 192 239 285 339
#
# _framework density 20.831249
#
# number of rings (size 3 to 8) (size 9 to 14) (size 15 to 20)
#    0.000    1.857    2.857    0.857    2.000    2.571 
#    0.000    5.000    0.000    0.000    0.000    0.000 
#    0.000    0.000    0.000    0.000    0.000    0.000 
#
# Total GULP energy -156410.230641 kJ/mol
# GULP energy per Si atom -5586.079666 kJ/mol
# Density = 2.078384 g / cm^3
# Si number density = 20.831249 Si / 1000 Ang^3
#
#
#
# Elastic Constant Matrix: (Units=GPa)
#
#
# Indices 1 2 3 4 5 6 
#
# 1 203.1635 -3.4207 86.7724 0.0011 14.3481 0.0002
# 2 -3.4207 26.5797 -8.3377 0.0017 13.9662 0.0026
# 3 86.7724 -8.3377 114.2640 0.0005 0.1900 -0.0010
# 4 0.0011 0.0017 0.0005 20.3462 -0.0004 -8.7897
# 5 14.3481 13.9662 0.1900 -0.0004 36.2161 0.0003
# 6 0.0002 0.0026 -0.0010 -8.7897 0.0003 17.3506
#
#
#
# Elastic Compliance Matrix: (Units=1/GPa)
#
#
# Indices 1 2 3 4 5 6 
#
# 1 0.007612 0.000952 -0.005705 -0.000001 -0.003353 -0.000001
# 2 0.000952 0.048722 0.002865 -0.000010 -0.019181 -0.000012
# 3 -0.005705 0.002865 0.013292 0.000000 0.001086 0.000000
# 4 -0.000001 -0.000010 0.000000 0.062919 0.000005 0.031874
# 5 -0.003353 -0.019181 0.001086 0.000005 0.036331 0.000005
# 6 -0.000001 -0.000012 0.000000 0.031874 0.000005 0.073782
#
#
# Mechanical properties :
#
#
# Convention : Reuss Voigt Hill
#
# Bulk Modulus (GPa) = 15.18674 54.89281 35.03977
# Shear Modulus (GPa) = 18.62988 32.71547 25.67267
#
# Velocity S-wave (km/s) = 2.99377 3.96725 3.51438
# Velocity P-wave (km/s) = 4.38821 6.88432 5.77279
#
# Compressibility (1/GPa) = 0.06584693
#
# Stress axis : x y z
#
# Youngs Moduli (GPa) = 131.37613 20.52447 75.23583
#
# Poissons Ratio (x) = -0.01953 0.42925
# Poissons Ratio (y) = -0.12501 -0.21551
# Poissons Ratio (z) = 0.74955 -0.05879
#
# Static dielectric constant tensor:
#      x y z
#    x 1.723500 0.000000 0.041040 
#    y 0.000000 1.784350 0.000000 
#    z 0.041040 0.000000 1.711180 
# 
# From -- ./inp_files/280956.got.cif
#   From: 2010.05.17/outbox.cif.g08.bks.cpg/sg12_141_cif.got.tgz:280956.got - 2010.06.03 13:09:07.
