data_PCOD9200630
_publ_section_title
;
Structure prediction by ZEFSAII (Michael W. Deem and Ramdas Pophale) SiO2 
 PCOD9200630
Probable space group: C 2/M
;
_chemical_formula_sum "Si O2"
_cell_formula_units_Z 56
_cell_length_a 8.908760
_cell_length_b 10.839150
_cell_length_c 31.524551
_cell_angle_alpha 90.000000
_cell_angle_beta 114.480455
_cell_angle_gamma 90.000000
_cell_volume 2770.459391
_symmetry_space_group_name_H-M "C 2/M"
_symmetry_group_IT_number 12
_symmetry_cell_setting 'monoclinic'
loop_
_space_group_symop_operation_xyz
x,y,z
-x,y,-z
-x,-y,-z
x,-y,z
1/2+x,1/2+y,z
1/2-x,1/2+y,-z
1/2-x,1/2-y,-z
1/2+x,1/2-y,z
loop_
_atom_site_type_symbol
_atom_site_label
_atom_site_fract_x
_atom_site_fract_y
_atom_site_fract_z
Si Si1 0.935311 0.637662 0.158172
Si Si2 0.292808 0.141350 0.738514
Si Si3 0.698770 0.361027 0.963002
Si Si4 0.410742 0.363015 0.697567
Si Si5 0.016255 0.137666 0.552492
Si Si6 0.382584 0.778600 0.901377
Si Si7 0.750922 0.636576 0.409894
O O1 0.875216 0.500000 0.159915
O O2 0.780742 0.727969 0.140607
O O3 0.078536 0.665626 0.208557
O O4 0.013955 0.643987 0.120432
O O5 0.319022 0.248501 0.707606
O O6 0.103509 0.146288 0.730807
O O7 0.321360 0.000000 0.726450
O O8 0.714930 0.500000 0.982091
O O9 0.508459 0.331026 0.929065
O O10 0.815273 0.347195 0.935197
O O11 0.750000 0.250000 0.000000
O O12 0.351841 0.500000 0.704667
O O13 0.382031 0.358437 0.643635
O O14 0.126381 0.250561 0.580754
O O15 0.000000 0.146259 0.500000
O O16 0.842735 0.146348 0.556414
O O17 0.083320 0.000000 0.570422
O O18 0.830466 0.500000 0.416836
#
# Coordination Sequence:
#
# PCOD9200630 Si02
#       7
#     8   8   8   8   8   8   8
#     4  10  20  37  59  83 112 146 184 227 276 328
#     4  10  21  37  59  85 113 147 186 229 277 329
#     4  11  24  40  60  86 115 149 188 230 277 329
#     4  10  21  37  55  80 114 148 185 229 275 326
#     4  10  21  37  57  82 111 143 183 232 282 332
#     4  10  22  38  59  84 114 147 185 229 276 328
#     4  10  21  36  55  80 111 147 186 228 275 330
#
# _framework density 20.213253999999999
#
# number of rings (size 3 to 8) (size 9 to 14) (size 15 to 20)
#    0.000    1.857    0.000    3.429    0.000    7.714 
#    0.000    3.571    0.000    0.000    0.000    0.000 
#    0.000    0.000    0.000    0.000    0.000    0.000 
#
# Total GULP energy -156276.660683 kJ/mol
# GULP energy per Si atom -5581.309310 kJ/mol
# Density = 2.016725 g / cm^3
# Si number density = 20.213254 Si / 1000 Ang^3
#
#
#
# Elastic Constant Matrix: (Units=GPa)
#
#
# Indices 1 2 3 4 5 6 
#
# 1 45.7182 32.7906 -10.6488 0.0000 3.0899 0.0000
# 2 32.7906 136.0260 20.1078 0.0000 3.4663 0.0000
# 3 -10.6488 20.1078 26.2434 0.0000 -1.4410 0.0000
# 4 0.0000 0.0000 0.0000 28.2488 0.0000 -2.2678
# 5 3.0899 3.4663 -1.4410 0.0000 29.3802 0.0000
# 6 0.0000 0.0000 0.0000 -2.2678 0.0000 16.0162
#
#
#
# Elastic Compliance Matrix: (Units=1/GPa)
#
#
# Indices 1 2 3 4 5 6 
#
# 1 0.036412 -0.012316 0.024146 0.000000 -0.001192 0.000000
# 2 -0.012316 0.012506 -0.014629 0.000000 -0.000898 0.000000
# 3 0.024146 -0.014629 0.059226 0.000000 0.002091 0.000000
# 4 0.000000 0.000000 0.000000 0.035807 0.000000 0.005070
# 5 -0.001192 -0.000898 0.002091 0.000000 0.034370 0.000000
# 6 0.000000 0.000000 0.000000 0.005070 0.000000 0.063155
#
#
# Mechanical properties :
#
#
# Convention : Reuss Voigt Hill
#
# Bulk Modulus (GPa) = 9.75177 32.49852 21.12515
# Shear Modulus (GPa) = 17.77739 25.77823 21.77781
#
# Velocity S-wave (km/s) = 2.96884 3.57503 3.28594
# Velocity P-wave (km/s) = 4.07271 5.75794 4.98702
#
# Compressibility (1/GPa) = 0.10254547
#
# Stress axis : x y z
#
# Youngs Moduli (GPa) = 27.46376 79.96210 16.88438
#
# Poissons Ratio (x) = 0.98485 -0.40769
# Poissons Ratio (y) = 0.33826 0.24700
# Poissons Ratio (z) = -0.66315 1.16977
#
# Static dielectric constant tensor:
#      x y z
#    x 1.679930 0.000000 -0.000010 
#    y 0.000000 1.725360 0.000000 
#    z -0.000010 0.000000 1.732510 
# 
# From -- ./inp_files/355863.got.cif
#   From: 2010.05.17/outbox.cif.g08.bks.cpg/sg12_178_cif.got.tgz:355863.got - 2010.06.03 13:09:07.
