data_PCOD9200925
_publ_section_title
;
Structure prediction by ZEFSAII (Michael W. Deem and Ramdas Pophale) SiO2 
 PCOD9200925
Probable space group: C 2/M
;
_chemical_formula_sum "Si O2"
_cell_formula_units_Z 56
_cell_length_a 29.612375
_cell_length_b 17.884056
_cell_length_c 9.376038
_cell_angle_alpha 90.000000
_cell_angle_beta 145.829453
_cell_angle_gamma 90.000000
_cell_volume 2788.885465
_symmetry_space_group_name_H-M "C 2/M"
_symmetry_group_IT_number 12
_symmetry_cell_setting 'monoclinic'
loop_
_space_group_symop_operation_xyz
x,y,z
-x,y,-z
-x,-y,-z
x,-y,z
1/2+x,1/2+y,z
1/2-x,1/2+y,-z
1/2-x,1/2-y,-z
1/2+x,1/2-y,z
loop_
_atom_site_type_symbol
_atom_site_label
_atom_site_fract_x
_atom_site_fract_y
_atom_site_fract_z
Si Si1 0.806253 0.857130 0.595409
Si Si2 0.570519 0.586547 0.297744
Si Si3 0.627890 0.807055 0.172687
Si Si4 0.523343 0.840939 0.408326
Si Si5 0.695295 0.415354 0.091068
Si Si6 0.613919 0.915778 0.394528
Si Si7 0.577197 0.318925 0.601199
O O1 0.846690 0.900322 0.571227
O O2 0.710709 0.843994 0.332317
O O3 0.848126 0.775962 0.716195
O O4 0.820906 0.898115 0.784598
O O5 0.562620 0.500000 0.320227
O O6 0.565937 0.639604 0.421784
O O7 0.500000 0.603491 0.000000
O O8 0.599087 0.855644 0.232136
O O9 0.557682 0.807708 0.873947
O O10 0.500000 0.874250 0.500000
O O11 0.563088 0.896660 0.400893
O O12 0.581412 0.769797 0.586098
O O13 0.668477 0.500000 0.987165
O O14 0.791197 0.410871 0.323055
O O15 0.651507 0.355174 0.878555
O O16 0.597797 0.000000 0.301297
O O17 0.500000 0.331541 0.500000
#
# Coordination Sequence:
#
# PCOD9200925 Si02
#       7
#     8   8   8   8   8   8   8
#     4  10  20  37  60  86 116 150 196 246 289 339
#     4  11  22  34  53  83 118 155 194 239 288 339
#     4  10  21  38  62  86 112 154 197 239 293 349
#     4  11  23  38  59  87 117 150 194 244 293 342
#     4  10  21  39  62  88 120 157 194 235 289 351
#     4  10  23  42  63  87 116 153 197 243 294 353
#     4  11  23  38  58  83 117 157 196 237 287 349
#
# _framework density 20.079706000000002
#
# number of rings (size 3 to 8) (size 9 to 14) (size 15 to 20)
#    0.000    1.571    0.000    5.571    0.000    6.000 
#    0.000    0.000    0.000    0.000    0.000    0.000 
#    0.000    0.000    0.000    0.000    0.000    0.000 
#
# Total GULP energy -156584.052056 kJ/mol
# GULP energy per Si atom -5592.287573 kJ/mol
# Density = 2.003400 g / cm^3
# Si number density = 20.079706 Si / 1000 Ang^3
#
#
#
# Elastic Constant Matrix: (Units=GPa)
#
#
# Indices 1 2 3 4 5 6 
#
# 1 96.3758 13.6654 -2.2554 0.0000 -6.4922 0.0000
# 2 13.6654 37.3213 13.5467 0.0000 4.2431 0.0000
# 3 -2.2554 13.5467 48.0828 0.0000 -0.6058 0.0000
# 4 0.0000 0.0000 0.0000 69.9484 0.0000 27.8728
# 5 -6.4922 4.2431 -0.6058 0.0000 19.3660 0.0000
# 6 0.0000 0.0000 0.0000 27.8728 0.0000 45.1778
#
#
#
# Elastic Compliance Matrix: (Units=1/GPa)
#
#
# Indices 1 2 3 4 5 6 
#
# 1 0.011574 -0.005622 0.002192 0.000000 0.005180 0.000000
# 2 -0.005622 0.033502 -0.009823 0.000000 -0.009532 0.000000
# 3 0.002192 -0.009823 0.023713 0.000000 0.003629 0.000000
# 4 0.000000 0.000000 0.000000 0.018957 0.000000 -0.011695
# 5 0.005180 -0.009532 0.003629 0.000000 0.055576 0.000000
# 6 0.000000 0.000000 0.000000 -0.011695 0.000000 0.029350
#
#
# Mechanical properties :
#
#
# Convention : Reuss Voigt Hill
#
# Bulk Modulus (GPa) = 23.64994 25.74371 24.69682
# Shear Modulus (GPa) = 23.44425 37.35329 30.39877
#
# Velocity S-wave (km/s) = 3.42066 4.31774 3.89511
# Velocity P-wave (km/s) = 5.23496 6.14050 5.70573
#
# Compressibility (1/GPa) = 0.04228341
#
# Stress axis : x y z
#
# Youngs Moduli (GPa) = 86.40411 29.84882 42.17023
#
# Poissons Ratio (x) = 0.16782 -0.09244
# Poissons Ratio (y) = 0.48580 0.41422
# Poissons Ratio (z) = -0.18941 0.29319
#
# Static dielectric constant tensor:
#      x y z
#    x 1.688290 0.000000 0.018040 
#    y 0.000000 1.691930 0.000000 
#    z 0.018040 0.000000 1.696680 
# 
# From -- ./inp_files/75839.got.cif
#   From: 2010.05.17/outbox.cif.g08.bks.cpg/sg12_38_cif.got.tgz:75839.got - 2010.06.03 13:09:07.
