data_PCOD9200989
_publ_section_title
;
Structure prediction by ZEFSAII (Michael W. Deem and Ramdas Pophale) SiO2 
 PCOD9200989
Probable space group: C 2/M
;
_chemical_formula_sum "Si O2"
_cell_formula_units_Z 64
_cell_length_a 31.181757
_cell_length_b 8.789885
_cell_length_c 17.407628
_cell_angle_alpha 90.000000
_cell_angle_beta 136.302725
_cell_angle_gamma 90.000000
_cell_volume 3296.141855
_symmetry_space_group_name_H-M "C 2/M"
_symmetry_group_IT_number 12
_symmetry_cell_setting 'monoclinic'
loop_
_space_group_symop_operation_xyz
x,y,z
-x,y,-z
-x,-y,-z
x,-y,z
1/2+x,1/2+y,z
1/2-x,1/2+y,-z
1/2-x,1/2-y,-z
1/2+x,1/2-y,z
loop_
_atom_site_type_symbol
_atom_site_label
_atom_site_fract_x
_atom_site_fract_y
_atom_site_fract_z
Si Si1 0.584390 0.682902 0.179565
Si Si2 0.867058 0.317046 0.200367
Si Si3 0.631370 0.317515 0.510108
Si Si4 0.161739 0.316771 0.005625
Si Si5 0.790680 0.816578 0.242056
Si Si6 0.181616 0.680747 0.417906
Si Si7 0.506563 0.817746 0.417991
Si Si8 0.946493 0.817764 0.036890
O O1 0.591307 0.500000 0.195857
O O2 0.640739 0.766129 0.292759
O O3 0.576958 0.717794 0.079773
O O4 0.518813 0.726451 0.134060
O O5 0.861724 0.500000 0.201040
O O6 0.835370 0.241891 0.232635
O O7 0.940357 0.281231 0.294008
O O8 0.835513 0.268113 0.079769
O O9 0.632918 0.500000 0.504681
O O10 0.681629 0.269515 0.640068
O O11 0.648524 0.243398 0.451561
O O12 0.564229 0.266021 0.454028
O O13 0.161564 0.500000 0.005882
O O14 0.221246 0.263441 0.131410
O O15 0.098385 0.259482 0.960825
O O16 0.790689 0.000000 0.240926
O O17 0.185386 0.500000 0.425613
O O18 0.250000 0.750000 0.500000
O O19 0.500000 0.779883 0.500000
O O20 0.516813 0.000000 0.426047
O O21 0.943728 0.000000 0.042027
#
# Coordination Sequence:
#
# PCOD9200989 Si02
#       8
#     8   8   8   8   8   8   8   8
#     4   9  20  42  65  90 124 156 197 249 301 359
#     4  10  21  37  58  84 119 158 200 251 303 356
#     4  11  24  41  62  90 123 162 208 255 310 371
#     4  10  22  37  56  86 121 155 201 253 298 355
#     4  10  22  39  58  83 119 158 201 251 301 359
#     4  12  27  45  67  94 126 163 205 255 312 372
#     4  10  20  37  60  88 122 161 206 254 306 366
#     4   9  20  39  64  91 120 157 199 247 301 359
#
# _framework density 19.416639
#
# number of rings (size 3 to 8) (size 9 to 14) (size 15 to 20)
#    0.000    1.875    1.250    2.625    3.500    3.250 
#    0.000    1.250    0.000    0.000    0.000    0.000 
#    0.000    0.000    0.000    0.000    0.000    0.000 
#
# Total GULP energy -178814.843314 kJ/mol
# GULP energy per Si atom -5587.963854 kJ/mol
# Density = 1.937245 g / cm^3
# Si number density = 19.416639 Si / 1000 Ang^3
#
#
#
# Elastic Constant Matrix: (Units=GPa)
#
#
# Indices 1 2 3 4 5 6 
#
# 1 50.3471 17.4695 -2.6027 0.0000 7.9495 0.0000
# 2 17.4695 32.3975 21.4973 0.0000 2.6970 0.0000
# 3 -2.6027 21.4973 68.1090 0.0000 15.6703 0.0000
# 4 0.0000 0.0000 0.0000 26.5732 0.0000 0.7791
# 5 7.9495 2.6970 15.6703 0.0000 18.8500 0.0000
# 6 0.0000 0.0000 0.0000 0.7791 0.0000 26.5507
#
#
#
# Elastic Compliance Matrix: (Units=1/GPa)
#
#
# Indices 1 2 3 4 5 6 
#
# 1 0.032968 -0.025497 0.014426 0.000000 -0.022248 0.000000
# 2 -0.025497 0.059276 -0.024985 0.000000 0.023042 0.000000
# 3 0.014426 -0.024985 0.029301 0.000000 -0.026868 0.000000
# 4 0.000000 0.000000 0.000000 0.037664 0.000000 -0.001105
# 5 -0.022248 0.023042 -0.026868 0.000000 0.081472 0.000000
# 6 0.000000 0.000000 0.000000 -0.001105 0.000000 0.037696
#
#
# Mechanical properties :
#
#
# Convention : Reuss Voigt Hill
#
# Bulk Modulus (GPa) = 20.22956 24.84242 22.53599
# Shear Modulus (GPa) = 13.62522 22.02744 17.82633
#
# Velocity S-wave (km/s) = 2.65189 3.37183 3.03330
# Velocity P-wave (km/s) = 4.45174 5.28972 4.88872
#
# Compressibility (1/GPa) = 0.04943260
#
# Stress axis : x y z
#
# Youngs Moduli (GPa) = 30.33267 16.87029 34.12816
#
# Poissons Ratio (x) = 0.43015 -0.49234
# Poissons Ratio (y) = 0.77340 0.85269
# Poissons Ratio (z) = -0.43759 0.42151
#
# Static dielectric constant tensor:
#      x y z
#    x 1.636370 0.000000 -0.004000 
#    y 0.000000 1.653180 0.000000 
#    z -0.004000 0.000000 1.692670 
# 
# From -- ./inp_files/295879.got.cif
#   From: 2010.05.17/outbox.cif.g08.bks.cpg/sg12_148_cif.got.tgz:295879.got - 2010.06.03 13:09:07.
