data_PCOD9200155
_publ_section_title
;
Structure prediction by ZEFSAII (Michael W. Deem and Ramdas Pophale) SiO2 
 PCOD9200155
Probable space group: C 2/M
;
_chemical_formula_sum "Si O2"
_cell_formula_units_Z 64
_cell_length_a 18.299772
_cell_length_b 29.061851
_cell_length_c 12.584527
_cell_angle_alpha 90.000000
_cell_angle_beta 152.092765
_cell_angle_gamma 90.000000
_cell_volume 3132.493109
_symmetry_space_group_name_H-M "C 2/M"
_symmetry_group_IT_number 12
_symmetry_cell_setting 'monoclinic'
loop_
_space_group_symop_operation_xyz
x,y,z
-x,y,-z
-x,-y,-z
x,-y,z
1/2+x,1/2+y,z
1/2-x,1/2+y,-z
1/2-x,1/2-y,-z
1/2+x,1/2-y,z
loop_
_atom_site_type_symbol
_atom_site_label
_atom_site_fract_x
_atom_site_fract_y
_atom_site_fract_z
Si Si1 0.137009 0.324073 0.601860
Si Si2 0.134639 0.948920 0.104502
Si Si3 0.351989 0.716630 0.051775
Si Si4 0.718449 0.555086 0.973992
Si Si5 0.419747 0.919241 0.590600
Si Si6 0.644393 0.121386 0.261755
Si Si7 0.890987 0.716511 0.666384
Si Si8 0.510096 0.634779 0.390049
O O1 0.101272 0.375466 0.515267
O O2 0.129278 0.298135 0.481568
O O3 0.000000 0.306544 0.500000
O O4 0.278665 0.314265 0.862697
O O5 0.182948 0.931743 0.051092
O O6 0.289066 0.951872 0.373596
O O7 0.071344 0.000000 0.999716
O O8 0.000000 0.923685 0.000000
O O9 0.454141 0.754334 0.122562
O O10 0.447322 0.678830 0.242954
O O11 0.250000 0.750000 0.000000
O O12 0.690368 0.500000 0.921534
O O13 0.901075 0.564693 0.184226
O O14 0.605117 0.590428 0.767687
O O15 0.369340 0.907301 0.646130
O O16 0.615623 0.173291 0.265113
O O17 0.815436 0.120808 0.426301
O O18 0.500000 0.108042 0.000000
O O19 0.750000 0.750000 0.500000
O O20 0.500000 0.648536 0.500000
#
# Coordination Sequence:
#
# PCOD9200155 Si02
#       8
#     8   8   8   8   8   8   8   8
#     4  11  23  39  61  91 128 170 218 271 321 388
#     4  10  20  36  64  98 135 172 213 271 335 406
#     4  12  26  40  70  97 134 183 229 278 334 404
#     4  11  24  44  72 104 136 179 229 288 352 417
#     4  11  22  41  67  96 135 172 225 278 345 401
#     4  11  26  45  67  94 136 181 225 285 342 410
#     4  11  25  43  61  94 131 174 226 280 331 389
#     4  12  27  46  70  99 135 181 232 285 349 416
#
# _framework density 20.431010000000001
#
# number of rings (size 3 to 8) (size 9 to 14) (size 15 to 20)
#    0.000    0.875    2.500    4.500    7.000    1.250 
#    0.000    0.625    0.000    2.625    0.000    0.000 
#    0.000    0.000    0.000    0.000    0.000    0.000 
#
# Total GULP energy -178413.830634 kJ/mol
# GULP energy per Si atom -5575.432207 kJ/mol
# Density = 2.038451 g / cm^3
# Si number density = 20.431010 Si / 1000 Ang^3
#
#
#
# Elastic Constant Matrix: (Units=GPa)
#
#
# Indices 1 2 3 4 5 6 
#
# 1 85.3549 1.9041 22.7221 0.0000 15.4627 0.0000
# 2 1.9041 74.4151 13.8818 0.0000 2.8252 0.0000
# 3 22.7221 13.8818 92.7353 0.0000 -1.6499 0.0000
# 4 0.0000 0.0000 0.0000 20.7017 0.0000 4.4541
# 5 15.4627 2.8252 -1.6499 0.0000 44.4517 0.0000
# 6 0.0000 0.0000 0.0000 4.4541 0.0000 14.2667
#
#
#
# Elastic Compliance Matrix: (Units=1/GPa)
#
#
# Indices 1 2 3 4 5 6 
#
# 1 0.013509 0.000486 -0.003469 0.000000 -0.004859 0.000000
# 2 0.000486 0.013882 -0.002217 0.000000 -0.001134 0.000000
# 3 -0.003469 -0.002217 0.011997 0.000000 0.001793 0.000000
# 4 0.000000 0.000000 0.000000 0.051784 0.000000 -0.016167
# 5 -0.004859 -0.001134 0.001793 0.000000 0.024325 0.000000
# 6 0.000000 0.000000 0.000000 -0.016167 0.000000 0.075140
#
#
# Mechanical properties :
#
#
# Convention : Reuss Voigt Hill
#
# Bulk Modulus (GPa) = 34.49786 36.61345 35.55566
# Shear Modulus (GPa) = 23.73034 30.15051 26.94043
#
# Velocity S-wave (km/s) = 3.41176 3.84568 3.63520
# Velocity P-wave (km/s) = 5.69577 6.13828 5.92116
#
# Compressibility (1/GPa) = 0.02898730
#
# Stress axis : x y z
#
# Youngs Moduli (GPa) = 74.02673 72.03375 83.35276
#
# Poissons Ratio (x) = -0.03501 0.28916
# Poissons Ratio (y) = -0.03597 0.18482
# Poissons Ratio (z) = 0.25681 0.15972
#
# Static dielectric constant tensor:
#      x y z
#    x 1.696910 0.000000 0.165930 
#    y 0.000000 1.725160 0.000000 
#    z 0.165930 0.000000 1.027080 
# 
# From -- ./inp_files/161269.got.cif
#   From: 2010.05.17/outbox.cif.g08.bks.cpg/sg12_81_cif.got.tgz:161269.got - 2010.06.03 13:09:07.
