data_PCOD9200655
_publ_section_title
;
Structure prediction by ZEFSAII (Michael W. Deem and Ramdas Pophale) SiO2 
 PCOD9200655
Probable space group: C 2/M
;
_chemical_formula_sum "Si O2"
_cell_formula_units_Z 42
_cell_length_a 10.301909
_cell_length_b 9.301222
_cell_length_c 24.631328
_cell_angle_alpha 90.000000
_cell_angle_beta 116.358475
_cell_angle_gamma 90.000000
_cell_volume 2114.803042
_symmetry_space_group_name_H-M "C 2/M"
_symmetry_group_IT_number 12
_symmetry_cell_setting 'monoclinic'
loop_
_space_group_symop_operation_xyz
x,y,z
-x,y,-z
-x,-y,-z
x,-y,z
1/2+x,1/2+y,z
1/2-x,1/2+y,-z
1/2-x,1/2-y,-z
1/2+x,1/2-y,z
loop_
_atom_site_type_symbol
_atom_site_label
_atom_site_fract_x
_atom_site_fract_y
_atom_site_fract_z
Si Si1 0.902561 0.330170 0.536053
Si Si2 0.262819 0.841153 0.091542
Si Si3 0.084691 0.170608 0.662427
Si Si4 0.618391 0.664699 0.274958
Si Si5 0.000000 0.000000 0.000000
Si Si6 0.458567 0.666713 0.865733
O O1 0.879876 0.500000 0.542356
O O2 0.750000 0.250000 0.500000
O O3 0.000000 0.316995 0.500000
O O4 0.989071 0.254954 0.600806
O O5 0.393907 0.747776 0.095389
O O6 0.182215 0.775451 0.129238
O O7 0.322983 0.000000 0.118462
O O8 0.129493 0.876307 0.027454
O O9 0.247113 0.230395 0.691464
O O10 0.011265 0.196006 0.707549
O O11 0.081925 0.000000 0.651089
O O12 0.667048 0.500000 0.295014
O O13 0.567148 0.669695 0.203189
O O14 0.472528 0.500000 0.889058
#
# Coordination Sequence:
#
# PCOD9200655 Si02
#       6
#     8   8   8   8   2   8
#     4  11  24  41  61  85 116 154 194 238 286 338
#     4   9  20  37  56  81 115 147 186 235 281 335
#     4  11  23  38  58  87 116 148 193 237 284 343
#     4  10  22  38  57  84 118 148 187 240 287 340
#     4   8  20  40  54  82 120 148 186 242 278 332
#     4  10  20  37  59  84 112 151 192 232 287 343
#
# _framework density 19.860007
#
# number of rings (size 3 to 8) (size 9 to 14) (size 15 to 20)
#    0.571    1.333    0.000    3.429    0.000    9.905 
#    0.000    0.476    0.000    0.000    0.000    0.000 
#    0.000    0.000    0.000    0.000    0.000    0.000 
#
# Total GULP energy -116987.046000 kJ/mol
# GULP energy per Si atom -5570.811714 kJ/mol
# Density = 1.981480 g / cm^3
# Si number density = 19.860007 Si / 1000 Ang^3
#
#
#
# Elastic Constant Matrix: (Units=GPa)
#
#
# Indices 1 2 3 4 5 6 
#
# 1 68.7075 47.1362 14.4646 0.0000 0.7124 0.0000
# 2 47.1362 83.2793 29.5970 0.0000 11.6983 0.0000
# 3 14.4646 29.5970 42.3394 0.0000 9.2498 0.0000
# 4 0.0000 0.0000 0.0000 29.1623 0.0000 9.3888
# 5 0.7124 11.6983 9.2498 0.0000 36.8362 0.0000
# 6 0.0000 0.0000 0.0000 9.3888 0.0000 42.7828
#
#
#
# Elastic Compliance Matrix: (Units=1/GPa)
#
#
# Indices 1 2 3 4 5 6 
#
# 1 0.024408 -0.014768 0.001125 0.000000 0.003935 0.000000
# 2 -0.014768 0.025115 -0.011460 0.000000 -0.004813 0.000000
# 3 0.001125 -0.011460 0.032223 0.000000 -0.004474 0.000000
# 4 0.000000 0.000000 0.000000 0.036898 0.000000 -0.008097
# 5 0.003935 -0.004813 -0.004474 0.000000 0.029723 0.000000
# 6 0.000000 0.000000 0.000000 -0.008097 0.000000 0.025151
#
#
# Mechanical properties :
#
#
# Convention : Reuss Voigt Hill
#
# Bulk Modulus (GPa) = 31.70539 41.85795 36.78167
# Shear Modulus (GPa) = 21.34596 28.63147 24.98872
#
# Velocity S-wave (km/s) = 3.28200 3.80105 3.55102
# Velocity P-wave (km/s) = 5.51010 6.35501 5.94758
#
# Compressibility (1/GPa) = 0.03154038
#
# Stress axis : x y z
#
# Youngs Moduli (GPa) = 40.97017 39.81673 31.03396
#
# Poissons Ratio (x) = 0.58799 -0.03491
# Poissons Ratio (y) = 0.60503 0.35565
# Poissons Ratio (z) = -0.04608 0.45630
#
# Static dielectric constant tensor:
#      x y z
#    x 1.608060 0.000000 0.096550 
#    y 0.000000 1.690700 0.000000 
#    z 0.096550 0.000000 1.300840 
# 
# From -- ./inp_files/371802.got.cif
#   From: 2010.05.17/outbox.cif.g08.bks.cpg/sg12_186_cif.got.tgz:371802.got - 2010.06.03 13:09:07.
