data_PCOD9200959
_publ_section_title
;
Structure prediction by ZEFSAII (Michael W. Deem and Ramdas Pophale) SiO2 
 PCOD9200959
Probable space group: C 2/M
;
_chemical_formula_sum "Si O2"
_cell_formula_units_Z 40
_cell_length_a 24.615665
_cell_length_b 7.771325
_cell_length_c 9.901000
_cell_angle_alpha 90.000000
_cell_angle_beta 104.306416
_cell_angle_gamma 90.000000
_cell_volume 1835.287614
_symmetry_space_group_name_H-M "C 2/M"
_symmetry_group_IT_number 12
_symmetry_cell_setting 'monoclinic'
loop_
_space_group_symop_operation_xyz
x,y,z
-x,y,-z
-x,-y,-z
x,-y,z
1/2+x,1/2+y,z
1/2-x,1/2+y,-z
1/2-x,1/2-y,-z
1/2+x,1/2-y,z
loop_
_atom_site_type_symbol
_atom_site_label
_atom_site_fract_x
_atom_site_fract_y
_atom_site_fract_z
Si Si1 0.580790 0.708602 0.415776
Si Si2 0.198891 0.206633 0.370242
Si Si3 0.892425 0.296078 0.268489
Si Si4 0.265929 0.793071 0.161420
Si Si5 0.009614 0.203552 0.855253
O O1 0.579643 0.500000 0.414221
O O2 0.640375 0.771450 0.393215
O O3 0.577753 0.758858 0.570486
O O4 0.532404 0.773002 0.285663
O O5 0.250000 0.250000 0.500000
O O6 0.218994 0.271832 0.236813
O O7 0.193107 0.000000 0.359743
O O8 0.889731 0.500000 0.249243
O O9 0.828553 0.227980 0.233968
O O10 0.928277 0.224796 0.166076
O O11 0.267514 0.000000 0.177240
O O12 0.250000 0.750000 0.000000
O O13 0.997605 0.000000 0.856664
O O14 0.000000 0.275110 0.000000
#
# Coordination Sequence:
#
# PCOD9200959 Si02
#       5
#     8   8   8   8   8
#     4  10  21  38  62  88 114 153 200 240 283 342
#     4  10  20  37  60  87 118 150 191 239 286 343
#     4  11  23  40  60  87 120 154 192 239 292 347
#     4  10  23  39  58  87 121 154 192 236 288 347
#     4  10  23  41  62  87 115 152 198 244 288 341
#
# _framework density 21.794948999999999
#
# number of rings (size 3 to 8) (size 9 to 14) (size 15 to 20)
#    0.000    1.800    2.000    1.200    2.800    6.000 
#    0.000    0.000    0.000    0.000    0.000    0.000 
#    0.000    0.000    0.000    0.000    0.000    0.000 
#
# Total GULP energy -111751.963756 kJ/mol
# GULP energy per Si atom -5587.598188 kJ/mol
# Density = 2.174534 g / cm^3
# Si number density = 21.794949 Si / 1000 Ang^3
#
#
#
# Elastic Constant Matrix: (Units=GPa)
#
#
# Indices 1 2 3 4 5 6 
#
# 1 81.6643 -4.2144 27.9497 0.0000 -22.2809 0.0000
# 2 -4.2144 11.3420 -0.8880 0.0000 4.6344 0.0000
# 3 27.9497 -0.8880 134.1133 0.0000 -29.1175 0.0000
# 4 0.0000 0.0000 0.0000 15.5593 0.0000 -2.3281
# 5 -22.2809 4.6344 -29.1175 0.0000 42.8924 0.0000
# 6 0.0000 0.0000 0.0000 -2.3281 0.0000 21.9085
#
#
#
# Elastic Compliance Matrix: (Units=1/GPa)
#
#
# Indices 1 2 3 4 5 6 
#
# 1 0.014650 0.002796 -0.001698 0.000000 0.006155 0.000000
# 2 0.002796 0.093154 -0.002153 0.000000 -0.010074 0.000000
# 3 -0.001698 -0.002153 0.008978 0.000000 0.005445 0.000000
# 4 0.000000 0.000000 0.000000 0.065309 0.000000 0.006940
# 5 0.006155 -0.010074 0.005445 0.000000 0.031297 0.000000
# 6 0.000000 0.000000 0.000000 0.006940 0.000000 0.046382
#
#
# Mechanical properties :
#
#
# Convention : Reuss Voigt Hill
#
# Bulk Modulus (GPa) = 8.72060 30.31270 19.51665
# Shear Modulus (GPa) = 16.66083 29.69020 23.17552
#
# Velocity S-wave (km/s) = 2.76784 3.69487 3.26443
# Velocity P-wave (km/s) = 3.77154 5.66931 4.81485
#
# Compressibility (1/GPa) = 0.11467105
#
# Stress axis : x y z
#
# Youngs Moduli (GPa) = 68.25878 10.73489 111.37969
#
# Poissons Ratio (x) = -0.03001 0.18915
# Poissons Ratio (y) = -0.19082 0.23981
# Poissons Ratio (z) = 0.11592 0.02311
#
# Static dielectric constant tensor:
#      x y z
#    x 1.803420 0.000000 -0.014730 
#    y 0.000000 1.942630 0.000000 
#    z -0.014730 0.000000 1.775190 
# 
# From -- ./inp_files/92711.got.cif
#   From: 2010.05.17/outbox.cif.g08.bks.cpg/sg12_47_cif.got.tgz:92711.got - 2010.06.03 13:09:07.
