data_PCOD9200473
_publ_section_title
;
Structure prediction by ZEFSAII (Michael W. Deem and Ramdas Pophale) SiO2 
 PCOD9200473
Probable space group: C 2/M
;
_chemical_formula_sum "Si O2"
_cell_formula_units_Z 50
_cell_length_a 9.739643
_cell_length_b 25.303511
_cell_length_c 12.555876
_cell_angle_alpha 90.000000
_cell_angle_beta 49.383710
_cell_angle_gamma 90.000000
_cell_volume 2348.886158
_symmetry_space_group_name_H-M "C 2/M"
_symmetry_group_IT_number 12
_symmetry_cell_setting 'monoclinic'
loop_
_space_group_symop_operation_xyz
x,y,z
-x,y,-z
-x,-y,-z
x,-y,z
1/2+x,1/2+y,z
1/2-x,1/2+y,-z
1/2-x,1/2-y,-z
1/2+x,1/2-y,z
loop_
_atom_site_type_symbol
_atom_site_label
_atom_site_fract_x
_atom_site_fract_y
_atom_site_fract_z
Si Si1 0.711255 0.349245 0.876612
Si Si2 0.195421 0.272238 0.354000
Si Si3 0.675680 0.361332 0.550528
Si Si4 0.203651 0.399763 0.958527
Si Si5 0.000000 0.500000 0.000000
Si Si6 0.876485 0.062667 0.240584
Si Si7 0.749906 0.654862 0.283955
O O1 0.806663 0.308177 0.750173
O O2 0.701752 0.405551 0.820479
O O3 0.500000 0.332965 0.000000
O O4 0.806331 0.357897 0.941031
O O5 0.282470 0.308916 0.401521
O O6 0.286731 0.217147 0.276773
O O7 0.000000 0.258711 0.500000
O O8 0.708855 0.411058 0.610596
O O9 0.464593 0.355239 0.628613
O O10 0.783778 0.366923 0.385686
O O11 0.413025 0.420094 0.857200
O O12 0.169686 0.372678 0.860751
O O13 0.092055 0.453195 0.025868
O O14 0.858325 0.000000 0.243832
#
# Coordination Sequence:
#
# PCOD9200473 Si02
#       7
#     8   8   8   8   2   8   8
#     4   9  21  39  61  88 115 149 199 247 286 350
#     4  11  21  36  64  89 115 154 194 245 296 339
#     4   9  19  36  55  88 115 144 199 235 288 355
#     4  10  22  38  54  83 115 152 199 233 293 351
#     4  12  24  40  50  78 122 160 186 236 290 354
#     4   9  17  35  65  83 104 147 201 251 282 333
#     4  10  20  37  58  82 116 156 189 239 286 353
#
# _framework density 21.286684999999999
#
# number of rings (size 3 to 8) (size 9 to 14) (size 15 to 20)
#    0.000    2.240    2.400    1.440    1.120    2.880 
#    2.880    1.600    0.000    1.920    0.000    0.000 
#    0.000    0.000    0.000    0.000    0.000    0.000 
#
# Total GULP energy -139288.169292 kJ/mol
# GULP energy per Si atom -5571.526772 kJ/mol
# Density = 2.123824 g / cm^3
# Si number density = 21.286685 Si / 1000 Ang^3
#
#
#
# Elastic Constant Matrix: (Units=GPa)
#
#
# Indices 1 2 3 4 5 6 
#
# 1 51.8116 1.7685 27.4162 0.0000 21.5208 0.0000
# 2 1.7685 108.4194 60.9176 0.0000 12.3304 0.0000
# 3 27.4162 60.9176 122.6094 0.0000 36.5001 0.0000
# 4 0.0000 0.0000 0.0000 9.7691 0.0000 0.1707
# 5 21.5208 12.3304 36.5001 0.0000 29.4711 0.0000
# 6 0.0000 0.0000 0.0000 0.1707 0.0000 13.3159
#
#
#
# Elastic Compliance Matrix: (Units=1/GPa)
#
#
# Indices 1 2 3 4 5 6 
#
# 1 0.028316 0.002851 -0.001960 0.000000 -0.019443 0.000000
# 2 0.002851 0.013386 -0.007922 0.000000 0.002129 0.000000
# 3 -0.001960 -0.007922 0.017610 0.000000 -0.017065 0.000000
# 4 0.000000 0.000000 0.000000 0.102387 0.000000 -0.001313
# 5 -0.019443 0.002129 -0.017065 0.000000 0.068373 0.000000
# 6 0.000000 0.000000 0.000000 -0.001313 0.000000 0.075115
#
#
# Mechanical properties :
#
#
# Convention : Reuss Voigt Hill
#
# Bulk Modulus (GPa) = 22.09950 51.44942 36.77446
# Shear Modulus (GPa) = 14.95514 23.36044 19.15779
#
# Velocity S-wave (km/s) = 2.65346 3.31633 3.00324
# Velocity P-wave (km/s) = 4.44884 6.23589 5.41657
#
# Compressibility (1/GPa) = 0.04524990
#
# Stress axis : x y z
#
# Youngs Moduli (GPa) = 35.31515 74.70545 56.78501
#
# Poissons Ratio (x) = -0.21296 0.11130
# Poissons Ratio (y) = -0.10067 0.44985
# Poissons Ratio (z) = 0.06922 0.59181
#
# Static dielectric constant tensor:
#      x y z
#    x 1.840540 0.000000 -0.040170 
#    y 0.000000 1.685640 0.000000 
#    z -0.040170 0.000000 1.831730 
# 
# From -- ./inp_files/124183.got.cif
#   From: 2010.05.17/outbox.cif.g08.bks.cpg/sg12_63_cif.got.tgz:124183.got - 2010.06.03 13:09:07.
