data_PCOD9200637
_publ_section_title
;
Structure prediction by ZEFSAII (Michael W. Deem and Ramdas Pophale) SiO2 
 PCOD9200637
Probable space group: C 2/M
;
_chemical_formula_sum "Si O2"
_cell_formula_units_Z 56
_cell_length_a 19.086689
_cell_length_b 8.711637
_cell_length_c 27.565347
_cell_angle_alpha 90.000000
_cell_angle_beta 41.649817
_cell_angle_gamma 90.000000
_cell_volume 3046.060910
_symmetry_space_group_name_H-M "C 2/M"
_symmetry_group_IT_number 12
_symmetry_cell_setting 'monoclinic'
loop_
_space_group_symop_operation_xyz
x,y,z
-x,y,-z
-x,-y,-z
x,-y,z
1/2+x,1/2+y,z
1/2-x,1/2+y,-z
1/2-x,1/2-y,-z
1/2+x,1/2-y,z
loop_
_atom_site_type_symbol
_atom_site_label
_atom_site_fract_x
_atom_site_fract_y
_atom_site_fract_z
Si Si1 0.864743 0.318745 0.434358
Si Si2 0.269519 0.318788 0.737090
Si Si3 0.039220 0.681070 0.426787
Si Si4 0.065339 0.178252 0.797047
Si Si5 0.817342 0.183766 0.921194
Si Si6 0.694911 0.177094 0.175115
Si Si7 0.022367 0.825538 0.712707
O O1 0.861689 0.500000 0.422854
O O2 0.750000 0.250000 0.500000
O O3 0.939432 0.305108 0.442550
O O4 0.914075 0.213922 0.367288
O O5 0.284546 0.500000 0.731848
O O6 0.360212 0.253349 0.653668
O O7 0.153273 0.276435 0.778029
O O8 0.276262 0.250854 0.788118
O O9 0.064521 0.500000 0.419718
O O10 0.000000 0.740011 0.500000
O O11 0.941780 0.225075 0.864280
O O12 0.088648 0.183491 0.727473
O O13 0.073131 0.000000 0.808931
O O14 0.773473 0.243887 0.892112
O O15 0.813375 0.000000 0.922658
O O16 0.750000 0.250000 0.000000
O O17 0.569263 0.200733 0.238110
O O18 0.725799 0.000000 0.158804
O O19 0.977396 0.000000 0.734670
#
# Coordination Sequence:
#
# PCOD9200637 Si02
#       7
#     8   8   8   8   8   8   8
#     4  11  23  37  56  81 112 152 195 248 303 357
#     4  12  24  38  60  89 121 156 201 254 300 350
#     4  10  23  42  60  80 113 160 204 246 306 364
#     4   9  21  39  60  86 120 158 195 235 293 355
#     4  10  21  40  66  96 127 160 196 242 294 351
#     4  11  21  37  62  88 118 158 198 239 292 354
#     4  10  20  37  59  83 112 149 195 248 297 352
#
# _framework density 18.384398999999998
#
# number of rings (size 3 to 8) (size 9 to 14) (size 15 to 20)
#    0.000    1.571    1.429    4.714    2.000    4.286 
#    0.000    0.714    0.000    4.286    0.000    0.000 
#    0.000    0.000    0.000    0.000    0.000    0.000 
#
# Total GULP energy -156130.346729 kJ/mol
# GULP energy per Si atom -5576.083812 kJ/mol
# Density = 1.834256 g / cm^3
# Si number density = 18.384399 Si / 1000 Ang^3
#
#
#
# Elastic Constant Matrix: (Units=GPa)
#
#
# Indices 1 2 3 4 5 6 
#
# 1 107.4465 56.9332 58.3083 0.0001 15.8975 0.0005
# 2 56.9332 95.9483 41.5821 0.0002 9.4352 0.0006
# 3 58.3083 41.5821 107.8961 0.0000 32.2730 0.0000
# 4 0.0001 0.0002 0.0000 28.4080 0.0000 0.7887
# 5 15.8975 9.4352 32.2730 0.0000 28.2726 0.0001
# 6 0.0005 0.0006 0.0000 0.7887 0.0001 31.8949
#
#
#
# Elastic Compliance Matrix: (Units=1/GPa)
#
#
# Indices 1 2 3 4 5 6 
#
# 1 0.016374 -0.007052 -0.006197 0.000000 0.000220 0.000000
# 2 -0.007052 0.015625 -0.002790 0.000000 0.001935 0.000000
# 3 -0.006197 -0.002790 0.018785 0.000000 -0.017028 0.000000
# 4 0.000000 0.000000 0.000000 0.035226 0.000000 -0.000871
# 5 0.000220 0.001935 -0.017028 0.000000 0.054038 0.000000
# 6 0.000000 0.000000 0.000000 -0.000871 0.000000 0.031375
#
#
# Mechanical properties :
#
#
# Convention : Reuss Voigt Hill
#
# Bulk Modulus (GPa) = 53.45343 69.43757 61.44550
# Shear Modulus (GPa) = 23.83960 28.01291 25.92625
#
# Velocity S-wave (km/s) = 3.60492 3.90774 3.75938
# Velocity P-wave (km/s) = 6.81658 7.62970 7.23458
#
# Compressibility (1/GPa) = 0.01870787
#
# Stress axis : x y z
#
# Youngs Moduli (GPa) = 61.07313 63.99817 53.23300
#
# Poissons Ratio (x) = 0.45131 0.32987
# Poissons Ratio (y) = 0.43068 0.14851
# Poissons Ratio (z) = 0.37845 0.17854
#
# Static dielectric constant tensor:
#      x y z
#    x 1.635570 0.000000 0.013820 
#    y 0.000000 1.643710 0.000000 
#    z 0.013820 0.000000 1.669040 
# 
# From -- ./inp_files/363025.got.cif
#   From: 2010.05.17/outbox.cif.g08.bks.cpg/sg12_182_cif.got.tgz:363025.got - 2010.06.03 13:09:07.
