data_PCOD9200217
_publ_section_title
;
Structure prediction by ZEFSAII (Michael W. Deem and Ramdas Pophale) SiO2 
 PCOD9200217
Probable space group: C 2/M
;
_chemical_formula_sum "Si O2"
_cell_formula_units_Z 58
_cell_length_a 17.127902
_cell_length_b 12.330953
_cell_length_c 21.505275
_cell_angle_alpha 90.000000
_cell_angle_beta 39.959330
_cell_angle_gamma 90.000000
_cell_volume 2917.061990
_symmetry_space_group_name_H-M "C 2/M"
_symmetry_group_IT_number 12
_symmetry_cell_setting 'monoclinic'
loop_
_space_group_symop_operation_xyz
x,y,z
-x,y,-z
-x,-y,-z
x,-y,z
1/2+x,1/2+y,z
1/2-x,1/2+y,-z
1/2-x,1/2-y,-z
1/2+x,1/2-y,z
loop_
_atom_site_type_symbol
_atom_site_label
_atom_site_fract_x
_atom_site_fract_y
_atom_site_fract_z
Si Si1 0.540441 0.130824 0.045562
Si Si2 0.876752 0.379592 0.389527
Si Si3 0.844212 0.883323 0.711047
Si Si4 0.819031 0.124606 0.874894
Si Si5 0.500000 0.000000 0.500000
Si Si6 0.810222 0.697198 0.638931
Si Si7 0.448293 0.756711 0.222823
Si Si8 0.392587 0.680656 0.468758
O O1 0.463545 0.185293 0.147203
O O2 0.531409 0.000000 0.054401
O O3 0.500000 0.161534 0.000000
O O4 0.681290 0.160942 0.972091
O O5 0.918522 0.500000 0.380963
O O6 0.920400 0.343380 0.294675
O O7 0.729958 0.374568 0.481136
O O8 0.917171 0.288825 0.413327
O O9 0.828053 0.876103 0.794582
O O10 0.804440 0.771003 0.703975
O O11 0.987168 0.887508 0.609341
O O12 0.788432 0.000000 0.724228
O O13 0.927788 0.195383 0.835763
O O14 0.832176 0.000000 0.888371
O O15 0.600600 0.904644 0.418154
O O16 0.669510 0.677568 0.705927
O O17 0.862235 0.780885 0.556086
#
# Coordination Sequence:
#
# PCOD9200217 Si02
#       8
#     8   8   8   8   2   8   8   8
#     4  10  21  40  68  99 127 159 199 261 323 377
#     4  10  21  34  55  84 121 159 205 260 309 376
#     4  11  21  39  61  89 125 162 214 268 316 376
#     4  10  22  39  63  95 129 162 204 257 322 377
#     4  12  24  44  54  84 130 172 222 256 306 388
#     4  11  25  38  61  87 122 175 218 260 320 367
#     4  11  22  40  62  93 124 163 212 257 314 380
#     4  10  20  37  51  85 116 158 211 255 318 363
#
# _framework density 19.883019000000001
#
# number of rings (size 3 to 8) (size 9 to 14) (size 15 to 20)
#    0.000    1.517    2.759    2.069    1.931    4.966 
#    0.000    0.000    0.000    0.414    0.000    0.000 
#    0.000    0.000    0.000    0.000    0.000    0.000 
#
# Total GULP energy -161617.961368 kJ/mol
# GULP energy per Si atom -5573.033151 kJ/mol
# Density = 1.983776 g / cm^3
# Si number density = 19.883019 Si / 1000 Ang^3
#
#
#
# Elastic Constant Matrix: (Units=GPa)
#
#
# Indices 1 2 3 4 5 6 
#
# 1 58.6222 32.5003 28.8840 0.0000 -16.4211 0.0000
# 2 32.5003 95.7982 12.8232 0.0000 -14.8866 0.0000
# 3 28.8840 12.8232 99.2523 0.0000 -17.3567 0.0000
# 4 0.0000 0.0000 0.0000 54.3754 0.0000 25.5053
# 5 -16.4211 -14.8866 -17.3567 0.0000 41.9752 0.0000
# 6 0.0000 0.0000 0.0000 25.5053 0.0000 28.2048
#
#
#
# Elastic Compliance Matrix: (Units=1/GPa)
#
#
# Indices 1 2 3 4 5 6 
#
# 1 0.025055 -0.006978 -0.005507 0.000000 0.005050 0.000000
# 2 -0.006978 0.013050 0.000729 0.000000 0.002200 0.000000
# 3 -0.005507 0.000729 0.012129 0.000000 0.003120 0.000000
# 4 0.000000 0.000000 0.000000 0.031937 0.000000 -0.028881
# 5 0.005050 0.002200 0.003120 0.000000 0.027869 0.000000
# 6 0.000000 0.000000 0.000000 -0.028881 0.000000 0.061571
#
#
# Mechanical properties :
#
#
# Convention : Reuss Voigt Hill
#
# Bulk Modulus (GPa) = 37.42045 44.67639 41.04842
# Shear Modulus (GPa) = 24.50603 36.87543 30.69073
#
# Velocity S-wave (km/s) = 3.51452 4.31120 3.93309
# Velocity P-wave (km/s) = 5.94393 6.87752 6.42770
#
# Compressibility (1/GPa) = 0.02672336
#
# Stress axis : x y z
#
# Youngs Moduli (GPa) = 39.91226 76.62682 82.44553
#
# Poissons Ratio (x) = 0.53472 0.45400
# Poissons Ratio (y) = 0.27852 -0.06014
# Poissons Ratio (z) = 0.21979 -0.05589
#
# Static dielectric constant tensor:
#      x y z
#    x 1.753330 0.000000 -0.013810 
#    y 0.000000 2.025600 0.000000 
#    z -0.013810 0.000000 1.696310 
# 
# From -- ./inp_files/315963.got.cif
#   From: 2010.05.17/outbox.cif.g08.bks.cpg/sg12_158_cif.got.tgz:315963.got - 2010.06.03 13:09:07.
