data_PCOD9200877
_publ_section_title
;
Structure prediction by ZEFSAII (Michael W. Deem and Ramdas Pophale) SiO2 
 PCOD9200877
Probable space group: C 2/M
;
_chemical_formula_sum "Si O2"
_cell_formula_units_Z 48
_cell_length_a 20.997466
_cell_length_b 7.696565
_cell_length_c 25.161991
_cell_angle_alpha 90.000000
_cell_angle_beta 146.873891
_cell_angle_gamma 90.000000
_cell_volume 2222.214608
_symmetry_space_group_name_H-M "C 2/M"
_symmetry_group_IT_number 12
_symmetry_cell_setting 'monoclinic'
loop_
_space_group_symop_operation_xyz
x,y,z
-x,y,-z
-x,-y,-z
x,-y,z
1/2+x,1/2+y,z
1/2-x,1/2+y,-z
1/2-x,1/2-y,-z
1/2+x,1/2-y,z
loop_
_atom_site_type_symbol
_atom_site_label
_atom_site_fract_x
_atom_site_fract_y
_atom_site_fract_z
Si Si1 0.871708 0.712187 0.926312
Si Si2 0.190343 0.211092 0.708052
Si Si3 0.067657 0.295287 0.435689
Si Si4 0.534726 0.206033 0.293251
Si Si5 0.222422 0.299465 0.343992
Si Si6 0.225564 0.206842 0.922043
O O1 0.875600 0.500000 0.929327
O O2 0.776083 0.762589 0.815662
O O3 0.825448 0.770419 0.951436
O O4 0.000000 0.773056 0.000000
O O5 0.241209 0.275615 0.687481
O O6 0.060044 0.273430 0.628395
O O7 0.185189 0.000000 0.703207
O O8 0.095815 0.500000 0.454236
O O9 0.062626 0.225550 0.371707
O O10 0.165203 0.206038 0.539514
O O11 0.616625 0.279879 0.303951
O O12 0.399855 0.227495 0.184840
O O13 0.559153 0.000000 0.313061
O O14 0.189748 0.500000 0.309870
O O15 0.221855 0.000000 0.914489
O O16 0.250000 0.250000 0.000000
#
# Coordination Sequence:
#
# PCOD9200877 Si02
#       6
#     8   8   8   8   8   8
#     4   9  19  36  61  88 111 145 193 239 281 331
#     4  10  20  37  60  85 113 149 197 241 280 337
#     4  11  22  37  58  84 120 155 188 238 295 347
#     4  10  22  40  60  85 117 153 193 239 287 338
#     4  10  22  37  59  86 114 153 200 243 277 333
#     4  11  23  39  63  89 117 151 188 237 288 344
#
# _framework density 21.600075
#
# number of rings (size 3 to 8) (size 9 to 14) (size 15 to 20)
#    0.000    1.833    1.667    2.000    2.333    4.000 
#    0.000    0.000    0.000    2.500    0.000    0.000 
#    0.000    0.000    0.000    0.000    0.000    0.000 
#
# Total GULP energy -134140.810726 kJ/mol
# GULP energy per Si atom -5589.200447 kJ/mol
# Density = 2.155091 g / cm^3
# Si number density = 21.600075 Si / 1000 Ang^3
#
#
#
# Elastic Constant Matrix: (Units=GPa)
#
#
# Indices 1 2 3 4 5 6 
#
# 1 184.1655 -0.2255 42.1458 0.0000 3.1104 0.0000
# 2 -0.2255 39.0952 -18.0768 -0.0001 -0.5709 0.0001
# 3 42.1458 -18.0768 63.8128 0.0000 6.7718 0.0000
# 4 0.0000 -0.0001 0.0000 -0.4698 0.0000 6.1192
# 5 3.1104 -0.5709 6.7718 0.0000 46.0883 0.0000
# 6 0.0000 0.0001 0.0000 6.1192 0.0000 17.8890
#
#
#
# Elastic Compliance Matrix: (Units=1/GPa)
#
#
# Indices 1 2 3 4 5 6 
#
# 1 0.006570 -0.002276 -0.005012 0.000000 0.000265 0.000000
# 2 -0.002276 0.030257 0.010177 -0.000002 -0.000967 0.000001
# 3 -0.005012 0.010177 0.022160 -0.000001 -0.002792 0.000000
# 4 0.000000 -0.000002 -0.000001 -0.390164 0.000000 0.133462
# 5 0.000265 -0.000967 -0.002792 0.000000 0.022078 0.000000
# 6 0.000000 0.000001 0.000000 0.133462 0.000000 0.010247
#
#
# Mechanical properties :
#
#
# Convention : Reuss Voigt Hill
#
# Bulk Modulus (GPa) = 15.44042 37.19563 26.31802
# Shear Modulus (GPa) = -17.66512 30.25015 6.29251
#
# Velocity S-wave (km/s) = -2.86287 3.74634 1.70866
# Velocity P-wave (km/s) = 1.94015 5.99758 4.01290
#
# Compressibility (1/GPa) = 0.06476507
#
# Stress axis : x y z
#
# Youngs Moduli (GPa) = 152.21772 33.05047 45.12662
#
# Poissons Ratio (x) = 0.07521 0.22616
# Poissons Ratio (y) = 0.34637 -0.45923
# Poissons Ratio (z) = 0.76286 -0.33634
#
# Static dielectric constant tensor:
#      x y z
#    x 1.804920 0.000000 0.001810 
#    y 0.000000 1.839810 0.000000 
#    z 0.001810 0.000000 1.701770 
# 
# From -- ./inp_files/365342.got.cif
#   From: 2010.05.17/outbox.cif.g08.bks.cpg/sg12_183_cif.got.tgz:365342.got - 2010.06.03 13:09:07.
