data_PCOD9200541
_publ_section_title
;
Structure prediction by ZEFSAII (Michael W. Deem and Ramdas Pophale) SiO2 
 PCOD9200541
Probable space group: C 2/M
;
_chemical_formula_sum "Si O2"
_cell_formula_units_Z 64
_cell_length_a 26.411001
_cell_length_b 20.326669
_cell_length_c 17.998323
_cell_angle_alpha 90.000000
_cell_angle_beta 159.299264
_cell_angle_gamma 90.000000
_cell_volume 3415.516542
_symmetry_space_group_name_H-M "C 2/M"
_symmetry_group_IT_number 12
_symmetry_cell_setting 'monoclinic'
loop_
_space_group_symop_operation_xyz
x,y,z
-x,y,-z
-x,-y,-z
x,-y,z
1/2+x,1/2+y,z
1/2-x,1/2+y,-z
1/2-x,1/2-y,-z
1/2+x,1/2-y,z
loop_
_atom_site_type_symbol
_atom_site_label
_atom_site_fract_x
_atom_site_fract_y
_atom_site_fract_z
Si Si1 0.247767 0.424508 0.118097
Si Si2 0.360822 0.648138 0.407854
Si Si3 0.815866 0.075194 0.499080
Si Si4 0.138947 0.244504 0.142367
Si Si5 0.576203 0.927198 0.277762
Si Si6 0.165033 0.286685 0.450597
Si Si7 0.173218 0.179336 0.893314
Si Si8 0.956054 0.175580 0.133441
O O1 0.282797 0.500000 0.145844
O O2 0.354241 0.394422 0.324951
O O3 0.247095 0.375770 0.046711
O O4 0.093567 0.425036 0.947300
O O5 0.331840 0.601617 0.438466
O O6 0.228347 0.699002 0.223460
O O7 0.513604 0.681762 0.636570
O O8 0.651569 0.078756 0.300869
O O9 0.916364 0.122248 0.687076
O O10 0.863070 0.000000 0.569644
O O11 0.247619 0.220901 0.354516
O O12 0.095480 0.191136 0.020374
O O13 0.000000 0.266110 0.000000
O O14 0.635415 0.862870 0.398787
O O15 0.621430 0.000000 0.368147
O O16 0.250000 0.250000 0.500000
O O17 0.019716 0.244835 0.250976
O O18 0.154889 0.156540 0.954060
O O19 0.250000 0.250000 0.000000
#
# Coordination Sequence:
#
# PCOD9200541 Si02
#       8
#     8   8   8   8   8   8   8   8
#     4  11  25  40  63  91 127 174 216 264 328 391
#     4  11  23  36  61  96 123 164 208 261 331 383
#     4  10  20  37  58  86 129 166 203 257 323 388
#     4  12  22  34  63  99 130 162 202 255 326 387
#     4  10  21  37  59  88 125 169 205 257 325 390
#     4  12  19  37  61  90 131 163 205 253 316 387
#     4  11  23  42  59  82 123 165 217 267 306 363
#     4  11  23  38  59  92 117 166 213 259 317 371
#
# _framework density 18.738015000000001
#
# number of rings (size 3 to 8) (size 9 to 14) (size 15 to 20)
#    0.000    1.000    5.000    3.000    1.750    3.000 
#    0.000    2.500    0.000    2.250    0.000    1.750 
#    0.000    0.000    0.000    0.000    0.000    0.000 
#
# Total GULP energy -178471.227149 kJ/mol
# GULP energy per Si atom -5577.225848 kJ/mol
# Density = 1.869537 g / cm^3
# Si number density = 18.738015 Si / 1000 Ang^3
#
#
#
# Elastic Constant Matrix: (Units=GPa)
#
#
# Indices 1 2 3 4 5 6 
#
# 1 102.3940 49.7682 51.4274 0.0000 0.1387 0.0000
# 2 49.7682 132.9203 33.8228 0.0000 -2.3020 0.0000
# 3 51.4274 33.8228 55.8598 0.0000 -6.2842 0.0000
# 4 0.0000 0.0000 0.0000 27.5125 0.0000 -7.2641
# 5 0.1387 -2.3020 -6.2842 0.0000 39.0648 0.0000
# 6 0.0000 0.0000 0.0000 -7.2641 0.0000 55.6552
#
#
#
# Elastic Compliance Matrix: (Units=1/GPa)
#
#
# Indices 1 2 3 4 5 6 
#
# 1 0.019562 -0.003202 -0.016396 0.000000 -0.002896 0.000000
# 2 -0.003202 0.009422 -0.002743 0.000000 0.000125 0.000000
# 3 -0.016396 -0.002743 0.035285 0.000000 0.005573 0.000000
# 4 0.000000 0.000000 0.000000 0.037644 0.000000 0.004913
# 5 -0.002896 0.000125 0.005573 0.000000 0.026513 0.000000
# 6 0.000000 0.000000 0.000000 0.004913 0.000000 0.018609
#
#
# Mechanical properties :
#
#
# Convention : Reuss Voigt Hill
#
# Bulk Modulus (GPa) = 51.05664 62.35675 56.70670
# Shear Modulus (GPa) = 25.22112 34.85688 30.03900
#
# Velocity S-wave (km/s) = 3.67275 4.31771 4.00822
# Velocity P-wave (km/s) = 6.72995 7.62937 7.19373
#
# Compressibility (1/GPa) = 0.01958609
#
# Stress axis : x y z
#
# Youngs Moduli (GPa) = 51.12071 106.12962 28.34069
#
# Poissons Ratio (x) = 0.33985 0.46468
# Poissons Ratio (y) = 0.16370 0.07774
# Poissons Ratio (z) = 0.83819 0.29111
#
# Static dielectric constant tensor:
#      x y z
#    x 1.718710 0.000000 0.055630 
#    y 0.000000 1.665380 0.000000 
#    z 0.055630 0.000000 1.672340 
# 
# From -- ./inp_files/294193.got.cif
#   From: 2010.05.17/outbox.cif.g08.bks.cpg/sg12_148_cif.got.tgz:294193.got - 2010.06.03 13:09:07.
