data_PCOD9200085
_publ_section_title
;
Structure prediction by ZEFSAII (Michael W. Deem and Ramdas Pophale) SiO2 
 PCOD9200085
Probable space group: C 2/M
;
_chemical_formula_sum "Si O2"
_cell_formula_units_Z 56
_cell_length_a 13.706398
_cell_length_b 19.662933
_cell_length_c 11.705555
_cell_angle_alpha 90.000000
_cell_angle_beta 55.259270
_cell_angle_gamma 90.000000
_cell_volume 2592.373810
_symmetry_space_group_name_H-M "C 2/M"
_symmetry_group_IT_number 12
_symmetry_cell_setting 'monoclinic'
loop_
_space_group_symop_operation_xyz
x,y,z
-x,y,-z
-x,-y,-z
x,-y,z
1/2+x,1/2+y,z
1/2-x,1/2+y,-z
1/2-x,1/2-y,-z
1/2+x,1/2-y,z
loop_
_atom_site_type_symbol
_atom_site_label
_atom_site_fract_x
_atom_site_fract_y
_atom_site_fract_z
Si Si1 0.787041 0.078526 0.307187
Si Si2 0.508683 0.676484 0.120013
Si Si3 0.687374 0.711791 0.433732
Si Si4 0.954077 0.250926 0.680845
Si Si5 0.274246 0.420373 0.058278
Si Si6 0.616345 0.121026 0.623992
Si Si7 0.943583 0.578027 0.926331
O O1 0.732046 0.084972 0.217415
O O2 0.690151 0.089558 0.470413
O O3 0.887888 0.137589 0.240051
O O4 0.833430 0.000000 0.284991
O O5 0.559590 0.727954 0.180010
O O6 0.500000 0.709264 0.000000
O O7 0.602710 0.616742 0.038648
O O8 0.750000 0.750000 0.500000
O O9 0.555113 0.697857 0.567888
O O10 0.656599 0.747930 0.332855
O O11 0.781647 0.651833 0.359951
O O12 0.026949 0.321513 0.632864
O O13 0.290316 0.500000 0.025120
O O14 0.176688 0.389591 0.039539
O O15 0.534301 0.076897 0.760379
O O16 0.913773 0.500000 0.976764
O O17 0.000000 0.611054 0.000000
#
# Coordination Sequence:
#
# PCOD9200085 Si02
#       7
#     8   8   8   8   8   8   8
#     4  10  20  36  63  95 119 151 202 256 309 358
#     4  10  20  37  61  89 125 160 199 249 304 366
#     4   9  20  37  58  85 116 155 197 244 301 353
#     4  10  21  38  59  89 119 160 200 245 306 363
#     4   9  20  38  60  86 119 160 202 249 303 361
#     4  11  22  39  64  88 122 154 203 254 303 358
#     4  10  23  41  58  83 120 163 201 242 304 366
#
# _framework density 21.601821999999999
#
# number of rings (size 3 to 8) (size 9 to 14) (size 15 to 20)
#    0.000    2.143    1.429    0.857    2.000    7.429 
#    2.571    2.857    0.000    0.857    0.000    0.000 
#    0.000    0.000    0.000    0.000    0.000    0.000 
#
# Total GULP energy -155983.478497 kJ/mol
# GULP energy per Si atom -5570.838518 kJ/mol
# Density = 2.155266 g / cm^3
# Si number density = 21.601822 Si / 1000 Ang^3
#
#
#
# Elastic Constant Matrix: (Units=GPa)
#
#
# Indices 1 2 3 4 5 6 
#
# 1 119.2180 19.4759 36.0411 0.0000 35.7253 0.0000
# 2 19.4759 43.5367 11.0347 0.0000 15.4923 0.0000
# 3 36.0411 11.0347 100.7567 0.0000 28.4829 0.0000
# 4 0.0000 0.0000 0.0000 19.9149 0.0000 -2.1935
# 5 35.7253 15.4923 28.4829 0.0000 40.2748 0.0000
# 6 0.0000 0.0000 0.0000 -2.1935 0.0000 12.6854
#
#
#
# Elastic Compliance Matrix: (Units=1/GPa)
#
#
# Indices 1 2 3 4 5 6 
#
# 1 0.011735 -0.001787 -0.001567 0.000000 -0.008614 0.000000
# 2 -0.001787 0.026884 0.000213 0.000000 -0.008906 0.000000
# 3 -0.001567 0.000213 0.012614 0.000000 -0.007613 0.000000
# 4 0.000000 0.000000 0.000000 0.051189 0.000000 0.008851
# 5 -0.008614 -0.008906 -0.007613 0.000000 0.041280 0.000000
# 6 0.000000 0.000000 0.000000 0.008851 0.000000 0.080361
#
#
# Mechanical properties :
#
#
# Convention : Reuss Voigt Hill
#
# Bulk Modulus (GPa) = 22.24680 44.06834 33.15757
# Shear Modulus (GPa) = 20.38078 27.70567 24.04323
#
# Velocity S-wave (km/s) = 3.07494 3.58517 3.33981
# Velocity P-wave (km/s) = 4.78831 6.13046 5.50047
#
# Compressibility (1/GPa) = 0.04495028
#
# Stress axis : x y z
#
# Youngs Moduli (GPa) = 85.21629 37.19678 79.27603
#
# Poissons Ratio (x) = 0.06648 0.12422
# Poissons Ratio (y) = 0.15230 -0.01687
# Poissons Ratio (z) = 0.13352 -0.00791
#
# Static dielectric constant tensor:
#      x y z
#    x 1.823380 0.000000 0.025890 
#    y 0.000000 1.847750 0.000000 
#    z 0.025890 0.000000 1.825270 
# 
# From -- ./inp_files/53139.got.cif
#   From: 2010.05.17/outbox.cif.g08.bks.cpg/sg12_27_cif.got.tgz:53139.got - 2010.06.03 13:09:07.
