data_PCOD9200410
_publ_section_title
;
Structure prediction by ZEFSAII (Michael W. Deem and Ramdas Pophale) SiO2 
 PCOD9200410
Probable space group: C 2/M
;
_chemical_formula_sum "Si O2"
_cell_formula_units_Z 56
_cell_length_a 13.734118
_cell_length_b 17.984454
_cell_length_c 18.344050
_cell_angle_alpha 90.000000
_cell_angle_beta 142.271964
_cell_angle_gamma 90.000000
_cell_volume 2772.577779
_symmetry_space_group_name_H-M "C 2/M"
_symmetry_group_IT_number 12
_symmetry_cell_setting 'monoclinic'
loop_
_space_group_symop_operation_xyz
x,y,z
-x,y,-z
-x,-y,-z
x,-y,z
1/2+x,1/2+y,z
1/2-x,1/2+y,-z
1/2-x,1/2-y,-z
1/2+x,1/2-y,z
loop_
_atom_site_type_symbol
_atom_site_label
_atom_site_fract_x
_atom_site_fract_y
_atom_site_fract_z
Si Si1 0.987976 0.918536 0.906184
Si Si2 0.188716 0.356240 0.909128
Si Si3 0.765613 0.916284 0.224377
Si Si4 0.836369 0.639745 0.680086
Si Si5 0.647356 0.585906 0.427355
Si Si6 0.764779 0.297157 0.910797
Si Si7 0.890362 0.812229 0.727990
O O1 0.893429 0.854964 0.806892
O O2 0.922565 0.000000 0.848309
O O3 0.173831 0.914565 0.993032
O O4 0.000000 0.912541 0.000000
O O5 0.274764 0.291749 0.912256
O O6 0.022537 0.379450 0.776759
O O7 0.145754 0.321136 0.962627
O O8 0.720728 0.902002 0.281294
O O9 0.695408 0.850630 0.132226
O O10 0.956914 0.912158 0.328742
O O11 0.715909 0.000000 0.172708
O O12 0.734367 0.616879 0.550123
O O13 0.825140 0.728659 0.687769
O O14 0.690692 0.500000 0.440529
O O15 0.684700 0.636521 0.379298
O O16 0.576929 0.306977 0.816593
#
# Coordination Sequence:
#
# PCOD9200410 Si02
#       7
#     8   8   8   8   8   8   8
#     4  10  21  36  58  83 104 137 185 231 277 324
#     4   9  19  35  53  78 110 142 181 223 272 327
#     4  10  21  35  54  82 113 147 185 223 273 329
#     4  11  21  33  54  86 113 145 181 222 272 331
#     4  10  20  37  58  78 112 150 188 228 267 324
#     4   8  17  35  53  76 107 144 181 217 269 329
#     4   9  19  36  57  80 105 145 187 226 267 324
#
# _framework density 20.197811000000002
#
# number of rings (size 3 to 8) (size 9 to 14) (size 15 to 20)
#    0.000    2.429    0.000    2.571    2.000    6.286 
#    0.000    0.714    0.000    0.000    0.000    3.000 
#    0.000    0.000    0.000    0.000    0.000    0.000 
#
# Total GULP energy -156170.214028 kJ/mol
# GULP energy per Si atom -5577.507644 kJ/mol
# Density = 2.015184 g / cm^3
# Si number density = 20.197811 Si / 1000 Ang^3
#
#
#
# Elastic Constant Matrix: (Units=GPa)
#
#
# Indices 1 2 3 4 5 6 
#
# 1 30.6354 8.3266 3.6833 0.0001 -12.5927 0.0000
# 2 8.3266 82.1065 29.6988 0.0002 -8.4772 0.0001
# 3 3.6833 29.6988 75.7564 0.0003 -17.4949 0.0001
# 4 0.0001 0.0002 0.0003 0.3492 0.0001 -1.3441
# 5 -12.5927 -8.4772 -17.4949 0.0001 23.8213 0.0000
# 6 0.0000 0.0001 0.0001 -1.3441 0.0000 20.6760
#
#
#
# Elastic Compliance Matrix: (Units=1/GPa)
#
#
# Indices 1 2 3 4 5 6 
#
# 1 0.043502 -0.003663 0.005215 -0.000022 0.025523 -0.000001
# 2 -0.003663 0.014527 -0.005744 -0.000002 -0.000986 0.000000
# 3 0.005215 -0.005744 0.018501 -0.000023 0.014300 -0.000002
# 4 -0.000022 -0.000002 -0.000023 3.818676 -0.000043 0.248238
# 5 0.025523 -0.000986 0.014300 -0.000043 0.065623 -0.000003
# 6 -0.000001 0.000000 -0.000002 0.248238 -0.000003 0.064502
#
#
# Mechanical properties :
#
#
# Convention : Reuss Voigt Hill
#
# Bulk Modulus (GPa) = 14.67455 30.21286 22.44371
# Shear Modulus (GPa) = 1.23261 18.75528 9.99395
#
# Velocity S-wave (km/s) = 0.78204 3.05057 2.22683
# Velocity P-wave (km/s) = 2.84546 5.23440 4.21281
#
# Compressibility (1/GPa) = 0.06814518
#
# Stress axis : x y z
#
# Youngs Moduli (GPa) = 22.98760 68.83811 54.05084
#
# Poissons Ratio (x) = 0.25214 -0.28188
# Poissons Ratio (y) = 0.08420 0.31049
# Poissons Ratio (z) = -0.11988 0.39544
#
# Static dielectric constant tensor:
#      x y z
#    x 1.728400 0.000000 -0.002140 
#    y 0.000000 1.782230 0.000000 
#    z -0.002140 0.000000 1.692970 
# 
# From -- ./inp_files/271434.got.cif
#   From: 2010.05.17/outbox.cif.g08.bks.cpg/sg12_136_cif.got.tgz:271434.got - 2010.06.03 13:09:07.
