data_PCOD9200754
_publ_section_title
;
Structure prediction by ZEFSAII (Michael W. Deem and Ramdas Pophale) SiO2 
 PCOD9200754
Probable space group: C 2/M
;
_chemical_formula_sum "Si O2"
_cell_formula_units_Z 48
_cell_length_a 20.124342
_cell_length_b 15.350095
_cell_length_c 9.358991
_cell_angle_alpha 90.000000
_cell_angle_beta 48.425018
_cell_angle_gamma 90.000000
_cell_volume 2162.790377
_symmetry_space_group_name_H-M "C 2/M"
_symmetry_group_IT_number 12
_symmetry_cell_setting 'monoclinic'
loop_
_space_group_symop_operation_xyz
x,y,z
-x,y,-z
-x,-y,-z
x,-y,z
1/2+x,1/2+y,z
1/2-x,1/2+y,-z
1/2-x,1/2-y,-z
1/2+x,1/2-y,z
loop_
_atom_site_type_symbol
_atom_site_label
_atom_site_fract_x
_atom_site_fract_y
_atom_site_fract_z
Si Si1 0.769695 0.822858 0.271408
Si Si2 0.146161 0.406087 0.018717
Si Si3 0.820464 0.637636 0.335910
Si Si4 0.990455 0.721543 0.173574
Si Si5 0.912202 0.236765 0.562422
Si Si6 0.834900 0.101809 0.895632
O O1 0.803389 0.736168 0.302756
O O2 0.743392 0.884536 0.441794
O O3 0.676511 0.793067 0.331220
O O4 0.833901 0.859536 0.057787
O O5 0.105238 0.500000 0.115809
O O6 0.183990 0.412924 0.803856
O O7 0.231984 0.391212 0.993010
O O8 0.078806 0.325206 0.106738
O O9 0.920669 0.641816 0.251215
O O10 0.944713 0.784439 0.354467
O O11 0.000000 0.758594 0.000000
O O12 0.889366 0.158210 0.702303
O O13 0.000000 0.283337 0.500000
O O14 0.859643 0.000000 0.859262
#
# Coordination Sequence:
#
# PCOD9200754 Si02
#       6
#     8   8   8   8   8   8
#     4  10  20  38  61  87 116 149 204 239 285 343
#     4  10  20  37  59  89 124 152 184 233 299 358
#     4   9  19  34  60  88 115 153 190 239 282 345
#     4   9  20  35  57  90 115 151 195 235 293 343
#     4  11  22  36  61  85 112 152 198 244 283 341
#     4  11  24  39  59  85 120 157 192 241 294 344
#
# _framework density 22.193550999999999
#
# number of rings (size 3 to 8) (size 9 to 14) (size 15 to 20)
#    0.000    2.000    1.667    1.500    4.667    4.000 
#    0.000    2.500    0.000    9.500    0.000    0.000 
#    0.000    0.000    0.000    0.000    0.000    0.000 
#
# Total GULP energy -133757.377863 kJ/mol
# GULP energy per Si atom -5573.224078 kJ/mol
# Density = 2.214304 g / cm^3
# Si number density = 22.193551 Si / 1000 Ang^3
#
#
#
# Elastic Constant Matrix: (Units=GPa)
#
#
# Indices 1 2 3 4 5 6 
#
# 1 53.4260 11.3836 -3.7888 0.0000 -2.4472 0.0000
# 2 11.3836 69.4165 59.3817 0.0000 11.0576 0.0000
# 3 -3.7888 59.3817 196.6278 0.0000 42.0137 0.0000
# 4 0.0000 0.0000 0.0000 -10.9187 0.0000 -42.0668
# 5 -2.4472 11.0576 42.0137 0.0000 34.5955 0.0000
# 6 0.0000 0.0000 0.0000 -42.0668 0.0000 -70.5102
#
#
#
# Elastic Compliance Matrix: (Units=1/GPa)
#
#
# Indices 1 2 3 4 5 6 
#
# 1 0.019903 -0.004813 0.001630 0.000000 0.000966 0.000000
# 2 -0.004813 0.020627 -0.006537 0.000000 0.001005 0.000000
# 3 0.001630 -0.006537 0.008940 0.000000 -0.008652 0.000000
# 4 0.000000 0.000000 0.000000 0.070529 0.000000 -0.042078
# 5 0.000966 0.001005 -0.008652 0.000000 0.039160 0.000000
# 6 0.000000 0.000000 0.000000 -0.042078 0.000000 0.010922
#
#
# Mechanical properties :
#
#
# Convention : Reuss Voigt Hill
#
# Bulk Modulus (GPa) = 33.29796 50.38039 41.83918
# Shear Modulus (GPa) = 25.05906 7.46622 16.26264
#
# Velocity S-wave (km/s) = 3.36388 1.83615 2.70990
# Velocity P-wave (km/s) = 5.48849 5.21967 5.35577
#
# Compressibility (1/GPa) = 0.03003187
#
# Stress axis : x y z
#
# Youngs Moduli (GPa) = 50.24428 48.48073 111.85616
#
# Poissons Ratio (x) = 0.23331 -0.18238
# Poissons Ratio (y) = 0.24180 0.73118
# Poissons Ratio (z) = -0.08192 0.31691
#
# Static dielectric constant tensor:
#      x y z
#    x 1.864940 0.000000 -0.003350 
#    y 0.000000 1.866340 0.000000 
#    z -0.003350 0.000000 1.895250 
# 
# From -- ./inp_files/87748.got.cif
#   From: 2010.05.17/outbox.cif.g08.bks.cpg/sg12_44_cif.got.tgz:87748.got - 2010.06.03 13:09:07.
