data_PCOD9200954
_publ_section_title
;
Structure prediction by ZEFSAII (Michael W. Deem and Ramdas Pophale) SiO2 
 PCOD9200954
Probable space group: C 2/M
;
_chemical_formula_sum "Si O2"
_cell_formula_units_Z 64
_cell_length_a 17.903413
_cell_length_b 18.305345
_cell_length_c 14.342092
_cell_angle_alpha 90.000000
_cell_angle_beta 41.540980
_cell_angle_gamma 90.000000
_cell_volume 3117.034915
_symmetry_space_group_name_H-M "C 2/M"
_symmetry_group_IT_number 12
_symmetry_cell_setting 'monoclinic'
loop_
_space_group_symop_operation_xyz
x,y,z
-x,y,-z
-x,-y,-z
x,-y,z
1/2+x,1/2+y,z
1/2-x,1/2+y,-z
1/2-x,1/2-y,-z
1/2+x,1/2-y,z
loop_
_atom_site_type_symbol
_atom_site_label
_atom_site_fract_x
_atom_site_fract_y
_atom_site_fract_z
Si Si1 0.752189 0.354407 0.832620
Si Si2 0.746327 0.342795 0.338996
Si Si3 0.694194 0.178415 0.429779
Si Si4 0.511693 0.919341 0.376332
Si Si5 0.345211 0.420142 0.413040
Si Si6 0.568949 0.357893 0.137180
Si Si7 0.754177 0.681756 0.117450
Si Si8 0.997287 0.292064 0.114257
O O1 0.763384 0.350851 0.710699
O O2 0.861065 0.397832 0.765523
O O3 0.755624 0.270011 0.863390
O O4 0.636778 0.384942 0.982548
O O5 0.693462 0.265159 0.420576
O O6 0.685239 0.406632 0.451237
O O7 0.732117 0.348651 0.241371
O O8 0.879886 0.334140 0.237146
O O9 0.573655 0.144963 0.569246
O O10 0.778970 0.144420 0.423746
O O11 0.500000 0.922643 0.500000
O O12 0.482479 0.000000 0.367177
O O13 0.306009 0.500000 0.418488
O O14 0.475150 0.410054 0.266712
O O15 0.665163 0.343368 0.124418
O O16 0.507217 0.282629 0.163348
O O17 0.885871 0.666529 0.972456
O O18 0.000000 0.274047 0.000000
#
# Coordination Sequence:
#
# PCOD9200954 Si02
#       8
#     8   8   8   8   8   8   8   8
#     4   9  19  34  59  87 120 152 190 240 301 353
#     4  10  21  40  63  84 115 155 198 249 300 342
#     4  10  20  37  60  87 116 153 197 244 295 357
#     4   9  18  32  52  82 120 154 189 233 287 351
#     4  12  27  40  55  85 122 161 204 241 290 358
#     4  11  22  36  57  86 123 155 195 239 290 357
#     4   9  20  36  60  92 113 146 200 255 292 342
#     4   9  17  34  63  94 119 141 190 250 304 350
#
# _framework density 20.532333000000001
#
# number of rings (size 3 to 8) (size 9 to 14) (size 15 to 20)
#    0.000    2.125    1.250    3.000    1.750    2.500 
#    0.000    1.875    0.000    4.125    0.000    0.000 
#    0.000    0.000    0.000    0.000    0.000    0.000 
#
# Total GULP energy -178626.770054 kJ/mol
# GULP energy per Si atom -5582.086564 kJ/mol
# Density = 2.048560 g / cm^3
# Si number density = 20.532333 Si / 1000 Ang^3
#
#
#
# Elastic Constant Matrix: (Units=GPa)
#
#
# Indices 1 2 3 4 5 6 
#
# 1 60.1917 0.1656 3.4545 0.0000 4.1653 0.0000
# 2 0.1656 15.3827 19.3410 0.0000 3.5015 0.0000
# 3 3.4545 19.3410 96.1610 0.0000 -8.1659 0.0000
# 4 0.0000 0.0000 0.0000 4.3878 0.0000 4.1474
# 5 4.1653 3.5015 -8.1659 0.0000 24.6875 0.0000
# 6 0.0000 0.0000 0.0000 4.1474 0.0000 -10.1146
#
#
#
# Elastic Compliance Matrix: (Units=1/GPa)
#
#
# Indices 1 2 3 4 5 6 
#
# 1 0.016941 0.002421 -0.001407 0.000000 -0.003667 0.000000
# 2 0.002421 0.096594 -0.021312 0.000000 -0.021158 0.000000
# 3 -0.001407 -0.021312 0.015447 0.000000 0.008369 0.000000
# 4 0.000000 0.000000 0.000000 0.164247 0.000000 0.067348
# 5 -0.003667 -0.021158 0.008369 0.000000 0.046894 0.000000
# 6 0.000000 0.000000 0.000000 0.067348 0.000000 -0.071252
#
#
# Mechanical properties :
#
#
# Convention : Reuss Voigt Hill
#
# Bulk Modulus (GPa) = 11.31380 24.18419 17.74899
# Shear Modulus (GPa) = 14.75235 13.71043 14.23139
#
# Velocity S-wave (km/s) = 2.68338 2.58689 2.63557
# Velocity P-wave (km/s) = 3.88882 4.55267 4.23377
#
# Compressibility (1/GPa) = 0.08838765
#
# Stress axis : x y z
#
# Youngs Moduli (GPa) = 59.02678 10.35262 64.73766
#
# Poissons Ratio (x) = -0.02507 0.09109
# Poissons Ratio (y) = -0.14293 1.37967
# Poissons Ratio (z) = 0.08305 0.22063
#
# Static dielectric constant tensor:
#      x y z
#    x 1.748660 0.000000 0.012890 
#    y 0.000000 1.714050 0.000000 
#    z 0.012890 0.000000 1.778140 
# 
# From -- ./inp_files/226830.got.cif
#   From: 2010.05.17/outbox.cif.g08.bks.cpg/sg12_114_cif.got.tgz:226830.got - 2010.06.03 13:09:07.
