data_PCOD9200999
_publ_section_title
;
Structure prediction by ZEFSAII (Michael W. Deem and Ramdas Pophale) SiO2 
 PCOD9200999
Probable space group: C 2/M
;
_chemical_formula_sum "Si O2"
_cell_formula_units_Z 60
_cell_length_a 19.377715
_cell_length_b 29.500530
_cell_length_c 5.189455
_cell_angle_alpha 90.000000
_cell_angle_beta 102.266847
_cell_angle_gamma 90.000000
_cell_volume 2898.836160
_symmetry_space_group_name_H-M "C 2/M"
_symmetry_group_IT_number 12
_symmetry_cell_setting 'monoclinic'
loop_
_space_group_symop_operation_xyz
x,y,z
-x,y,-z
-x,-y,-z
x,-y,z
1/2+x,1/2+y,z
1/2-x,1/2+y,-z
1/2-x,1/2-y,-z
1/2+x,1/2-y,z
loop_
_atom_site_type_symbol
_atom_site_label
_atom_site_fract_x
_atom_site_fract_y
_atom_site_fract_z
Si Si1 0.543217 0.093896 0.792296
Si Si2 0.920485 0.886403 0.910018
Si Si3 0.580940 0.676214 0.592960
Si Si4 0.678032 0.855792 0.703229
Si Si5 0.199421 0.433591 0.384443
Si Si6 0.799714 0.747017 0.291110
Si Si7 0.279745 0.423528 0.941076
Si Si8 0.588133 0.000000 0.047993
O O1 0.500000 0.101916 0.500000
O O2 0.618095 0.117693 0.811517
O O3 0.500000 0.112323 0.000000
O O4 0.552469 0.040148 0.843686
O O5 0.908668 0.860961 0.627863
O O6 0.732241 0.947900 0.685428
O O7 0.860445 0.923141 0.924051
O O8 0.000000 0.904804 0.000000
O O9 0.500000 0.693564 0.500000
O O10 0.640116 0.714825 0.638382
O O11 0.584834 0.650792 0.868442
O O12 0.682031 0.880917 0.428893
O O13 0.666867 0.803080 0.684979
O O14 0.752337 0.871262 0.889662
O O15 0.256571 0.439262 0.203559
O O16 0.130695 0.460709 0.248434
O O17 0.750000 0.750000 0.500000
O O18 0.750000 0.750000 0.000000
#
# Coordination Sequence:
#
# PCOD9200999 Si02
#       8
#     8   8   8   8   8   8   8   4
#     4  12  27  42  66  94 128 177 220 275 327 381
#     4  10  20  37  63  90 122 153 199 254 310 373
#     4  10  21  38  56  85 120 162 203 256 315 368
#     4  10  25  42  61  87 130 160 222 260 326 377
#     4  10  23  36  66  86 124 160 201 267 314 368
#     4  12  26  39  65  93 121 172 218 269 320 380
#     4  10  20  37  60  89 119 156 195 258 312 374
#     4  12  22  48  62  98 129 168 222 276 317 392
#
# _framework density 20.697963999999999
#
# number of rings (size 3 to 8) (size 9 to 14) (size 15 to 20)
#    0.800    0.533    1.333    4.400    3.733    4.800 
#    0.000    2.000    0.000    0.000    0.000    2.800 
#    0.000    0.000    0.000    0.000    0.000    0.000 
#
# Total GULP energy -167024.340591 kJ/mol
# GULP energy per Si atom -5567.478020 kJ/mol
# Density = 2.065085 g / cm^3
# Si number density = 20.697964 Si / 1000 Ang^3
#
#
#
# Elastic Constant Matrix: (Units=GPa)
#
#
# Indices 1 2 3 4 5 6 
#
# 1 118.8229 1.8845 46.3877 0.0000 -5.3805 0.0000
# 2 1.8845 34.8298 9.1494 0.0000 -0.4110 0.0000
# 3 46.3877 9.1494 102.2437 0.0000 -15.6794 0.0000
# 4 0.0000 0.0000 0.0000 7.8710 0.0000 53.6887
# 5 -5.3805 -0.4110 -15.6794 0.0000 39.1361 0.0000
# 6 0.0000 0.0000 0.0000 53.6887 0.0000 -140.1253
#
#
#
# Elastic Compliance Matrix: (Units=1/GPa)
#
#
# Indices 1 2 3 4 5 6 
#
# 1 0.010252 0.000698 -0.004791 0.000000 -0.000503 0.000000
# 2 0.000698 0.029473 -0.003081 0.000000 -0.000829 0.000000
# 3 -0.004791 -0.003081 0.012918 0.000000 0.004484 0.000000
# 4 0.000000 0.000000 0.000000 0.035160 0.000000 0.013471
# 5 -0.000503 -0.000829 0.004484 0.000000 0.027271 0.000000
# 6 0.000000 0.000000 0.000000 0.013471 0.000000 -0.001975
#
#
# Mechanical properties :
#
#
# Convention : Reuss Voigt Hill
#
# Bulk Modulus (GPa) = 26.11353 41.19329 33.65341
# Shear Modulus (GPa) = 35.66037 -5.39198 15.13419
#
# Velocity S-wave (km/s) = 4.15528 -1.61578 2.70699
# Velocity P-wave (km/s) = 5.97207 4.05763 5.10539
#
# Compressibility (1/GPa) = 0.03829432
#
# Stress axis : x y z
#
# Youngs Moduli (GPa) = 97.53768 33.92951 77.41353
#
# Poissons Ratio (x) = -0.02368 0.37089
# Poissons Ratio (y) = -0.06807 0.23852
# Poissons Ratio (z) = 0.46731 0.10454
#
# Static dielectric constant tensor:
#      x y z
#    x 1.844210 0.000000 0.016250 
#    y 0.000000 1.728000 0.000000 
#    z 0.016250 0.000000 1.778730 
# 
# From -- ./inp_files/18334.got.cif
#   From: 2010.05.17/outbox.cif.g08.bks.cpg/sg12_10_cif.got.tgz:18334.got - 2010.06.03 13:09:07.
