data_PCOD9200366
_publ_section_title
;
Structure prediction by ZEFSAII (Michael W. Deem and Ramdas Pophale) SiO2 
 PCOD9200366
Probable space group: C 2/M
;
_chemical_formula_sum "Si O2"
_cell_formula_units_Z 64
_cell_length_a 24.860792
_cell_length_b 18.034520
_cell_length_c 22.869200
_cell_angle_alpha 90.000000
_cell_angle_beta 18.460112
_cell_angle_gamma 90.000000
_cell_volume 3246.701059
_symmetry_space_group_name_H-M "C 2/M"
_symmetry_group_IT_number 12
_symmetry_cell_setting 'monoclinic'
loop_
_space_group_symop_operation_xyz
x,y,z
-x,y,-z
-x,-y,-z
x,-y,z
1/2+x,1/2+y,z
1/2-x,1/2+y,-z
1/2-x,1/2-y,-z
1/2+x,1/2-y,z
loop_
_atom_site_type_symbol
_atom_site_label
_atom_site_fract_x
_atom_site_fract_y
_atom_site_fract_z
Si Si1 0.543536 0.085384 0.125456
Si Si2 0.369300 0.578443 0.187318
Si Si3 0.411861 0.415693 0.807645
Si Si4 0.152334 0.678753 0.575205
Si Si5 0.505150 0.359293 0.832419
Si Si6 0.644733 0.783104 0.949249
Si Si7 0.816396 0.726787 0.657379
Si Si8 0.515631 0.714243 0.625125
O O1 0.431266 0.129308 0.288775
O O2 0.490663 0.000000 0.169640
O O3 0.730650 0.082833 0.962277
O O4 0.559806 0.137663 0.051336
O O5 0.274628 0.500000 0.287877
O O6 0.492576 0.586383 0.115744
O O7 0.249847 0.648992 0.299830
O O8 0.500000 0.578220 0.000000
O O9 0.475959 0.500000 0.745522
O O10 0.396090 0.381180 0.888672
O O11 0.529905 0.360452 0.648416
O O12 0.250000 0.750000 0.500000
O O13 0.300671 0.636078 0.389237
O O14 0.027147 0.715693 0.656967
O O15 0.457399 0.279795 0.909373
O O16 0.684294 0.759138 0.841631
O O17 0.831236 0.785776 0.785965
O O18 0.849176 0.777697 0.566571
O O19 0.000000 0.718100 0.500000
#
# Coordination Sequence:
#
# PCOD9200366 Si02
#       8
#     8   8   8   8   8   8   8   8
#     4  10  22  39  57  83 118 151 186 232 287 337
#     4  11  23  38  56  81 113 147 187 237 284 333
#     4  10  21  37  57  83 118 153 184 231 286 338
#     4  12  21  34  56  86 110 147 185 230 284 334
#     4  12  21  35  60  84 111 149 191 229 280 343
#     4  10  20  37  61  82 109 152 194 232 272 336
#     4  10  21  38  60  83 110 151 195 234 277 331
#     4  10  20  37  57  84 115 147 193 231 275 338
#
# _framework density 19.712318
#
# number of rings (size 3 to 8) (size 9 to 14) (size 15 to 20)
#    0.000    1.375    5.000    1.125    0.000    3.250 
#    0.000    0.625    0.000    3.750    0.000    1.750 
#    0.000    0.000    0.000    0.000    0.000    0.000 
#
# Total GULP energy -178499.010159 kJ/mol
# GULP energy per Si atom -5578.094067 kJ/mol
# Density = 1.966745 g / cm^3
# Si number density = 19.712318 Si / 1000 Ang^3
#
#
#
# Elastic Constant Matrix: (Units=GPa)
#
#
# Indices 1 2 3 4 5 6 
#
# 1 78.9529 41.9372 22.7283 -0.0011 22.9589 0.0027
# 2 41.9372 142.9744 51.9791 -0.0019 25.9526 -0.0012
# 3 22.7283 51.9791 64.0865 -0.0212 26.2724 0.0173
# 4 -0.0011 -0.0019 -0.0212 17.8825 0.0054 -10.1505
# 5 22.9589 25.9526 26.2724 0.0054 32.9367 -0.0028
# 6 0.0027 -0.0012 0.0173 -10.1505 -0.0028 9.6596
#
#
#
# Elastic Compliance Matrix: (Units=1/GPa)
#
#
# Indices 1 2 3 4 5 6 
#
# 1 0.017174 -0.003551 0.000817 -0.000002 -0.009825 -0.000012
# 2 -0.003551 0.010750 -0.007432 0.000002 -0.000067 0.000018
# 3 0.000817 -0.007432 0.028492 0.000014 -0.017440 -0.000042
# 4 -0.000002 0.000002 0.000014 0.138579 -0.000022 0.145621
# 5 -0.009825 -0.000067 -0.017440 -0.000022 0.051174 0.000026
# 6 -0.000012 0.000018 -0.000042 0.145621 0.000026 0.256546
#
#
# Mechanical properties :
#
#
# Convention : Reuss Voigt Hill
#
# Bulk Modulus (GPa) = 27.71348 57.70033 42.70691
# Shear Modulus (GPa) = 9.34449 23.38705 16.36577
#
# Velocity S-wave (km/s) = 2.17962 3.44818 2.88450
# Velocity P-wave (km/s) = 4.51927 6.72220 5.72764
#
# Compressibility (1/GPa) = 0.03608352
#
# Stress axis : x y z
#
# Youngs Moduli (GPa) = 58.22831 93.02275 35.09753
#
# Poissons Ratio (x) = 0.33033 -0.02869
# Poissons Ratio (y) = 0.20678 0.26086
# Poissons Ratio (z) = -0.04759 0.69138
#
# Static dielectric constant tensor:
#      x y z
#    x 2.623250 0.000030 0.817360 
#    y 0.000030 1.746520 0.000040 
#    z 0.817360 0.000040 2.461300 
# 
# From -- ./inp_files/326090.got.cif
#   From: 2010.05.17/outbox.cif.g08.bks.cpg/sg12_164_cif.got.tgz:326090.got - 2010.06.03 13:09:07.
