data_PCOD9200818
_publ_section_title
;
Structure prediction by ZEFSAII (Michael W. Deem and Ramdas Pophale) SiO2 
 PCOD9200818
Probable space group: C 2/M
;
_chemical_formula_sum "Si O2"
_cell_formula_units_Z 56
_cell_length_a 15.245441
_cell_length_b 9.100210
_cell_length_c 24.698012
_cell_angle_alpha 90.000000
_cell_angle_beta 62.270382
_cell_angle_gamma 90.000000
_cell_volume 3032.996121
_symmetry_space_group_name_H-M "C 2/M"
_symmetry_group_IT_number 12
_symmetry_cell_setting 'monoclinic'
loop_
_space_group_symop_operation_xyz
x,y,z
-x,y,-z
-x,-y,-z
x,-y,z
1/2+x,1/2+y,z
1/2-x,1/2+y,-z
1/2-x,1/2-y,-z
1/2+x,1/2-y,z
loop_
_atom_site_type_symbol
_atom_site_label
_atom_site_fract_x
_atom_site_fract_y
_atom_site_fract_z
Si Si1 0.832282 0.674413 0.225560
Si Si2 0.730373 0.327089 0.562783
Si Si3 0.071159 0.823295 0.905588
Si Si4 0.401444 0.330147 0.694226
Si Si5 0.920952 0.673866 0.315465
Si Si6 0.094190 0.831844 0.433706
Si Si7 0.152949 0.177858 0.999879
O O1 0.849845 0.500000 0.214195
O O2 0.878629 0.756748 0.161569
O O3 0.714736 0.695948 0.264740
O O4 0.880047 0.720221 0.268859
O O5 0.717406 0.500000 0.559346
O O6 0.750000 0.250000 0.500000
O O7 0.637969 0.257578 0.620545
O O8 0.824985 0.285684 0.571939
O O9 0.132201 0.781444 0.942644
O O10 0.072985 0.000000 0.903332
O O11 0.954200 0.781911 0.942906
O O12 0.423058 0.500000 0.702763
O O13 0.465806 0.219610 0.710623
O O14 0.428300 0.313386 0.623041
O O15 0.905810 0.500000 0.325691
O O16 0.000000 0.819770 0.500000
O O17 0.134109 0.000000 0.428414
O O18 0.163375 0.000000 0.999821
O O19 0.250000 0.250000 0.000000
#
# Coordination Sequence:
#
# PCOD9200818 Si02
#       7
#     8   8   8   8   8   8   8
#     4  10  22  40  60  84 122 162 197 243 299 354
#     4  12  24  38  59  85 114 149 193 243 300 361
#     4   9  20  38  59  85 120 159 200 244 291 346
#     4  10  21  39  59  84 118 154 193 242 300 356
#     4  11  23  41  61  85 117 153 196 246 298 355
#     4  10  20  37  60  83 113 150 189 240 302 357
#     4   9  19  37  60  88 122 158 197 246 294 341
#
# _framework density 18.463591000000001
#
# number of rings (size 3 to 8) (size 9 to 14) (size 15 to 20)
#    0.000    1.857    1.429    3.429    0.000    6.000 
#    0.000    7.143    0.000    0.000    0.000    0.000 
#    0.000    0.000    0.000    0.000    0.000    0.000 
#
# Total GULP energy -156325.304604 kJ/mol
# GULP energy per Si atom -5583.046593 kJ/mol
# Density = 1.842157 g / cm^3
# Si number density = 18.463591 Si / 1000 Ang^3
#
#
#
# Elastic Constant Matrix: (Units=GPa)
#
#
# Indices 1 2 3 4 5 6 
#
# 1 108.3215 47.5968 51.3677 0.0000 6.5609 0.0000
# 2 47.5968 61.8685 49.4176 0.0000 7.5624 0.0000
# 3 51.3677 49.4176 130.3780 0.0000 4.8914 0.0000
# 4 0.0000 0.0000 0.0000 34.4661 0.0000 0.0039
# 5 6.5609 7.5624 4.8914 0.0000 14.0301 0.0000
# 6 0.0000 0.0000 0.0000 0.0039 0.0000 30.9849
#
#
#
# Elastic Compliance Matrix: (Units=1/GPa)
#
#
# Indices 1 2 3 4 5 6 
#
# 1 0.014351 -0.009225 -0.002120 0.000000 -0.000999 0.000000
# 2 -0.009225 0.030449 -0.007552 0.000000 -0.009466 0.000000
# 3 -0.002120 -0.007552 0.011326 0.000000 0.001113 0.000000
# 4 0.000000 0.000000 0.000000 0.029014 0.000000 -0.000004
# 5 -0.000999 -0.009466 0.001113 0.000000 0.076457 0.000000
# 6 0.000000 0.000000 0.000000 -0.000004 0.000000 0.032274
#
#
# Mechanical properties :
#
#
# Convention : Reuss Voigt Hill
#
# Bulk Modulus (GPa) = 54.54710 66.37025 60.45867
# Shear Modulus (GPa) = 21.02824 26.04195 23.53510
#
# Velocity S-wave (km/s) = 3.37843 3.75967 3.57413
# Velocity P-wave (km/s) = 6.69519 7.40752 7.06034
#
# Compressibility (1/GPa) = 0.01833278
#
# Stress axis : x y z
#
# Youngs Moduli (GPa) = 69.68031 32.84151 88.29366
#
# Poissons Ratio (x) = 0.30297 0.18719
# Poissons Ratio (y) = 0.64281 0.66675
# Poissons Ratio (z) = 0.14773 0.24800
#
# Static dielectric constant tensor:
#      x y z
#    x 1.653210 0.000000 -0.001140 
#    y 0.000000 1.623360 0.000000 
#    z -0.001140 0.000000 1.628640 
# 
# From -- ./inp_files/338434.got.cif
#   From: 2010.05.17/outbox.cif.g08.bks.cpg/sg12_170_cif.got.tgz:338434.got - 2010.06.03 13:09:07.
