data_PCOD9200979
_publ_section_title
;
Structure prediction by ZEFSAII (Michael W. Deem and Ramdas Pophale) SiO2 
 PCOD9200979
Probable space group: C 2/M
;
_chemical_formula_sum "Si O2"
_cell_formula_units_Z 40
_cell_length_a 13.482504
_cell_length_b 17.933113
_cell_length_c 13.372290
_cell_angle_alpha 90.000000
_cell_angle_beta 42.606250
_cell_angle_gamma 90.000000
_cell_volume 2188.732259
_symmetry_space_group_name_H-M "C 2/M"
_symmetry_group_IT_number 12
_symmetry_cell_setting 'monoclinic'
loop_
_space_group_symop_operation_xyz
x,y,z
-x,y,-z
-x,-y,-z
x,-y,z
1/2+x,1/2+y,z
1/2-x,1/2+y,-z
1/2-x,1/2-y,-z
1/2+x,1/2-y,z
loop_
_atom_site_type_symbol
_atom_site_label
_atom_site_fract_x
_atom_site_fract_y
_atom_site_fract_z
Si Si1 0.702381 0.170681 0.199130
Si Si2 0.546553 0.220170 0.754034
Si Si3 0.000000 0.745214 0.000000
Si Si4 0.641102 0.000000 0.277908
Si Si5 0.169086 0.153443 0.553753
Si Si6 0.500000 0.736459 0.500000
Si Si7 0.705340 0.000000 0.467951
O O1 0.608873 0.200502 0.175551
O O2 0.698918 0.081095 0.201328
O O3 0.617108 0.208738 0.357985
O O4 0.863350 0.203608 0.073227
O O5 0.550372 0.198782 0.866392
O O6 0.668046 0.182232 0.593822
O O7 0.591397 0.306280 0.705168
O O8 0.682092 0.000000 0.365556
O O9 0.468108 0.000000 0.374682
O O10 0.202993 0.069610 0.558461
O O11 0.074451 0.182782 0.528443
#
# Coordination Sequence:
#
# PCOD9200979 Si02
#       7
#     8   8   4   4   8   4   4
#     4  11  22  37  59  87 119 151 192 236 291 341
#     4  10  21  37  59  87 115 152 196 238 282 342
#     4  12  22  37  60  87 114 154 196 240 284 337
#     4  11  22  33  56  88 120 153 182 240 294 346
#     4  10  20  37  60  88 116 149 194 242 281 342
#     4  10  20  38  62  86 114 150 196 240 280 336
#     4  11  20  33  58  90 118 147 192 236 294 337
#
# _framework density 18.27542
#
# number of rings (size 3 to 8) (size 9 to 14) (size 15 to 20)
#    0.000    1.400    4.000    3.000    2.800    0.800 
#    0.000    1.000    0.000    2.400    0.000    0.000 
#    0.000    0.000    0.000    0.000    0.000    0.000 
#
# Total GULP energy -111408.142048 kJ/mol
# GULP energy per Si atom -5570.407102 kJ/mol
# Density = 1.823382 g / cm^3
# Si number density = 18.275420 Si / 1000 Ang^3
#
#
#
# Elastic Constant Matrix: (Units=GPa)
#
#
# Indices 1 2 3 4 5 6 
#
# 1 93.1917 24.1733 16.6006 0.0001 -7.5728 0.0000
# 2 24.1733 109.3583 7.6388 0.0000 -6.1240 0.0001
# 3 16.6006 7.6388 52.3855 0.0003 -0.6925 -0.0001
# 4 0.0001 0.0000 0.0003 10.1637 -0.0002 -6.5665
# 5 -7.5728 -6.1240 -0.6925 -0.0002 37.9479 0.0000
# 6 0.0000 0.0001 -0.0001 -6.5665 0.0000 30.9497
#
#
#
# Elastic Compliance Matrix: (Units=1/GPa)
#
#
# Indices 1 2 3 4 5 6 
#
# 1 0.012113 -0.002324 -0.003473 0.000000 0.001979 0.000000
# 2 -0.002324 0.009767 -0.000673 0.000000 0.001100 0.000000
# 3 -0.003473 -0.000673 0.020282 -0.000001 -0.000432 0.000000
# 4 0.000000 0.000000 -0.000001 0.114018 0.000001 0.024191
# 5 0.001979 0.001100 -0.000432 0.000001 0.026916 0.000000
# 6 0.000000 0.000000 0.000000 0.024191 0.000000 0.037443
#
#
# Mechanical properties :
#
#
# Convention : Reuss Voigt Hill
#
# Bulk Modulus (GPa) = 34.22238 39.08453 36.65346
# Shear Modulus (GPa) = 20.55742 29.58047 25.06895
#
# Velocity S-wave (km/s) = 3.35754 4.02754 3.70771
# Velocity P-wave (km/s) = 5.81355 6.56208 6.19912
#
# Compressibility (1/GPa) = 0.02922064
#
# Stress axis : x y z
#
# Youngs Moduli (GPa) = 82.55622 102.38971 49.30379
#
# Poissons Ratio (x) = 0.23796 0.17125
# Poissons Ratio (y) = 0.19187 0.03319
# Poissons Ratio (z) = 0.28675 0.06892
#
# Static dielectric constant tensor:
#      x y z
#    x 1.654680 0.000000 0.011030 
#    y 0.000000 1.630000 0.000000 
#    z 0.011030 0.000000 1.646450 
# 
# From -- ./inp_files/214629.got.cif
#   From: 2010.05.17/outbox.cif.g08.bks.cpg/sg12_108_cif.got.tgz:214629.got - 2010.06.03 13:09:07.
