data_PCOD9200067
_publ_section_title
;
Structure prediction by ZEFSAII (Michael W. Deem and Ramdas Pophale) SiO2 
 PCOD9200067
Probable space group: C 2/M
;
_chemical_formula_sum "Si O2"
_cell_formula_units_Z 44
_cell_length_a 25.071326
_cell_length_b 12.451684
_cell_length_c 9.379684
_cell_angle_alpha 90.000000
_cell_angle_beta 128.326171
_cell_angle_gamma 90.000000
_cell_volume 2297.115229
_symmetry_space_group_name_H-M "C 2/M"
_symmetry_group_IT_number 12
_symmetry_cell_setting 'monoclinic'
loop_
_space_group_symop_operation_xyz
x,y,z
-x,y,-z
-x,-y,-z
x,-y,z
1/2+x,1/2+y,z
1/2-x,1/2+y,-z
1/2-x,1/2-y,-z
1/2+x,1/2-y,z
loop_
_atom_site_type_symbol
_atom_site_label
_atom_site_fract_x
_atom_site_fract_y
_atom_site_fract_z
Si Si1 0.101854 0.741291 0.406505
Si Si2 0.105879 0.500000 0.985930
Si Si3 0.975314 0.876813 0.124518
Si Si4 0.948754 0.500000 0.630031
Si Si5 0.339662 0.000000 0.232133
Si Si6 0.145430 0.268243 0.161221
Si Si7 0.777761 0.276555 0.202694
O O1 0.033856 0.811639 0.302263
O O2 0.080886 0.614858 0.366457
O O3 0.138852 0.760968 0.316524
O O4 0.152097 0.771582 0.618898
O O5 0.154466 0.500000 0.927852
O O6 0.027784 0.500000 0.802815
O O7 0.121287 0.390887 0.096633
O O8 0.967347 0.000000 0.157624
O O9 0.000000 0.877944 0.000000
O O10 0.906223 0.809081 0.010169
O O11 0.917717 0.500000 0.418369
O O12 0.299208 0.899828 0.225797
O O13 0.219394 0.250205 0.218835
O O14 0.750000 0.250000 0.000000
#
# Coordination Sequence:
#
# PCOD9200067 Si02
#       7
#     8   4   8   4   4   8   8
#     4  10  21  39  61  90 120 150 195 246 297 353
#     4  12  20  36  63  93 120 152 198 248 302 352
#     4   9  19  37  59  87 119 151 187 235 294 354
#     4  10  20  36  63  93 119 153 190 254 303 356
#     4  10  23  40  58  84 121 162 203 241 295 356
#     4  11  22  36  63  91 118 152 195 246 299 351
#     4  11  23  42  59  82 119 161 200 240 293 349
#
# _framework density 19.15446
#
# number of rings (size 3 to 8) (size 9 to 14) (size 15 to 20)
#    0.000    1.636    3.636    1.364    1.273    0.727 
#    3.273    0.909    0.000    1.091    0.000    0.000 
#    0.000    0.000    0.000    0.000    0.000    0.000 
#
# Total GULP energy -122629.362867 kJ/mol
# GULP energy per Si atom -5574.061949 kJ/mol
# Density = 1.911086 g / cm^3
# Si number density = 19.154460 Si / 1000 Ang^3
#
#
#
# Elastic Constant Matrix: (Units=GPa)
#
#
# Indices 1 2 3 4 5 6 
#
# 1 28.2188 13.4193 10.4806 0.0000 16.8719 0.0000
# 2 13.4193 98.5908 45.6602 0.0000 22.0593 0.0000
# 3 10.4806 45.6602 111.8997 0.0000 22.4118 0.0000
# 4 0.0000 0.0000 0.0000 11.0519 0.0000 -2.5488
# 5 16.8719 22.0593 22.4118 0.0000 35.0485 0.0000
# 6 0.0000 0.0000 0.0000 -2.5488 0.0000 22.4522
#
#
#
# Elastic Compliance Matrix: (Units=1/GPa)
#
#
# Indices 1 2 3 4 5 6 
#
# 1 0.050042 -0.001948 0.000788 0.000000 -0.023368 0.000000
# 2 -0.001948 0.013498 -0.004372 0.000000 -0.004763 0.000000
# 3 0.000788 -0.004372 0.011666 0.000000 -0.005087 0.000000
# 4 0.000000 0.000000 0.000000 0.092915 0.000000 0.010548
# 5 -0.023368 -0.004763 -0.005087 0.000000 0.046031 0.000000
# 6 0.000000 0.000000 0.000000 0.010548 0.000000 0.045736
#
#
# Mechanical properties :
#
#
# Convention : Reuss Voigt Hill
#
# Bulk Modulus (GPa) = 15.59013 41.98107 28.78560
# Shear Modulus (GPa) = 17.10376 24.98713 21.04545
#
# Velocity S-wave (km/s) = 2.99145 3.61571 3.31830
# Velocity P-wave (km/s) = 4.48202 6.27661 5.45364
#
# Compressibility (1/GPa) = 0.06414317
#
# Stress axis : x y z
#
# Youngs Moduli (GPa) = 19.98307 74.08351 85.72280
#
# Poissons Ratio (x) = 0.14431 -0.06755
# Poissons Ratio (y) = 0.03892 0.37475
# Poissons Ratio (z) = -0.01575 0.32386
#
# Static dielectric constant tensor:
#      x y z
#    x 1.644660 0.000000 -0.008460 
#    y 0.000000 1.641820 0.000000 
#    z -0.008460 0.000000 1.702350 
# 
# From -- ./inp_files/84108.got.cif
#   From: 2010.05.17/outbox.cif.g08.bks.cpg/sg12_43_cif.got.tgz:84108.got - 2010.06.03 13:09:07.
