data_PCOD9200125
_publ_section_title
;
Structure prediction by ZEFSAII (Michael W. Deem and Ramdas Pophale) SiO2 
 PCOD9200125
Probable space group: C 2/M
;
_chemical_formula_sum "Si O2"
_cell_formula_units_Z 48
_cell_length_a 9.058275
_cell_length_b 18.009469
_cell_length_c 19.227498
_cell_angle_alpha 90.000000
_cell_angle_beta 133.833434
_cell_angle_gamma 90.000000
_cell_volume 2262.658248
_symmetry_space_group_name_H-M "C 2/M"
_symmetry_group_IT_number 12
_symmetry_cell_setting 'monoclinic'
loop_
_space_group_symop_operation_xyz
x,y,z
-x,y,-z
-x,-y,-z
x,-y,z
1/2+x,1/2+y,z
1/2-x,1/2+y,-z
1/2-x,1/2-y,-z
1/2+x,1/2-y,z
loop_
_atom_site_type_symbol
_atom_site_label
_atom_site_fract_x
_atom_site_fract_y
_atom_site_fract_z
Si Si1 0.682193 0.415784 0.285591
Si Si2 0.111652 0.584972 0.793984
Si Si3 0.088296 0.710735 0.897164
Si Si4 0.364765 0.310471 0.213166
Si Si5 0.464006 0.780384 0.384515
Si Si6 0.206876 0.856176 0.582863
O O1 0.735216 0.500000 0.322083
O O2 0.723865 0.410396 0.215565
O O3 0.461503 0.392102 0.243141
O O4 0.826384 0.350752 0.360806
O O5 0.104957 0.500000 0.815645
O O6 0.158052 0.641141 0.872179
O O7 0.890566 0.605655 0.686425
O O8 0.041320 0.772892 0.824356
O O9 0.879991 0.689200 0.867989
O O10 0.250000 0.750000 0.000000
O O11 0.428004 0.255838 0.296373
O O12 0.684664 0.820016 0.449358
O O13 0.384845 0.712920 0.404542
O O14 0.000000 0.902360 0.500000
#
# Coordination Sequence:
#
# PCOD9200125 Si02
#       6
#     8   8   8   8   8   8
#     4  10  20  36  64  91 123 170 207 255 327 381
#     4  10  21  41  63  89 132 170 204 262 328 379
#     4  12  23  38  64  92 121 162 217 263 308 379
#     4  12  19  39  62  87 122 162 215 258 315 375
#     4  11  18  37  60  87 125 165 211 261 312 374
#     4  11  21  35  61  92 121 163 216 264 307 377
#
# _framework density 21.213984
#
# number of rings (size 3 to 8) (size 9 to 14) (size 15 to 20)
#    0.000    1.000    8.333    1.000    0.000    1.000 
#    0.000    0.833    0.000    5.500    0.000    0.000 
#    0.000    0.000    0.000    0.000    0.000    0.000 
#
# Total GULP energy -133762.529255 kJ/mol
# GULP energy per Si atom -5573.438719 kJ/mol
# Density = 2.116570 g / cm^3
# Si number density = 21.213984 Si / 1000 Ang^3
#
#
#
# Elastic Constant Matrix: (Units=GPa)
#
#
# Indices 1 2 3 4 5 6 
#
# 1 81.3376 0.4623 24.4997 0.0000 29.7720 0.0000
# 2 0.4623 103.6548 12.6700 0.0000 -1.1906 0.0000
# 3 24.4997 12.6700 53.6386 0.0000 4.9484 0.0000
# 4 0.0000 0.0000 0.0000 12.7245 0.0000 -1.6448
# 5 29.7720 -1.1906 4.9484 0.0000 27.7360 0.0000
# 6 0.0000 0.0000 0.0000 -1.6448 0.0000 30.7523
#
#
#
# Elastic Compliance Matrix: (Units=1/GPa)
#
#
# Indices 1 2 3 4 5 6 
#
# 1 0.023632 0.000693 -0.008765 0.000000 -0.023774 0.000000
# 2 0.000693 0.009975 -0.002688 0.000000 0.000164 0.000000
# 3 -0.008765 -0.002688 0.022799 0.000000 0.005225 0.000000
# 4 0.000000 0.000000 0.000000 0.079136 0.000000 0.004233
# 5 -0.023774 0.000164 0.005225 0.000000 0.060648 0.000000
# 6 0.000000 0.000000 0.000000 0.004233 0.000000 0.032744
#
#
# Mechanical properties :
#
#
# Convention : Reuss Voigt Hill
#
# Bulk Modulus (GPa) = 28.66353 34.87721 31.77037
# Shear Modulus (GPa) = 19.07794 27.64251 23.36022
#
# Velocity S-wave (km/s) = 3.00210 3.61367 3.32199
# Velocity P-wave (km/s) = 5.05547 5.82133 5.45186
#
# Compressibility (1/GPa) = 0.03488754
#
# Stress axis : x y z
#
# Youngs Moduli (GPa) = 42.31472 100.25341 43.86081
#
# Poissons Ratio (x) = -0.06946 0.38442
# Poissons Ratio (y) = -0.02932 0.11789
# Poissons Ratio (z) = 0.37087 0.26945
#
# Static dielectric constant tensor:
#      x y z
#    x 1.838490 0.000000 -0.016320 
#    y 0.000000 1.765500 0.000000 
#    z -0.016320 0.000000 2.005180 
# 
# From -- ./inp_files/300948.got.cif
#   From: 2010.05.17/outbox.cif.g08.bks.cpg/sg12_151_cif.got.tgz:300948.got - 2010.06.03 13:09:07.
