data_PCOD9200737
_publ_section_title
;
Structure prediction by ZEFSAII (Michael W. Deem and Ramdas Pophale) SiO2 
 PCOD9200737
Probable space group: C 2/M
;
_chemical_formula_sum "Si O2"
_cell_formula_units_Z 58
_cell_length_a 8.531094
_cell_length_b 18.601467
_cell_length_c 20.543158
_cell_angle_alpha 90.000000
_cell_angle_beta 60.991945
_cell_angle_gamma 90.000000
_cell_volume 2851.048065
_symmetry_space_group_name_H-M "C 2/M"
_symmetry_group_IT_number 12
_symmetry_cell_setting 'monoclinic'
loop_
_space_group_symop_operation_xyz
x,y,z
-x,y,-z
-x,-y,-z
x,-y,z
1/2+x,1/2+y,z
1/2-x,1/2+y,-z
1/2-x,1/2-y,-z
1/2+x,1/2-y,z
loop_
_atom_site_type_symbol
_atom_site_label
_atom_site_fract_x
_atom_site_fract_y
_atom_site_fract_z
Si Si1 0.299580 0.349222 0.893647
Si Si2 0.969536 0.698978 0.872804
Si Si3 0.063856 0.272422 0.610820
Si Si4 0.500000 0.000000 0.500000
Si Si5 0.201601 0.359349 0.419442
Si Si6 0.711863 0.580186 0.969172
Si Si7 0.012351 0.915119 0.269004
Si Si8 0.234777 0.321475 0.704141
O O1 0.395017 0.277871 0.901336
O O2 0.423831 0.384102 0.812996
O O3 0.118246 0.324055 0.895118
O O4 0.259894 0.402363 0.960575
O O5 0.812987 0.640557 0.907877
O O6 0.067972 0.696644 0.783488
O O7 0.181310 0.202227 0.567635
O O8 0.176230 0.317566 0.640875
O O9 0.977473 0.321592 0.572891
O O10 0.889104 0.238495 0.681174
O O11 0.652467 0.935255 0.461264
O O12 0.330437 0.379302 0.332097
O O13 0.776955 0.500000 0.940035
O O14 0.500000 0.583250 0.000000
O O15 0.168891 0.892983 0.288878
O O16 0.991376 0.000000 0.269403
#
# Coordination Sequence:
#
# PCOD9200737 Si02
#       8
#     8   8   8   2   8   8   8   8
#     4  11  22  37  60  82 110 148 199 242 293 358
#     4  11  21  35  58  85 111 147 193 247 295 347
#     4   9  18  38  63  92 117 162 206 246 285 357
#     4  12  24  40  60  94 132 166 192 250 296 364
#     4  10  21  38  65  88 126 160 205 245 299 352
#     4  11  25  41  54  75 113 153 193 243 303 361
#     4  10  20  37  59  88 120 156 191 244 306 345
#     4   9  18  33  60  88 117 147 199 250 288 345
#
# _framework density 20.343395999999998
#
# number of rings (size 3 to 8) (size 9 to 14) (size 15 to 20)
#    0.000    1.793    0.690    5.379    0.000    4.966 
#    1.241    0.000    0.000    7.448    0.000    0.000 
#    0.000    0.000    0.000    0.000    0.000    0.000 
#
# Total GULP energy -161710.439542 kJ/mol
# GULP energy per Si atom -5576.222053 kJ/mol
# Density = 2.029709 g / cm^3
# Si number density = 20.343396 Si / 1000 Ang^3
#
#
#
# Elastic Constant Matrix: (Units=GPa)
#
#
# Indices 1 2 3 4 5 6 
#
# 1 71.5051 35.1431 14.9739 0.0000 3.1397 0.0000
# 2 35.1431 145.9674 35.6454 0.0000 -3.4800 0.0000
# 3 14.9739 35.6454 57.2691 0.0000 -16.0023 0.0000
# 4 0.0000 0.0000 0.0000 28.0347 0.0000 -8.3623
# 5 3.1397 -3.4800 -16.0023 0.0000 31.3725 0.0000
# 6 0.0000 0.0000 0.0000 -8.3623 0.0000 18.5149
#
#
#
# Elastic Compliance Matrix: (Units=1/GPa)
#
#
# Indices 1 2 3 4 5 6 
#
# 1 0.016431 -0.003234 -0.003315 0.000000 -0.003694 0.000000
# 2 -0.003234 0.008819 -0.004991 0.000000 -0.001244 0.000000
# 3 -0.003315 -0.004991 0.024925 0.000000 0.012492 0.000000
# 4 0.000000 0.000000 0.000000 0.041224 0.000000 0.018619
# 5 -0.003694 -0.001244 0.012492 0.000000 0.038479 0.000000
# 6 0.000000 0.000000 0.000000 0.018619 0.000000 0.062420
#
#
# Mechanical properties :
#
#
# Convention : Reuss Voigt Hill
#
# Bulk Modulus (GPa) = 36.90851 49.58517 43.24684
# Shear Modulus (GPa) = 22.28072 28.18302 25.23187
#
# Velocity S-wave (km/s) = 3.31302 3.72609 3.52561
# Velocity P-wave (km/s) = 5.72861 6.55276 6.15449
#
# Compressibility (1/GPa) = 0.02709402
#
# Stress axis : x y z
#
# Youngs Moduli (GPa) = 60.86006 113.39587 40.12020
#
# Poissons Ratio (x) = 0.36677 0.13301
# Poissons Ratio (y) = 0.19685 0.20023
# Poissons Ratio (z) = 0.20177 0.56593
#
# Static dielectric constant tensor:
#      x y z
#    x 1.720070 0.000000 -0.010520 
#    y 0.000000 1.693190 0.000000 
#    z -0.010520 0.000000 1.772160 
# 
# From -- ./inp_files/300731.got.cif
#   From: 2010.05.17/outbox.cif.g08.bks.cpg/sg12_151_cif.got.tgz:300731.got - 2010.06.03 13:09:07.
