data_PCOD9200178
_publ_section_title
;
Structure prediction by ZEFSAII (Michael W. Deem and Ramdas Pophale) SiO2 
 PCOD9200178
Probable space group: C 2/M
;
_chemical_formula_sum "Si O2"
_cell_formula_units_Z 58
_cell_length_a 26.023961
_cell_length_b 21.320596
_cell_length_c 7.324762
_cell_angle_alpha 90.000000
_cell_angle_beta 140.966801
_cell_angle_gamma 90.000000
_cell_volume 2559.461685
_symmetry_space_group_name_H-M "C 2/M"
_symmetry_group_IT_number 12
_symmetry_cell_setting 'monoclinic'
loop_
_space_group_symop_operation_xyz
x,y,z
-x,y,-z
-x,-y,-z
x,-y,z
1/2+x,1/2+y,z
1/2-x,1/2+y,-z
1/2-x,1/2-y,-z
1/2+x,1/2-y,z
loop_
_atom_site_type_symbol
_atom_site_label
_atom_site_fract_x
_atom_site_fract_y
_atom_site_fract_z
Si Si1 0.664831 0.072866 0.472835
Si Si2 0.843322 0.927745 0.821535
Si Si3 0.500000 0.000000 0.500000
Si Si4 0.952657 0.272382 0.673833
Si Si5 0.323068 0.147855 0.168838
Si Si6 0.327948 0.428713 0.338235
Si Si7 0.426728 0.876298 0.112474
Si Si8 0.509006 0.633057 0.246345
O O1 0.759180 0.088426 0.689463
O O2 0.643677 0.088224 0.622656
O O3 0.653276 0.000000 0.403145
O O4 0.610336 0.114023 0.189718
O O5 0.828152 0.925375 0.560288
O O6 0.862992 0.000000 0.919091
O O7 0.921200 0.885628 0.080736
O O8 0.545674 0.055850 0.743733
O O9 0.001032 0.326549 0.701533
O O10 0.858116 0.294198 0.385158
O O11 0.964389 0.202911 0.628761
O O12 0.000000 0.270747 0.000000
O O13 0.359403 0.149099 0.067303
O O14 0.229328 0.127754 0.887956
O O15 0.300775 0.500000 0.213705
O O16 0.418934 0.416105 0.518152
O O17 0.500000 0.631772 0.000000
#
# Coordination Sequence:
#
# PCOD9200178 Si02
#       8
#     8   8   2   8   8   8   8   8
#     4  11  23  37  63  96 129 165 207 264 327 380
#     4   9  18  38  66  98 132 164 208 267 330 382
#     4  12  24  36  70  92 120 172 222 260 330 376
#     4  11  23  43  63  89 130 175 221 260 311 384
#     4  12  24  39  63  92 134 164 212 263 317 380
#     4  10  20  36  66 100 131 165 209 269 327 381
#     4  12  24  41  61  93 128 171 213 265 317 378
#     4   9  20  40  67  95 126 172 219 262 318 387
#
# _framework density 22.661016
#
# number of rings (size 3 to 8) (size 9 to 14) (size 15 to 20)
#    0.000    1.379    4.828    0.828    1.931    2.207 
#    0.000    7.241    0.000    2.483    0.000    0.000 
#    0.000    0.000    0.000    0.000    0.000    0.000 
#
# Total GULP energy -161720.347960 kJ/mol
# GULP energy per Si atom -5576.563723 kJ/mol
# Density = 2.260944 g / cm^3
# Si number density = 22.661016 Si / 1000 Ang^3
#
#
#
# Elastic Constant Matrix: (Units=GPa)
#
#
# Indices 1 2 3 4 5 6 
#
# 1 44.2695 1.1021 2.4910 0.0000 -12.6150 0.0000
# 2 1.1021 99.9886 35.1587 0.0000 17.9803 0.0000
# 3 2.4910 35.1587 74.2874 0.0000 12.8931 0.0000
# 4 0.0000 0.0000 0.0000 32.2564 0.0000 10.4205
# 5 -12.6150 17.9803 12.8931 0.0000 30.0472 0.0000
# 6 0.0000 0.0000 0.0000 10.4205 0.0000 9.4655
#
#
#
# Elastic Compliance Matrix: (Units=1/GPa)
#
#
# Indices 1 2 3 4 5 6 
#
# 1 0.026540 -0.001864 -0.002307 0.000000 0.013248 0.000000
# 2 -0.001864 0.012906 -0.004937 0.000000 -0.006387 0.000000
# 3 -0.002307 -0.004937 0.016780 0.000000 -0.005215 0.000000
# 4 0.000000 0.000000 0.000000 0.048113 0.000000 -0.052967
# 5 0.013248 -0.006387 -0.005215 0.000000 0.044903 0.000000
# 6 0.000000 0.000000 0.000000 -0.052967 0.000000 0.163958
#
#
# Mechanical properties :
#
#
# Convention : Reuss Voigt Hill
#
# Bulk Modulus (GPa) = 26.30831 32.89434 29.60132
# Shear Modulus (GPa) = 14.53122 26.34004 20.43563
#
# Velocity S-wave (km/s) = 2.53503 3.41302 3.00625
# Velocity P-wave (km/s) = 4.49479 5.48443 5.01409
#
# Compressibility (1/GPa) = 0.03801080
#
# Stress axis : x y z
#
# Youngs Moduli (GPa) = 37.67860 77.48157 59.59353
#
# Poissons Ratio (x) = 0.14439 0.13750
# Poissons Ratio (y) = 0.07022 0.29423
# Poissons Ratio (z) = 0.08693 0.38255
#
# Static dielectric constant tensor:
#      x y z
#    x 1.862040 0.000000 -0.033160 
#    y 0.000000 1.770720 0.000000 
#    z -0.033160 0.000000 1.923330 
# 
# From -- ./inp_files/113593.got.cif
#   From: 2010.05.17/outbox.cif.g08.bks.cpg/sg12_57_cif.got.tgz:113593.got - 2010.06.03 13:09:07.
