data_PCOD9200137
_publ_section_title
;
Structure prediction by ZEFSAII (Michael W. Deem and Ramdas Pophale) SiO2 
 PCOD9200137
Probable space group: C 2/M
;
_chemical_formula_sum "Si O2"
_cell_formula_units_Z 60
_cell_length_a 24.774038
_cell_length_b 9.241943
_cell_length_c 27.256669
_cell_angle_alpha 90.000000
_cell_angle_beta 28.906780
_cell_angle_gamma 90.000000
_cell_volume 3016.663803
_symmetry_space_group_name_H-M "C 2/M"
_symmetry_group_IT_number 12
_symmetry_cell_setting 'monoclinic'
loop_
_space_group_symop_operation_xyz
x,y,z
-x,y,-z
-x,-y,-z
x,-y,z
1/2+x,1/2+y,z
1/2-x,1/2+y,-z
1/2-x,1/2-y,-z
1/2+x,1/2-y,z
loop_
_atom_site_type_symbol
_atom_site_label
_atom_site_fract_x
_atom_site_fract_y
_atom_site_fract_z
Si Si1 0.402510 0.825204 0.539260
Si Si2 0.434149 0.663620 0.762517
Si Si3 0.293159 0.000000 0.452018
Si Si4 0.961235 0.170015 0.930160
Si Si5 0.628595 0.826496 0.093480
Si Si6 0.737314 0.169817 0.170265
Si Si7 0.856925 0.771214 0.468365
Si Si8 0.206579 0.175088 0.766489
O O1 0.500000 0.785706 0.500000
O O2 0.406819 0.754631 0.482496
O O3 0.286288 0.786139 0.658183
O O4 0.407536 0.000000 0.529210
O O5 0.402533 0.500000 0.802241
O O6 0.439086 0.766734 0.805866
O O7 0.343123 0.734723 0.799079
O O8 0.549790 0.659446 0.641355
O O9 0.249857 0.126136 0.448110
O O10 0.325140 0.123620 0.467323
O O11 0.928089 0.268703 0.910749
O O12 0.078896 0.217202 0.859282
O O13 0.970306 0.000000 0.907437
O O14 0.861332 0.175889 0.048880
O O15 0.638432 0.000000 0.087255
O O16 0.750000 0.750000 0.000000
O O17 0.743363 0.222805 0.221317
O O18 0.701123 0.000000 0.197424
O O19 0.206424 0.000000 0.769936
#
# Coordination Sequence:
#
# PCOD9200137 Si02
#       8
#     8   8   4   8   8   8   8   8
#     4  10  20  37  65  95 129 167 218 275 321 381
#     4  12  25  41  65  93 125 168 213 262 318 382
#     4  10  24  42  66  90 132 166 214 272 322 388
#     4  10  20  37  62  92 130 168 207 260 311 375
#     4  12  25  42  63  93 131 167 211 258 316 375
#     4  10  20  36  64  93 127 162 212 261 310 374
#     4  11  23  44  65  95 127 170 218 266 332 389
#     4   9  19  36  60  96 124 166 213 257 316 376
#
# _framework density 19.889521999999999
#
# number of rings (size 3 to 8) (size 9 to 14) (size 15 to 20)
#    0.000    1.467    2.667    2.800    1.867    4.800 
#    2.400    1.000    1.467    1.600    0.000    0.000 
#    0.000    0.000    0.000    0.000    0.000    0.000 
#
# Total GULP energy -167061.987022 kJ/mol
# GULP energy per Si atom -5568.732901 kJ/mol
# Density = 1.984425 g / cm^3
# Si number density = 19.889522 Si / 1000 Ang^3
#
#
#
# Elastic Constant Matrix: (Units=GPa)
#
#
# Indices 1 2 3 4 5 6 
#
# 1 83.1975 25.9028 1.1975 0.0000 16.1141 0.0000
# 2 25.9028 110.7695 11.3769 -0.0002 1.8195 0.0004
# 3 1.1975 11.3769 27.3095 -0.0001 13.9860 0.0000
# 4 0.0000 -0.0002 -0.0001 2.3434 0.0000 16.7504
# 5 16.1141 1.8195 13.9860 0.0000 32.4505 0.0000
# 6 0.0000 0.0004 0.0000 16.7504 0.0000 -7.2708
#
#
#
# Elastic Compliance Matrix: (Units=1/GPa)
#
#
# Indices 1 2 3 4 5 6 
#
# 1 0.015088 -0.003988 0.006060 0.000000 -0.009880 0.000000
# 2 -0.003988 0.010542 -0.006324 0.000000 0.004115 0.000000
# 3 0.006060 -0.006324 0.051773 0.000000 -0.024969 0.000000
# 4 0.000000 0.000000 0.000000 0.024430 0.000000 0.056282
# 5 -0.009880 0.004115 -0.024969 0.000000 0.046253 0.000000
# 6 0.000000 0.000000 0.000000 0.056282 0.000000 -0.007874
#
#
# Mechanical properties :
#
#
# Convention : Reuss Voigt Hill
#
# Bulk Modulus (GPa) = 14.51424 33.13677 23.82551
# Shear Modulus (GPa) = 29.12318 17.69125 23.40721
#
# Velocity S-wave (km/s) = 3.83070 2.98564 3.43426
# Velocity P-wave (km/s) = 5.18449 5.34621 5.26597
#
# Compressibility (1/GPa) = 0.06889786
#
# Stress axis : x y z
#
# Youngs Moduli (GPa) = 66.27889 94.85527 19.31490
#
# Poissons Ratio (x) = 0.37831 -0.11705
# Poissons Ratio (y) = 0.26434 0.12216
# Poissons Ratio (z) = -0.40164 0.59991
#
# Static dielectric constant tensor:
#      x y z
#    x 1.675860 0.000000 -0.012620 
#    y 0.000000 1.634210 0.000000 
#    z -0.012620 0.000000 1.747050 
# 
# From -- ./inp_files/367558.got.cif
#   From: 2010.05.17/outbox.cif.g08.bks.cpg/sg12_184_cif.got.tgz:367558.got - 2010.06.03 13:09:07.
