data_PCOD9200500
_publ_section_title
;
Structure prediction by ZEFSAII (Michael W. Deem and Ramdas Pophale) SiO2 
 PCOD9200500
Probable space group: C 2/M
;
_chemical_formula_sum "Si O2"
_cell_formula_units_Z 64
_cell_length_a 14.935101
_cell_length_b 8.620064
_cell_length_c 31.279087
_cell_angle_alpha 90.000000
_cell_angle_beta 130.943221
_cell_angle_gamma 90.000000
_cell_volume 3041.769720
_symmetry_space_group_name_H-M "C 2/M"
_symmetry_group_IT_number 12
_symmetry_cell_setting 'monoclinic'
loop_
_space_group_symop_operation_xyz
x,y,z
-x,y,-z
-x,-y,-z
x,-y,z
1/2+x,1/2+y,z
1/2-x,1/2+y,-z
1/2-x,1/2-y,-z
1/2+x,1/2-y,z
loop_
_atom_site_type_symbol
_atom_site_label
_atom_site_fract_x
_atom_site_fract_y
_atom_site_fract_z
Si Si1 0.324811 0.816455 0.983704
Si Si2 0.239282 0.311236 0.391540
Si Si3 0.241288 0.184851 0.699960
Si Si4 0.132008 0.813535 0.486437
Si Si5 0.723312 0.183383 0.864185
Si Si6 0.983081 0.816701 0.810816
Si Si7 0.034671 0.184939 0.097327
Si Si8 0.503533 0.185076 0.368821
O O1 0.282207 0.732480 0.927605
O O2 0.306115 0.000000 0.973485
O O3 0.250000 0.750000 0.000000
O O4 0.459431 0.777889 0.039052
O O5 0.237936 0.500000 0.390372
O O6 0.252677 0.257506 0.347414
O O7 0.345563 0.267434 0.457287
O O8 0.113452 0.262209 0.373244
O O9 0.364862 0.230375 0.759817
O O10 0.125304 0.257694 0.685350
O O11 0.227636 0.000000 0.695449
O O12 0.250000 0.750000 0.500000
O O13 0.028240 0.748460 0.424446
O O14 0.127635 0.000000 0.483353
O O15 0.598739 0.268726 0.820539
O O16 0.825802 0.219273 0.862170
O O17 0.700995 0.000000 0.857045
O O18 0.009016 0.779433 0.868677
O O19 0.962992 0.000000 0.801701
O O20 0.018934 0.000000 0.084501
O O21 0.506948 0.000000 0.370890
#
# Coordination Sequence:
#
# PCOD9200500 Si02
#       8
#     8   8   8   8   8   8   8   8
#     4  12  23  37  62  94 128 161 195 240 293 347
#     4   8  18  36  58  81 113 154 190 229 288 356
#     4  11  23  40  60  83 111 151 200 245 288 345
#     4   9  16  31  55  84 115 150 189 232 287 350
#     4  11  23  41  65  92 120 157 198 240 292 356
#     4  11  24  43  62  84 117 156 197 247 296 345
#     4  10  23  42  64  89 122 160 197 238 297 358
#     4  10  20  37  58  84 116 151 190 236 292 352
#
# _framework density 21.040384
#
# number of rings (size 3 to 8) (size 9 to 14) (size 15 to 20)
#    0.000    1.750    1.250    4.125    0.000    4.500 
#    0.000   15.000    0.000    0.000    0.000    0.000 
#    0.000    0.000    0.000    0.000    0.000    0.000 
#
# Total GULP energy -178816.226496 kJ/mol
# GULP energy per Si atom -5588.007078 kJ/mol
# Density = 2.099249 g / cm^3
# Si number density = 21.040384 Si / 1000 Ang^3
#
#
#
# Elastic Constant Matrix: (Units=GPa)
#
#
# Indices 1 2 3 4 5 6 
#
# 1 70.1921 11.1969 1.4397 0.0000 17.2146 0.0000
# 2 11.1969 37.9019 2.3268 0.0000 3.4954 0.0000
# 3 1.4397 2.3268 35.9957 0.0000 19.5195 0.0000
# 4 0.0000 0.0000 0.0000 34.7859 0.0000 9.6608
# 5 17.2146 3.4954 19.5195 0.0000 33.2676 0.0000
# 6 0.0000 0.0000 0.0000 9.6608 0.0000 25.5240
#
#
#
# Elastic Compliance Matrix: (Units=1/GPa)
#
#
# Indices 1 2 3 4 5 6 
#
# 1 0.017911 -0.004527 0.006372 0.000000 -0.012531 0.000000
# 2 -0.004527 0.027788 -0.001910 0.000000 0.000543 0.000000
# 3 0.006372 -0.001910 0.043015 0.000000 -0.028335 0.000000
# 4 0.000000 0.000000 0.000000 0.032124 0.000000 -0.012159
# 5 -0.012531 0.000543 -0.028335 0.000000 0.053112 0.000000
# 6 0.000000 0.000000 0.000000 -0.012159 0.000000 0.043781
#
#
# Mechanical properties :
#
#
# Convention : Reuss Voigt Hill
#
# Bulk Modulus (GPa) = 11.28865 19.33517 15.31191
# Shear Modulus (GPa) = 20.21099 27.32392 23.76745
#
# Velocity S-wave (km/s) = 3.10269 3.60758 3.36462
# Velocity P-wave (km/s) = 4.26760 5.15386 4.73153
#
# Compressibility (1/GPa) = 0.08858457
#
# Stress axis : x y z
#
# Youngs Moduli (GPa) = 55.83063 35.98633 23.24766
#
# Poissons Ratio (x) = 0.16290 -0.14812
# Poissons Ratio (y) = 0.25274 0.04440
# Poissons Ratio (z) = -0.35573 0.06873
#
# Static dielectric constant tensor:
#      x y z
#    x 1.796010 0.000000 0.007080 
#    y 0.000000 1.707940 0.000000 
#    z 0.007080 0.000000 1.761250 
# 
# From -- ./inp_files/375640.got.cif
#   From: 2010.05.17/outbox.cif.g08.bks.cpg/sg12_188_cif.got.tgz:375640.got - 2010.06.03 13:09:07.
