data_PCOD9200513
_publ_section_title
;
Structure prediction by ZEFSAII (Michael W. Deem and Ramdas Pophale) SiO2 
 PCOD9200513
Probable space group: C 2/M
;
_chemical_formula_sum "Si O2"
_cell_formula_units_Z 58
_cell_length_a 29.184415
_cell_length_b 7.687266
_cell_length_c 12.037576
_cell_angle_alpha 90.000000
_cell_angle_beta 101.921487
_cell_angle_gamma 90.000000
_cell_volume 2642.362563
_symmetry_space_group_name_H-M "C 2/M"
_symmetry_group_IT_number 12
_symmetry_cell_setting 'monoclinic'
loop_
_space_group_symop_operation_xyz
x,y,z
-x,y,-z
-x,-y,-z
x,-y,z
1/2+x,1/2+y,z
1/2-x,1/2+y,-z
1/2-x,1/2-y,-z
1/2+x,1/2-y,z
loop_
_atom_site_type_symbol
_atom_site_label
_atom_site_fract_x
_atom_site_fract_y
_atom_site_fract_z
Si Si1 0.112578 0.299199 0.095586
Si Si2 0.353960 0.290801 0.533052
Si Si3 0.801175 0.799057 0.721743
Si Si4 0.942424 0.704189 0.723513
Si Si5 0.000000 0.000000 0.500000
Si Si6 0.037636 0.708585 0.655883
Si Si7 0.626752 0.207191 0.857775
Si Si8 0.804053 0.202889 0.291186
O O1 0.097598 0.500000 0.072508
O O2 0.163536 0.298446 0.178577
O O3 0.077489 0.221093 0.170556
O O4 0.116776 0.220380 0.975484
O O5 0.358523 0.500000 0.531305
O O6 0.313046 0.244859 0.601411
O O7 0.401149 0.222088 0.612886
O O8 0.338817 0.225528 0.404443
O O9 0.747216 0.782378 0.724817
O O10 0.815240 0.000000 0.737759
O O11 0.950621 0.500000 0.745562
O O12 0.991201 0.771219 0.700231
O O13 0.037452 0.156190 0.555056
O O14 0.034298 0.500000 0.626649
O O15 0.082070 0.733654 0.756647
O O16 0.671631 0.277571 0.815348
O O17 0.634119 0.000000 0.872066
O O18 0.797593 0.000000 0.312291
#
# Coordination Sequence:
#
# PCOD9200513 Si02
#       8
#     8   8   8   8   2   8   8   8
#     4   9  19  39  64  85 114 154 199 249 304 355
#     4   9  20  35  56  84 117 151 193 241 296 361
#     4  10  20  37  58  85 114 149 193 248 302 356
#     4   9  19  36  61  90 116 153 199 247 299 360
#     4  12  26  40  68  88 132 176 194 260 298 366
#     4  10  24  42  63  95 127 164 211 247 302 366
#     4  10  23  41  59  85 119 157 200 250 299 357
#     4  11  23  36  56  82 116 155 198 242 299 368
#
# _framework density 21.950054999999999
#
# number of rings (size 3 to 8) (size 9 to 14) (size 15 to 20)
#    0.000    2.207    0.000    1.448    3.862    3.310 
#    0.000    2.759    0.000    0.828    0.000    0.000 
#    0.000    0.000    0.000    0.000    0.000    0.000 
#
# Total GULP energy -161692.376440 kJ/mol
# GULP energy per Si atom -5575.599188 kJ/mol
# Density = 2.190010 g / cm^3
# Si number density = 21.950055 Si / 1000 Ang^3
#
#
#
# Elastic Constant Matrix: (Units=GPa)
#
#
# Indices 1 2 3 4 5 6 
#
# 1 93.0235 -5.8029 16.6985 0.0000 -31.3447 0.0000
# 2 -5.8029 63.9375 11.8041 0.0000 -0.1242 0.0000
# 3 16.6985 11.8041 99.3717 0.0000 -20.5768 0.0000
# 4 0.0000 0.0000 0.0000 12.6844 0.0000 -3.7518
# 5 -31.3447 -0.1242 -20.5768 0.0000 26.3519 0.0000
# 6 0.0000 0.0000 0.0000 -3.7518 0.0000 -26.9867
#
#
#
# Elastic Compliance Matrix: (Units=1/GPa)
#
#
# Indices 1 2 3 4 5 6 
#
# 1 0.018303 0.001427 0.001508 0.000000 0.022955 0.000000
# 2 0.001427 0.016165 -0.002138 0.000000 0.000104 0.000000
# 3 0.001508 -0.002138 0.012445 0.000000 0.011502 0.000000
# 4 0.000000 0.000000 0.000000 0.075723 0.000000 -0.010527
# 5 0.022955 0.000104 0.011502 0.000000 0.074234 0.000000
# 6 0.000000 0.000000 0.000000 -0.010527 0.000000 -0.035592
#
#
# Mechanical properties :
#
#
# Convention : Reuss Voigt Hill
#
# Bulk Modulus (GPa) = 20.61531 33.52579 27.07055
# Shear Modulus (GPa) = 28.43260 17.98546 23.20903
#
# Velocity S-wave (km/s) = 3.60298 2.86559 3.25523
# Velocity P-wave (km/s) = 5.16923 5.12402 5.14667
#
# Compressibility (1/GPa) = 0.04850763
#
# Stress axis : x y z
#
# Youngs Moduli (GPa) = 54.63509 61.86269 80.35041
#
# Poissons Ratio (x) = -0.08830 -0.12118
# Poissons Ratio (y) = -0.07798 0.17183
# Poissons Ratio (z) = -0.08240 0.13229
#
# Static dielectric constant tensor:
#      x y z
#    x 1.793390 0.000000 -0.050170 
#    y 0.000000 1.805110 0.000000 
#    z -0.050170 0.000000 1.852120 
# 
# From -- ./inp_files/180950.got.cif
#   From: 2010.05.17/outbox.cif.g08.bks.cpg/sg12_91_cif.got.tgz:180950.got - 2010.06.03 13:09:07.
