data_PCOD9200470
_publ_section_title
;
Structure prediction by ZEFSAII (Michael W. Deem and Ramdas Pophale) SiO2 
 PCOD9200470
Probable space group: C 2/M
;
_chemical_formula_sum "Si O2"
_cell_formula_units_Z 56
_cell_length_a 15.242621
_cell_length_b 8.604482
_cell_length_c 25.129782
_cell_angle_alpha 90.000000
_cell_angle_beta 62.933713
_cell_angle_gamma 90.000000
_cell_volume 2934.929079
_symmetry_space_group_name_H-M "C 2/M"
_symmetry_group_IT_number 12
_symmetry_cell_setting 'monoclinic'
loop_
_space_group_symop_operation_xyz
x,y,z
-x,y,-z
-x,-y,-z
x,-y,z
1/2+x,1/2+y,z
1/2-x,1/2+y,-z
1/2-x,1/2-y,-z
1/2+x,1/2-y,z
loop_
_atom_site_type_symbol
_atom_site_label
_atom_site_fract_x
_atom_site_fract_y
_atom_site_fract_z
Si Si1 0.259306 0.812163 0.654675
Si Si2 0.981711 0.687465 0.566395
Si Si3 0.643682 0.186829 0.010440
Si Si4 0.214001 0.311039 0.880187
Si Si5 0.174476 0.185637 0.564649
Si Si6 0.428796 0.314055 0.864367
Si Si7 0.863321 0.686248 0.213338
O O1 0.373472 0.767953 0.616002
O O2 0.205373 0.763438 0.615099
O O3 0.207534 0.740500 0.720034
O O4 0.254489 0.000000 0.659721
O O5 0.988833 0.500000 0.565727
O O6 0.000000 0.735148 0.500000
O O7 0.066542 0.758341 0.578952
O O8 0.571004 0.254008 0.074667
O O9 0.640610 0.000000 0.014168
O O10 0.750000 0.250000 0.000000
O O11 0.641033 0.232586 0.949055
O O12 0.215371 0.500000 0.878974
O O13 0.325665 0.262123 0.865226
O O14 0.178597 0.257736 0.832328
O O15 0.250000 0.250000 0.500000
O O16 0.180417 0.000000 0.561558
O O17 0.428540 0.500000 0.864639
O O18 0.526665 0.251577 0.809674
O O19 0.867928 0.500000 0.210725
#
# Coordination Sequence:
#
# PCOD9200470 Si02
#       7
#     8   8   8   8   8   8   8
#     4  10  23  42  59  81 119 156 186 232 292 344
#     4  10  20  39  63  88 119 152 185 231 290 342
#     4   9  16  31  55  83 112 147 191 239 291 342
#     4   8  18  36  57  79 111 151 188 233 288 342
#     4  11  22  38  62  90 119 151 189 231 285 343
#     4  10  20  37  58  82 115 152 189 236 295 347
#     4  11  23  39  58  82 111 150 199 240 277 339
#
# _framework density 19.08053
#
# number of rings (size 3 to 8) (size 9 to 14) (size 15 to 20)
#    0.000    2.143    1.429    2.571    0.000    3.714 
#    0.000   15.714    0.000    0.000    0.000    0.000 
#    0.000    0.000    0.000    0.000    0.000    0.000 
#
# Total GULP energy -156306.921315 kJ/mol
# GULP energy per Si atom -5582.390047 kJ/mol
# Density = 1.903710 g / cm^3
# Si number density = 19.080530 Si / 1000 Ang^3
#
#
#
# Elastic Constant Matrix: (Units=GPa)
#
#
# Indices 1 2 3 4 5 6 
#
# 1 92.5611 19.7456 30.9971 0.0000 -0.2413 0.0000
# 2 19.7456 31.3764 23.9592 0.0000 -4.6887 0.0000
# 3 30.9971 23.9592 105.4797 0.0000 -7.6315 0.0000
# 4 0.0000 0.0000 0.0000 35.7156 0.0000 -2.4717
# 5 -0.2413 -4.6887 -7.6315 0.0000 33.0821 0.0000
# 6 0.0000 0.0000 0.0000 -2.4717 0.0000 24.3050
#
#
#
# Elastic Compliance Matrix: (Units=1/GPa)
#
#
# Indices 1 2 3 4 5 6 
#
# 1 0.013011 -0.006533 -0.002440 0.000000 -0.001394 0.000000
# 2 -0.006533 0.042242 -0.007369 0.000000 0.004240 0.000000
# 3 -0.002440 -0.007369 0.011995 0.000000 0.001705 0.000000
# 4 0.000000 0.000000 0.000000 0.028197 0.000000 0.002868
# 5 -0.001394 0.004240 0.001705 0.000000 0.031212 0.000000
# 6 0.000000 0.000000 0.000000 0.002868 0.000000 0.041435
#
#
# Mechanical properties :
#
#
# Convention : Reuss Voigt Hill
#
# Bulk Modulus (GPa) = 28.93146 42.09121 35.51133
# Shear Modulus (GPa) = 23.55182 28.93489 26.24336
#
# Velocity S-wave (km/s) = 3.51713 3.89840 3.71266
# Velocity P-wave (km/s) = 5.62933 6.50930 6.08524
#
# Compressibility (1/GPa) = 0.03456445
#
# Stress axis : x y z
#
# Youngs Moduli (GPa) = 76.85872 23.67291 83.36958
#
# Poissons Ratio (x) = 0.15465 0.20346
# Poissons Ratio (y) = 0.50209 0.61432
# Poissons Ratio (z) = 0.18757 0.17444
#
# Static dielectric constant tensor:
#      x y z
#    x 1.657890 0.000000 0.011950 
#    y 0.000000 1.649940 0.000000 
#    z 0.011950 0.000000 1.652050 
# 
# From -- ./inp_files/338549.got.cif
#   From: 2010.05.17/outbox.cif.g08.bks.cpg/sg12_170_cif.got.tgz:338549.got - 2010.06.03 13:09:07.
