data_PCOD9200783
_publ_section_title
;
Structure prediction by ZEFSAII (Michael W. Deem and Ramdas Pophale) SiO2 
 PCOD9200783
Probable space group: C 2/M
;
_chemical_formula_sum "Si O2"
_cell_formula_units_Z 58
_cell_length_a 24.709182
_cell_length_b 9.073980
_cell_length_c 24.869137
_cell_angle_alpha 90.000000
_cell_angle_beta 144.369083
_cell_angle_gamma 90.000000
_cell_volume 3248.319827
_symmetry_space_group_name_H-M "C 2/M"
_symmetry_group_IT_number 12
_symmetry_cell_setting 'monoclinic'
loop_
_space_group_symop_operation_xyz
x,y,z
-x,y,-z
-x,-y,-z
x,-y,z
1/2+x,1/2+y,z
1/2-x,1/2+y,-z
1/2-x,1/2-y,-z
1/2+x,1/2-y,z
loop_
_atom_site_type_symbol
_atom_site_label
_atom_site_fract_x
_atom_site_fract_y
_atom_site_fract_z
Si Si1 0.375824 0.823347 0.783972
Si Si2 0.899151 0.213591 0.919960
Si Si3 0.269500 0.332872 0.912378
Si Si4 0.921231 0.823141 0.224746
Si Si5 0.784137 0.825550 0.611067
Si Si6 0.076294 0.676231 0.890686
Si Si7 0.000000 0.500000 0.000000
Si Si8 0.104379 0.325674 0.396641
O O1 0.365747 0.739845 0.832226
O O2 0.305854 0.760847 0.683191
O O3 0.479530 0.799647 0.844376
O O4 0.367401 0.000000 0.787079
O O5 0.822952 0.157045 0.898889
O O6 0.930895 0.373087 0.967130
O O7 0.000000 0.138942 0.000000
O O8 0.248944 0.500000 0.914448
O O9 0.176049 0.238965 0.832354
O O10 0.339059 0.252254 0.009711
O O11 0.931780 0.754252 0.173564
O O12 0.007788 0.756780 0.327682
O O13 0.923481 0.000000 0.225017
O O14 0.847418 0.751199 0.615982
O O15 0.678677 0.812171 0.504770
O O16 0.806127 0.000000 0.633729
O O17 0.089168 0.500000 0.895462
O O18 0.090212 0.500000 0.374250
#
# Coordination Sequence:
#
# PCOD9200783 Si02
#       8
#     8   8   8   8   8   8   2   8
#     4  11  20  34  59  87 117 155 189 237 290 339
#     4  10  20  37  60  80 113 149 196 236 283 332
#     4  12  26  40  57  83 118 158 197 238 285 340
#     4  12  25  39  60  84 115 154 196 240 288 346
#     4  10  21  34  57  86 117 150 188 237 288 344
#     4  11  22  38  59  84 119 157 194 233 284 339
#     4   8  16  36  58  80 108 146 194 240 280 326
#     4  10  20  38  57  82 116 151 189 235 291 345
#
# _framework density 17.855384000000001
#
# number of rings (size 3 to 8) (size 9 to 14) (size 15 to 20)
#    0.414    0.828    3.448    3.310    3.862    3.034 
#    0.000    0.000    0.000    0.828    0.000    4.828 
#    0.000    0.000    0.000    0.000    0.000    0.000 
#
# Total GULP energy -161600.300196 kJ/mol
# GULP energy per Si atom -5572.424145 kJ/mol
# Density = 1.781474 g / cm^3
# Si number density = 17.855384 Si / 1000 Ang^3
#
#
#
# Elastic Constant Matrix: (Units=GPa)
#
#
# Indices 1 2 3 4 5 6 
#
# 1 58.8907 18.7410 36.0604 0.0000 -0.4104 0.0000
# 2 18.7410 132.2122 49.0751 0.0000 13.6952 0.0000
# 3 36.0604 49.0751 114.8738 0.0000 4.4377 0.0000
# 4 0.0000 0.0000 0.0000 89.3170 0.0000 -10.3001
# 5 -0.4104 13.6952 4.4377 0.0000 25.9682 0.0000
# 6 0.0000 0.0000 0.0000 -10.3001 0.0000 29.1969
#
#
#
# Elastic Compliance Matrix: (Units=1/GPa)
#
#
# Indices 1 2 3 4 5 6 
#
# 1 0.021150 -0.000831 -0.006356 0.000000 0.001859 0.000000
# 2 -0.000831 0.009480 -0.003619 0.000000 -0.004394 0.000000
# 3 -0.006356 -0.003619 0.012258 0.000000 -0.000286 0.000000
# 4 0.000000 0.000000 0.000000 0.011671 0.000000 0.004117
# 5 0.001859 -0.004394 -0.000286 0.000000 0.040904 0.000000
# 6 0.000000 0.000000 0.000000 0.004117 0.000000 0.035703
#
#
# Mechanical properties :
#
#
# Convention : Reuss Voigt Hill
#
# Bulk Modulus (GPa) = 47.00413 57.08108 52.04261
# Shear Modulus (GPa) = 31.27535 42.36977 36.82256
#
# Velocity S-wave (km/s) = 4.18974 4.87657 4.54615
# Velocity P-wave (km/s) = 7.05601 7.98410 7.53436
#
# Compressibility (1/GPa) = 0.02127473
#
# Stress axis : x y z
#
# Youngs Moduli (GPa) = 47.28119 105.48506 81.58164
#
# Poissons Ratio (x) = 0.08769 0.51853
# Poissons Ratio (y) = 0.03931 0.29526
# Poissons Ratio (z) = 0.30052 0.38177
#
# Static dielectric constant tensor:
#      x y z
#    x 1.616140 0.000000 -0.009250 
#    y 0.000000 1.608330 0.000000 
#    z -0.009250 0.000000 1.635570 
# 
# From -- ./inp_files/367636.got.cif
#   From: 2010.05.17/outbox.cif.g08.bks.cpg/sg12_184_cif.got.tgz:367636.got - 2010.06.03 13:09:07.
