data_PCOD9200448
_publ_section_title
;
Structure prediction by ZEFSAII (Michael W. Deem and Ramdas Pophale) SiO2 
 PCOD9200448
Probable space group: C 2/M
;
_chemical_formula_sum "Si O2"
_cell_formula_units_Z 40
_cell_length_a 8.673045
_cell_length_b 10.821760
_cell_length_c 25.575415
_cell_angle_alpha 90.000000
_cell_angle_beta 51.503703
_cell_angle_gamma 90.000000
_cell_volume 1878.706260
_symmetry_space_group_name_H-M "C 2/M"
_symmetry_group_IT_number 12
_symmetry_cell_setting 'monoclinic'
loop_
_space_group_symop_operation_xyz
x,y,z
-x,y,-z
-x,-y,-z
x,-y,z
1/2+x,1/2+y,z
1/2-x,1/2+y,-z
1/2-x,1/2-y,-z
1/2+x,1/2-y,z
loop_
_atom_site_type_symbol
_atom_site_label
_atom_site_fract_x
_atom_site_fract_y
_atom_site_fract_z
Si Si1 0.458169 0.637646 0.570728
Si Si2 0.469574 0.859196 0.371383
Si Si3 0.884663 0.136554 0.227461
Si Si4 0.267577 0.717701 0.141809
Si Si5 0.347216 0.137935 0.947636
O O1 0.500000 0.644506 0.500000
O O2 0.521413 0.500000 0.575336
O O3 0.549896 0.751432 0.582073
O O4 0.221209 0.646404 0.625269
O O5 0.673946 0.839259 0.298093
O O6 0.471535 0.000000 0.392910
O O7 0.856956 0.141346 0.170688
O O8 0.054974 0.232598 0.204147
O O9 0.948031 0.000000 0.230683
O O10 0.420239 0.830645 0.101414
O O11 0.235988 0.648518 0.093826
O O12 0.309080 0.000000 0.976143
O O13 0.250000 0.250000 0.000000
#
# Coordination Sequence:
#
# PCOD9200448 Si02
#       5
#     8   8   8   8   8
#     4  10  21  37  56  81 115 152 190 233 280 331
#     4  10  21  36  57  85 113 146 189 233 280 333
#     4  10  20  37  58  81 112 146 183 230 279 330
#     4  10  22  38  59  83 112 147 185 227 277 333
#     4  11  24  40  60  86 114 147 187 229 277 332
#
# _framework density 21.291246999999998
#
# number of rings (size 3 to 8) (size 9 to 14) (size 15 to 20)
#    0.000    1.800    0.000    3.600    0.000    7.600 
#    0.000    5.000    0.000    0.000    0.000    0.000 
#    0.000    0.000    0.000    0.000    0.000    0.000 
#
# Total GULP energy -111705.967828 kJ/mol
# GULP energy per Si atom -5585.298391 kJ/mol
# Density = 2.124279 g / cm^3
# Si number density = 21.291247 Si / 1000 Ang^3
#
#
#
# Elastic Constant Matrix: (Units=GPa)
#
#
# Indices 1 2 3 4 5 6 
#
# 1 53.2628 28.8702 -5.9449 0.0000 -6.9573 0.0000
# 2 28.8702 144.6517 28.6320 0.0000 10.2610 0.0000
# 3 -5.9449 28.6320 53.6157 0.0000 -8.8783 0.0000
# 4 0.0000 0.0000 0.0000 24.7171 0.0000 7.0189
# 5 -6.9573 10.2610 -8.8783 0.0000 29.8018 0.0000
# 6 0.0000 0.0000 0.0000 7.0189 0.0000 8.6034
#
#
#
# Elastic Compliance Matrix: (Units=1/GPa)
#
#
# Indices 1 2 3 4 5 6 
#
# 1 0.025281 -0.007548 0.008669 0.000000 0.011084 0.000000
# 2 -0.007548 0.010490 -0.007709 0.000000 -0.007670 0.000000
# 3 0.008669 -0.007709 0.025775 0.000000 0.012357 0.000000
# 4 0.000000 0.000000 0.000000 0.052657 0.000000 -0.042959
# 5 0.011084 -0.007670 0.012357 0.000000 0.042465 0.000000
# 6 0.000000 0.000000 0.000000 -0.042959 0.000000 0.151281
#
#
# Mechanical properties :
#
#
# Convention : Reuss Voigt Hill
#
# Bulk Modulus (GPa) = 20.67325 39.40499 30.03912
# Shear Modulus (GPa) = 14.82591 25.95599 20.39095
#
# Velocity S-wave (km/s) = 2.64168 3.49534 3.09805
# Velocity P-wave (km/s) = 4.36297 5.90234 5.19004
#
# Compressibility (1/GPa) = 0.04837169
#
# Stress axis : x y z
#
# Youngs Moduli (GPa) = 39.55463 95.33282 38.79675
#
# Poissons Ratio (x) = 0.71957 -0.33634
# Poissons Ratio (y) = 0.29856 0.29907
# Poissons Ratio (z) = -0.34291 0.73490
#
# Static dielectric constant tensor:
#      x y z
#    x 1.740580 0.000000 -0.022360 
#    y 0.000000 1.775380 0.000000 
#    z -0.022360 0.000000 1.793810 
# 
# From -- ./inp_files/254685.got.cif
#   From: 2010.05.17/outbox.cif.g08.bks.cpg/sg12_128_cif.got.tgz:254685.got - 2010.06.03 13:09:07.
