data_PCOD9200654
_publ_section_title
;
Structure prediction by ZEFSAII (Michael W. Deem and Ramdas Pophale) SiO2 
 PCOD9200654
Probable space group: C 2/M
;
_chemical_formula_sum "Si O2"
_cell_formula_units_Z 48
_cell_length_a 25.272431
_cell_length_b 7.807024
_cell_length_c 20.101833
_cell_angle_alpha 90.000000
_cell_angle_beta 146.057580
_cell_angle_gamma 90.000000
_cell_volume 2214.532620
_symmetry_space_group_name_H-M "C 2/M"
_symmetry_group_IT_number 12
_symmetry_cell_setting 'monoclinic'
loop_
_space_group_symop_operation_xyz
x,y,z
-x,y,-z
-x,-y,-z
x,-y,z
1/2+x,1/2+y,z
1/2-x,1/2+y,-z
1/2-x,1/2-y,-z
1/2+x,1/2-y,z
loop_
_atom_site_type_symbol
_atom_site_label
_atom_site_fract_x
_atom_site_fract_y
_atom_site_fract_z
Si Si1 0.698662 0.789347 0.110867
Si Si2 0.454652 0.201109 0.147713
Si Si3 0.665150 0.793630 0.361554
Si Si4 0.749373 0.707030 0.687190
Si Si5 0.030397 0.703400 0.457893
Si Si6 0.867703 0.803217 0.191840
O O1 0.714985 0.732569 0.203475
O O2 0.785216 0.732992 0.153482
O O3 0.700196 0.000000 0.113179
O O4 0.602082 0.730045 0.975108
O O5 0.560051 0.271623 0.270623
O O6 0.388174 0.217643 0.142824
O O7 0.467087 0.000000 0.147814
O O8 0.750000 0.750000 0.500000
O O9 0.690938 0.733892 0.314066
O O10 0.662418 0.000000 0.358286
O O11 0.752467 0.500000 0.691382
O O12 0.640716 0.760462 0.563890
O O13 0.013493 0.500000 0.435142
O O14 0.000000 0.760868 0.500000
O O15 0.964121 0.791252 0.334755
O O16 0.844298 0.000000 0.153292
#
# Coordination Sequence:
#
# PCOD9200654 Si02
#       6
#     8   8   8   8   8   8
#     4   9  19  35  57  83 113 145 185 231 279 329
#     4  10  21  38  57  82 114 149 186 230 277 328
#     4  10  22  38  59  82 109 145 187 231 277 328
#     4  10  20  37  59  84 112 147 187 230 277 330
#     4  11  22  35  54  83 114 145 181 227 280 330
#     4  11  21  35  57  84 113 150 188 229 276 330
#
# _framework density 21.675003
#
# number of rings (size 3 to 8) (size 9 to 14) (size 15 to 20)
#    0.000    1.833    1.667    2.500    0.000    5.333 
#    0.000    5.000    0.000    0.000    0.000    3.500 
#    0.000    0.000    0.000    0.000    0.000    0.000 
#
# Total GULP energy -134106.585895 kJ/mol
# GULP energy per Si atom -5587.774412 kJ/mol
# Density = 2.162567 g / cm^3
# Si number density = 21.675003 Si / 1000 Ang^3
#
#
#
# Elastic Constant Matrix: (Units=GPa)
#
#
# Indices 1 2 3 4 5 6 
#
# 1 116.8704 7.9833 56.1798 0.0000 0.1979 0.0000
# 2 7.9833 23.9125 8.6997 0.0000 5.9165 0.0000
# 3 56.1798 8.6997 148.3733 0.0000 -10.4505 0.0000
# 4 0.0000 0.0000 0.0000 1.8145 0.0000 4.7299
# 5 0.1979 5.9165 -10.4505 0.0000 16.3234 0.0000
# 6 0.0000 0.0000 0.0000 4.7299 0.0000 16.1938
#
#
#
# Elastic Compliance Matrix: (Units=1/GPa)
#
#
# Indices 1 2 3 4 5 6 
#
# 1 0.010630 -0.001517 -0.004091 0.000000 -0.002198 0.000000
# 2 -0.001517 0.048602 -0.003681 -0.000001 -0.019954 0.000000
# 3 -0.004091 -0.003681 0.009008 0.000000 0.007151 0.000000
# 4 0.000000 -0.000001 0.000000 2.309817 0.000000 -0.674659
# 5 -0.002198 -0.019954 0.007151 0.000000 0.073099 0.000000
# 6 0.000000 0.000000 0.000000 -0.674659 0.000000 0.258809
#
#
# Mechanical properties :
#
#
# Convention : Reuss Voigt Hill
#
# Bulk Modulus (GPa) = 20.13563 48.32018 34.22791
# Shear Modulus (GPa) = 1.82143 21.28589 11.55366
#
# Velocity S-wave (km/s) = 0.91769 3.13716 2.31127
# Velocity P-wave (km/s) = 3.22999 5.95515 4.79044
#
# Compressibility (1/GPa) = 0.04966320
#
# Stress axis : x y z
#
# Youngs Moduli (GPa) = 94.07033 20.57543 111.00949
#
# Poissons Ratio (x) = 0.03121 0.45413
# Poissons Ratio (y) = 0.14268 0.40861
# Poissons Ratio (z) = 0.38484 0.07573
#
# Static dielectric constant tensor:
#      x y z
#    x 1.776610 0.000000 0.006390 
#    y 0.000000 1.804130 0.000000 
#    z 0.006390 0.000000 1.781520 
# 
# From -- ./inp_files/327325.got.cif
#   From: 2010.05.17/outbox.cif.g08.bks.cpg/sg12_164_cif.got.tgz:327325.got - 2010.06.03 13:09:07.
