data_PCOD9200851
_publ_section_title
;
Structure prediction by ZEFSAII (Michael W. Deem and Ramdas Pophale) SiO2 
 PCOD9200851
Probable space group: C 2/M
;
_chemical_formula_sum "Si O2"
_cell_formula_units_Z 56
_cell_length_a 18.796544
_cell_length_b 8.592147
_cell_length_c 23.299823
_cell_angle_alpha 90.000000
_cell_angle_beta 52.694303
_cell_angle_gamma 90.000000
_cell_volume 2993.126916
_symmetry_space_group_name_H-M "C 2/M"
_symmetry_group_IT_number 12
_symmetry_cell_setting 'monoclinic'
loop_
_space_group_symop_operation_xyz
x,y,z
-x,y,-z
-x,-y,-z
x,-y,z
1/2+x,1/2+y,z
1/2-x,1/2+y,-z
1/2-x,1/2-y,-z
1/2+x,1/2-y,z
loop_
_atom_site_type_symbol
_atom_site_label
_atom_site_fract_x
_atom_site_fract_y
_atom_site_fract_z
Si Si1 0.020769 0.313336 0.361616
Si Si2 0.843157 0.684716 0.931744
Si Si3 0.625485 0.688474 0.772395
Si Si4 0.331948 0.685467 0.497481
Si Si5 0.817609 0.311192 0.633441
Si Si6 0.957420 0.813192 0.775651
Si Si7 0.500550 0.688386 0.933230
O O1 0.013853 0.500000 0.366627
O O2 0.098001 0.265546 0.368738
O O3 0.045488 0.259285 0.285694
O O4 0.925825 0.241809 0.425431
O O5 0.838682 0.500000 0.927896
O O6 0.876310 0.758358 0.855645
O O7 0.918407 0.733884 0.940690
O O8 0.750000 0.750000 0.000000
O O9 0.627985 0.500000 0.769811
O O10 0.723943 0.742689 0.707321
O O11 0.549227 0.735614 0.763745
O O12 0.588634 0.731989 0.853358
O O13 0.328559 0.500000 0.498577
O O14 0.250000 0.750000 0.500000
O O15 0.325100 0.747045 0.565731
O O16 0.816566 0.500000 0.631120
O O17 0.957699 0.000000 0.771867
O O18 0.490995 0.500000 0.933989
O O19 0.500000 0.731275 0.000000
#
# Coordination Sequence:
#
# PCOD9200851 Si02
#       7
#     8   8   8   8   8   8   8
#     4  11  23  38  59  89 122 154 190 233 284 341
#     4  11  22  37  57  82 115 153 197 245 293 345
#     4   8  16  33  56  80 107 145 189 231 279 336
#     4  12  25  41  62  85 113 151 196 242 289 343
#     4  10  21  38  59  85 119 154 190 235 286 341
#     4  10  20  37  60  84 113 152 198 241 285 341
#     4   9  18  34  57  84 115 151 191 236 290 350
#
# _framework density 18.709530999999998
#
# number of rings (size 3 to 8) (size 9 to 14) (size 15 to 20)
#    0.000    1.857    0.000    5.571    0.000    5.429 
#    0.000    5.714    0.000    0.000    0.000    0.000 
#    0.000    0.000    0.000    0.000    0.000    0.000 
#
# Total GULP energy -156419.274276 kJ/mol
# GULP energy per Si atom -5586.402653 kJ/mol
# Density = 1.866695 g / cm^3
# Si number density = 18.709531 Si / 1000 Ang^3
#
#
#
# Elastic Constant Matrix: (Units=GPa)
#
#
# Indices 1 2 3 4 5 6 
#
# 1 133.6697 40.5606 104.3177 0.0000 4.8182 0.0003
# 2 40.5606 50.3966 33.1837 0.0001 0.2838 0.0005
# 3 104.3177 33.1837 165.9859 0.0000 -2.3041 0.0000
# 4 0.0000 0.0001 0.0000 28.2129 0.0000 1.4211
# 5 4.8182 0.2838 -2.3041 0.0000 39.7252 0.0000
# 6 0.0003 0.0005 0.0000 1.4211 0.0000 26.3183
#
#
#
# Elastic Compliance Matrix: (Units=1/GPa)
#
#
# Indices 1 2 3 4 5 6 
#
# 1 0.017138 -0.007673 -0.009272 0.000000 -0.002562 0.000000
# 2 -0.007673 0.026294 -0.000424 0.000000 0.000718 0.000000
# 3 -0.009272 -0.000424 0.011962 0.000000 0.001821 0.000000
# 4 0.000000 0.000000 0.000000 0.035541 0.000000 -0.001919
# 5 -0.002562 0.000718 0.001821 0.000000 0.025584 0.000000
# 6 0.000000 0.000000 0.000000 -0.001919 0.000000 0.038100
#
#
# Mechanical properties :
#
#
# Convention : Reuss Voigt Hill
#
# Bulk Modulus (GPa) = 48.41651 78.46405 63.44028
# Shear Modulus (GPa) = 25.47849 30.31731 27.89790
#
# Velocity S-wave (km/s) = 3.69425 4.02981 3.86567
# Velocity P-wave (km/s) = 6.64310 7.98007 7.34208
#
# Compressibility (1/GPa) = 0.02065411
#
# Stress axis : x y z
#
# Youngs Moduli (GPa) = 58.34920 38.03205 83.59727
#
# Poissons Ratio (x) = 0.29184 0.77515
# Poissons Ratio (y) = 0.44774 0.03545
# Poissons Ratio (z) = 0.54104 0.01613
#
# Static dielectric constant tensor:
#      x y z
#    x 1.622040 0.000000 -0.006910 
#    y 0.000000 1.631710 0.000000 
#    z -0.006910 0.000000 1.638910 
# 
# From -- ./inp_files/342326.got.cif
#   From: 2010.05.17/outbox.cif.g08.bks.cpg/sg12_172_cif.got.tgz:342326.got - 2010.06.03 13:09:07.
