data_PCOD9200038
_publ_section_title
;
Structure prediction by ZEFSAII (Michael W. Deem and Ramdas Pophale) SiO2 
 PCOD9200038
Probable space group: C 2/M
;
_chemical_formula_sum "Si O2"
_cell_formula_units_Z 44
_cell_length_a 13.675451
_cell_length_b 15.504519
_cell_length_c 12.631113
_cell_angle_alpha 90.000000
_cell_angle_beta 110.660810
_cell_angle_gamma 90.000000
_cell_volume 2505.944888
_symmetry_space_group_name_H-M "C 2/M"
_symmetry_group_IT_number 12
_symmetry_cell_setting 'monoclinic'
loop_
_space_group_symop_operation_xyz
x,y,z
-x,y,-z
-x,-y,-z
x,-y,z
1/2+x,1/2+y,z
1/2-x,1/2+y,-z
1/2-x,1/2-y,-z
1/2+x,1/2-y,z
loop_
_atom_site_type_symbol
_atom_site_label
_atom_site_fract_x
_atom_site_fract_y
_atom_site_fract_z
Si Si1 0.423548 0.316846 0.774890
Si Si2 0.541281 0.240909 0.634161
Si Si3 0.714193 0.149950 0.996262
Si Si4 0.790550 0.599651 0.245957
Si Si5 0.619767 0.595446 0.769051
Si Si6 0.000000 0.703715 0.000000
O O1 0.447960 0.255696 0.683354
O O2 0.310000 0.357761 0.736655
O O3 0.513196 0.389604 0.795457
O O4 0.448452 0.263425 0.890084
O O5 0.500000 0.238875 0.500000
O O6 0.608970 0.157532 0.688626
O O7 0.613662 0.325685 0.683834
O O8 0.728322 0.107483 0.887499
O O9 0.593141 0.150051 0.982941
O O10 0.750000 0.250000 0.000000
O O11 0.784922 0.108807 0.114290
O O12 0.802821 0.500000 0.279976
O O13 0.621760 0.500000 0.723138
#
# Coordination Sequence:
#
# PCOD9200038 Si02
#       6
#     8   8   8   8   8   4
#     4  10  20  36  63  90 120 154 202 253 303 349
#     4  10  23  42  62  88 126 167 199 250 306 359
#     4  12  19  36  58  88 123 161 191 250 312 366
#     4  12  23  39  64  93 122 160 208 252 301 361
#     4  10  20  37  59  89 119 157 202 249 300 356
#     4  12  18  34  64  84 122 164 198 242 310 372
#
# _framework density 17.558246
#
# number of rings (size 3 to 8) (size 9 to 14) (size 15 to 20)
#    1.091    0.000    7.273    1.091    0.000    1.455 
#    0.000    4.545    0.000    0.000    0.000    0.000 
#    0.000    0.000    0.000    0.000    0.000    0.000 
#
# Total GULP energy -122649.127541 kJ/mol
# GULP energy per Si atom -5574.960343 kJ/mol
# Density = 1.751828 g / cm^3
# Si number density = 17.558246 Si / 1000 Ang^3
#
#
#
# Elastic Constant Matrix: (Units=GPa)
#
#
# Indices 1 2 3 4 5 6 
#
# 1 114.8054 43.6184 16.6500 0.0000 0.8525 0.0000
# 2 43.6184 101.7199 40.4587 0.0000 2.9142 0.0000
# 3 16.6500 40.4587 106.1754 0.0000 -1.6650 0.0000
# 4 0.0000 0.0000 0.0000 2.3620 0.0000 1.5102
# 5 0.8525 2.9142 -1.6650 0.0000 18.4740 0.0000
# 6 0.0000 0.0000 0.0000 1.5102 0.0000 -5.1232
#
#
#
# Elastic Compliance Matrix: (Units=1/GPa)
#
#
# Indices 1 2 3 4 5 6 
#
# 1 0.010407 -0.004505 0.000088 0.000000 0.000238 0.000000
# 2 -0.004505 0.013629 -0.004524 0.000000 -0.002350 0.000000
# 3 0.000088 -0.004524 0.011155 0.000000 0.001715 0.000000
# 4 0.000000 0.000000 0.000000 0.356231 0.000000 0.105010
# 5 0.000238 -0.002350 0.001715 0.000000 0.054644 0.000000
# 6 0.000000 0.000000 0.000000 0.105010 0.000000 -0.164235
#
#
# Mechanical properties :
#
#
# Convention : Reuss Voigt Hill
#
# Bulk Modulus (GPa) = 57.76637 58.23943 58.00290
# Shear Modulus (GPa) = 16.36749 17.94079 17.15414
#
# Velocity S-wave (km/s) = 3.05648 3.20001 3.12907
# Velocity P-wave (km/s) = 6.73998 6.84797 6.79419
#
# Compressibility (1/GPa) = 0.01731111
#
# Stress axis : x y z
#
# Youngs Moduli (GPa) = 96.08641 73.37152 89.64334
#
# Poissons Ratio (x) = 0.33051 -0.00791
# Poissons Ratio (y) = 0.43284 0.40554
# Poissons Ratio (z) = -0.00848 0.33193
#
# Static dielectric constant tensor:
#      x y z
#    x 1.611690 0.000000 -0.005860 
#    y 0.000000 1.602020 0.000000 
#    z -0.005860 0.000000 1.564790 
# 
# From -- ./inp_files/143270.got.cif
#   From: 2010.05.17/outbox.cif.g08.bks.cpg/sg12_72_cif.got.tgz:143270.got - 2010.06.03 13:09:07.
