data_PCOD9200401
_publ_section_title
;
Structure prediction by ZEFSAII (Michael W. Deem and Ramdas Pophale) SiO2 
 PCOD9200401
Probable space group: C 2/M
;
_chemical_formula_sum "Si O2"
_cell_formula_units_Z 48
_cell_length_a 26.765994
_cell_length_b 7.954980
_cell_length_c 15.319520
_cell_angle_alpha 90.000000
_cell_angle_beta 139.464733
_cell_angle_gamma 90.000000
_cell_volume 2119.946192
_symmetry_space_group_name_H-M "C 2/M"
_symmetry_group_IT_number 12
_symmetry_cell_setting 'monoclinic'
loop_
_space_group_symop_operation_xyz
x,y,z
-x,y,-z
-x,-y,-z
x,-y,z
1/2+x,1/2+y,z
1/2-x,1/2+y,-z
1/2-x,1/2-y,-z
1/2+x,1/2-y,z
loop_
_atom_site_type_symbol
_atom_site_label
_atom_site_fract_x
_atom_site_fract_y
_atom_site_fract_z
Si Si1 0.917063 0.703084 0.355090
Si Si2 0.333236 0.295951 0.734522
Si Si3 0.413295 0.698843 0.011592
Si Si4 0.332981 0.794822 0.412870
Si Si5 0.667562 0.698416 0.926973
Si Si6 0.073602 0.304067 0.301146
O O1 0.917382 0.500000 0.353806
O O2 0.853973 0.758280 0.342964
O O3 0.895192 0.760787 0.229961
O O4 0.000000 0.758693 0.500000
O O5 0.335228 0.500000 0.727062
O O6 0.250069 0.246284 0.661198
O O7 0.356197 0.217935 0.672990
O O8 0.394141 0.238553 0.889487
O O9 0.397576 0.500000 0.984389
O O10 0.358001 0.771838 0.013646
O O11 0.499675 0.720049 0.159780
O O12 0.398314 0.738495 0.567932
O O13 0.333772 0.000000 0.414157
O O14 0.670498 0.500000 0.942223
O O15 0.750000 0.750000 0.000000
O O16 0.054911 0.500000 0.286531
#
# Coordination Sequence:
#
# PCOD9200401 Si02
#       6
#     8   8   8   8   8   8
#     4  10  20  37  61  86 115 153 193 233 282 339
#     4  10  20  37  58  77 106 149 190 225 269 331
#     4  10  22  39  58  80 110 150 187 221 273 339
#     4   9  19  36  57  81 111 149 187 223 274 337
#     4  11  23  39  60  86 116 150 191 237 283 336
#     4  11  22  36  57  85 113 141 181 233 281 326
#
# _framework density 22.642085000000002
#
# number of rings (size 3 to 8) (size 9 to 14) (size 15 to 20)
#    0.000    1.833    0.000    4.000    0.000    8.333 
#    0.000    5.000    0.000    0.000    0.000    0.000 
#    0.000    0.000    0.000    0.000    0.000    0.000 
#
# Total GULP energy -134185.288214 kJ/mol
# GULP energy per Si atom -5591.053676 kJ/mol
# Density = 2.259055 g / cm^3
# Si number density = 22.642085 Si / 1000 Ang^3
#
#
#
# Elastic Constant Matrix: (Units=GPa)
#
#
# Indices 1 2 3 4 5 6 
#
# 1 57.4095 -4.4656 -27.6949 0.0000 -4.3810 0.0000
# 2 -4.4656 14.7379 1.3393 0.0000 -5.7268 0.0000
# 3 -27.6949 1.3393 49.5635 0.0000 -3.9471 0.0000
# 4 0.0000 0.0000 0.0000 23.3364 0.0000 -1.4002
# 5 -4.3810 -5.7268 -3.9471 0.0000 41.0345 0.0000
# 6 0.0000 0.0000 0.0000 -1.4002 0.0000 17.3686
#
#
#
# Elastic Compliance Matrix: (Units=1/GPa)
#
#
# Indices 1 2 3 4 5 6 
#
# 1 0.025425 0.008446 0.014399 0.000000 0.005278 0.000000
# 2 0.008446 0.074614 0.003632 0.000000 0.011664 0.000000
# 3 0.014399 0.003632 0.028505 0.000000 0.004786 0.000000
# 4 0.000000 0.000000 0.000000 0.043060 0.000000 0.003471
# 5 0.005278 0.011664 0.004786 0.000000 0.027021 0.000000
# 6 0.000000 0.000000 0.000000 0.003471 0.000000 0.057855
#
#
# Mechanical properties :
#
#
# Convention : Reuss Voigt Hill
#
# Bulk Modulus (GPa) = 5.50970 6.67427 6.09198
# Shear Modulus (GPa) = 18.93764 26.51673 22.72718
#
# Velocity S-wave (km/s) = 2.89518 3.42588 3.17165
# Velocity P-wave (km/s) = 3.68982 4.31312 4.01359
#
# Compressibility (1/GPa) = 0.18149819
#
# Stress axis : x y z
#
# Youngs Moduli (GPa) = 39.33195 13.40229 35.08173
#
# Poissons Ratio (x) = -0.11320 -0.50514
# Poissons Ratio (y) = -0.33221 -0.12743
# Poissons Ratio (z) = -0.56633 -0.04868
#
# Static dielectric constant tensor:
#      x y z
#    x 1.717990 0.000000 0.029510 
#    y 0.000000 1.820830 0.000000 
#    z 0.029510 0.000000 1.820150 
# 
# From -- ./inp_files/244700.got.cif
#   From: 2010.05.17/outbox.cif.g08.bks.cpg/sg12_123_cif.got.tgz:244700.got - 2010.06.03 13:09:07.
