data_PCOD9200715
_publ_section_title
;
Structure prediction by ZEFSAII (Michael W. Deem and Ramdas Pophale) SiO2 
 PCOD9200715
Probable space group: C 2/M
;
_chemical_formula_sum "Si O2"
_cell_formula_units_Z 56
_cell_length_a 33.142173
_cell_length_b 8.030549
_cell_length_c 18.865956
_cell_angle_alpha 90.000000
_cell_angle_beta 148.998391
_cell_angle_gamma 90.000000
_cell_volume 2586.215240
_symmetry_space_group_name_H-M "C 2/M"
_symmetry_group_IT_number 12
_symmetry_cell_setting 'monoclinic'
loop_
_space_group_symop_operation_xyz
x,y,z
-x,y,-z
-x,-y,-z
x,-y,z
1/2+x,1/2+y,z
1/2-x,1/2+y,-z
1/2-x,1/2-y,-z
1/2+x,1/2-y,z
loop_
_atom_site_type_symbol
_atom_site_label
_atom_site_fract_x
_atom_site_fract_y
_atom_site_fract_z
Si Si1 0.006776 0.302896 0.182799
Si Si2 0.166202 0.801528 0.841308
Si Si3 0.675826 0.199330 0.433416
Si Si4 0.643169 0.199430 0.643987
Si Si5 0.925658 0.806500 0.930128
Si Si6 0.745373 0.703645 0.308170
Si Si7 0.506596 0.300683 0.675243
O O1 0.998472 0.500000 0.156428
O O2 0.091427 0.239051 0.282700
O O3 0.004724 0.274845 0.263648
O O4 0.943802 0.207792 0.041066
O O5 0.153494 0.749864 0.740700
O O6 0.090107 0.739789 0.770189
O O7 0.163722 0.000000 0.840443
O O8 0.250000 0.750000 0.000000
O O9 0.750000 0.250000 0.500000
O O10 0.692197 0.252526 0.538332
O O11 0.671171 0.000000 0.426189
O O12 0.718810 0.257878 0.712433
O O13 0.564101 0.260157 0.485600
O O14 0.640934 0.000000 0.636810
O O15 0.920912 0.000000 0.901304
O O16 0.838976 0.732054 0.793153
O O17 0.000000 0.731189 0.000000
O O18 0.740069 0.500000 0.298902
O O19 0.509262 0.500000 0.687165
#
# Coordination Sequence:
#
# PCOD9200715 Si02
#       7
#     8   8   8   8   8   8   8
#     4  11  23  39  61  90 125 161 204 260 312 364
#     4  11  26  45  66  96 129 163 205 255 307 368
#     4  10  20  37  59  86 119 157 202 253 302 357
#     4  11  22  41  67  94 128 166 204 254 311 368
#     4  10  21  38  61  86 120 168 211 252 308 371
#     4   9  19  37  59  85 121 160 202 247 299 359
#     4  11  24  43  66  92 126 165 208 255 306 371
#
# _framework density 21.653262999999999
#
# number of rings (size 3 to 8) (size 9 to 14) (size 15 to 20)
#    0.000    1.571    1.429    3.000    2.000    6.571 
#    0.000    1.429    0.000    0.000    0.000    0.000 
#    0.000    0.000    0.000    0.000    0.000    0.000 
#
# Total GULP energy -156397.248031 kJ/mol
# GULP energy per Si atom -5585.616001 kJ/mol
# Density = 2.160398 g / cm^3
# Si number density = 21.653263 Si / 1000 Ang^3
#
#
#
# Elastic Constant Matrix: (Units=GPa)
#
#
# Indices 1 2 3 4 5 6 
#
# 1 100.2079 -2.5823 21.8722 0.0000 12.4582 0.0000
# 2 -2.5823 32.1767 -1.4225 0.0000 5.7394 0.0000
# 3 21.8722 -1.4225 101.0905 0.0000 11.6739 0.0000
# 4 0.0000 0.0000 0.0000 27.3418 0.0000 -4.1122
# 5 12.4582 5.7394 11.6739 0.0000 40.5718 0.0000
# 6 0.0000 0.0000 0.0000 -4.1122 0.0000 28.1494
#
#
#
# Elastic Compliance Matrix: (Units=1/GPa)
#
#
# Indices 1 2 3 4 5 6 
#
# 1 0.010810 0.001303 -0.001982 0.000000 -0.002934 0.000000
# 2 0.001303 0.032139 0.000767 0.000000 -0.005167 0.000000
# 3 -0.001982 0.000767 0.010627 0.000000 -0.002558 0.000000
# 4 0.000000 0.000000 0.000000 0.037396 0.000000 0.005463
# 5 -0.002934 -0.005167 -0.002558 0.000000 0.027015 0.000000
# 6 0.000000 0.000000 0.000000 0.005463 0.000000 0.036323
#
#
# Mechanical properties :
#
#
# Convention : Reuss Voigt Hill
#
# Bulk Modulus (GPa) = 18.60378 29.91222 24.25800
# Shear Modulus (GPa) = 29.06127 33.58645 31.32386
#
# Velocity S-wave (km/s) = 3.66747 3.94268 3.80756
# Velocity P-wave (km/s) = 5.15210 5.87966 5.52786
#
# Compressibility (1/GPa) = 0.05375251
#
# Stress axis : x y z
#
# Youngs Moduli (GPa) = 92.50610 31.11522 94.09929
#
# Poissons Ratio (x) = -0.04055 0.18649
# Poissons Ratio (y) = -0.12055 -0.07217
# Poissons Ratio (z) = 0.18333 -0.02386
#
# Static dielectric constant tensor:
#      x y z
#    x 1.986180 0.000000 0.070600 
#    y 0.000000 1.777780 0.000000 
#    z 0.070600 0.000000 1.861790 
# 
# From -- ./inp_files/292530.got.cif
#   From: 2010.05.17/outbox.cif.g08.bks.cpg/sg12_147_cif.got.tgz:292530.got - 2010.06.03 13:09:07.
