data_PCOD9200341
_publ_section_title
;
Structure prediction by ZEFSAII (Michael W. Deem and Ramdas Pophale) SiO2 
 PCOD9200341
Probable space group: C 2/M
;
_chemical_formula_sum "Si O2"
_cell_formula_units_Z 44
_cell_length_a 7.843804
_cell_length_b 23.979634
_cell_length_c 11.424381
_cell_angle_alpha 90.000000
_cell_angle_beta 113.859995
_cell_angle_gamma 90.000000
_cell_volume 1965.183264
_symmetry_space_group_name_H-M "C 2/M"
_symmetry_group_IT_number 12
_symmetry_cell_setting 'monoclinic'
loop_
_space_group_symop_operation_xyz
x,y,z
-x,y,-z
-x,-y,-z
x,-y,z
1/2+x,1/2+y,z
1/2-x,1/2+y,-z
1/2-x,1/2-y,-z
1/2+x,1/2-y,z
loop_
_atom_site_type_symbol
_atom_site_label
_atom_site_fract_x
_atom_site_fract_y
_atom_site_fract_z
Si Si1 0.063881 0.625317 0.276116
Si Si2 0.168437 0.878973 0.457422
Si Si3 0.365618 0.500000 0.074751
Si Si4 0.777313 0.500000 0.415890
Si Si5 0.595195 0.619721 0.807082
Si Si6 0.410335 0.000000 0.204314
Si Si7 0.178328 0.687499 0.964015
O O1 0.141257 0.639647 0.426750
O O2 0.240879 0.632466 0.239865
O O3 0.011725 0.559553 0.251715
O O4 0.898905 0.663937 0.180310
O O5 0.000000 0.866919 0.500000
O O6 0.095862 0.861578 0.308906
O O7 0.191452 0.945363 0.448735
O O8 0.391856 0.554636 0.159578
O O9 0.500000 0.500000 0.000000
O O10 0.168974 0.500000 0.949470
O O11 0.762851 0.500000 0.270942
O O12 0.000000 0.500000 0.500000
O O13 0.653603 0.649996 0.941530
O O14 0.250000 0.750000 0.000000
O O15 0.000000 0.680691 0.000000
#
# Coordination Sequence:
#
# PCOD9200341 Si02
#       7
#     8   8   4   4   8   4   8
#     4  10  20  37  61  84 112 155 194 233 285 353
#     4  10  20  37  57  81 114 161 197 228 278 347
#     4  12  23  33  50  87 125 156 189 237 288 342
#     4  12  21  32  50  86 132 157 187 229 286 342
#     4  10  21  37  60  83 114 152 199 233 282 354
#     4  12  21  33  54  86 125 155 187 234 288 338
#     4  10  22  42  62  85 110 148 198 249 296 346
#
# _framework density 22.389768
#
# number of rings (size 3 to 8) (size 9 to 14) (size 15 to 20)
#    0.000    1.455    3.636    2.455    0.000    4.364 
#    3.273    0.909    0.000    0.000    0.000    0.000 
#    0.000    0.000    0.000    0.000    0.000    0.000 
#
# Total GULP energy -122781.931814 kJ/mol
# GULP energy per Si atom -5580.996901 kJ/mol
# Density = 2.233881 g / cm^3
# Si number density = 22.389768 Si / 1000 Ang^3
#
#
#
# Elastic Constant Matrix: (Units=GPa)
#
#
# Indices 1 2 3 4 5 6 
#
# 1 40.4669 6.8628 40.2187 0.0000 0.3497 0.0000
# 2 6.8628 82.4774 57.2815 0.0000 29.0338 0.0000
# 3 40.2187 57.2815 241.5172 0.0000 54.7921 0.0000
# 4 0.0000 0.0000 0.0000 -20.0275 0.0000 33.3845
# 5 0.3497 29.0338 54.7921 0.0000 38.3073 0.0000
# 6 0.0000 0.0000 0.0000 33.3845 0.0000 2.8338
#
#
#
# Elastic Compliance Matrix: (Units=1/GPa)
#
#
# Indices 1 2 3 4 5 6 
#
# 1 0.032611 -0.001528 -0.007792 0.000000 0.012005 0.000000
# 2 -0.001528 0.017035 -0.001273 0.000000 -0.011076 0.000000
# 3 -0.007792 -0.001273 0.008149 0.000000 -0.010620 0.000000
# 4 0.000000 0.000000 0.000000 -0.002419 0.000000 0.028503
# 5 0.012005 -0.011076 -0.010620 0.000000 0.049581 0.000000
# 6 0.000000 0.000000 0.000000 0.028503 0.000000 0.017099
#
#
# Mechanical properties :
#
#
# Convention : Reuss Voigt Hill
#
# Bulk Modulus (GPa) = 27.31528 63.68750 45.50139
# Shear Modulus (GPa) = 32.16603 21.56263 26.86433
#
# Velocity S-wave (km/s) = 3.79441 3.10668 3.46764
# Velocity P-wave (km/s) = 5.60564 6.43236 6.03318
#
# Compressibility (1/GPa) = 0.03660954
#
# Stress axis : x y z
#
# Youngs Moduli (GPa) = 30.66469 58.70319 122.71032
#
# Poissons Ratio (x) = 0.08971 0.95611
# Poissons Ratio (y) = 0.04686 0.15619
# Poissons Ratio (z) = 0.23893 0.07472
#
# Static dielectric constant tensor:
#      x y z
#    x 1.857660 0.000000 0.063140 
#    y 0.000000 1.741230 0.000000 
#    z 0.063140 0.000000 1.941090 
# 
# From -- ./inp_files/121806.got.cif
#   From: 2010.05.17/outbox.cif.g08.bks.cpg/sg12_61_cif.got.tgz:121806.got - 2010.06.03 13:09:07.
