data_PCOD9200308
_publ_section_title
;
Structure prediction by ZEFSAII (Michael W. Deem and Ramdas Pophale) SiO2 
 PCOD9200308
Probable space group: C 2/M
;
_chemical_formula_sum "Si O2"
_cell_formula_units_Z 50
_cell_length_a 28.516079
_cell_length_b 18.664131
_cell_length_c 13.958508
_cell_angle_alpha 90.000000
_cell_angle_beta 16.028453
_cell_angle_gamma 90.000000
_cell_volume 2051.285380
_symmetry_space_group_name_H-M "C 2/M"
_symmetry_group_IT_number 12
_symmetry_cell_setting 'monoclinic'
loop_
_space_group_symop_operation_xyz
x,y,z
-x,y,-z
-x,-y,-z
x,-y,z
1/2+x,1/2+y,z
1/2-x,1/2+y,-z
1/2-x,1/2-y,-z
1/2+x,1/2-y,z
loop_
_atom_site_type_symbol
_atom_site_label
_atom_site_fract_x
_atom_site_fract_y
_atom_site_fract_z
Si Si1 0.051509 0.000000 0.229819
Si Si2 0.964233 0.148167 0.329367
Si Si3 0.897212 0.373404 0.853366
Si Si4 0.750256 0.736588 0.387017
Si Si5 0.399604 0.273410 0.774362
Si Si6 0.238652 0.500000 0.996683
Si Si7 0.440335 0.128377 0.271191
Si Si8 0.000000 0.500000 0.000000
O O1 0.025221 0.067199 0.211833
O O2 0.209986 0.000000 0.992436
O O3 0.899376 0.000000 0.607407
O O4 0.787091 0.149926 0.740244
O O5 0.904219 0.187913 0.351819
O O6 0.104839 0.187160 0.117818
O O7 0.862047 0.430394 0.840698
O O8 0.981662 0.302085 0.645380
O O9 0.005752 0.400543 0.730244
O O10 0.750000 0.750000 0.500000
O O11 0.720577 0.817920 0.406755
O O12 0.910979 0.685843 0.048626
O O13 0.500000 0.321607 0.500000
O O14 0.250000 0.250000 0.000000
O O15 0.440650 0.064260 0.193976
#
# Coordination Sequence:
#
# PCOD9200308 Si02
#       8
#     4   8   8   8   8   4   8   2
#     4   9  18  32  54  88 114 157 199 262 299 361
#     4  10  21  36  59  86 123 155 210 257 313 361
#     4  10  20  37  56  89 119 163 203 254 300 368
#     4  11  21  41  62  95 123 167 209 267 318 383
#     4  12  22  34  56  87 120 160 204 249 297 361
#     4   9  17  32  56  79 123 154 203 250 310 353
#     4  11  23  39  68  94 129 164 213 267 320 380
#     4  12  22  40  66 102 124 160 212 262 328 386
#
# _framework density 24.374960999999999
#
# number of rings (size 3 to 8) (size 9 to 14) (size 15 to 20)
#    0.000    1.440    4.800    1.440    2.240    1.920 
#    0.000    0.400    0.000    2.880    0.000    0.000 
#    0.000    0.000    0.000    0.000    0.000    0.000 
#
# Total GULP energy -139247.220414 kJ/mol
# GULP energy per Si atom -5569.888817 kJ/mol
# Density = 2.431948 g / cm^3
# Si number density = 24.374961 Si / 1000 Ang^3
#
#
#
# Elastic Constant Matrix: (Units=GPa)
#
#
# Indices 1 2 3 4 5 6 
#
# 1 185.5784 64.2261 27.2078 -0.0018 -2.2967 0.0019
# 2 64.2261 199.7390 18.6501 -0.0031 -2.0466 0.0010
# 3 27.2078 18.6501 61.7819 -0.0049 -3.1483 0.0015
# 4 -0.0018 -0.0031 -0.0049 27.3941 0.0021 14.5154
# 5 -2.2967 -2.0466 -3.1483 0.0021 23.1245 -0.0003
# 6 0.0019 0.0010 0.0015 14.5154 -0.0003 66.8078
#
#
#
# Elastic Compliance Matrix: (Units=1/GPa)
#
#
# Indices 1 2 3 4 5 6 
#
# 1 0.006353 -0.001832 -0.002236 0.000000 0.000164 0.000000
# 2 -0.001832 0.005682 -0.000898 0.000000 0.000199 0.000000
# 3 -0.002236 -0.000898 0.017548 0.000003 0.002088 -0.000001
# 4 0.000000 0.000000 0.000003 0.041254 -0.000003 -0.008963
# 5 0.000164 0.000199 0.002088 -0.000003 0.043562 0.000001
# 6 0.000000 0.000000 -0.000001 -0.008963 0.000001 0.016916
#
#
# Mechanical properties :
#
#
# Convention : Reuss Voigt Hill
#
# Bulk Modulus (GPa) = 50.89185 74.14081 62.51633
# Shear Modulus (GPa) = 33.83025 45.93295 39.88160
#
# Velocity S-wave (km/s) = 3.72951 4.34571 4.04935
# Velocity P-wave (km/s) = 6.28249 7.46077 6.89684
#
# Compressibility (1/GPa) = 0.01964951
#
# Stress axis : x y z
#
# Youngs Moduli (GPa) = 157.41781 176.00784 56.98591
#
# Poissons Ratio (x) = 0.32248 0.12743
# Poissons Ratio (y) = 0.28842 0.05118
# Poissons Ratio (z) = 0.35200 0.15807
#
# Static dielectric constant tensor:
#      x y z
#    x 1.936600 0.000000 -0.000100 
#    y 0.000000 1.980680 0.000010 
#    z -0.000100 0.000010 2.235490 
# 
# From -- ./inp_files/251713.got.cif
#   From: 2010.05.17/outbox.cif.g08.bks.cpg/sg12_126_cif.got.tgz:251713.got - 2010.06.03 13:09:07.
