data_PCOD9200430
_publ_section_title
;
Structure prediction by ZEFSAII (Michael W. Deem and Ramdas Pophale) SiO2 
 PCOD9200430
Probable space group: C 2/M
;
_chemical_formula_sum "Si O2"
_cell_formula_units_Z 48
_cell_length_a 23.637177
_cell_length_b 16.709168
_cell_length_c 7.547407
_cell_angle_alpha 90.000000
_cell_angle_beta 40.266802
_cell_angle_gamma 90.000000
_cell_volume 1926.701600
_symmetry_space_group_name_H-M "C 2/M"
_symmetry_group_IT_number 12
_symmetry_cell_setting 'monoclinic'
loop_
_space_group_symop_operation_xyz
x,y,z
-x,y,-z
-x,-y,-z
x,-y,z
1/2+x,1/2+y,z
1/2-x,1/2+y,-z
1/2-x,1/2-y,-z
1/2+x,1/2-y,z
loop_
_atom_site_type_symbol
_atom_site_label
_atom_site_fract_x
_atom_site_fract_y
_atom_site_fract_z
Si Si1 0.155244 0.173007 0.392550
Si Si2 0.146613 0.000000 0.438263
Si Si3 0.090952 0.836110 0.178201
Si Si4 0.646611 0.000000 0.938266
Si Si5 0.155244 0.673007 0.892550
Si Si6 0.353573 0.500000 0.985131
Si Si7 0.909048 0.336110 0.321799
Si Si8 0.353575 0.000000 0.485124
O O1 0.115824 0.089470 0.562341
O O2 0.163700 0.164572 0.160623
O O3 0.250000 0.183013 0.250000
O O4 0.100351 0.252851 0.556515
O O5 0.128745 0.000000 0.268852
O O6 0.250001 0.000000 0.250001
O O7 0.000000 0.841619 0.500000
O O8 0.106885 0.917912 0.034386
O O9 0.100351 0.752851 0.056515
O O10 0.615823 0.910530 0.062343
O O11 0.628740 0.000000 0.768864
O O12 0.163700 0.664572 0.660624
O O13 0.249999 0.500000 0.250006
O O14 0.893116 0.417912 0.465613
O O15 0.000000 0.341618 0.000000
#
# Coordination Sequence:
#
# PCOD9200430 Si02
#       8
#     8   4   8   4   8   4   8   4
#     4  10  20  37  58  80 110 150 187 223 268 329
#     4   8  18  35  55  79 107 138 180 228 266 311
#     4  11  22  37  56  84 115 144 180 231 280 322
#     4   8  18  35  55  79 107 138 180 228 266 311
#     4  10  20  37  58  80 110 150 187 223 268 329
#     4  10  21  37  58  81 107 146 189 224 268 331
#     4  11  22  37  56  84 115 144 180 231 280 322
#     4  10  21  37  58  81 107 146 189 224 268 331
#
# _framework density 24.913042000000001
#
# number of rings (size 3 to 8) (size 9 to 14) (size 15 to 20)
#    0.000    2.000    0.000    3.500    0.000    5.333 
#    0.000    0.833    0.000    0.000    0.000    0.000 
#    0.000    0.000    0.000    0.000    0.000    0.000 
#
# Total GULP energy -134059.742816 kJ/mol
# GULP energy per Si atom -5585.822617 kJ/mol
# Density = 2.485634 g / cm^3
# Si number density = 24.913042 Si / 1000 Ang^3
#
#
#
# Elastic Constant Matrix: (Units=GPa)
#
#
# Indices 1 2 3 4 5 6 
#
# 1 79.6205 -17.7348 -20.6497 0.0000 2.0139 0.0000
# 2 -17.7348 343.9207 65.4485 0.0000 -9.8855 0.0000
# 3 -20.6497 65.4485 46.4059 0.0000 -13.3315 0.0000
# 4 0.0000 0.0000 0.0000 25.4383 0.0000 8.1746
# 5 2.0139 -9.8855 -13.3315 0.0000 28.0664 0.0000
# 6 0.0000 0.0000 0.0000 8.1746 0.0000 8.2508
#
#
#
# Elastic Compliance Matrix: (Units=1/GPa)
#
#
# Indices 1 2 3 4 5 6 
#
# 1 0.014464 -0.000747 0.008241 0.000000 0.002613 0.000000
# 2 -0.000747 0.004065 -0.006531 0.000000 -0.001616 0.000000
# 3 0.008241 -0.006531 0.038905 0.000000 0.015588 0.000000
# 4 0.000000 0.000000 0.000000 0.057673 0.000000 -0.057140
# 5 0.002613 -0.001616 0.015588 0.000000 0.042277 0.000000
# 6 0.000000 0.000000 0.000000 -0.057140 0.000000 0.177812
#
#
# Mechanical properties :
#
#
# Convention : Reuss Voigt Hill
#
# Bulk Modulus (GPa) = 16.84609 58.23056 37.53832
# Shear Modulus (GPa) = 14.16202 41.87663 28.01932
#
# Velocity S-wave (km/s) = 2.38682 4.10434 3.35727
# Velocity P-wave (km/s) = 3.79111 6.77385 5.48897
#
# Compressibility (1/GPa) = 0.05936096
#
# Stress axis : x y z
#
# Youngs Moduli (GPa) = 69.13543 245.97661 25.70381
#
# Poissons Ratio (x) = 0.18382 -0.21183
# Poissons Ratio (y) = 0.05166 0.16786
# Poissons Ratio (z) = -0.56975 1.60637
#
# Static dielectric constant tensor:
#      x y z
#    x 2.025390 0.000000 -0.001530 
#    y 0.000000 2.085980 0.000000 
#    z -0.001530 0.000000 1.977610 
# 
# From -- ./inp_files/112788.got.cif
#   From: 2010.05.17/outbox.cif.g08.bks.cpg/sg12_57_cif.got.tgz:112788.got - 2010.06.03 13:09:07.
