data_PCOD9200868
_publ_section_title
;
Structure prediction by ZEFSAII (Michael W. Deem and Ramdas Pophale) SiO2 
 PCOD9200868
Probable space group: C 2/M
;
_chemical_formula_sum "Si O2"
_cell_formula_units_Z 56
_cell_length_a 19.400731
_cell_length_b 7.767157
_cell_length_c 27.605792
_cell_angle_alpha 90.000000
_cell_angle_beta 142.595878
_cell_angle_gamma 90.000000
_cell_volume 2526.845942
_symmetry_space_group_name_H-M "C 2/M"
_symmetry_group_IT_number 12
_symmetry_cell_setting 'monoclinic'
loop_
_space_group_symop_operation_xyz
x,y,z
-x,y,-z
-x,-y,-z
x,-y,z
1/2+x,1/2+y,z
1/2-x,1/2+y,-z
1/2-x,1/2-y,-z
1/2+x,1/2-y,z
loop_
_atom_site_type_symbol
_atom_site_label
_atom_site_fract_x
_atom_site_fract_y
_atom_site_fract_z
Si Si1 0.409689 0.296589 0.850461
Si Si2 0.772211 0.199568 0.865652
Si Si3 0.837284 0.696724 0.006449
Si Si4 0.330631 0.209106 0.705064
Si Si5 0.475047 0.199151 0.253950
Si Si6 0.882349 0.205580 0.575164
Si Si7 0.397437 0.289820 0.476035
O O1 0.430879 0.500000 0.867594
O O2 0.353328 0.228045 0.868806
O O3 0.531133 0.213981 0.905818
O O4 0.327822 0.265070 0.759095
O O5 0.646633 0.278766 0.801421
O O6 0.756074 0.000000 0.841884
O O7 0.823879 0.204610 0.948184
O O8 0.811705 0.500000 0.980744
O O9 0.750000 0.750000 0.000000
O O10 0.446894 0.274261 0.745046
O O11 0.223147 0.267121 0.613147
O O12 0.331553 0.000000 0.704101
O O13 0.552847 0.205880 0.344925
O O14 0.452818 0.000000 0.227620
O O15 0.750000 0.250000 0.500000
O O16 0.922781 0.262508 0.544895
O O17 0.896558 0.000000 0.588539
O O18 0.500000 0.233365 0.500000
O O19 0.393604 0.500000 0.474107
#
# Coordination Sequence:
#
# PCOD9200868 Si02
#       7
#     8   8   8   8   8   8   8
#     4  11  24  41  62  92 129 164 202 249 304 360
#     4  10  23  42  64  91 129 167 199 248 307 360
#     4  12  25  43  69  97 124 159 204 249 299 362
#     4  10  20  37  60  84 117 162 209 254 303 364
#     4  10  21  39  60  85 118 157 202 248 303 363
#     4  11  21  36  59  85 114 154 200 251 307 362
#     4   9  19  35  55  82 116 155 201 252 305 358
#
# _framework density 22.162016000000001
#
# number of rings (size 3 to 8) (size 9 to 14) (size 15 to 20)
#    0.000    1.571    1.429    3.429    2.000    5.143 
#    0.000    0.000    0.000    2.143    0.000    0.000 
#    0.000    0.000    0.000    0.000    0.000    0.000 
#
# Total GULP energy -156449.009841 kJ/mol
# GULP energy per Si atom -5587.464637 kJ/mol
# Density = 2.211157 g / cm^3
# Si number density = 22.162016 Si / 1000 Ang^3
#
#
#
# Elastic Constant Matrix: (Units=GPa)
#
#
# Indices 1 2 3 4 5 6 
#
# 1 150.5366 6.8959 15.0133 0.0000 -8.8812 -0.0002
# 2 6.8959 45.8705 -13.2112 0.0000 8.8018 -0.0008
# 3 15.0133 -13.2112 68.2631 0.0000 -6.0552 0.0000
# 4 0.0000 0.0000 0.0000 23.2377 0.0000 -8.6512
# 5 -8.8812 8.8018 -6.0552 0.0000 39.3857 0.0000
# 6 -0.0002 -0.0008 0.0000 -8.6512 0.0000 10.7476
#
#
#
# Elastic Compliance Matrix: (Units=1/GPa)
#
#
# Indices 1 2 3 4 5 6 
#
# 1 0.007007 -0.001891 -0.001753 0.000000 0.001733 0.000000
# 2 -0.001891 0.024425 0.004685 0.000001 -0.005165 0.000002
# 3 -0.001753 0.004685 0.016032 0.000000 0.001023 0.000000
# 4 0.000000 0.000001 0.000000 0.061448 0.000000 0.049462
# 5 0.001733 -0.005165 0.001023 0.000000 0.027092 0.000000
# 6 0.000000 0.000002 0.000000 0.049462 0.000000 0.132859
#
#
# Mechanical properties :
#
#
# Convention : Reuss Voigt Hill
#
# Bulk Modulus (GPa) = 20.18353 31.34070 25.76211
# Shear Modulus (GPa) = 17.64939 31.73901 24.69420
#
# Velocity S-wave (km/s) = 2.82508 3.78846 3.34167
# Velocity P-wave (km/s) = 4.44618 5.77139 5.15157
#
# Compressibility (1/GPa) = 0.04954535
#
# Stress axis : x y z
#
# Youngs Moduli (GPa) = 142.72246 40.94165 62.37469
#
# Poissons Ratio (x) = 0.07741 0.10935
# Poissons Ratio (y) = 0.26986 -0.29221
# Poissons Ratio (z) = 0.25022 -0.19180
#
# Static dielectric constant tensor:
#      x y z
#    x 1.844460 0.000000 0.005680 
#    y 0.000000 1.829300 0.000000 
#    z 0.005680 0.000000 1.780570 
# 
# From -- ./inp_files/362955.got.cif
#   From: 2010.05.17/outbox.cif.g08.bks.cpg/sg12_182_cif.got.tgz:362955.got - 2010.06.03 13:09:07.
