data_PCOD9200703
_publ_section_title
;
Structure prediction by ZEFSAII (Michael W. Deem and Ramdas Pophale) SiO2 
 PCOD9200703
Probable space group: C 2/M
;
_chemical_formula_sum "Si O2"
_cell_formula_units_Z 56
_cell_length_a 19.167929
_cell_length_b 12.087425
_cell_length_c 17.759056
_cell_angle_alpha 90.000000
_cell_angle_beta 46.411171
_cell_angle_gamma 90.000000
_cell_volume 2980.239221
_symmetry_space_group_name_H-M "C 2/M"
_symmetry_group_IT_number 12
_symmetry_cell_setting 'monoclinic'
loop_
_space_group_symop_operation_xyz
x,y,z
-x,y,-z
-x,-y,-z
x,-y,z
1/2+x,1/2+y,z
1/2-x,1/2+y,-z
1/2-x,1/2-y,-z
1/2+x,1/2-y,z
loop_
_atom_site_type_symbol
_atom_site_label
_atom_site_fract_x
_atom_site_fract_y
_atom_site_fract_z
Si Si1 0.633235 0.870746 0.083046
Si Si2 0.419807 0.753357 0.498422
Si Si3 0.011275 0.875316 0.700647
Si Si4 0.737931 0.366792 0.286629
Si Si5 0.304548 0.294576 0.849448
Si Si6 0.416943 0.198653 0.248161
Si Si7 0.302327 0.873983 0.473062
O O1 0.661013 0.823468 0.144578
O O2 0.523764 0.837732 0.146582
O O3 0.641970 0.000000 0.075659
O O4 0.708701 0.823623 0.966631
O O5 0.500000 0.783432 0.500000
O O6 0.468668 0.694721 0.389815
O O7 0.345128 0.668512 0.592937
O O8 0.358419 0.853768 0.509307
O O9 0.069929 0.820412 0.725484
O O10 0.897419 0.868434 0.802101
O O11 0.039030 0.000000 0.666322
O O12 0.742846 0.500000 0.276661
O O13 0.713189 0.313216 0.224880
O O14 0.838369 0.318222 0.242495
O O15 0.376569 0.127200 0.348137
O O16 0.250000 0.750000 0.500000
O O17 0.258413 0.000000 0.505217
#
# Coordination Sequence:
#
# PCOD9200703 Si02
#       7
#     8   8   8   8   8   8   8
#     4  10  20  40  62  82 114 154 191 240 297 351
#     4  11  23  37  57  88 122 157 198 240 299 354
#     4  10  20  37  59  85 119 158 201 244 288 350
#     4  12  22  37  57  86 123 151 193 251 297 347
#     4  10  22  36  60  91 112 146 202 243 290 352
#     4  10  23  38  57  87 119 155 199 236 296 353
#     4  11  23  41  63  88 123 164 203 243 294 359
#
# _framework density 18.790438000000002
#
# number of rings (size 3 to 8) (size 9 to 14) (size 15 to 20)
#    0.000    1.429    2.857    3.000    0.000    3.714 
#    0.000    2.857    0.000    0.000    0.000    6.000 
#    0.000    0.000    0.000    0.000    0.000    0.000 
#
# Total GULP energy -156081.000819 kJ/mol
# GULP energy per Si atom -5574.321458 kJ/mol
# Density = 1.874767 g / cm^3
# Si number density = 18.790438 Si / 1000 Ang^3
#
#
#
# Elastic Constant Matrix: (Units=GPa)
#
#
# Indices 1 2 3 4 5 6 
#
# 1 128.6666 37.8899 29.0792 0.0000 -4.6014 0.0000
# 2 37.8899 91.8004 24.5441 0.0000 10.8005 0.0000
# 3 29.0792 24.5441 90.2654 0.0000 -13.5566 0.0000
# 4 0.0000 0.0000 0.0000 13.9858 0.0000 2.3919
# 5 -4.6014 10.8005 -13.5566 0.0000 37.3728 0.0000
# 6 0.0000 0.0000 0.0000 2.3919 0.0000 2.9795
#
#
#
# Elastic Compliance Matrix: (Units=1/GPa)
#
#
# Indices 1 2 3 4 5 6 
#
# 1 0.009270 -0.003521 -0.001803 0.000000 0.001505 0.000000
# 2 -0.003521 0.013966 -0.003526 0.000000 -0.005749 0.000000
# 3 -0.001803 -0.003526 0.013472 0.000000 0.005684 0.000000
# 4 0.000000 0.000000 0.000000 0.082880 0.000000 -0.066535
# 5 0.001505 -0.005749 0.005684 0.000000 0.030666 0.000000
# 6 0.000000 0.000000 0.000000 -0.066535 0.000000 0.389038
#
#
# Mechanical properties :
#
#
# Convention : Reuss Voigt Hill
#
# Bulk Modulus (GPa) = 52.61346 54.86208 53.73777
# Shear Modulus (GPa) = 8.87582 25.48223 17.17902
#
# Velocity S-wave (km/s) = 2.17574 3.68656 3.02693
# Velocity P-wave (km/s) = 5.86282 6.88340 6.39351
#
# Compressibility (1/GPa) = 0.01900654
#
# Stress axis : x y z
#
# Youngs Moduli (GPa) = 107.87186 71.60371 74.22928
#
# Poissons Ratio (x) = 0.25213 0.13383
# Poissons Ratio (y) = 0.37984 0.26176
# Poissons Ratio (z) = 0.19449 0.25251
#
# Static dielectric constant tensor:
#      x y z
#    x 1.687260 0.000000 -0.051610 
#    y 0.000000 1.663950 0.000000 
#    z -0.051610 0.000000 1.687520 
# 
# From -- ./inp_files/276920.got.cif
#   From: 2010.05.17/outbox.cif.g08.bks.cpg/sg12_139_cif.got.tgz:276920.got - 2010.06.03 13:09:07.
