data_PCOD9200880
_publ_section_title
;
Structure prediction by ZEFSAII (Michael W. Deem and Ramdas Pophale) SiO2 
 PCOD9200880
Probable space group: C 2/M
;
_chemical_formula_sum "Si O2"
_cell_formula_units_Z 40
_cell_length_a 30.263946
_cell_length_b 7.601493
_cell_length_c 15.145706
_cell_angle_alpha 90.000000
_cell_angle_beta 31.442024
_cell_angle_gamma 90.000000
_cell_volume 1817.528142
_symmetry_space_group_name_H-M "C 2/M"
_symmetry_group_IT_number 12
_symmetry_cell_setting 'monoclinic'
loop_
_space_group_symop_operation_xyz
x,y,z
-x,y,-z
-x,-y,-z
x,-y,z
1/2+x,1/2+y,z
1/2-x,1/2+y,-z
1/2-x,1/2-y,-z
1/2+x,1/2-y,z
loop_
_atom_site_type_symbol
_atom_site_label
_atom_site_fract_x
_atom_site_fract_y
_atom_site_fract_z
Si Si1 0.116197 0.790210 0.552848
Si Si2 0.294006 0.203127 0.206825
Si Si3 0.519463 0.212526 0.066170
Si Si4 0.008199 0.784874 0.385070
Si Si5 0.305874 0.290592 0.990386
O O1 0.211736 0.718356 0.395310
O O2 0.054869 0.763418 0.740121
O O3 0.066568 0.722546 0.551125
O O4 0.124896 0.000000 0.525809
O O5 0.274816 0.209662 0.134961
O O6 0.301109 0.000000 0.223191
O O7 0.387661 0.279882 0.062586
O O8 0.521104 0.000000 0.064622
O O9 0.500000 0.270674 0.000000
O O10 0.000000 0.727525 0.500000
O O11 0.007529 0.000000 0.386356
O O12 0.098375 0.729758 0.191814
O O13 0.306853 0.500000 0.001051
O O14 0.250000 0.250000 0.000000
#
# Coordination Sequence:
#
# PCOD9200880 Si02
#       5
#     8   8   8   8   8
#     4  10  20  37  60  85 113 152 199 241 284 343
#     4  10  21  38  60  84 116 154 194 239 291 347
#     4  10  22  40  60  85 120 156 190 241 304 349
#     4   9  17  31  52  78 110 147 187 231 278 331
#     4  11  21  34  55  83 117 155 194 236 288 345
#
# _framework density 22.007911
#
# number of rings (size 3 to 8) (size 9 to 14) (size 15 to 20)
#    0.000    2.000    2.000    1.800    0.000    5.200 
#    0.000    0.000    0.000    3.000    0.000    0.000 
#    0.000    0.000    0.000    0.000    0.000    0.000 
#
# Total GULP energy -111744.077487 kJ/mol
# GULP energy per Si atom -5587.203874 kJ/mol
# Density = 2.195782 g / cm^3
# Si number density = 22.007911 Si / 1000 Ang^3
#
#
#
# Elastic Constant Matrix: (Units=GPa)
#
#
# Indices 1 2 3 4 5 6 
#
# 1 94.4074 -10.6560 63.6869 0.0001 4.0831 -0.0001
# 2 -10.6560 50.5618 -0.3190 -0.0001 -7.1980 0.0001
# 3 63.6869 -0.3190 199.7708 0.0000 -12.9843 0.0000
# 4 0.0001 -0.0001 0.0000 15.9126 0.0000 4.8644
# 5 4.0831 -7.1980 -12.9843 0.0000 34.7664 0.0000
# 6 -0.0001 0.0001 0.0000 4.8644 0.0000 8.3341
#
#
#
# Elastic Compliance Matrix: (Units=1/GPa)
#
#
# Indices 1 2 3 4 5 6 
#
# 1 0.014178 0.002546 -0.004704 0.000000 -0.002895 0.000000
# 2 0.002546 0.020855 -0.000530 0.000000 0.003821 0.000000
# 3 -0.004704 -0.000530 0.006696 0.000000 0.002943 0.000000
# 4 0.000000 0.000000 0.000000 0.076491 0.000000 -0.044646
# 5 -0.002895 0.003821 0.002943 0.000000 0.030994 0.000000
# 6 0.000000 0.000000 0.000000 -0.044646 0.000000 0.146048
#
#
# Mechanical properties :
#
#
# Convention : Reuss Voigt Hill
#
# Bulk Modulus (GPa) = 27.50778 50.01821 38.76299
# Shear Modulus (GPa) = 15.98693 31.27115 23.62904
#
# Velocity S-wave (km/s) = 2.69814 3.77358 3.28023
# Velocity P-wave (km/s) = 4.71516 6.46245 5.65668
#
# Compressibility (1/GPa) = 0.03635335
#
# Stress axis : x y z
#
# Youngs Moduli (GPa) = 70.52980 47.95015 149.34542
#
# Poissons Ratio (x) = -0.12210 0.70254
# Poissons Ratio (y) = -0.17959 0.07917
# Poissons Ratio (z) = 0.33178 0.02542
#
# Static dielectric constant tensor:
#      x y z
#    x 1.783800 0.000000 -0.035370 
#    y 0.000000 1.821840 0.000000 
#    z -0.035370 0.000000 1.810430 
# 
# From -- ./inp_files/211200.got.cif
#   From: 2010.05.17/outbox.cif.g08.bks.cpg/sg12_106_cif.got.tgz:211200.got - 2010.06.03 13:09:07.
