data_PCOD9200805
_publ_section_title
;
Structure prediction by ZEFSAII (Michael W. Deem and Ramdas Pophale) SiO2 
 PCOD9200805
Probable space group: C 2/M
;
_chemical_formula_sum "Si O2"
_cell_formula_units_Z 40
_cell_length_a 27.856856
_cell_length_b 8.640685
_cell_length_c 9.640329
_cell_angle_alpha 90.000000
_cell_angle_beta 69.791680
_cell_angle_gamma 90.000000
_cell_volume 2177.609325
_symmetry_space_group_name_H-M "C 2/M"
_symmetry_group_IT_number 12
_symmetry_cell_setting 'monoclinic'
loop_
_space_group_symop_operation_xyz
x,y,z
-x,y,-z
-x,-y,-z
x,-y,z
1/2+x,1/2+y,z
1/2-x,1/2+y,-z
1/2-x,1/2-y,-z
1/2+x,1/2-y,z
loop_
_atom_site_type_symbol
_atom_site_label
_atom_site_fract_x
_atom_site_fract_y
_atom_site_fract_z
Si Si1 0.294840 0.314959 0.050735
Si Si2 0.503177 0.813569 0.658322
Si Si3 0.595137 0.185694 0.058336
Si Si4 0.295159 0.185107 0.360577
Si Si5 0.405373 0.684469 0.250186
O O1 0.293718 0.500000 0.055040
O O2 0.288088 0.248285 0.212015
O O3 0.250000 0.250000 0.000000
O O4 0.350954 0.257404 0.948327
O O5 0.500000 0.769721 0.500000
O O6 0.450958 0.775990 0.792170
O O7 0.550046 0.734680 0.690745
O O8 0.510031 0.000000 0.658702
O O9 0.600276 0.000000 0.045285
O O10 0.584132 0.248745 0.914599
O O11 0.250000 0.250000 0.500000
O O12 0.350852 0.246047 0.351006
O O13 0.294991 0.000000 0.360578
O O14 0.401415 0.500000 0.244853
#
# Coordination Sequence:
#
# PCOD9200805 Si02
#       5
#     8   8   8   8   8
#     4  11  22  38  59  85 117 152 192 237 287 339
#     4  10  22  39  58  82 113 148 187 234 287 338
#     4  10  20  37  60  83 110 148 193 236 283 339
#     4  11  22  39  61  86 116 150 191 235 284 340
#     4  11  22  37  58  84 114 149 190 232 279 337
#
# _framework density 18.368766999999998
#
# number of rings (size 3 to 8) (size 9 to 14) (size 15 to 20)
#    0.000    1.400    0.000    9.000    0.000    6.000 
#    0.000    6.000    0.000    0.000    0.000    0.000 
#    0.000    0.000    0.000    0.000    0.000    0.000 
#
# Total GULP energy -111820.677413 kJ/mol
# GULP energy per Si atom -5591.033871 kJ/mol
# Density = 1.832696 g / cm^3
# Si number density = 18.368767 Si / 1000 Ang^3
#
#
#
# Elastic Constant Matrix: (Units=GPa)
#
#
# Indices 1 2 3 4 5 6 
#
# 1 192.9541 97.8158 108.2654 0.0000 -1.9188 0.0000
# 2 97.8158 154.7055 70.4971 0.0000 -10.2041 0.0000
# 3 108.2654 70.4971 110.3338 0.0000 -24.2474 0.0000
# 4 0.0000 0.0000 0.0000 24.8169 0.0000 0.3064
# 5 -1.9188 -10.2041 -24.2474 0.0000 33.9174 0.0000
# 6 0.0000 0.0000 0.0000 0.3064 0.0000 37.7912
#
#
#
# Elastic Compliance Matrix: (Units=1/GPa)
#
#
# Indices 1 2 3 4 5 6 
#
# 1 0.015524 -0.003513 -0.015456 0.000000 -0.011228 0.000000
# 2 -0.003513 0.009996 -0.002756 0.000000 0.000839 0.000000
# 3 -0.015456 -0.002756 0.030390 0.000000 0.020023 0.000000
# 4 0.000000 0.000000 0.000000 0.040299 0.000000 -0.000327
# 5 -0.011228 0.000839 0.020023 0.000000 0.043414 0.000000
# 6 0.000000 0.000000 0.000000 -0.000327 0.000000 0.026464
#
#
# Mechanical properties :
#
#
# Convention : Reuss Voigt Hill
#
# Bulk Modulus (GPa) = 80.24572 112.35002 96.29787
# Shear Modulus (GPa) = 23.39836 31.39945 27.39891
#
# Velocity S-wave (km/s) = 3.57292 4.13897 3.86632
# Velocity P-wave (km/s) = 7.79755 9.17267 8.51292
#
# Compressibility (1/GPa) = 0.01246172
#
# Stress axis : x y z
#
# Youngs Moduli (GPa) = 64.41659 100.04035 32.90514
#
# Poissons Ratio (x) = 0.35143 0.50858
# Poissons Ratio (y) = 0.22629 0.09067
# Poissons Ratio (z) = 0.99562 0.27566
#
# Static dielectric constant tensor:
#      x y z
#    x 1.613960 0.000000 -0.011190 
#    y 0.000000 1.614680 0.000000 
#    z -0.011190 0.000000 1.600380 
# 
# From -- ./inp_files/101036.got.cif
#   From: 2010.05.17/outbox.cif.g08.bks.cpg/sg12_51_cif.got.tgz:101036.got - 2010.06.03 13:09:07.
