data_PCOD9200824
_publ_section_title
;
Structure prediction by ZEFSAII (Michael W. Deem and Ramdas Pophale) SiO2 
 PCOD9200824
Probable space group: C 2/M
;
_chemical_formula_sum "Si O2"
_cell_formula_units_Z 64
_cell_length_a 24.511833
_cell_length_b 7.649795
_cell_length_c 32.489143
_cell_angle_alpha 90.000000
_cell_angle_beta 152.680075
_cell_angle_gamma 90.000000
_cell_volume 2796.000895
_symmetry_space_group_name_H-M "C 2/M"
_symmetry_group_IT_number 12
_symmetry_cell_setting 'monoclinic'
loop_
_space_group_symop_operation_xyz
x,y,z
-x,y,-z
-x,-y,-z
x,-y,z
1/2+x,1/2+y,z
1/2-x,1/2+y,-z
1/2-x,1/2-y,-z
1/2+x,1/2-y,z
loop_
_atom_site_type_symbol
_atom_site_label
_atom_site_fract_x
_atom_site_fract_y
_atom_site_fract_z
Si Si1 0.502094 0.211478 0.547970
Si Si2 0.066065 0.801169 0.346055
Si Si3 0.739230 0.796338 0.748420
Si Si4 0.330667 0.707378 0.502746
Si Si5 0.136906 0.786473 0.086924
Si Si6 0.686067 0.713038 0.027029
Si Si7 0.060971 0.702379 0.181671
Si Si8 0.057208 0.296113 0.818585
O O1 0.500000 0.275041 0.500000
O O2 0.618089 0.280304 0.649456
O O3 0.386652 0.261869 0.496206
O O4 0.508230 0.000000 0.550880
O O5 0.203018 0.794042 0.422796
O O6 0.078322 0.727666 0.400564
O O7 0.988674 0.713292 0.258875
O O8 0.023943 0.000000 0.320470
O O9 0.788340 0.720871 0.824042
O O10 0.841192 0.788556 0.781908
O O11 0.715223 0.000000 0.740778
O O12 0.313934 0.500000 0.498436
O O13 0.184349 0.736594 0.073989
O O14 0.136661 0.000000 0.088011
O O15 0.000000 0.731378 0.000000
O O16 0.682293 0.500000 0.022552
O O17 0.809388 0.776710 0.089841
O O18 0.567368 0.781845 0.926208
O O19 0.097563 0.500000 0.209187
O O20 0.036123 0.777625 0.210761
O O21 0.066880 0.500000 0.836124
#
# Coordination Sequence:
#
# PCOD9200824 Si02
#       8
#     8   8   8   8   8   8   8   8
#     4  10  23  40  61  92 123 155 202 247 289 353
#     4  10  22  40  63  89 117 154 199 246 295 353
#     4  10  21  38  60  84 114 157 199 241 290 349
#     4  10  22  41  63  88 121 156 193 241 302 358
#     4   9  16  31  57  85 109 142 197 243 281 342
#     4  10  20  37  60  83 113 153 196 241 288 349
#     4  11  23  38  55  83 121 155 193 241 293 351
#     4  10  23  38  58  87 117 153 199 243 293 351
#
# _framework density 22.889837
#
# number of rings (size 3 to 8) (size 9 to 14) (size 15 to 20)
#    0.000    2.000    1.250    1.500    3.500    3.750 
#    0.000    1.250    0.000    0.000    0.000    0.000 
#    0.000    0.000    0.000    0.000    0.000    0.000 
#
# Total GULP energy -178841.474780 kJ/mol
# GULP energy per Si atom -5588.796087 kJ/mol
# Density = 2.283774 g / cm^3
# Si number density = 22.889837 Si / 1000 Ang^3
#
#
#
# Elastic Constant Matrix: (Units=GPa)
#
#
# Indices 1 2 3 4 5 6 
#
# 1 81.1015 -5.7854 -10.7387 0.0012 -14.0360 -0.0031
# 2 -5.7854 46.2347 -0.3530 0.0030 -5.7667 -0.0236
# 3 -10.7387 -0.3530 44.8413 0.0002 -4.6215 -0.0013
# 4 0.0012 0.0030 0.0002 14.6768 0.0003 2.6531
# 5 -14.0360 -5.7667 -4.6215 0.0003 23.6227 0.0008
# 6 -0.0031 -0.0236 -0.0013 2.6531 0.0008 16.4617
#
#
#
# Elastic Compliance Matrix: (Units=1/GPa)
#
#
# Indices 1 2 3 4 5 6 
#
# 1 0.015029 0.003245 0.004722 -0.000004 0.010646 0.000008
# 2 0.003245 0.023033 0.001772 -0.000012 0.007897 0.000035
# 3 0.004722 0.001772 0.024269 -0.000002 0.007986 0.000005
# 4 -0.000004 -0.000012 -0.000002 0.070179 -0.000006 -0.011311
# 5 0.010646 0.007897 0.007986 -0.000006 0.052148 0.000012
# 6 0.000008 0.000035 0.000005 -0.011311 0.000012 0.062570
#
#
# Mechanical properties :
#
#
# Convention : Reuss Voigt Hill
#
# Bulk Modulus (GPa) = 12.22358 15.38036 13.80197
# Shear Modulus (GPa) = 19.60625 23.55589 21.58107
#
# Velocity S-wave (km/s) = 2.92986 3.21144 3.07387
# Velocity P-wave (km/s) = 4.09844 4.52603 4.31753
#
# Compressibility (1/GPa) = 0.08180911
#
# Stress axis : x y z
#
# Youngs Moduli (GPa) = 66.53628 43.41537 41.20522
#
# Poissons Ratio (x) = -0.14086 -0.19457
# Poissons Ratio (y) = -0.21588 -0.07303
# Poissons Ratio (z) = -0.31419 -0.07694
#
# Static dielectric constant tensor:
#      x y z
#    x 1.849410 0.000000 -0.023210 
#    y 0.000000 1.844850 0.000000 
#    z -0.023210 0.000000 1.833710 
# 
# From -- ./inp_files/382476.got.cif
#   From: 2010.05.17/outbox.cif.g08.bks.cpg/sg12_192_cif.got.tgz:382476.got - 2010.06.03 13:09:07.
