data_PCOD9200900
_publ_section_title
;
Structure prediction by ZEFSAII (Michael W. Deem and Ramdas Pophale) SiO2 
 PCOD9200900
Probable space group: C 2/M
;
_chemical_formula_sum "Si O2"
_cell_formula_units_Z 60
_cell_length_a 20.205507
_cell_length_b 12.981976
_cell_length_c 23.823054
_cell_angle_alpha 90.000000
_cell_angle_beta 153.538422
_cell_angle_gamma 90.000000
_cell_volume 2784.523012
_symmetry_space_group_name_H-M "C 2/M"
_symmetry_group_IT_number 12
_symmetry_cell_setting 'monoclinic'
loop_
_space_group_symop_operation_xyz
x,y,z
-x,y,-z
-x,-y,-z
x,-y,z
1/2+x,1/2+y,z
1/2-x,1/2+y,-z
1/2-x,1/2-y,-z
1/2+x,1/2-y,z
loop_
_atom_site_type_symbol
_atom_site_label
_atom_site_fract_x
_atom_site_fract_y
_atom_site_fract_z
Si Si1 0.500000 0.216364 0.000000
Si Si2 0.900729 0.262703 0.650251
Si Si3 0.407862 0.621753 0.125805
Si Si4 0.680208 0.114759 0.308760
Si Si5 0.881772 0.686341 0.024079
Si Si6 0.962698 0.613014 0.332707
Si Si7 0.326510 0.390604 0.808222
Si Si8 0.353405 0.821258 0.426244
O O1 0.386677 0.168621 0.959922
O O2 0.586169 0.291198 0.107513
O O3 0.750000 0.250000 0.500000
O O4 0.872123 0.360628 0.668106
O O5 0.031520 0.295513 0.707324
O O6 0.958378 0.171943 0.734952
O O7 0.426396 0.500000 0.128041
O O8 0.388235 0.696130 0.055794
O O9 0.259584 0.637353 0.051409
O O10 0.533910 0.133079 0.160615
O O11 0.800149 0.203760 0.388868
O O12 0.737428 0.000000 0.344891
O O13 0.974773 0.500000 0.315720
O O14 0.100197 0.632063 0.479321
O O15 0.816627 0.611927 0.259829
O O16 0.404586 0.500000 0.874950
O O17 0.271081 0.381294 0.702650
O O18 0.500000 0.827781 0.500000
#
# Coordination Sequence:
#
# PCOD9200900 Si02
#       8
#     4   8   8   8   8   8   8   8
#     4  12  21  38  63  92 130 150 195 266 307 360
#     4  11  22  39  59  91 122 153 198 256 298 355
#     4  10  23  44  67  90 124 171 211 249 311 376
#     4  11  22  40  61  85 117 160 205 247 301 361
#     4  10  23  43  66  92 125 161 208 265 308 366
#     4  10  20  37  60  85 119 159 195 242 305 360
#     4  10  21  35  57  89 120 154 191 238 308 369
#     4  10  20  38  58  82 121 157 199 245 293 362
#
# _framework density 21.547675999999999
#
# number of rings (size 3 to 8) (size 9 to 14) (size 15 to 20)
#    0.000    1.600    2.667    2.200    0.000    4.000 
#    0.000    4.667    0.000    0.000    0.000    0.000 
#    0.000    0.000    0.000    0.000    0.000    0.000 
#
# Total GULP energy -167351.931944 kJ/mol
# GULP energy per Si atom -5578.397731 kJ/mol
# Density = 2.149863 g / cm^3
# Si number density = 21.547676 Si / 1000 Ang^3
#
#
#
# Elastic Constant Matrix: (Units=GPa)
#
#
# Indices 1 2 3 4 5 6 
#
# 1 106.9017 4.7132 -6.2379 0.0003 -14.8326 0.0002
# 2 4.7132 105.3876 -0.9402 0.0004 -2.6135 0.0001
# 3 -6.2379 -0.9402 37.8125 0.0016 1.1174 0.0006
# 4 0.0003 0.0004 0.0016 50.5557 0.0007 15.7063
# 5 -14.8326 -2.6135 1.1174 0.0007 23.0881 0.0001
# 6 0.0002 0.0001 0.0006 15.7063 0.0001 26.3555
#
#
#
# Elastic Compliance Matrix: (Units=1/GPa)
#
#
# Indices 1 2 3 4 5 6 
#
# 1 0.010364 -0.000288 0.001509 0.000000 0.006553 0.000000
# 2 -0.000288 0.009525 0.000163 0.000000 0.000886 0.000000
# 3 0.001509 0.000163 0.026708 -0.000001 -0.000305 0.000000
# 4 0.000000 0.000000 -0.000001 0.024274 -0.000001 -0.014466
# 5 0.006553 0.000886 -0.000305 -0.000001 0.047637 0.000000
# 6 0.000000 0.000000 0.000000 -0.014466 0.000000 0.046564
#
#
# Mechanical properties :
#
#
# Convention : Reuss Voigt Hill
#
# Bulk Modulus (GPa) = 20.25642 27.24134 23.74888
# Shear Modulus (GPa) = 27.97060 36.83764 32.40412
#
# Velocity S-wave (km/s) = 3.60680 4.13920 3.88214
# Velocity P-wave (km/s) = 5.17363 5.95934 5.58033
#
# Compressibility (1/GPa) = 0.04936707
#
# Stress axis : x y z
#
# Youngs Moduli (GPa) = 96.48482 104.98617 37.44155
#
# Poissons Ratio (x) = 0.03019 -0.05650
# Poissons Ratio (y) = 0.02774 -0.00611
# Poissons Ratio (z) = -0.14560 -0.01714
#
# Static dielectric constant tensor:
#      x y z
#    x 1.861480 0.000000 -0.010010 
#    y 0.000000 1.778030 0.000000 
#    z -0.010010 0.000000 1.812040 
# 
# From -- ./inp_files/347165.got.cif
#   From: 2010.05.17/outbox.cif.g08.bks.cpg/sg12_174_cif.got.tgz:347165.got - 2010.06.03 13:09:07.
