data_PCOD9200882
_publ_section_title
;
Structure prediction by ZEFSAII (Michael W. Deem and Ramdas Pophale) SiO2 
 PCOD9200882
Probable space group: C 2/M
;
_chemical_formula_sum "Si O2"
_cell_formula_units_Z 48
_cell_length_a 24.908652
_cell_length_b 7.850346
_cell_length_c 11.881146
_cell_angle_alpha 90.000000
_cell_angle_beta 111.071004
_cell_angle_gamma 90.000000
_cell_volume 2167.914326
_symmetry_space_group_name_H-M "C 2/M"
_symmetry_group_IT_number 12
_symmetry_cell_setting 'monoclinic'
loop_
_space_group_symop_operation_xyz
x,y,z
-x,y,-z
-x,-y,-z
x,-y,z
1/2+x,1/2+y,z
1/2-x,1/2+y,-z
1/2-x,1/2-y,-z
1/2+x,1/2-y,z
loop_
_atom_site_type_symbol
_atom_site_label
_atom_site_fract_x
_atom_site_fract_y
_atom_site_fract_z
Si Si1 0.879509 0.697011 0.096367
Si Si2 0.665127 0.702230 0.696779
Si Si3 0.988924 0.798408 0.797376
Si Si4 0.443194 0.292214 0.525727
Si Si5 0.117453 0.706782 0.148948
Si Si6 0.272630 0.794834 0.640705
O O1 0.863212 0.500000 0.085169
O O2 0.850465 0.773817 0.184845
O O3 0.948802 0.713326 0.155229
O O4 0.864305 0.767347 0.961612
O O5 0.666356 0.500000 0.678209
O O6 0.613328 0.772153 0.580165
O O7 0.725829 0.767813 0.696685
O O8 0.953177 0.737928 0.661028
O O9 0.946498 0.766309 0.868887
O O10 0.999767 0.000000 0.794442
O O11 0.500000 0.242724 0.500000
O O12 0.440913 0.500000 0.523330
O O13 0.116108 0.500000 0.146233
O O14 0.164159 0.767066 0.275762
O O15 0.250000 0.750000 0.500000
O O16 0.275477 0.000000 0.648169
#
# Coordination Sequence:
#
# PCOD9200882 Si02
#       6
#     8   8   8   8   8   8
#     4  11  23  38  56  82 119 158 191 234 294 349
#     4  10  20  37  60  85 114 150 193 240 286 339
#     4  11  21  36  61  88 114 150 198 244 285 340
#     4   9  16  30  53  81 112 140 173 229 291 333
#     4  10  23  41  57  80 119 159 191 232 293 351
#     4  10  22  41  64  87 115 152 193 239 290 344
#
# _framework density 22.141096999999998
#
# number of rings (size 3 to 8) (size 9 to 14) (size 15 to 20)
#    0.000    1.833    1.667    2.500    0.000    6.667 
#    0.000    2.500    0.000    0.000    0.000    0.000 
#    0.000    0.000    0.000    0.000    0.000    0.000 
#
# Total GULP energy -134094.688506 kJ/mol
# GULP energy per Si atom -5587.278688 kJ/mol
# Density = 2.209070 g / cm^3
# Si number density = 22.141097 Si / 1000 Ang^3
#
#
#
# Elastic Constant Matrix: (Units=GPa)
#
#
# Indices 1 2 3 4 5 6 
#
# 1 108.4931 -10.1168 24.2191 0.0000 -4.9788 0.0000
# 2 -10.1168 19.3457 -8.3678 0.0000 4.2669 0.0000
# 3 24.2191 -8.3678 102.5547 0.0000 -6.1623 0.0000
# 4 0.0000 0.0000 0.0000 24.5205 0.0000 -5.9355
# 5 -4.9788 4.2669 -6.1623 0.0000 28.0019 0.0000
# 6 0.0000 0.0000 0.0000 -5.9355 0.0000 11.8406
#
#
#
# Elastic Compliance Matrix: (Units=1/GPa)
#
#
# Indices 1 2 3 4 5 6 
#
# 1 0.010092 0.004259 -0.001993 0.000000 0.000707 0.000000
# 2 0.004259 0.056894 0.003203 0.000000 -0.007207 0.000000
# 3 -0.001993 0.003203 0.010572 0.000000 0.001484 0.000000
# 4 0.000000 0.000000 0.000000 0.046414 0.000000 0.023267
# 5 0.000707 -0.007207 0.001484 0.000000 0.037262 0.000000
# 6 0.000000 0.000000 0.000000 0.023267 0.000000 0.096119
#
#
# Mechanical properties :
#
#
# Convention : Reuss Voigt Hill
#
# Bulk Modulus (GPa) = 11.29989 26.87360 19.08674
# Shear Modulus (GPa) = 18.12169 27.84987 22.98578
#
# Velocity S-wave (km/s) = 2.86398 3.55045 3.22553
# Velocity P-wave (km/s) = 4.00640 5.38250 4.74460
#
# Compressibility (1/GPa) = 0.08849643
#
# Stress axis : x y z
#
# Youngs Moduli (GPa) = 99.09082 17.57665 94.58815
#
# Poissons Ratio (x) = -0.07487 0.18854
# Poissons Ratio (y) = -0.42207 -0.30299
# Poissons Ratio (z) = 0.19751 -0.05630
#
# Static dielectric constant tensor:
#      x y z
#    x 1.786550 0.000000 0.004210 
#    y 0.000000 1.810850 0.000000 
#    z 0.004210 0.000000 1.837010 
# 
# From -- ./inp_files/173056.got.cif
#   From: 2010.05.17/outbox.cif.g08.bks.cpg/sg12_87_cif.got.tgz:173056.got - 2010.06.03 13:09:07.
