data_PCOD9200461
_publ_section_title
;
Structure prediction by ZEFSAII (Michael W. Deem and Ramdas Pophale) SiO2 
 PCOD9200461
Probable space group: C 2/M
;
_chemical_formula_sum "Si O2"
_cell_formula_units_Z 48
_cell_length_a 14.319408
_cell_length_b 8.483121
_cell_length_c 28.618283
_cell_angle_alpha 90.000000
_cell_angle_beta 136.580772
_cell_angle_gamma 90.000000
_cell_volume 2389.408606
_symmetry_space_group_name_H-M "C 2/M"
_symmetry_group_IT_number 12
_symmetry_cell_setting 'monoclinic'
loop_
_space_group_symop_operation_xyz
x,y,z
-x,y,-z
-x,-y,-z
x,-y,z
1/2+x,1/2+y,z
1/2-x,1/2+y,-z
1/2-x,1/2-y,-z
1/2+x,1/2-y,z
loop_
_atom_site_type_symbol
_atom_site_label
_atom_site_fract_x
_atom_site_fract_y
_atom_site_fract_z
Si Si1 0.966091 0.813023 0.342623
Si Si2 0.878255 0.690207 0.989333
Si Si3 0.086287 0.688026 0.889561
Si Si4 0.707577 0.812488 0.367146
Si Si5 0.184710 0.184365 0.255267
Si Si6 0.873368 0.189714 0.512518
O O1 0.810217 0.774111 0.276592
O O2 0.072354 0.721392 0.348684
O O3 0.997974 0.768532 0.408636
O O4 0.991318 0.000000 0.346670
O O5 0.868205 0.500000 0.984043
O O6 0.732372 0.760127 0.922929
O O7 0.910732 0.735604 0.054638
O O8 0.000000 0.740603 0.000000
O O9 0.073495 0.500000 0.882296
O O10 0.959652 0.764482 0.817630
O O11 0.691075 0.726722 0.312279
O O12 0.834098 0.757576 0.446028
O O13 0.721968 0.000000 0.363892
O O14 0.205340 0.000000 0.256149
O O15 0.750000 0.250000 0.500000
O O16 0.871336 0.000000 0.509154
#
# Coordination Sequence:
#
# PCOD9200461 Si02
#       6
#     8   8   8   8   8   8
#     4  10  20  37  58  82 112 148 190 237 292 348
#     4   9  19  38  64  90 115 145 180 219 271 334
#     4  10  21  38  59  85 117 148 183 230 277 327
#     4  10  20  37  58  82 111 146 191 241 293 346
#     4  12  25  39  55  80 116 157 196 236 283 334
#     4   8  16  31  54  79 106 141 184 237 290 342
#
# _framework density 20.088653999999998
#
# number of rings (size 3 to 8) (size 9 to 14) (size 15 to 20)
#    0.000    2.167    0.000    3.000    0.000    4.333 
#    0.000    8.333    0.000    0.000    0.000    0.000 
#    0.000    0.000    0.000    0.000    0.000    0.000 
#
# Total GULP energy -133996.838257 kJ/mol
# GULP energy per Si atom -5583.201594 kJ/mol
# Density = 2.004293 g / cm^3
# Si number density = 20.088654 Si / 1000 Ang^3
#
#
#
# Elastic Constant Matrix: (Units=GPa)
#
#
# Indices 1 2 3 4 5 6 
#
# 1 67.3155 -3.3207 16.0635 0.0000 12.6261 0.0000
# 2 -3.3207 25.2994 14.0473 0.0000 1.4861 0.0000
# 3 16.0635 14.0473 94.9128 0.0000 22.0572 0.0000
# 4 0.0000 0.0000 0.0000 23.8341 0.0000 2.5590
# 5 12.6261 1.4861 22.0572 0.0000 22.7509 0.0000
# 6 0.0000 0.0000 0.0000 2.5590 0.0000 23.7763
#
#
#
# Elastic Compliance Matrix: (Units=1/GPa)
#
#
# Indices 1 2 3 4 5 6 
#
# 1 0.016918 0.003525 -0.001484 0.000000 -0.008181 0.000000
# 2 0.003525 0.044136 -0.007750 0.000000 0.002675 0.000000
# 3 -0.001484 -0.007750 0.015006 0.000000 -0.013219 0.000000
# 4 0.000000 0.000000 0.000000 0.042447 0.000000 -0.004569
# 5 -0.008181 0.002675 -0.013219 0.000000 0.061135 0.000000
# 6 0.000000 0.000000 0.000000 -0.004569 0.000000 0.042550
#
#
# Mechanical properties :
#
#
# Convention : Reuss Voigt Hill
#
# Bulk Modulus (GPa) = 15.47004 26.78977 21.12990
# Shear Modulus (GPa) = 19.59571 24.78811 22.19191
#
# Velocity S-wave (km/s) = 3.12663 3.51655 3.32731
# Velocity P-wave (km/s) = 4.55544 5.46378 5.03015
#
# Compressibility (1/GPa) = 0.06464108
#
# Stress axis : x y z
#
# Youngs Moduli (GPa) = 59.10937 22.65749 66.63918
#
# Poissons Ratio (x) = -0.07987 0.09888
# Poissons Ratio (y) = -0.20836 0.51648
# Poissons Ratio (z) = 0.08771 0.17560
#
# Static dielectric constant tensor:
#      x y z
#    x 1.715270 0.000000 -0.002930 
#    y 0.000000 1.678740 0.000000 
#    z -0.002930 0.000000 1.710680 
# 
# From -- ./inp_files/360335.got.cif
#   From: 2010.05.17/outbox.cif.g08.bks.cpg/sg12_181_cif.got.tgz:360335.got - 2010.06.03 13:09:07.
