data_PCOD9200402
_publ_section_title
;
Structure prediction by ZEFSAII (Michael W. Deem and Ramdas Pophale) SiO2 
 PCOD9200402
Probable space group: C 2/M
;
_chemical_formula_sum "Si O2"
_cell_formula_units_Z 64
_cell_length_a 22.433629
_cell_length_b 8.112351
_cell_length_c 20.053282
_cell_angle_alpha 90.000000
_cell_angle_beta 119.734796
_cell_angle_gamma 90.000000
_cell_volume 3168.960044
_symmetry_space_group_name_H-M "C 2/M"
_symmetry_group_IT_number 12
_symmetry_cell_setting 'monoclinic'
loop_
_space_group_symop_operation_xyz
x,y,z
-x,y,-z
-x,-y,-z
x,-y,z
1/2+x,1/2+y,z
1/2-x,1/2+y,-z
1/2-x,1/2-y,-z
1/2+x,1/2-y,z
loop_
_atom_site_type_symbol
_atom_site_label
_atom_site_fract_x
_atom_site_fract_y
_atom_site_fract_z
Si Si1 0.355771 0.697446 0.591208
Si Si2 0.395953 0.807646 0.110191
Si Si3 0.769752 0.700298 0.121393
Si Si4 0.111447 0.806105 0.034293
Si Si5 0.399939 0.811023 0.829728
Si Si6 0.712272 0.198950 0.576867
Si Si7 0.742360 0.199736 0.738420
Si Si8 0.477703 0.690150 0.747960
O O1 0.357001 0.500000 0.600075
O O2 0.342659 0.738634 0.506980
O O3 0.287577 0.757076 0.592806
O O4 0.425628 0.759569 0.663477
O O5 0.323940 0.737004 0.097576
O O6 0.452180 0.784399 0.198789
O O7 0.387985 0.000000 0.090927
O O8 0.420566 0.724346 0.055536
O O9 0.770496 0.500000 0.117175
O O10 0.690795 0.752897 0.069676
O O11 0.790370 0.744328 0.208680
O O12 0.080654 0.722284 0.082609
O O13 0.112733 0.000000 0.049667
O O14 0.318692 0.774463 0.780306
O O15 0.435897 0.700474 0.794268
O O16 0.415144 0.000000 0.821408
O O17 0.704589 0.248991 0.649497
O O18 0.712015 0.000000 0.573762
O O19 0.750009 0.000000 0.741823
O O20 0.493841 0.500000 0.741951
#
# Coordination Sequence:
#
# PCOD9200402 Si02
#       8
#     8   8   8   8   8   8   8   8
#     4   9  18  31  48  73 104 136 169 209 250 301
#     4  11  22  36  53  79 105 132 174 222 261 297
#     4   8  17  33  56  79 104 134 170 216 259 301
#     4  10  20  37  58  78 102 138 172 208 260 316
#     4  11  21  33  52  80 107 134 168 217 263 300
#     4   9  16  28  50  78 105 133 167 208 251 302
#     4   9  16  32  54  78 107 140 171 205 257 316
#     4  11  22  38  54  71 103 146 179 206 252 319
#
# _framework density 20.195900000000002
#
# number of rings (size 3 to 8) (size 9 to 14) (size 15 to 20)
#    0.000    2.250    1.250    3.375    0.000    2.000 
#    0.000    8.125    0.000    0.750    0.000    5.250 
#    0.000    0.000    0.000    0.000    0.000    0.000 
#
# Total GULP energy -178594.755700 kJ/mol
# GULP energy per Si atom -5581.086116 kJ/mol
# Density = 2.014993 g / cm^3
# Si number density = 20.195900 Si / 1000 Ang^3
#
#
#
# Elastic Constant Matrix: (Units=GPa)
#
#
# Indices 1 2 3 4 5 6 
#
# 1 28.2748 -6.0690 4.8853 0.0000 -3.1997 0.0000
# 2 -6.0690 24.4634 -1.9404 0.0000 -0.9955 0.0000
# 3 4.8853 -1.9404 126.9831 0.0000 -6.9965 0.0000
# 4 0.0000 0.0000 0.0000 27.0964 0.0000 -0.1167
# 5 -3.1997 -0.9955 -6.9965 0.0000 23.6772 0.0000
# 6 0.0000 0.0000 0.0000 -0.1167 0.0000 12.2437
#
#
#
# Elastic Compliance Matrix: (Units=1/GPa)
#
#
# Indices 1 2 3 4 5 6 
#
# 1 0.038204 0.009610 -0.001033 0.000000 0.005262 0.000000
# 2 0.009610 0.043432 0.000474 0.000000 0.003265 0.000000
# 3 -0.001033 0.000474 0.008046 0.000000 0.002258 0.000000
# 4 0.000000 0.000000 0.000000 0.036907 0.000000 0.000352
# 5 0.005262 0.003265 0.002258 0.000000 0.043750 0.000000
# 6 0.000000 0.000000 0.000000 0.000352 0.000000 0.081678
#
#
# Mechanical properties :
#
#
# Convention : Reuss Voigt Hill
#
# Bulk Modulus (GPa) = 9.27784 19.27478 14.27631
# Shear Modulus (GPa) = 18.52925 24.79316 21.66120
#
# Velocity S-wave (km/s) = 3.03227 3.50756 3.27854
# Velocity P-wave (km/s) = 4.10651 5.09594 4.62775
#
# Compressibility (1/GPa) = 0.10778368
#
# Stress axis : x y z
#
# Youngs Moduli (GPa) = 26.17540 23.02458 124.27828
#
# Poissons Ratio (x) = -0.22127 0.12838
# Poissons Ratio (y) = -0.25154 -0.05889
# Poissons Ratio (z) = 0.02704 -0.01091
#
# Static dielectric constant tensor:
#      x y z
#    x 1.707760 0.000000 0.010420 
#    y 0.000000 1.707840 0.000000 
#    z 0.010420 0.000000 1.750170 
# 
# From -- ./inp_files/326913.got.cif
#   From: 2010.05.17/outbox.cif.g08.bks.cpg/sg12_164_cif.got.tgz:326913.got - 2010.06.03 13:09:07.
