data_PCOD9200189
_publ_section_title
;
Structure prediction by ZEFSAII (Michael W. Deem and Ramdas Pophale) SiO2 
 PCOD9200189
Probable space group: C 2/M
;
_chemical_formula_sum "Si O2"
_cell_formula_units_Z 40
_cell_length_a 10.425276
_cell_length_b 26.196508
_cell_length_c 9.444096
_cell_angle_alpha 90.000000
_cell_angle_beta 53.458650
_cell_angle_gamma 90.000000
_cell_volume 2072.230118
_symmetry_space_group_name_H-M "C 2/M"
_symmetry_group_IT_number 12
_symmetry_cell_setting 'monoclinic'
loop_
_space_group_symop_operation_xyz
x,y,z
-x,y,-z
-x,-y,-z
x,-y,z
1/2+x,1/2+y,z
1/2-x,1/2+y,-z
1/2-x,1/2-y,-z
1/2+x,1/2-y,z
loop_
_atom_site_type_symbol
_atom_site_label
_atom_site_fract_x
_atom_site_fract_y
_atom_site_fract_z
Si Si1 0.308950 0.804618 0.125009
Si Si2 0.168515 0.500000 0.810852
Si Si3 0.807544 0.807276 0.122440
Si Si4 0.377361 0.598790 0.703098
Si Si5 0.616878 0.408137 0.795483
Si Si6 0.828575 0.500000 0.535174
O O1 0.257188 0.748397 0.213207
O O2 0.226453 0.851081 0.260382
O O3 0.500000 0.808992 0.000000
O O4 0.256217 0.809146 0.995502
O O5 0.263988 0.550292 0.796768
O O6 0.155986 0.500000 0.646661
O O7 0.000000 0.500000 0.000000
O O8 0.775752 0.860260 0.223346
O O9 0.000000 0.805310 0.000000
O O10 0.500000 0.585503 0.500000
O O11 0.489183 0.609775 0.763275
O O12 0.726772 0.451434 0.655745
O O13 0.500000 0.426245 0.000000
O O14 0.000000 0.500000 0.500000
#
# Coordination Sequence:
#
# PCOD9200189 Si02
#       6
#     8   4   8   8   8   4
#     4  10  20  36  66  97 129 169 219 267 322 383
#     4  12  28  45  66  94 133 173 217 276 339 389
#     4   9  18  38  65  94 129 170 216 266 322 394
#     4  12  23  43  67  93 132 173 219 268 327 403
#     4  11  22  43  70  95 129 176 218 262 330 400
#     4  12  28  44  64 100 133 166 223 284 326 390
#
# _framework density 19.302873999999999
#
# number of rings (size 3 to 8) (size 9 to 14) (size 15 to 20)
#    0.000    1.200    6.000    1.800    2.800    1.600 
#    0.000    2.000    0.000    0.000    0.000    0.000 
#    0.000    0.000    0.000    0.000    0.000    0.000 
#
# Total GULP energy -111558.584680 kJ/mol
# GULP energy per Si atom -5577.929234 kJ/mol
# Density = 1.925894 g / cm^3
# Si number density = 19.302874 Si / 1000 Ang^3
#
#
#
# Elastic Constant Matrix: (Units=GPa)
#
#
# Indices 1 2 3 4 5 6 
#
# 1 107.7411 25.8974 18.5557 0.0000 1.6176 0.0000
# 2 25.8974 173.7448 35.4101 0.0000 -19.0125 0.0000
# 3 18.5557 35.4101 76.5054 0.0000 -11.3757 0.0000
# 4 0.0000 0.0000 0.0000 30.2558 0.0000 61.1624
# 5 1.6176 -19.0125 -11.3757 0.0000 32.1154 0.0000
# 6 0.0000 0.0000 0.0000 61.1624 0.0000 -416.4450
#
#
#
# Elastic Compliance Matrix: (Units=1/GPa)
#
#
# Indices 1 2 3 4 5 6 
#
# 1 0.009985 -0.001274 -0.002131 0.000000 -0.002012 0.000000
# 2 -0.001274 0.006779 -0.002346 0.000000 0.003246 0.000000
# 3 -0.002131 -0.002346 0.015288 0.000000 0.004134 0.000000
# 4 0.000000 0.000000 0.000000 0.025485 0.000000 0.003743
# 5 -0.002012 0.003246 0.004134 0.000000 0.034625 0.000000
# 6 0.000000 0.000000 0.000000 0.003743 0.000000 -0.001852
#
#
# Mechanical properties :
#
#
# Convention : Reuss Voigt Hill
#
# Bulk Modulus (GPa) = 48.66228 57.52420 53.09324
# Shear Modulus (GPa) = 46.01373 -52.27289 -3.12958
#
# Velocity S-wave (km/s) = 4.88769 -5.20953 -1.27468
# Velocity P-wave (km/s) = 7.55760 2.51396 5.03971
#
# Compressibility (1/GPa) = 0.02054980
#
# Stress axis : x y z
#
# Youngs Moduli (GPa) = 100.14992 147.51844 65.40943
#
# Poissons Ratio (x) = 0.18796 0.13940
# Poissons Ratio (y) = 0.12760 0.15344
# Poissons Ratio (z) = 0.21344 0.34605
#
# Static dielectric constant tensor:
#      x y z
#    x 1.696610 0.000000 0.063490 
#    y 0.000000 1.747480 0.000000 
#    z 0.063490 0.000000 1.704730 
# 
# From -- ./inp_files/52373.got.cif
#   From: 2010.05.17/outbox.cif.g08.bks.cpg/sg12_27_cif.got.tgz:52373.got - 2010.06.03 13:09:07.
