data_PCOD9200768
_publ_section_title
;
Structure prediction by ZEFSAII (Michael W. Deem and Ramdas Pophale) SiO2 
 PCOD9200768
Probable space group: C 2/M
;
_chemical_formula_sum "Si O2"
_cell_formula_units_Z 44
_cell_length_a 24.247933
_cell_length_b 11.291837
_cell_length_c 11.253561
_cell_angle_alpha 90.000000
_cell_angle_beta 41.748699
_cell_angle_gamma 90.000000
_cell_volume 2051.706817
_symmetry_space_group_name_H-M "C 2/M"
_symmetry_group_IT_number 12
_symmetry_cell_setting 'monoclinic'
loop_
_space_group_symop_operation_xyz
x,y,z
-x,y,-z
-x,-y,-z
x,-y,z
1/2+x,1/2+y,z
1/2-x,1/2+y,-z
1/2-x,1/2-y,-z
1/2+x,1/2-y,z
loop_
_atom_site_type_symbol
_atom_site_label
_atom_site_fract_x
_atom_site_fract_y
_atom_site_fract_z
Si Si1 0.094264 0.000000 0.811547
Si Si2 0.872624 0.253116 0.359092
Si Si3 0.549481 0.260678 0.537099
Si Si4 0.698297 0.500000 0.889657
Si Si5 0.536461 0.500000 0.306751
Si Si6 0.209051 0.363479 0.716413
Si Si7 0.233345 0.750927 0.165227
O O1 0.106156 0.878901 0.719975
O O2 0.151819 0.000000 0.836916
O O3 0.000000 0.000000 0.000000
O O4 0.927796 0.306500 0.377051
O O5 0.864215 0.333700 0.256288
O O6 0.782067 0.227293 0.561308
O O7 0.500000 0.214276 0.500000
O O8 0.501333 0.373943 0.668095
O O9 0.639936 0.295955 0.339813
O O10 0.753193 0.616633 0.813996
O O11 0.629492 0.500000 0.106533
O O12 0.500000 0.500000 0.500000
O O13 0.233371 0.500000 0.663461
O O14 0.201271 0.331506 0.867208
O O15 0.250000 0.750000 0.000000
#
# Coordination Sequence:
#
# PCOD9200768 Si02
#       7
#     4   8   8   4   4   8   8
#     4  12  22  36  61  96 131 157 201 272 332 378
#     4  10  20  37  59  92 122 162 211 258 314 383
#     4  10  21  38  61  92 124 169 214 262 322 388
#     4  12  24  42  61 105 133 163 219 281 329 378
#     4  10  20  38  66  91 128 167 219 270 323 388
#     4  10  21  38  64  89 123 166 213 261 319 392
#     4  11  24  38  64  94 132 168 216 274 322 381
#
# _framework density 21.44556
#
# number of rings (size 3 to 8) (size 9 to 14) (size 15 to 20)
#    0.000    1.455    2.727    3.818    5.091    0.000 
#    0.000    0.455    0.000    0.545    0.000    0.000 
#    0.000    0.000    0.000    0.000    0.000    0.000 
#
# Total GULP energy -122505.859976 kJ/mol
# GULP energy per Si atom -5568.448181 kJ/mol
# Density = 2.139675 g / cm^3
# Si number density = 21.445560 Si / 1000 Ang^3
#
#
#
# Elastic Constant Matrix: (Units=GPa)
#
#
# Indices 1 2 3 4 5 6 
#
# 1 201.6379 22.8318 2.5275 0.0000 37.7484 0.0000
# 2 22.8318 67.8056 7.2817 0.0000 -0.3772 0.0000
# 3 2.5275 7.2817 52.7183 0.0000 6.6154 0.0000
# 4 0.0000 0.0000 0.0000 15.9135 0.0000 -0.1326
# 5 37.7484 -0.3772 6.6154 0.0000 31.8691 0.0000
# 6 0.0000 0.0000 0.0000 -0.1326 0.0000 15.0553
#
#
#
# Elastic Compliance Matrix: (Units=1/GPa)
#
#
# Indices 1 2 3 4 5 6 
#
# 1 0.006770 -0.002438 0.001049 0.000000 -0.008265 0.000000
# 2 -0.002438 0.015860 -0.002526 0.000000 0.003600 0.000000
# 3 0.001049 -0.002526 0.019947 0.000000 -0.005413 0.000000
# 4 0.000000 0.000000 0.000000 0.062844 0.000000 0.000554
# 5 -0.008265 0.003600 -0.005413 0.000000 0.042335 0.000000
# 6 0.000000 0.000000 0.000000 0.000554 0.000000 0.066427
#
#
# Mechanical properties :
#
#
# Convention : Reuss Voigt Hill
#
# Bulk Modulus (GPa) = 28.77878 43.04930 35.91404
# Shear Modulus (GPa) = 21.40473 31.86898 26.63686
#
# Velocity S-wave (km/s) = 3.16269 3.85910 3.52812
# Velocity P-wave (km/s) = 5.17546 6.32252 5.77753
#
# Compressibility (1/GPa) = 0.03474782
#
# Stress axis : x y z
#
# Youngs Moduli (GPa) = 147.71851 63.05061 50.13396
#
# Poissons Ratio (x) = 0.15373 -0.05261
# Poissons Ratio (y) = 0.36016 0.12661
# Poissons Ratio (z) = -0.15501 0.15924
#
# Static dielectric constant tensor:
#      x y z
#    x 1.878770 0.000000 0.006550 
#    y 0.000000 0.826850 0.000000 
#    z 0.006550 0.000000 1.767070 
# 
# From -- ./inp_files/175133.got.cif
#   From: 2010.05.17/outbox.cif.g08.bks.cpg/sg12_88_cif.got.tgz:175133.got - 2010.06.03 13:09:07.
