data_PCOD9200717
_publ_section_title
;
Structure prediction by ZEFSAII (Michael W. Deem and Ramdas Pophale) SiO2 
 PCOD9200717
Probable space group: C 2/M
;
_chemical_formula_sum "Si O2"
_cell_formula_units_Z 56
_cell_length_a 23.454688
_cell_length_b 13.434653
_cell_length_c 9.481335
_cell_angle_alpha 90.000000
_cell_angle_beta 130.855985
_cell_angle_gamma 90.000000
_cell_volume 2259.706264
_symmetry_space_group_name_H-M "C 2/M"
_symmetry_group_IT_number 12
_symmetry_cell_setting 'monoclinic'
loop_
_space_group_symop_operation_xyz
x,y,z
-x,y,-z
-x,-y,-z
x,-y,z
1/2+x,1/2+y,z
1/2-x,1/2+y,-z
1/2-x,1/2-y,-z
1/2+x,1/2-y,z
loop_
_atom_site_type_symbol
_atom_site_label
_atom_site_fract_x
_atom_site_fract_y
_atom_site_fract_z
Si Si1 0.218096 0.614452 0.003300
Si Si2 0.830960 0.199315 0.637787
Si Si3 0.074673 0.320602 0.880216
Si Si4 0.874617 0.110768 0.409752
Si Si5 0.397230 0.824169 0.380606
Si Si6 0.566096 0.389989 0.987465
Si Si7 0.426150 0.108138 0.738226
O O1 0.195511 0.500000 0.945941
O O2 0.163581 0.658225 0.037496
O O3 0.190456 0.670324 0.817241
O O4 0.303780 0.613013 0.188426
O O5 0.750000 0.250000 0.500000
O O6 0.845391 0.135481 0.520017
O O7 0.854719 0.129008 0.804958
O O8 0.888708 0.292896 0.740085
O O9 0.062148 0.355242 0.698083
O O10 0.016632 0.379933 0.881683
O O11 0.057849 0.204049 0.872381
O O12 0.919371 0.210063 0.444962
O O13 0.908318 0.000000 0.460642
O O14 0.404282 0.882829 0.536120
O O15 0.563624 0.500000 0.919129
O O16 0.500000 0.385793 0.000000
O O17 0.401404 0.000000 0.749890
#
# Coordination Sequence:
#
# PCOD9200717 Si02
#       7
#     8   8   8   8   8   8   8
#     4   9  18  33  57  85 120 160 195 241 311 370
#     4  11  24  43  65  90 125 161 211 270 313 380
#     4  10  21  37  60  90 124 156 205 256 306 370
#     4  10  20  37  59  86 121 161 201 255 313 367
#     4   9  21  34  59  87 126 157 201 250 307 378
#     4  11  23  43  66  87 121 172 218 258 312 371
#     4  11  22  39  63  93 124 160 202 255 320 382
#
# _framework density 24.781981999999999
#
# number of rings (size 3 to 8) (size 9 to 14) (size 15 to 20)
#    0.857    1.000    1.429    3.000    0.000    2.286 
#    0.000    2.143    0.000    2.571    0.000    0.000 
#    0.000    0.000    0.000    0.000    0.000    0.000 
#
# Total GULP energy -156403.572517 kJ/mol
# GULP energy per Si atom -5585.841876 kJ/mol
# Density = 2.472558 g / cm^3
# Si number density = 24.781982 Si / 1000 Ang^3
#
#
#
# Elastic Constant Matrix: (Units=GPa)
#
#
# Indices 1 2 3 4 5 6 
#
# 1 26.7074 -9.1058 -4.4918 0.0000 1.7960 0.0000
# 2 -9.1058 174.8642 1.3477 0.0000 -0.0294 0.0000
# 3 -4.4918 1.3477 100.0440 0.0000 3.2611 0.0000
# 4 0.0000 0.0000 0.0000 29.8793 0.0000 -2.5651
# 5 1.7960 -0.0294 3.2611 0.0000 35.4374 0.0000
# 6 0.0000 0.0000 0.0000 -2.5651 0.0000 22.7073
#
#
#
# Elastic Compliance Matrix: (Units=1/GPa)
#
#
# Indices 1 2 3 4 5 6 
#
# 1 0.038563 0.001994 0.001774 0.000000 -0.002116 0.000000
# 2 0.001994 0.005822 0.000014 0.000000 -0.000098 0.000000
# 3 0.001774 0.000014 0.010108 0.000000 -0.001020 0.000000
# 4 0.000000 0.000000 0.000000 0.033796 0.000000 0.003818
# 5 -0.002116 -0.000098 -0.001020 0.000000 0.028420 0.000000
# 6 0.000000 0.000000 0.000000 0.003818 0.000000 0.044470
#
#
# Mechanical properties :
#
#
# Convention : Reuss Voigt Hill
#
# Bulk Modulus (GPa) = 16.11399 30.79063 23.45231
# Shear Modulus (GPa) = 28.68587 38.52913 33.60750
#
# Velocity S-wave (km/s) = 3.40594 3.94728 3.68656
# Velocity P-wave (km/s) = 4.68867 5.76422 5.25404
#
# Compressibility (1/GPa) = 0.06205788
#
# Stress axis : x y z
#
# Youngs Moduli (GPa) = 25.93139 171.74933 98.92867
#
# Poissons Ratio (x) = -0.34249 -0.17545
# Poissons Ratio (y) = -0.05171 -0.00141
# Poissons Ratio (z) = -0.04599 -0.00245
#
# Static dielectric constant tensor:
#      x y z
#    x 2.006150 0.000000 0.038290 
#    y 0.000000 1.917230 0.000000 
#    z 0.038290 0.000000 2.088620 
# 
# From -- ./inp_files/182608.got.cif
#   From: 2010.05.17/outbox.cif.g08.bks.cpg/sg12_92_cif.got.tgz:182608.got - 2010.06.03 13:09:07.
