data_PCOD9200860
_publ_section_title
;
Structure prediction by ZEFSAII (Michael W. Deem and Ramdas Pophale) SiO2 
 PCOD9200860
Probable space group: C 2/M
;
_chemical_formula_sum "Si O2"
_cell_formula_units_Z 52
_cell_length_a 26.895919
_cell_length_b 19.292646
_cell_length_c 6.705167
_cell_angle_alpha 90.000000
_cell_angle_beta 133.045502
_cell_angle_gamma 90.000000
_cell_volume 2542.689716
_symmetry_space_group_name_H-M "C 2/M"
_symmetry_group_IT_number 12
_symmetry_cell_setting 'monoclinic'
loop_
_space_group_symop_operation_xyz
x,y,z
-x,y,-z
-x,-y,-z
x,-y,z
1/2+x,1/2+y,z
1/2-x,1/2+y,-z
1/2-x,1/2-y,-z
1/2+x,1/2-y,z
loop_
_atom_site_type_symbol
_atom_site_label
_atom_site_fract_x
_atom_site_fract_y
_atom_site_fract_z
Si Si1 0.069659 0.576509 0.816597
Si Si2 0.297287 0.419892 0.935487
Si Si3 0.000000 0.853664 0.500000
Si Si4 0.094817 0.919625 0.431633
Si Si5 0.140370 0.421253 0.617479
Si Si6 0.075553 0.309039 0.167938
Si Si7 0.615754 0.325374 0.108984
O O1 0.072960 0.500000 0.919625
O O2 0.131447 0.583006 0.830420
O O3 0.000000 0.579254 0.500000
O O4 0.070430 0.636918 0.975042
O O5 0.313977 0.500000 0.921938
O O6 0.217131 0.415278 0.751331
O O7 0.325341 0.365827 0.849460
O O8 0.335968 0.407713 0.251579
O O9 0.037666 0.899191 0.436239
O O10 0.057126 0.812995 0.781100
O O11 0.092096 0.875010 0.224362
O O12 0.089576 0.000000 0.365656
O O13 0.115623 0.500000 0.499348
O O14 0.098785 0.357473 0.412941
O O15 0.126716 0.248086 0.246342
O O16 0.000000 0.279017 0.000000
#
# Coordination Sequence:
#
# PCOD9200860 Si02
#       7
#     8   8   4   8   8   8   8
#     4  10  21  38  62  88 115 154 201 249 302 355
#     4   9  21  42  64  88 121 160 204 255 300 351
#     4  10  21  36  54  86 119 156 204 256 301 348
#     4  10  20  37  60  84 115 156 207 257 301 351
#     4  10  22  41  65  92 120 154 203 257 306 357
#     4  12  24  37  59  90 128 162 199 246 304 360
#     4  11  24  38  59  88 124 164 201 239 301 367
#
# _framework density 20.450785
#
# number of rings (size 3 to 8) (size 9 to 14) (size 15 to 20)
#    0.000    1.692    1.538    2.538    1.077    7.385 
#    0.000    4.615    0.000    0.000    0.000    0.000 
#    0.000    0.000    0.000    0.000    0.000    0.000 
#
# Total GULP energy -145147.747419 kJ/mol
# GULP energy per Si atom -5582.605670 kJ/mol
# Density = 2.040424 g / cm^3
# Si number density = 20.450785 Si / 1000 Ang^3
#
#
#
# Elastic Constant Matrix: (Units=GPa)
#
#
# Indices 1 2 3 4 5 6 
#
# 1 92.8593 21.6245 7.1682 0.0000 -10.3915 0.0000
# 2 21.6245 79.5685 3.7834 0.0000 -12.6825 0.0000
# 3 7.1682 3.7834 19.7670 0.0000 -12.3306 0.0000
# 4 0.0000 0.0000 0.0000 20.9954 0.0000 -11.2178
# 5 -10.3915 -12.6825 -12.3306 0.0000 28.9485 0.0000
# 6 0.0000 0.0000 0.0000 -11.2178 0.0000 46.9040
#
#
#
# Elastic Compliance Matrix: (Units=1/GPa)
#
#
# Indices 1 2 3 4 5 6 
#
# 1 0.011831 -0.002785 -0.002546 0.000000 0.001943 0.000000
# 2 -0.002785 0.014200 0.002110 0.000000 0.006120 0.000000
# 3 -0.002546 0.002110 0.069611 0.000000 0.029661 0.000000
# 4 0.000000 0.000000 0.000000 0.054607 0.000000 0.013060
# 5 0.001943 0.006120 0.029661 0.000000 0.050557 0.000000
# 6 0.000000 0.000000 0.000000 0.013060 0.000000 0.024444
#
#
# Mechanical properties :
#
#
# Convention : Reuss Voigt Hill
#
# Bulk Modulus (GPa) = 11.21063 28.59411 19.90237
# Shear Modulus (GPa) = 19.12592 30.01084 24.56838
#
# Velocity S-wave (km/s) = 3.06145 3.83491 3.46980
# Velocity P-wave (km/s) = 4.24150 5.79836 5.07992
#
# Compressibility (1/GPa) = 0.08920103
#
# Stress axis : x y z
#
# Youngs Moduli (GPa) = 84.52094 70.42378 14.36549
#
# Poissons Ratio (x) = 0.19611 0.03657
# Poissons Ratio (y) = 0.23537 -0.03031
# Poissons Ratio (z) = 0.21515 -0.14857
#
# Static dielectric constant tensor:
#      x y z
#    x 1.720570 0.000000 0.026170 
#    y 0.000000 1.709520 0.000000 
#    z 0.026170 0.000000 1.744430 
# 
# From -- ./inp_files/29352.got.cif
#   From: 2010.05.17/outbox.cif.g08.bks.cpg/sg12_15_cif.got.tgz:29352.got - 2010.06.03 13:09:07.
