data_PCOD9200256
_publ_section_title
;
Structure prediction by ZEFSAII (Michael W. Deem and Ramdas Pophale) SiO2 
 PCOD9200256
Probable space group: C 2/M
;
_chemical_formula_sum "Si O2"
_cell_formula_units_Z 58
_cell_length_a 20.270834
_cell_length_b 26.114384
_cell_length_c 15.394128
_cell_angle_alpha 90.000000
_cell_angle_beta 160.917813
_cell_angle_gamma 90.000000
_cell_volume 2664.117878
_symmetry_space_group_name_H-M "C 2/M"
_symmetry_group_IT_number 12
_symmetry_cell_setting 'monoclinic'
loop_
_space_group_symop_operation_xyz
x,y,z
-x,y,-z
-x,-y,-z
x,-y,z
1/2+x,1/2+y,z
1/2-x,1/2+y,-z
1/2-x,1/2-y,-z
1/2+x,1/2-y,z
loop_
_atom_site_type_symbol
_atom_site_label
_atom_site_fract_x
_atom_site_fract_y
_atom_site_fract_z
Si Si1 0.793329 0.192979 0.790854
Si Si2 0.500000 0.000000 0.500000
Si Si3 0.599708 0.554473 0.302342
Si Si4 0.029022 0.441988 0.934886
Si Si5 0.371303 0.869089 0.085480
Si Si6 0.430981 0.663399 0.146069
Si Si7 0.510673 0.237439 0.715733
Si Si8 0.686319 0.920651 0.599415
O O1 0.609960 0.224971 0.522131
O O2 0.759806 0.134569 0.720209
O O3 0.806784 0.188878 0.911505
O O4 0.000000 0.210196 0.000000
O O5 0.624601 0.955702 0.601379
O O6 0.492538 0.500000 0.189987
O O7 0.503503 0.609152 0.200718
O O8 0.657871 0.555188 0.273936
O O9 0.807269 0.555638 0.615530
O O10 0.115759 0.500000 0.035215
O O11 0.148662 0.398814 0.029771
O O12 0.000000 0.430087 0.000000
O O13 0.494932 0.815349 0.235713
O O14 0.488956 0.908417 0.295055
O O15 0.176955 0.853082 0.898703
O O16 0.576662 0.710697 0.351098
O O17 0.750000 0.250000 0.000000
#
# Coordination Sequence:
#
# PCOD9200256 Si02
#       8
#     8   2   8   8   8   8   8   8
#     4  11  22  41  63  96 140 181 231 290 354 421
#     4  12  20  32  62  92 126 180 246 268 330 426
#     4  10  20  39  60  90 139 174 213 283 354 410
#     4   9  19  39  66  90 124 172 225 288 351 411
#     4   9  20  39  62  88 123 165 226 276 345 411
#     4  11  22  41  65  94 136 181 222 285 357 407
#     4   9  22  43  66  92 133 183 232 291 345 415
#     4  10  20  37  55  89 128 176 223 278 330 409
#
# _framework density 21.770807999999999
#
# number of rings (size 3 to 8) (size 9 to 14) (size 15 to 20)
#    0.000    2.069    2.069    0.828    0.966    5.517 
#    6.207    1.724    0.000    2.483    0.000    0.000 
#    0.000    0.000    0.000    0.000    0.000    0.000 
#
# Total GULP energy -161439.611625 kJ/mol
# GULP energy per Si atom -5566.883159 kJ/mol
# Density = 2.172126 g / cm^3
# Si number density = 21.770808 Si / 1000 Ang^3
#
#
#
# Elastic Constant Matrix: (Units=GPa)
#
#
# Indices 1 2 3 4 5 6 
#
# 1 137.5226 67.6741 34.0856 -0.0001 -14.4065 0.0005
# 2 67.6741 162.2982 30.9936 0.0001 -4.0000 0.0004
# 3 34.0856 30.9936 59.0081 0.0003 -14.5142 0.0025
# 4 -0.0001 0.0001 0.0003 9.2939 -0.0001 -1.9517
# 5 -14.4065 -4.0000 -14.5142 -0.0001 30.8026 0.0008
# 6 0.0005 0.0004 0.0025 -1.9517 0.0008 10.6626
#
#
#
# Elastic Compliance Matrix: (Units=1/GPa)
#
#
# Indices 1 2 3 4 5 6 
#
# 1 0.010108 -0.003513 -0.003329 0.000000 0.002703 0.000000
# 2 -0.003513 0.008092 -0.002677 0.000000 -0.001853 0.000001
# 3 -0.003329 -0.002677 0.022404 -0.000002 0.008652 -0.000006
# 4 0.000000 0.000000 -0.000002 0.111899 -0.000001 0.020482
# 5 0.002703 -0.001853 0.008652 -0.000001 0.037565 -0.000005
# 6 0.000000 0.000001 -0.000006 0.020482 -0.000005 0.097535
#
#
# Mechanical properties :
#
#
# Convention : Reuss Voigt Hill
#
# Bulk Modulus (GPa) = 46.36800 69.37062 57.86931
# Shear Modulus (GPa) = 15.93223 25.22352 20.57788
#
# Velocity S-wave (km/s) = 2.70814 3.40750 3.07775
# Velocity P-wave (km/s) = 5.57882 6.88583 6.26649
#
# Compressibility (1/GPa) = 0.02156660
#
# Stress axis : x y z
#
# Youngs Moduli (GPa) = 98.92821 123.58395 44.63453
#
# Poissons Ratio (x) = 0.43409 0.14860
# Poissons Ratio (y) = 0.34749 0.11949
# Poissons Ratio (z) = 0.32936 0.33083
#
# Static dielectric constant tensor:
#      x y z
#    x 1.829420 0.000000 0.032390 
#    y 0.000000 1.857170 0.000000 
#    z 0.032390 0.000000 1.862980 
# 
# From -- ./inp_files/235833.got.cif
#   From: 2010.05.17/outbox.cif.g08.bks.cpg/sg12_118_cif.got.tgz:235833.got - 2010.06.03 13:09:07.
