data_PCOD9200796
_publ_section_title
;
Structure prediction by ZEFSAII (Michael W. Deem and Ramdas Pophale) SiO2 
 PCOD9200796
Probable space group: C 2/M
;
_chemical_formula_sum "Si O2"
_cell_formula_units_Z 48
_cell_length_a 15.372920
_cell_length_b 14.567581
_cell_length_c 18.444138
_cell_angle_alpha 90.000000
_cell_angle_beta 32.663526
_cell_angle_gamma 90.000000
_cell_volume 2229.247154
_symmetry_space_group_name_H-M "C 2/M"
_symmetry_group_IT_number 12
_symmetry_cell_setting 'monoclinic'
loop_
_space_group_symop_operation_xyz
x,y,z
-x,y,-z
-x,-y,-z
x,-y,z
1/2+x,1/2+y,z
1/2-x,1/2+y,-z
1/2-x,1/2-y,-z
1/2+x,1/2-y,z
loop_
_atom_site_type_symbol
_atom_site_label
_atom_site_fract_x
_atom_site_fract_y
_atom_site_fract_z
Si Si1 0.437921 0.397487 0.225267
Si Si2 0.069046 0.718188 0.871913
Si Si3 0.685461 0.392219 0.531084
Si Si4 0.927480 0.768789 0.629320
Si Si5 0.291006 0.856770 0.979724
Si Si6 0.548986 0.896326 0.281121
O O1 0.400359 0.500000 0.222834
O O2 0.426916 0.313613 0.176856
O O3 0.329626 0.378421 0.371665
O O4 0.623640 0.399268 0.123047
O O5 0.252737 0.684547 0.745557
O O6 0.947351 0.645050 0.920754
O O7 0.000000 0.737556 0.000000
O O8 0.657032 0.500000 0.536794
O O9 0.555685 0.331092 0.581551
O O10 0.868842 0.369743 0.381249
O O11 0.000000 0.747608 0.500000
O O12 0.900341 0.676783 0.694852
O O13 0.336347 0.893377 0.868855
O O14 0.250000 0.750000 0.000000
O O15 0.540401 0.000000 0.315905
#
# Coordination Sequence:
#
# PCOD9200796 Si02
#       6
#     8   8   8   8   8   8
#     4  10  20  37  60  82 111 155 201 242 287 350
#     4  11  22  35  55  85 119 149 185 244 305 352
#     4  10  22  41  62  85 117 160 208 247 286 351
#     4  12  23  37  60  88 121 156 191 246 310 356
#     4  10  20  38  59  81 113 154 200 237 281 352
#     4  11  23  40  63  88 117 158 204 246 291 354
#
# _framework density 21.531934
#
# number of rings (size 3 to 8) (size 9 to 14) (size 15 to 20)
#    0.000    1.333    0.000    8.000    0.000    1.667 
#    0.000    1.667    0.000    4.500    0.000    0.000 
#    0.000    0.000    0.000    0.000    0.000    0.000 
#
# Total GULP energy -134196.330261 kJ/mol
# GULP energy per Si atom -5591.513761 kJ/mol
# Density = 2.148293 g / cm^3
# Si number density = 21.531934 Si / 1000 Ang^3
#
#
#
# Elastic Constant Matrix: (Units=GPa)
#
#
# Indices 1 2 3 4 5 6 
#
# 1 51.7148 1.9928 -1.8434 -0.0002 4.4847 -0.0001
# 2 1.9928 46.1437 -15.8037 0.0002 8.6722 -0.0002
# 3 -1.8434 -15.8037 65.2122 0.0010 -7.6015 -0.0002
# 4 -0.0002 0.0002 0.0010 -13.3787 0.0003 -5.5914
# 5 4.4847 8.6722 -7.6015 0.0003 37.4339 0.0000
# 6 -0.0001 -0.0002 -0.0002 -5.5914 0.0000 2.8477
#
#
#
# Elastic Compliance Matrix: (Units=1/GPa)
#
#
# Indices 1 2 3 4 5 6 
#
# 1 0.019550 -0.000356 0.000208 0.000000 -0.002217 0.000000
# 2 -0.000356 0.024375 0.005371 0.000000 -0.004513 0.000002
# 3 0.000208 0.005371 0.016894 0.000000 0.002161 0.000003
# 4 0.000000 0.000000 0.000000 -0.041055 0.000000 -0.080611
# 5 -0.002217 -0.004513 0.002161 0.000000 0.028464 0.000001
# 6 0.000000 0.000002 0.000003 -0.080611 0.000001 0.192879
#
#
# Mechanical properties :
#
#
# Convention : Reuss Voigt Hill
#
# Bulk Modulus (GPa) = 14.03252 14.64024 14.33638
# Shear Modulus (GPa) = 19.65283 17.29557 18.47420
#
# Velocity S-wave (km/s) = 3.02442 2.83725 2.93233
# Velocity P-wave (km/s) = 4.32751 4.18896 4.25880
#
# Compressibility (1/GPa) = 0.07126306
#
# Stress axis : x y z
#
# Youngs Moduli (GPa) = 51.15025 41.02643 59.19283
#
# Poissons Ratio (x) = 0.01462 -0.01230
# Poissons Ratio (y) = 0.01823 -0.31791
# Poissons Ratio (z) = -0.01063 -0.22034
#
# Static dielectric constant tensor:
#      x y z
#    x 1.796770 0.000000 -0.044180 
#    y 0.000000 1.776610 0.000000 
#    z -0.044180 0.000000 1.763050 
# 
# From -- ./inp_files/271602.got.cif
#   From: 2010.05.17/outbox.cif.g08.bks.cpg/sg12_136_cif.got.tgz:271602.got - 2010.06.03 13:09:07.
