data_PCOD9200198
_publ_section_title
;
Structure prediction by ZEFSAII (Michael W. Deem and Ramdas Pophale) SiO2 
 PCOD9200198
Probable space group: C 2/M
;
_chemical_formula_sum "Si O2"
_cell_formula_units_Z 40
_cell_length_a 19.984677
_cell_length_b 13.391447
_cell_length_c 20.391934
_cell_angle_alpha 90.000000
_cell_angle_beta 159.218439
_cell_angle_gamma 90.000000
_cell_volume 1936.306626
_symmetry_space_group_name_H-M "C 2/M"
_symmetry_group_IT_number 12
_symmetry_cell_setting 'monoclinic'
loop_
_space_group_symop_operation_xyz
x,y,z
-x,y,-z
-x,-y,-z
x,-y,z
1/2+x,1/2+y,z
1/2-x,1/2+y,-z
1/2-x,1/2-y,-z
1/2+x,1/2-y,z
loop_
_atom_site_type_symbol
_atom_site_label
_atom_site_fract_x
_atom_site_fract_y
_atom_site_fract_z
Si Si1 0.934810 0.827836 0.510328
Si Si2 0.627616 0.336042 0.223122
Si Si3 0.054155 0.000000 0.255166
Si Si4 0.735360 0.500000 0.559218
Si Si5 0.500000 0.500000 0.000000
Si Si6 0.333557 0.000000 0.058251
Si Si7 0.000000 0.500000 0.000000
Si Si8 0.322765 0.163087 0.938495
O O1 0.814308 0.729763 0.385464
O O2 0.804810 0.905476 0.430984
O O3 0.000000 0.872204 0.500000
O O4 0.119812 0.809108 0.722964
O O5 0.637938 0.401798 0.298429
O O6 0.590466 0.412753 0.130746
O O7 0.454303 0.258576 0.068269
O O8 0.093510 0.000000 0.368383
O O9 0.828229 0.000000 0.035377
O O10 0.945645 0.500000 0.723164
O O11 0.301506 0.900937 0.985212
O O12 0.080952 0.587119 0.024478
#
# Coordination Sequence:
#
# PCOD9200198 Si02
#       8
#     8   8   4   4   2   4   2   8
#     4  12  24  40  70 107 137 176 222 285 351 408
#     4  11  25  45  71  97 134 188 229 282 343 407
#     4  11  27  49  64  94 140 187 231 285 335 401
#     4  12  24  44  65 104 142 170 225 285 342 411
#     4  10  22  48  68  94 138 172 232 288 336 406
#     4  11  23  43  66  97 134 177 225 281 343 395
#     4  10  20  36  68 100 148 170 208 286 360 388
#     4  11  22  40  66 102 138 174 228 278 345 416
#
# _framework density 20.657886000000001
#
# number of rings (size 3 to 8) (size 9 to 14) (size 15 to 20)
#    0.000    0.800    4.000    3.900    2.800    3.200 
#    0.000   10.000    0.000    0.000    0.000    0.000 
#    0.000    0.000    0.000    0.000    0.000    0.000 
#
# Total GULP energy -111347.970421 kJ/mol
# GULP energy per Si atom -5567.398521 kJ/mol
# Density = 2.061087 g / cm^3
# Si number density = 20.657886 Si / 1000 Ang^3
#
#
#
# Elastic Constant Matrix: (Units=GPa)
#
#
# Indices 1 2 3 4 5 6 
#
# 1 45.6308 19.7670 -4.3226 0.0048 4.5705 0.0009
# 2 19.7670 143.9275 38.8644 -0.0217 -13.8961 0.0086
# 3 -4.3226 38.8644 91.3969 -0.0070 -0.8698 0.0132
# 4 0.0048 -0.0217 -0.0070 -11.8941 0.0038 14.1023
# 5 4.5705 -13.8961 -0.8698 0.0038 15.7887 -0.0019
# 6 0.0009 0.0086 0.0132 14.1023 -0.0019 -27.3036
#
#
#
# Elastic Compliance Matrix: (Units=1/GPa)
#
#
# Indices 1 2 3 4 5 6 
#
# 1 0.025963 -0.005714 0.003540 0.000044 -0.012350 0.000024
# 2 -0.005714 0.009893 -0.004381 -0.000037 0.010120 -0.000019
# 3 0.003540 -0.004381 0.012932 0.000018 -0.004168 0.000014
# 4 0.000044 -0.000037 0.000018 -0.216910 -0.000006 -0.112035
# 5 -0.012350 0.010120 -0.004168 -0.000006 0.075588 -0.000008
# 6 0.000024 -0.000019 0.000014 -0.112035 -0.000008 -0.094491
#
#
# Mechanical properties :
#
#
# Convention : Reuss Voigt Hill
#
# Bulk Modulus (GPa) = 28.02834 43.28586 35.65710
# Shear Modulus (GPa) = -30.85951 10.42796 -10.21578
#
# Velocity S-wave (km/s) = -3.86921 2.24920 -2.22620
# Velocity P-wave (km/s) = 2.52265 5.26729 3.26960
#
# Compressibility (1/GPa) = 0.03567818
#
# Stress axis : x y z
#
# Youngs Moduli (GPa) = 38.51693 101.08567 77.32889
#
# Poissons Ratio (x) = 0.57760 -0.27375
# Poissons Ratio (y) = 0.22008 0.33874
# Poissons Ratio (z) = -0.13635 0.44281
#
# Static dielectric constant tensor:
#      x y z
#    x 1.745090 0.000000 0.016250 
#    y 0.000000 1.687480 0.000000 
#    z 0.016250 0.000000 1.760450 
# 
# From -- ./inp_files/322187.got.cif
#   From: 2010.05.17/outbox.cif.g08.bks.cpg/sg12_162_cif.got.tgz:322187.got - 2010.06.03 13:09:07.
