data_PCOD9200126
_publ_section_title
;
Structure prediction by ZEFSAII (Michael W. Deem and Ramdas Pophale) SiO2 
 PCOD9200126
Probable space group: C 2/M
;
_chemical_formula_sum "Si O2"
_cell_formula_units_Z 40
_cell_length_a 9.005917
_cell_length_b 23.398135
_cell_length_c 10.006712
_cell_angle_alpha 90.000000
_cell_angle_beta 77.975712
_cell_angle_gamma 90.000000
_cell_volume 2062.366306
_symmetry_space_group_name_H-M "C 2/M"
_symmetry_group_IT_number 12
_symmetry_cell_setting 'monoclinic'
loop_
_space_group_symop_operation_xyz
x,y,z
-x,y,-z
-x,-y,-z
x,-y,z
1/2+x,1/2+y,z
1/2-x,1/2+y,-z
1/2-x,1/2-y,-z
1/2+x,1/2-y,z
loop_
_atom_site_type_symbol
_atom_site_label
_atom_site_fract_x
_atom_site_fract_y
_atom_site_fract_z
Si Si1 0.505062 0.620940 0.157716
Si Si2 0.835631 0.651817 0.768279
Si Si3 0.000000 0.660652 0.000000
Si Si4 0.446626 0.500000 0.729958
Si Si5 0.249343 0.000000 0.497281
Si Si6 0.232137 0.776414 0.152072
Si Si7 0.000000 0.594741 0.500000
O O1 0.330045 0.626224 0.233770
O O2 0.566971 0.558781 0.185573
O O3 0.609625 0.673283 0.189052
O O4 0.500000 0.628031 0.000000
O O5 0.809918 0.720088 0.759560
O O6 0.956549 0.630492 0.638718
O O7 0.883534 0.633561 0.913055
O O8 0.101043 0.695979 0.873587
O O9 0.611961 0.500000 0.628508
O O10 0.324706 0.500000 0.634619
O O11 0.356903 0.945560 0.495666
O O12 0.250000 0.750000 0.000000
#
# Coordination Sequence:
#
# PCOD9200126 Si02
#       7
#     8   8   4   4   4   8   4
#     4  12  22  41  66  97 134 167 213 271 323 383
#     4  11  22  38  64  99 126 173 214 261 323 388
#     4  10  20  36  64  91 134 169 204 254 324 392
#     4  11  25  44  67  93 120 171 229 269 310 392
#     4  10  24  48  65  81 124 187 216 253 340 382
#     4  10  20  37  63  94 133 174 203 256 333 396
#     4  11  24  44  68  90 132 171 220 272 312 393
#
# _framework density 19.395195999999999
#
# number of rings (size 3 to 8) (size 9 to 14) (size 15 to 20)
#    0.000    1.200    6.000    2.700    4.200    0.000 
#    0.000    6.000    0.000    3.600    0.000    0.000 
#    0.000    0.000    0.000    0.000    0.000    0.000 
#
# Total GULP energy -111431.848997 kJ/mol
# GULP energy per Si atom -5571.592450 kJ/mol
# Density = 1.935105 g / cm^3
# Si number density = 19.395196 Si / 1000 Ang^3
#
#
#
# Elastic Constant Matrix: (Units=GPa)
#
#
# Indices 1 2 3 4 5 6 
#
# 1 91.4077 26.8879 13.0969 0.0000 -1.9129 0.0000
# 2 26.8879 119.0971 30.3338 0.0000 6.0788 0.0000
# 3 13.0969 30.3338 55.6197 0.0000 -12.2558 0.0000
# 4 0.0000 0.0000 0.0000 33.0680 0.0000 -7.6407
# 5 -1.9129 6.0788 -12.2558 0.0000 16.6764 0.0000
# 6 0.0000 0.0000 0.0000 -7.6407 0.0000 32.4842
#
#
#
# Elastic Compliance Matrix: (Units=1/GPa)
#
#
# Indices 1 2 3 4 5 6 
#
# 1 0.011856 -0.002460 -0.001137 0.000000 0.001421 0.000000
# 2 -0.002460 0.011511 -0.007978 0.000000 -0.010341 0.000000
# 3 -0.001137 -0.007978 0.027695 0.000000 0.023131 0.000000
# 4 0.000000 0.000000 0.000000 0.031979 0.000000 0.007522
# 5 0.001421 -0.010341 0.023131 0.000000 0.080896 0.000000
# 6 0.000000 0.000000 0.000000 0.007522 0.000000 0.032553
#
#
# Mechanical properties :
#
#
# Convention : Reuss Voigt Hill
#
# Bulk Modulus (GPa) = 35.82517 45.19575 40.51046
# Shear Modulus (GPa) = 21.83936 29.49946 25.66941
#
# Velocity S-wave (km/s) = 3.35926 3.90419 3.64193
# Velocity P-wave (km/s) = 5.79288 6.60884 6.21426
#
# Compressibility (1/GPa) = 0.02791333
#
# Stress axis : x y z
#
# Youngs Moduli (GPa) = 84.34424 86.86972 36.10794
#
# Poissons Ratio (x) = 0.21366 0.04107
# Poissons Ratio (y) = 0.20745 0.28806
# Poissons Ratio (z) = 0.09593 0.69301
#
# Static dielectric constant tensor:
#      x y z
#    x 1.786030 0.000000 0.002510 
#    y 0.000000 1.716580 0.000000 
#    z 0.002510 0.000000 1.665050 
# 
# From -- ./inp_files/120213.got.cif
#   From: 2010.05.17/outbox.cif.g08.bks.cpg/sg12_61_cif.got.tgz:120213.got - 2010.06.03 13:09:07.
