data_PCOD9200294
_publ_section_title
;
Structure prediction by ZEFSAII (Michael W. Deem and Ramdas Pophale) SiO2 
 PCOD9200294
Probable space group: C 2/M
;
_chemical_formula_sum "Si O2"
_cell_formula_units_Z 52
_cell_length_a 14.783297
_cell_length_b 17.465870
_cell_length_c 11.456259
_cell_angle_alpha 90.000000
_cell_angle_beta 97.580218
_cell_angle_gamma 90.000000
_cell_volume 2932.192184
_symmetry_space_group_name_H-M "C 2/M"
_symmetry_group_IT_number 12
_symmetry_cell_setting 'monoclinic'
loop_
_space_group_symop_operation_xyz
x,y,z
-x,y,-z
-x,-y,-z
x,-y,z
1/2+x,1/2+y,z
1/2-x,1/2+y,-z
1/2-x,1/2-y,-z
1/2+x,1/2-y,z
loop_
_atom_site_type_symbol
_atom_site_label
_atom_site_fract_x
_atom_site_fract_y
_atom_site_fract_z
Si Si1 0.688408 0.583329 0.000601
Si Si2 0.468290 0.913605 0.690690
Si Si3 0.894595 0.753386 0.001489
Si Si4 0.807574 0.244376 0.391455
Si Si5 0.500000 0.211321 0.500000
Si Si6 0.201384 0.643373 0.194360
Si Si7 0.662136 0.142068 0.803092
O O1 0.644862 0.500000 0.999711
O O2 0.743675 0.592826 0.888952
O O3 0.623199 0.656537 0.996949
O O4 0.762261 0.593580 0.116710
O O5 0.463774 0.846275 0.593990
O O6 0.385733 0.899102 0.765966
O O7 0.567822 0.902639 0.765770
O O8 0.461260 0.000000 0.641920
O O9 0.837407 0.714885 0.887564
O O10 0.861892 0.712843 0.114665
O O11 0.000000 0.736103 0.000000
O O12 0.750000 0.250000 0.500000
O O13 0.766358 0.176412 0.306283
O O14 0.802578 0.321419 0.311532
O O15 0.914995 0.239422 0.439771
#
# Coordination Sequence:
#
# PCOD9200294 Si02
#       7
#     8   8   8   8   4   8   8
#     4  11  22  36  56  83 114 148 184 235 293 339
#     4  11  21  34  54  85 119 147 180 231 294 348
#     4  11  20  36  58  80 113 146 190 231 276 337
#     4  11  20  37  60  84 111 151 202 235 276 326
#     4  10  23  34  56  82 115 154 192 238 279 330
#     4  11  20  37  57  83 113 149 191 232 278 343
#     4  10  20  37  56  84 115 148 184 234 282 347
#
# _framework density 17.734172000000001
#
# number of rings (size 3 to 8) (size 9 to 14) (size 15 to 20)
#    0.000    1.231    6.154    2.077    0.000    0.308 
#    0.000    2.308    0.000    0.000    0.000    2.154 
#    0.000    0.154    0.000    0.000    0.000    0.000 
#
# Total GULP energy -145137.849558 kJ/mol
# GULP energy per Si atom -5582.224983 kJ/mol
# Density = 1.769381 g / cm^3
# Si number density = 17.734172 Si / 1000 Ang^3
#
#
#
# Elastic Constant Matrix: (Units=GPa)
#
#
# Indices 1 2 3 4 5 6 
#
# 1 64.6650 16.5283 31.4855 0.0000 -2.4415 0.0000
# 2 16.5283 88.6166 12.9118 0.0000 2.4610 0.0000
# 3 31.4855 12.9118 91.4792 0.0000 -1.4763 0.0000
# 4 0.0000 0.0000 0.0000 -10.0897 0.0000 2.3077
# 5 -2.4415 2.4610 -1.4763 0.0000 25.6802 0.0000
# 6 0.0000 0.0000 0.0000 2.3077 0.0000 20.0470
#
#
#
# Elastic Compliance Matrix: (Units=1/GPa)
#
#
# Indices 1 2 3 4 5 6 
#
# 1 0.019254 -0.002734 -0.006213 0.000000 0.001735 0.000000
# 2 -0.002734 0.011947 -0.000769 0.000000 -0.001449 0.000000
# 3 -0.006213 -0.000769 0.013182 0.000000 0.000241 0.000000
# 4 0.000000 0.000000 0.000000 -0.096569 0.000000 0.011116
# 5 0.001735 -0.001449 0.000241 0.000000 0.039258 0.000000
# 6 0.000000 0.000000 0.000000 0.011116 0.000000 0.048603
#
#
# Mechanical properties :
#
#
# Convention : Reuss Voigt Hill
#
# Bulk Modulus (GPa) = 40.07762 40.73467 40.40615
# Shear Modulus (GPa) = 78.83503 19.38319 49.10911
#
# Velocity S-wave (km/s) = 6.67460 3.30962 5.26801
# Velocity P-wave (km/s) = 9.05806 6.13386 7.73540
#
# Compressibility (1/GPa) = 0.02495158
#
# Stress axis : x y z
#
# Youngs Moduli (GPa) = 51.93797 83.70487 75.85998
#
# Poissons Ratio (x) = 0.22885 0.47131
# Poissons Ratio (y) = 0.14200 0.05830
# Poissons Ratio (z) = 0.32269 0.06433
#
# Static dielectric constant tensor:
#      x y z
#    x 1.591400 0.000000 0.004260 
#    y 0.000000 1.591520 0.000000 
#    z 0.004260 0.000000 1.619330 
# 
# From -- ./inp_files/144925.got.cif
#   From: 2010.05.17/outbox.cif.g08.bks.cpg/sg12_73_cif.got.tgz:144925.got - 2010.06.03 13:09:07.
