data_PCOD9200295
_publ_section_title
;
Structure prediction by ZEFSAII (Michael W. Deem and Ramdas Pophale) SiO2 
 PCOD9200295
Probable space group: C 2/M
;
_chemical_formula_sum "Si O2"
_cell_formula_units_Z 48
_cell_length_a 14.171122
_cell_length_b 18.239224
_cell_length_c 9.782682
_cell_angle_alpha 90.000000
_cell_angle_beta 79.966408
_cell_angle_gamma 90.000000
_cell_volume 2489.860500
_symmetry_space_group_name_H-M "C 2/M"
_symmetry_group_IT_number 12
_symmetry_cell_setting 'monoclinic'
loop_
_space_group_symop_operation_xyz
x,y,z
-x,y,-z
-x,-y,-z
x,-y,z
1/2+x,1/2+y,z
1/2-x,1/2+y,-z
1/2-x,1/2-y,-z
1/2+x,1/2-y,z
loop_
_atom_site_type_symbol
_atom_site_label
_atom_site_fract_x
_atom_site_fract_y
_atom_site_fract_z
Si Si1 0.277820 0.156933 0.369501
Si Si2 0.406925 0.296850 0.431152
Si Si3 0.788605 0.588290 0.842892
Si Si4 0.605181 0.084420 0.453996
Si Si5 0.580835 0.338375 0.875918
Si Si6 0.322458 0.804435 0.059577
O O1 0.344780 0.225130 0.403683
O O2 0.172507 0.159804 0.460625
O O3 0.334813 0.090360 0.422852
O O4 0.276046 0.161886 0.207519
O O5 0.500000 0.283176 0.500000
O O6 0.437548 0.336690 0.282269
O O7 0.791645 0.500000 0.853433
O O8 0.834146 0.615706 0.687732
O O9 0.679209 0.616685 0.873071
O O10 0.844705 0.630290 0.949465
O O11 0.500000 0.117193 0.500000
O O12 0.591089 0.000000 0.419683
O O13 0.597552 0.252780 0.911801
O O14 0.500000 0.366575 0.000000
O O15 0.250000 0.750000 0.000000
#
# Coordination Sequence:
#
# PCOD9200295 Si02
#       6
#     8   8   8   8   8   8
#     4  10  20  37  56  84 116 150 189 242 288 343
#     4  10  21  33  57  87 115 147 192 238 292 341
#     4  10  21  39  60  84 119 156 197 244 293 356
#     4  10  21  38  61  84 111 152 197 241 292 349
#     4  10  21  37  58  87 122 155 191 242 291 354
#     4   9  21  36  56  83 116 153 193 237 292 344
#
# _framework density 19.278188
#
# number of rings (size 3 to 8) (size 9 to 14) (size 15 to 20)
#    0.000    2.167    1.667    0.500    7.000    3.667 
#    0.000    0.000    0.000    4.500    0.000    0.000 
#    0.000    0.000    0.000    0.000    0.000    0.000 
#
# Total GULP energy -133693.722356 kJ/mol
# GULP energy per Si atom -5570.571765 kJ/mol
# Density = 1.923431 g / cm^3
# Si number density = 19.278188 Si / 1000 Ang^3
#
#
#
# Elastic Constant Matrix: (Units=GPa)
#
#
# Indices 1 2 3 4 5 6 
#
# 1 90.7026 10.9737 56.3148 0.0000 -15.9340 0.0000
# 2 10.9737 55.6667 23.5098 0.0000 -1.8789 0.0000
# 3 56.3148 23.5098 154.5263 0.0000 -6.4824 0.0000
# 4 0.0000 0.0000 0.0000 19.4630 0.0000 7.4190
# 5 -15.9340 -1.8789 -6.4824 0.0000 40.1888 0.0000
# 6 0.0000 0.0000 0.0000 7.4190 0.0000 16.6008
#
#
#
# Elastic Compliance Matrix: (Units=1/GPa)
#
#
# Indices 1 2 3 4 5 6 
#
# 1 0.015272 -0.000617 -0.005255 0.000000 0.005179 0.000000
# 2 -0.000617 0.019230 -0.002692 0.000000 0.000220 0.000000
# 3 -0.005255 -0.002692 0.008762 0.000000 -0.000796 0.000000
# 4 0.000000 0.000000 0.000000 0.061929 0.000000 -0.027676
# 5 0.005179 0.000220 -0.000796 0.000000 0.026818 0.000000
# 6 0.000000 0.000000 0.000000 -0.027676 0.000000 0.072607
#
#
# Mechanical properties :
#
#
# Convention : Reuss Voigt Hill
#
# Bulk Modulus (GPa) = 38.25789 53.61026 45.93407
# Shear Modulus (GPa) = 21.69612 29.25702 25.47657
#
# Velocity S-wave (km/s) = 3.35837 3.89989 3.63922
# Velocity P-wave (km/s) = 5.90986 6.93888 6.44494
#
# Compressibility (1/GPa) = 0.02613840
#
# Stress axis : x y z
#
# Youngs Moduli (GPa) = 65.48039 52.00254 114.12336
#
# Poissons Ratio (x) = 0.03207 0.59966
# Poissons Ratio (y) = 0.04038 0.30718
# Poissons Ratio (z) = 0.34407 0.13997
#
# Static dielectric constant tensor:
#      x y z
#    x 1.661030 0.000000 -0.028350 
#    y 0.000000 1.715420 0.000000 
#    z -0.028350 0.000000 1.652290 
# 
# From -- ./inp_files/63333.got.cif
#   From: 2010.05.17/outbox.cif.g08.bks.cpg/sg12_32_cif.got.tgz:63333.got - 2010.06.03 13:09:07.
