data_PCOD9200334
_publ_section_title
;
Structure prediction by ZEFSAII (Michael W. Deem and Ramdas Pophale) SiO2 
 PCOD9200334
Probable space group: C 2/M
;
_chemical_formula_sum "Si O2"
_cell_formula_units_Z 40
_cell_length_a 9.569050
_cell_length_b 22.262188
_cell_length_c 11.714362
_cell_angle_alpha 90.000000
_cell_angle_beta 54.301877
_cell_angle_gamma 90.000000
_cell_volume 2026.591582
_symmetry_space_group_name_H-M "C 2/M"
_symmetry_group_IT_number 12
_symmetry_cell_setting 'monoclinic'
loop_
_space_group_symop_operation_xyz
x,y,z
-x,y,-z
-x,-y,-z
x,-y,z
1/2+x,1/2+y,z
1/2-x,1/2+y,-z
1/2-x,1/2-y,-z
1/2+x,1/2-y,z
loop_
_atom_site_type_symbol
_atom_site_label
_atom_site_fract_x
_atom_site_fract_y
_atom_site_fract_z
Si Si1 0.939472 0.150309 0.702893
Si Si2 0.220066 0.623100 0.603122
Si Si3 0.882356 0.129895 0.160426
Si Si4 0.067559 0.285331 0.339220
Si Si5 0.175825 0.500000 0.488660
Si Si6 0.346543 0.500000 0.170624
O O1 0.787389 0.121347 0.700874
O O2 0.907394 0.221291 0.732250
O O3 0.115034 0.146005 0.546514
O O4 0.984123 0.119073 0.800280
O O5 0.179564 0.559008 0.565684
O O6 0.068711 0.671151 0.657945
O O7 0.746438 0.179536 0.260710
O O8 0.780930 0.067921 0.181425
O O9 0.000000 0.149087 0.000000
O O10 0.000000 0.275095 0.500000
O O11 0.328652 0.500000 0.320061
O O12 0.000000 0.500000 0.500000
O O13 0.500000 0.500000 0.000000
#
# Coordination Sequence:
#
# PCOD9200334 Si02
#       6
#     8   8   8   8   4   4
#     4  11  22  37  60  91 121 153 201 246 307 345
#     4  11  22  35  60  94 120 150 196 257 296 343
#     4  11  24  40  60  86 121 161 205 242 296 362
#     4  12  20  38  63  88 119 160 201 246 295 359
#     4  12  22  38  62  93 122 149 201 254 293 345
#     4  10  20  37  57  80 114 156 194 235 285 356
#
# _framework density 19.737572
#
# number of rings (size 3 to 8) (size 9 to 14) (size 15 to 20)
#    0.000    0.800    6.000    3.600    0.000    3.200 
#    0.000    1.000    0.000    0.000    0.000    8.400 
#    0.000    0.000    0.000    0.000    0.000    0.000 
#
# Total GULP energy -111468.791058 kJ/mol
# GULP energy per Si atom -5573.439553 kJ/mol
# Density = 1.969265 g / cm^3
# Si number density = 19.737572 Si / 1000 Ang^3
#
#
#
# Elastic Constant Matrix: (Units=GPa)
#
#
# Indices 1 2 3 4 5 6 
#
# 1 125.7720 31.7654 23.1241 0.0000 19.7101 0.0000
# 2 31.7654 131.5170 5.7509 0.0000 -7.4582 0.0000
# 3 23.1241 5.7509 70.8739 0.0000 13.7815 0.0000
# 4 0.0000 0.0000 0.0000 150.0249 0.0000 -18.0214
# 5 19.7101 -7.4582 13.7815 0.0000 14.6072 0.0000
# 6 0.0000 0.0000 0.0000 -18.0214 0.0000 26.8793
#
#
#
# Elastic Compliance Matrix: (Units=1/GPa)
#
#
# Indices 1 2 3 4 5 6 
#
# 1 0.011699 -0.003825 -0.000070 0.000000 -0.017673 0.000000
# 2 -0.003825 0.009258 -0.001746 0.000000 0.011536 0.000000
# 3 -0.000070 -0.001746 0.017671 0.000000 -0.017469 0.000000
# 4 0.000000 0.000000 0.000000 0.007249 0.000000 0.004860
# 5 -0.017673 0.011536 -0.017469 0.000000 0.114678 0.000000
# 6 0.000000 0.000000 0.000000 0.004860 0.000000 0.040462
#
#
# Mechanical properties :
#
#
# Convention : Reuss Voigt Hill
#
# Bulk Modulus (GPa) = 36.56929 49.93820 43.25375
# Shear Modulus (GPa) = 22.58184 56.13711 39.35948
#
# Velocity S-wave (km/s) = 3.38613 5.33887 4.47042
# Velocity P-wave (km/s) = 5.81858 7.95994 6.97196
#
# Compressibility (1/GPa) = 0.02734535
#
# Stress axis : x y z
#
# Youngs Moduli (GPa) = 85.47386 108.01495 56.58960
#
# Poissons Ratio (x) = 0.41315 0.00397
# Poissons Ratio (y) = 0.32693 0.09883
# Poissons Ratio (z) = 0.00600 0.18864
#
# Static dielectric constant tensor:
#      x y z
#    x 1.740620 0.000000 0.019160 
#    y 0.000000 1.691210 0.000000 
#    z 0.019160 0.000000 1.691600 
# 
# From -- ./inp_files/121713.got.cif
#   From: 2010.05.17/outbox.cif.g08.bks.cpg/sg12_61_cif.got.tgz:121713.got - 2010.06.03 13:09:07.
