data_PCOD9200225
_publ_section_title
;
Structure prediction by ZEFSAII (Michael W. Deem and Ramdas Pophale) SiO2 
 PCOD9200225
Probable space group: C 2/M
;
_chemical_formula_sum "Si O2"
_cell_formula_units_Z 48
_cell_length_a 10.956563
_cell_length_b 23.261969
_cell_length_c 9.826597
_cell_angle_alpha 90.000000
_cell_angle_beta 96.461508
_cell_angle_gamma 90.000000
_cell_volume 2488.607367
_symmetry_space_group_name_H-M "C 2/M"
_symmetry_group_IT_number 12
_symmetry_cell_setting 'monoclinic'
loop_
_space_group_symop_operation_xyz
x,y,z
-x,y,-z
-x,-y,-z
x,-y,z
1/2+x,1/2+y,z
1/2-x,1/2+y,-z
1/2-x,1/2-y,-z
1/2+x,1/2-y,z
loop_
_atom_site_type_symbol
_atom_site_label
_atom_site_fract_x
_atom_site_fract_y
_atom_site_fract_z
Si Si1 0.755215 0.651313 0.753837
Si Si2 0.874538 0.658152 0.486787
Si Si3 0.683724 0.809816 0.955235
Si Si4 0.046408 0.068090 0.660013
Si Si5 0.348506 0.348847 0.729302
Si Si6 0.044644 0.751690 0.723266
O O1 0.842874 0.667538 0.639793
O O2 0.681226 0.593443 0.707273
O O3 0.648498 0.699148 0.744960
O O4 0.820804 0.653247 0.908039
O O5 0.751611 0.636707 0.398829
O O6 0.912058 0.713361 0.399230
O O7 0.000000 0.621305 0.500000
O O8 0.772988 0.840771 0.857977
O O9 0.563213 0.789104 0.857396
O O10 0.750000 0.750000 0.000000
O O11 0.000000 0.081949 0.500000
O O12 0.950875 0.101954 0.744094
O O13 0.042297 0.000000 0.676851
O O14 0.419579 0.288780 0.704629
#
# Coordination Sequence:
#
# PCOD9200225 Si02
#       6
#     8   8   8   8   8   8
#     4  10  20  37  53  82 114 147 194 240 291 341
#     4  11  23  32  52  81 115 156 197 234 286 350
#     4   9  20  36  51  78 117 162 180 224 290 351
#     4  10  20  37  66  89 111 148 192 258 314 336
#     4  10  21  40  53  83 121 150 202 243 288 345
#     4   9  21  32  55  73 114 157 190 230 284 344
#
# _framework density 19.287894999999999
#
# number of rings (size 3 to 8) (size 9 to 14) (size 15 to 20)
#    0.000    2.167    1.667    0.500    9.333    6.000 
#    3.000    1.667    0.000    2.000    0.000    0.000 
#    0.000    4.333    0.000    0.000    0.000    0.000 
#
# Total GULP energy -133818.554100 kJ/mol
# GULP energy per Si atom -5575.773088 kJ/mol
# Density = 1.924399 g / cm^3
# Si number density = 19.287895 Si / 1000 Ang^3
#
#
#
# Elastic Constant Matrix: (Units=GPa)
#
#
# Indices 1 2 3 4 5 6 
#
# 1 103.4729 23.2830 35.7962 0.0000 -2.6641 0.0000
# 2 23.2830 67.8028 29.2415 0.0000 -1.4241 0.0000
# 3 35.7962 29.2415 133.6011 0.0000 -8.0460 0.0000
# 4 0.0000 0.0000 0.0000 16.6695 0.0000 3.1555
# 5 -2.6641 -1.4241 -8.0460 0.0000 30.0869 0.0000
# 6 0.0000 0.0000 0.0000 3.1555 0.0000 18.6292
#
#
#
# Elastic Compliance Matrix: (Units=1/GPa)
#
#
# Indices 1 2 3 4 5 6 
#
# 1 0.011113 -0.002797 -0.002352 0.000000 0.000223 0.000000
# 2 -0.002797 0.016991 -0.002984 0.000000 -0.000241 0.000000
# 3 -0.002352 -0.002984 0.008890 0.000000 0.002028 0.000000
# 4 0.000000 0.000000 0.000000 0.061977 0.000000 -0.010498
# 5 0.000223 -0.000241 0.002028 0.000000 0.033788 0.000000
# 6 0.000000 0.000000 0.000000 -0.010498 0.000000 0.055457
#
#
# Mechanical properties :
#
#
# Convention : Reuss Voigt Hill
#
# Bulk Modulus (GPa) = 48.24296 53.50201 50.87248
# Shear Modulus (GPa) = 23.65273 27.51420 25.58346
#
# Velocity S-wave (km/s) = 3.50565 3.78100 3.64593
# Velocity P-wave (km/s) = 6.43836 6.84545 6.64502
#
# Compressibility (1/GPa) = 0.02072842
#
# Stress axis : x y z
#
# Youngs Moduli (GPa) = 89.98342 58.85472 112.48133
#
# Poissons Ratio (x) = 0.16463 0.26455
# Poissons Ratio (y) = 0.25170 0.33564
# Poissons Ratio (z) = 0.21164 0.17562
#
# Static dielectric constant tensor:
#      x y z
#    x 1.746450 0.000000 0.044780 
#    y 0.000000 1.656870 0.000000 
#    z 0.044780 0.000000 1.743820 
# 
# From -- ./inp_files/50721.got.cif
#   From: 2010.05.17/outbox.cif.g08.bks.cpg/sg12_26_cif.got.tgz:50721.got - 2010.06.03 13:09:07.
