data_PCOD9200909
_publ_section_title
;
Structure prediction by ZEFSAII (Michael W. Deem and Ramdas Pophale) SiO2 
 PCOD9200909
Probable space group: C 2/M
;
_chemical_formula_sum "Si O2"
_cell_formula_units_Z 64
_cell_length_a 27.644742
_cell_length_b 12.881816
_cell_length_c 14.594853
_cell_angle_alpha 90.000000
_cell_angle_beta 138.465489
_cell_angle_gamma 90.000000
_cell_volume 3446.270977
_symmetry_space_group_name_H-M "C 2/M"
_symmetry_group_IT_number 12
_symmetry_cell_setting 'monoclinic'
loop_
_space_group_symop_operation_xyz
x,y,z
-x,y,-z
-x,-y,-z
x,-y,z
1/2+x,1/2+y,z
1/2-x,1/2+y,-z
1/2-x,1/2-y,-z
1/2+x,1/2-y,z
loop_
_atom_site_type_symbol
_atom_site_label
_atom_site_fract_x
_atom_site_fract_y
_atom_site_fract_z
Si Si1 0.539076 0.387574 0.699158
Si Si2 0.391108 0.877777 0.641080
Si Si3 0.790089 0.720826 0.341841
Si Si4 0.238274 0.380852 0.879008
Si Si5 0.551634 0.879460 0.924055
Si Si6 0.163766 0.623852 0.231326
Si Si7 0.140590 0.710379 0.894331
Si Si8 0.885986 0.110675 0.393487
O O1 0.554798 0.500000 0.766315
O O2 0.570516 0.284277 0.785462
O O3 0.578606 0.389620 0.656239
O O4 0.453378 0.381826 0.558797
O O5 0.344565 0.818330 0.498106
O O6 0.473634 0.837626 0.778099
O O7 0.350009 0.870929 0.679972
O O8 0.395354 0.000000 0.620286
O O9 0.768669 0.629694 0.240871
O O10 0.725697 0.793460 0.290281
O O11 0.832864 0.796422 0.333584
O O12 0.257911 0.500000 0.930505
O O13 0.168220 0.349509 0.842890
O O14 0.297659 0.293807 0.990371
O O15 0.615741 0.865919 0.939663
O O16 0.535478 0.000000 0.916611
O O17 0.589917 0.843599 0.072177
O O18 0.178669 0.500000 0.230954
O O19 0.848196 0.000000 0.353555
#
# Coordination Sequence:
#
# PCOD9200909 Si02
#       8
#     8   8   8   8   8   8   8   8
#     4   9  17  31  51  74 105 143 183 225 264 311
#     4  10  22  38  59  84 113 146 182 234 288 336
#     4  12  20  37  55  83 113 151 184 220 284 341
#     4  11  24  36  51  79 116 149 182 223 269 331
#     4  10  20  37  60  86 112 142 187 234 277 328
#     4  10  21  38  60  86 110 140 189 242 284 322
#     4  11  20  37  54  79 108 149 190 218 271 323
#     4   9  18  31  50  78 106 138 182 228 269 313
#
# _framework density 18.570798
#
# number of rings (size 3 to 8) (size 9 to 14) (size 15 to 20)
#    0.000    1.750    2.500    3.750    0.000    1.500 
#    0.000    0.000    0.000    3.000    0.000    0.875 
#    0.000    0.000    0.000    0.000    0.000    0.000 
#
# Total GULP energy -178181.945106 kJ/mol
# GULP energy per Si atom -5568.185785 kJ/mol
# Density = 1.852853 g / cm^3
# Si number density = 18.570798 Si / 1000 Ang^3
#
#
#
# Elastic Constant Matrix: (Units=GPa)
#
#
# Indices 1 2 3 4 5 6 
#
# 1 51.7214 12.0863 7.7647 0.0000 -1.1163 0.0000
# 2 12.0863 51.4612 30.4853 0.0000 6.2172 0.0000
# 3 7.7647 30.4853 63.8721 0.0000 -9.5876 0.0000
# 4 0.0000 0.0000 0.0000 43.2512 0.0000 -40.1244
# 5 -1.1163 6.2172 -9.5876 0.0000 24.7973 0.0000
# 6 0.0000 0.0000 0.0000 -40.1244 0.0000 137.3004
#
#
#
# Elastic Compliance Matrix: (Units=1/GPa)
#
#
# Indices 1 2 3 4 5 6 
#
# 1 0.020581 -0.005388 0.000437 0.000000 0.002446 0.000000
# 2 -0.005388 0.032735 -0.017238 0.000000 -0.015115 0.000000
# 3 0.000437 -0.017238 0.025991 0.000000 0.014391 0.000000
# 4 0.000000 0.000000 0.000000 0.031721 0.000000 0.009270
# 5 0.002446 -0.015115 0.014391 0.000000 0.049791 0.000000
# 6 0.000000 0.000000 0.000000 0.009270 0.000000 0.009992
#
#
# Mechanical properties :
#
#
# Convention : Reuss Voigt Hill
#
# Bulk Modulus (GPa) = 28.62981 29.74746 29.18864
# Shear Modulus (GPa) = 22.04282 48.85100 35.44691
#
# Velocity S-wave (km/s) = 3.44897 5.13443 4.37366
# Velocity P-wave (km/s) = 5.59558 7.15563 6.42314
#
# Compressibility (1/GPa) = 0.03492862
#
# Stress axis : x y z
#
# Youngs Moduli (GPa) = 48.58933 30.54809 38.47524
#
# Poissons Ratio (x) = 0.16459 -0.01681
# Poissons Ratio (y) = 0.26180 0.66323
# Poissons Ratio (z) = -0.02123 0.52659
#
# Static dielectric constant tensor:
#      x y z
#    x 1.633320 0.000000 0.003450 
#    y 0.000000 1.665500 0.000000 
#    z 0.003450 0.000000 1.686520 
# 
# From -- ./inp_files/245976.got.cif
#   From: 2010.05.17/outbox.cif.g08.bks.cpg/sg12_123_cif.got.tgz:245976.got - 2010.06.03 13:09:07.
