data_PCOD9200489
_publ_section_title
;
Structure prediction by ZEFSAII (Michael W. Deem and Ramdas Pophale) SiO2 
 PCOD9200489
Probable space group: C 2/M
;
_chemical_formula_sum "Si O2"
_cell_formula_units_Z 48
_cell_length_a 25.514584
_cell_length_b 7.470718
_cell_length_c 14.580629
_cell_angle_alpha 90.000000
_cell_angle_beta 72.611431
_cell_angle_gamma 90.000000
_cell_volume 2652.235020
_symmetry_space_group_name_H-M "C 2/M"
_symmetry_group_IT_number 12
_symmetry_cell_setting 'monoclinic'
loop_
_space_group_symop_operation_xyz
x,y,z
-x,y,-z
-x,-y,-z
x,-y,z
1/2+x,1/2+y,z
1/2-x,1/2+y,-z
1/2-x,1/2-y,-z
1/2+x,1/2-y,z
loop_
_atom_site_type_symbol
_atom_site_label
_atom_site_fract_x
_atom_site_fract_y
_atom_site_fract_z
Si Si1 0.631666 0.703990 0.242094
Si Si2 0.416669 0.000000 0.609177
Si Si3 0.563294 0.283078 0.099510
Si Si4 0.131041 0.781712 0.888385
Si Si5 0.250068 0.786729 0.891182
Si Si6 0.542074 0.000000 0.615201
Si Si7 0.055431 0.215666 0.764063
O O1 0.614199 0.500000 0.267918
O O2 0.599674 0.771572 0.167911
O O3 0.695773 0.708714 0.183720
O O4 0.615192 0.828907 0.334491
O O5 0.477930 0.000000 0.620418
O O6 0.423849 0.000000 0.496542
O O7 0.565312 0.500000 0.095260
O O8 0.500396 0.236323 0.151428
O O9 0.590758 0.220038 0.991206
O O10 0.192710 0.722399 0.878212
O O11 0.106010 0.734292 0.803362
O O12 0.131162 0.000000 0.891591
O O13 0.252911 0.000000 0.877565
O O14 0.250000 0.750000 0.000000
O O15 0.554231 0.827075 0.671460
O O16 0.055194 0.000000 0.749430
#
# Coordination Sequence:
#
# PCOD9200489 Si02
#       7
#     8   4   8   8   8   4   8
#     4  11  21  37  59  84 116 153 194 232 288 346
#     4  11  24  42  61  86 115 146 183 255 304 340
#     4   9  16  30  54  82 118 155 187 218 273 344
#     4   9  18  32  53  83 120 163 191 224 279 339
#     4  11  20  33  54  85 124 159 195 234 274 331
#     4  11  24  40  62  89 112 139 198 245 299 351
#     4  10  20  37  58  83 118 156 189 235 283 347
#
# _framework density 18.097943999999998
#
# number of rings (size 3 to 8) (size 9 to 14) (size 15 to 20)
#    0.000    1.833    4.167    1.000    0.000    2.667 
#    3.000    4.167    0.000    1.000    0.000    0.000 
#    0.000    0.000    0.000    0.000    0.000    0.000 
#
# Total GULP energy -134048.824297 kJ/mol
# GULP energy per Si atom -5585.367679 kJ/mol
# Density = 1.805675 g / cm^3
# Si number density = 18.097944 Si / 1000 Ang^3
#
#
#
# Elastic Constant Matrix: (Units=GPa)
#
#
# Indices 1 2 3 4 5 6 
#
# 1 129.9565 17.3491 55.2806 0.0000 9.7392 0.0000
# 2 17.3491 79.3463 32.0976 0.0000 -0.2412 0.0000
# 3 55.2806 32.0976 109.2379 0.0000 -5.4226 0.0000
# 4 0.0000 0.0000 0.0000 24.9904 0.0000 1.9196
# 5 9.7392 -0.2412 -5.4226 0.0000 22.2918 0.0000
# 6 0.0000 0.0000 0.0000 1.9196 0.0000 14.5843
#
#
#
# Elastic Compliance Matrix: (Units=1/GPa)
#
#
# Indices 1 2 3 4 5 6 
#
# 1 0.010537 -0.000051 -0.005614 0.000000 -0.005970 0.000000
# 2 -0.000051 0.014320 -0.004224 0.000000 -0.000850 0.000000
# 3 -0.005614 -0.004224 0.013519 0.000000 0.005695 0.000000
# 4 0.000000 0.000000 0.000000 0.040424 0.000000 -0.005321
# 5 -0.005970 -0.000850 0.005695 0.000000 0.048844 0.000000
# 6 0.000000 0.000000 0.000000 -0.005321 0.000000 0.069267
#
#
# Mechanical properties :
#
#
# Convention : Reuss Voigt Hill
#
# Bulk Modulus (GPa) = 53.76754 58.66616 56.21685
# Shear Modulus (GPa) = 22.43272 26.62753 24.53012
#
# Velocity S-wave (km/s) = 3.52450 3.83992 3.68558
# Velocity P-wave (km/s) = 6.80709 7.22124 7.01722
#
# Compressibility (1/GPa) = 0.01859858
#
# Stress axis : x y z
#
# Youngs Moduli (GPa) = 94.90363 69.83077 73.96984
#
# Poissons Ratio (x) = 0.00358 0.41524
# Poissons Ratio (y) = 0.00486 0.31245
# Poissons Ratio (z) = 0.53275 0.29497
#
# Static dielectric constant tensor:
#      x y z
#    x 1.629580 0.000000 0.001660 
#    y 0.000000 1.671640 0.000000 
#    z 0.001660 0.000000 1.573260 
# 
# From -- ./inp_files/172964.got.cif
#   From: 2010.05.17/outbox.cif.g08.bks.cpg/sg12_87_cif.got.tgz:172964.got - 2010.06.03 13:09:07.
