data_PCOD9200028
_publ_section_title
;
Structure prediction by ZEFSAII (Michael W. Deem and Ramdas Pophale) SiO2 
 PCOD9200028
Probable space group: C 2/M
;
_chemical_formula_sum "Si O2"
_cell_formula_units_Z 64
_cell_length_a 24.625745
_cell_length_b 18.455861
_cell_length_c 15.046456
_cell_angle_alpha 90.000000
_cell_angle_beta 149.235112
_cell_angle_gamma 90.000000
_cell_volume 3497.981066
_symmetry_space_group_name_H-M "C 2/M"
_symmetry_group_IT_number 12
_symmetry_cell_setting 'monoclinic'
loop_
_space_group_symop_operation_xyz
x,y,z
-x,y,-z
-x,-y,-z
x,-y,z
1/2+x,1/2+y,z
1/2-x,1/2+y,-z
1/2-x,1/2-y,-z
1/2+x,1/2-y,z
loop_
_atom_site_type_symbol
_atom_site_label
_atom_site_fract_x
_atom_site_fract_y
_atom_site_fract_z
Si Si1 0.755467 0.315645 0.212741
Si Si2 0.390249 0.294277 0.499968
Si Si3 0.979993 0.762694 0.076357
Si Si4 0.194339 0.174126 0.442721
Si Si5 0.550749 0.582981 0.669670
Si Si6 0.986914 0.341714 0.236718
Si Si7 0.693541 0.082277 0.548260
Si Si8 0.266223 0.162803 0.025329
O O1 0.829035 0.243983 0.332070
O O2 0.777325 0.369662 0.325116
O O3 0.775345 0.350549 0.144429
O O4 0.633648 0.292948 0.053927
O O5 0.305212 0.326596 0.450132
O O6 0.472006 0.358862 0.602124
O O7 0.456555 0.227253 0.635171
O O8 0.985534 0.685449 0.133426
O O9 0.072244 0.815746 0.242008
O O10 0.000000 0.756622 0.000000
O O11 0.250000 0.250000 0.500000
O O12 0.250493 0.114966 0.460872
O O13 0.500000 0.578981 0.500000
O O14 0.551369 0.500000 0.705525
O O15 0.667485 0.618327 0.845420
O O16 0.873372 0.353470 0.121687
O O17 0.067435 0.407626 0.359868
O O18 0.724734 0.000000 0.605186
O O19 0.250000 0.250000 0.000000
#
# Coordination Sequence:
#
# PCOD9200028 Si02
#       8
#     8   8   8   8   8   8   8   8
#     4  11  22  36  62  98 121 156 200 261 308 364
#     4  10  20  36  63  88 120 155 205 249 303 370
#     4  11  18  32  61  93 117 146 205 258 307 346
#     4  11  18  38  60  88 120 159 203 250 303 359
#     4  11  25  42  59  86 125 162 200 255 313 364
#     4  10  22  37  61  93 118 161 209 255 296 366
#     4  11  24  41  59  90 132 167 200 245 316 384
#     4  12  21  39  64  94 121 156 214 258 306 360
#
# _framework density 18.296268999999999
#
# number of rings (size 3 to 8) (size 9 to 14) (size 15 to 20)
#    0.000    1.125    7.500    1.500    0.000    3.000 
#    0.000    1.875    0.000    0.375    0.000    0.000 
#    0.000    0.000    0.000    0.000    0.000    0.000 
#
# Total GULP energy -178377.443752 kJ/mol
# GULP energy per Si atom -5574.295117 kJ/mol
# Density = 1.825463 g / cm^3
# Si number density = 18.296269 Si / 1000 Ang^3
#
#
#
# Elastic Constant Matrix: (Units=GPa)
#
#
# Indices 1 2 3 4 5 6 
#
# 1 75.2859 4.3393 24.1650 0.0000 7.3157 0.0000
# 2 4.3393 88.3668 23.8432 0.0000 6.6564 0.0000
# 3 24.1650 23.8432 82.7781 0.0000 15.3305 0.0000
# 4 0.0000 0.0000 0.0000 9.6465 0.0000 2.5853
# 5 7.3157 6.6564 15.3305 0.0000 36.3148 0.0000
# 6 0.0000 0.0000 0.0000 2.5853 0.0000 18.0721
#
#
#
# Elastic Compliance Matrix: (Units=1/GPa)
#
#
# Indices 1 2 3 4 5 6 
#
# 1 0.014729 0.000509 -0.004209 0.000000 -0.001284 0.000000
# 2 0.000509 0.012310 -0.003534 0.000000 -0.000867 0.000000
# 3 -0.004209 -0.003534 0.015242 0.000000 -0.004939 0.000000
# 4 0.000000 0.000000 0.000000 0.107797 0.000000 -0.015421
# 5 -0.001284 -0.000867 -0.004939 0.000000 0.030039 0.000000
# 6 0.000000 0.000000 0.000000 -0.015421 0.000000 0.057540
#
#
# Mechanical properties :
#
#
# Convention : Reuss Voigt Hill
#
# Bulk Modulus (GPa) = 35.95307 39.01397 37.48352
# Shear Modulus (GPa) = 19.12808 25.74557 22.43683
#
# Velocity S-wave (km/s) = 3.23687 3.75527 3.50566
# Velocity P-wave (km/s) = 5.80198 6.33818 6.07599
#
# Compressibility (1/GPa) = 0.02781403
#
# Stress axis : x y z
#
# Youngs Moduli (GPa) = 67.89344 81.23280 65.60984
#
# Poissons Ratio (x) = -0.04135 0.27613
# Poissons Ratio (y) = -0.03456 0.23185
# Poissons Ratio (z) = 0.28574 0.28706
#
# Static dielectric constant tensor:
#      x y z
#    x 1.688890 0.000000 -0.031480 
#    y 0.000000 1.600150 0.000000 
#    z -0.031480 0.000000 1.691340 
# 
# From -- ./inp_files/241534.got.cif
#   From: 2010.05.17/outbox.cif.g08.bks.cpg/sg12_121_cif.got.tgz:241534.got - 2010.06.03 13:09:07.
