data_PCOD9200643
_publ_section_title
;
Structure prediction by ZEFSAII (Michael W. Deem and Ramdas Pophale) SiO2 
 PCOD9200643
Probable space group: C 2/M
;
_chemical_formula_sum "Si O2"
_cell_formula_units_Z 56
_cell_length_a 32.331878
_cell_length_b 7.894291
_cell_length_c 12.246214
_cell_angle_alpha 90.000000
_cell_angle_beta 59.024984
_cell_angle_gamma 90.000000
_cell_volume 2679.941008
_symmetry_space_group_name_H-M "C 2/M"
_symmetry_group_IT_number 12
_symmetry_cell_setting 'monoclinic'
loop_
_space_group_symop_operation_xyz
x,y,z
-x,y,-z
-x,-y,-z
x,-y,z
1/2+x,1/2+y,z
1/2-x,1/2+y,-z
1/2-x,1/2-y,-z
1/2+x,1/2-y,z
loop_
_atom_site_type_symbol
_atom_site_label
_atom_site_fract_x
_atom_site_fract_y
_atom_site_fract_z
Si Si1 0.734878 0.201719 0.898076
Si Si2 0.922569 0.704199 0.587478
Si Si3 0.306102 0.295982 0.415262
Si Si4 0.491715 0.205167 0.685246
Si Si5 0.037584 0.799443 0.036428
Si Si6 0.321829 0.701906 0.632442
Si Si7 0.146940 0.204206 0.874574
O O1 0.774596 0.271700 0.758043
O O2 0.682163 0.253409 0.927267
O O3 0.736694 0.000000 0.890617
O O4 0.750000 0.250000 0.000000
O O5 0.921994 0.500000 0.588667
O O6 0.947893 0.758649 0.665373
O O7 0.869087 0.765966 0.639211
O O8 0.958825 0.758081 0.441290
O O9 0.310533 0.500000 0.405698
O O10 0.250000 0.250000 0.500000
O O11 0.328382 0.233106 0.499727
O O12 0.329551 0.231662 0.271110
O O13 0.484442 0.275691 0.814417
O O14 0.491605 0.000000 0.689883
O O15 0.041945 0.000000 0.007337
O O16 0.092225 0.730759 0.959612
O O17 0.000000 0.726100 0.000000
O O18 0.315175 0.500000 0.632115
O O19 0.145381 0.000000 0.871716
#
# Coordination Sequence:
#
# PCOD9200643 Si02
#       7
#     8   8   8   8   8   8   8
#     4  11  24  41  60  87 122 157 197 242 290 350
#     4   9  20  38  60  85 115 149 188 236 291 344
#     4  10  20  37  59  83 114 148 187 236 284 336
#     4   9  20  40  60  83 115 150 191 239 288 344
#     4  10  23  40  60  86 117 154 196 241 291 347
#     4  10  22  37  58  88 117 146 190 240 285 340
#     4  10  22  40  61  86 118 157 197 241 294 348
#
# _framework density 20.895983000000001
#
# number of rings (size 3 to 8) (size 9 to 14) (size 15 to 20)
#    0.000    2.143    1.429    1.286    4.000    3.714 
#    0.000    1.429    0.000    0.000    0.000    0.000 
#    0.000    0.000    0.000    0.000    0.000    0.000 
#
# Total GULP energy -156346.447191 kJ/mol
# GULP energy per Si atom -5583.801685 kJ/mol
# Density = 2.084842 g / cm^3
# Si number density = 20.895983 Si / 1000 Ang^3
#
#
#
# Elastic Constant Matrix: (Units=GPa)
#
#
# Indices 1 2 3 4 5 6 
#
# 1 161.2639 4.9544 68.2718 0.0000 1.7592 0.0000
# 2 4.9544 20.7846 4.1175 0.0000 0.9764 0.0000
# 3 68.2718 4.1175 95.8091 0.0000 22.0867 0.0000
# 4 0.0000 0.0000 0.0000 23.0017 0.0000 -0.4907
# 5 1.7592 0.9764 22.0867 0.0000 26.8599 0.0000
# 6 0.0000 0.0000 0.0000 -0.4907 0.0000 8.9047
#
#
#
# Elastic Compliance Matrix: (Units=1/GPa)
#
#
# Indices 1 2 3 4 5 6 
#
# 1 0.009668 -0.000956 -0.008280 0.000000 0.006210 0.000000
# 2 -0.000956 0.048620 -0.001253 0.000000 -0.000675 0.000000
# 3 -0.008280 -0.001253 0.020058 0.000000 -0.015906 0.000000
# 4 0.000000 0.000000 0.000000 0.043526 0.000000 0.002398
# 5 0.006210 -0.000675 -0.015906 0.000000 0.049927 0.000000
# 6 0.000000 0.000000 0.000000 0.002398 0.000000 0.112432
#
#
# Mechanical properties :
#
#
# Convention : Reuss Voigt Hill
#
# Bulk Modulus (GPa) = 17.43090 48.06056 32.74573
# Shear Modulus (GPa) = 15.41636 25.12087 20.26862
#
# Velocity S-wave (km/s) = 2.71913 3.47102 3.11782
# Velocity P-wave (km/s) = 4.26827 6.25410 5.35406
#
# Compressibility (1/GPa) = 0.05736938
#
# Stress axis : x y z
#
# Youngs Moduli (GPa) = 103.43574 20.56752 49.85588
#
# Poissons Ratio (x) = 0.01966 0.41279
# Poissons Ratio (y) = 0.09889 0.06246
# Poissons Ratio (z) = 0.85640 0.02577
#
# Static dielectric constant tensor:
#      x y z
#    x 1.739560 0.000000 0.008330 
#    y 0.000000 1.765650 0.000000 
#    z 0.008330 0.000000 1.746990 
# 
# From -- ./inp_files/186477.got.cif
#   From: 2010.05.17/outbox.cif.g08.bks.cpg/sg12_94_cif.got.tgz:186477.got - 2010.06.03 13:09:07.
