data_PCOD9200108
_publ_section_title
;
Structure prediction by ZEFSAII (Michael W. Deem and Ramdas Pophale) SiO2 
 PCOD9200108
Probable space group: C 2/M
;
_chemical_formula_sum "Si O2"
_cell_formula_units_Z 46
_cell_length_a 13.054557
_cell_length_b 30.828188
_cell_length_c 8.526703
_cell_angle_alpha 90.000000
_cell_angle_beta 142.603740
_cell_angle_gamma 90.000000
_cell_volume 2084.067135
_symmetry_space_group_name_H-M "C 2/M"
_symmetry_group_IT_number 12
_symmetry_cell_setting 'monoclinic'
loop_
_space_group_symop_operation_xyz
x,y,z
-x,y,-z
-x,-y,-z
x,-y,z
1/2+x,1/2+y,z
1/2-x,1/2+y,-z
1/2-x,1/2-y,-z
1/2+x,1/2-y,z
loop_
_atom_site_type_symbol
_atom_site_label
_atom_site_fract_x
_atom_site_fract_y
_atom_site_fract_z
Si Si1 0.500000 0.847259 0.500000
Si Si2 0.070688 0.950154 0.405313
Si Si3 0.732783 0.082035 0.873399
Si Si4 0.484454 0.773714 0.227598
Si Si5 0.000000 0.500000 0.500000
Si Si6 0.685746 0.114568 0.169529
Si Si7 0.220221 0.208654 0.663684
O O1 0.339359 0.879231 0.322043
O O2 0.463898 0.814961 0.313922
O O3 0.237867 0.921785 0.622815
O O4 0.000000 0.950313 0.500000
O O5 0.100595 0.000000 0.396064
O O6 0.931329 0.927701 0.126567
O O7 0.637914 0.038171 0.713047
O O8 0.682553 0.096040 0.989883
O O9 0.640393 0.786672 0.304207
O O10 0.551902 0.731669 0.400270
O O11 0.316172 0.767080 0.922262
O O12 0.795588 0.158254 0.312803
O O13 0.500000 0.125995 0.000000
#
# Coordination Sequence:
#
# PCOD9200108 Si02
#       7
#     4   8   8   8   2   8   8
#     4  11  20  35  60  92 112 154 207 254 281 366
#     4   9  19  35  55  84 118 147 189 242 296 357
#     4  10  20  37  61  88 117 157 195 240 304 358
#     4  10  21  37  59  82 122 153 204 245 306 357
#     4  10  20  36  64  78 118 164 194 228 300 370
#     4  11  20  37  62  86 117 151 203 247 296 360
#     4  10  20  40  57  83 118 165 192 249 309 368
#
# _framework density 22.072225
#
# number of rings (size 3 to 8) (size 9 to 14) (size 15 to 20)
#    0.000    1.913    4.348    0.000    1.217    2.435 
#    4.696    0.000    0.000    5.217    0.000    0.000 
#    0.000    0.000    0.000    0.000    0.000    0.000 
#
# Total GULP energy -128311.773683 kJ/mol
# GULP energy per Si atom -5578.772769 kJ/mol
# Density = 2.202199 g / cm^3
# Si number density = 22.072225 Si / 1000 Ang^3
#
#
#
# Elastic Constant Matrix: (Units=GPa)
#
#
# Indices 1 2 3 4 5 6 
#
# 1 27.4911 5.1899 -4.9039 0.0000 1.4921 0.0000
# 2 5.1899 131.4172 46.9777 0.0000 13.0018 0.0000
# 3 -4.9039 46.9777 103.0979 0.0000 17.4404 0.0000
# 4 0.0000 0.0000 0.0000 29.2821 0.0000 8.0818
# 5 1.4921 13.0018 17.4404 0.0000 24.7007 0.0000
# 6 0.0000 0.0000 0.0000 8.0818 0.0000 10.9032
#
#
#
# Elastic Compliance Matrix: (Units=1/GPa)
#
#
# Indices 1 2 3 4 5 6 
#
# 1 0.037630 -0.002380 0.003460 0.000000 -0.003463 0.000000
# 2 -0.002380 0.009339 -0.004044 0.000000 -0.001916 0.000000
# 3 0.003460 -0.004044 0.012926 0.000000 -0.007207 0.000000
# 4 0.000000 0.000000 0.000000 0.042934 0.000000 -0.031824
# 5 -0.003463 -0.001916 -0.007207 0.000000 0.046791 0.000000
# 6 0.000000 0.000000 0.000000 -0.031824 0.000000 0.115306
#
#
# Mechanical properties :
#
#
# Convention : Reuss Voigt Hill
#
# Bulk Modulus (GPa) = 18.53010 39.61482 29.07246
# Shear Modulus (GPa) = 17.31045 27.29336 22.30191
#
# Velocity S-wave (km/s) = 2.80351 3.52027 3.18214
# Velocity P-wave (km/s) = 4.34661 5.87451 5.16734
#
# Compressibility (1/GPa) = 0.05396626
#
# Stress axis : x y z
#
# Youngs Moduli (GPa) = 26.57450 107.08157 77.36274
#
# Poissons Ratio (x) = 0.25490 -0.26771
# Poissons Ratio (y) = 0.06326 0.31288
# Poissons Ratio (z) = -0.09196 0.43307
#
# Static dielectric constant tensor:
#      x y z
#    x 1.842680 0.000000 -0.017280 
#    y 0.000000 1.770050 0.000000 
#    z -0.017280 0.000000 1.839820 
# 
# From -- ./inp_files/67457.got.cif
#   From: 2010.05.17/outbox.cif.g08.bks.cpg/sg12_34_cif.got.tgz:67457.got - 2010.06.03 13:09:07.
