data_PCOD9200004
_publ_section_title
;
Structure prediction by ZEFSAII (Michael W. Deem and Ramdas Pophale) SiO2 
 PCOD9200004
Probable space group: C 2/M
;
_chemical_formula_sum "Si O2"
_cell_formula_units_Z 56
_cell_length_a 21.726546
_cell_length_b 22.132595
_cell_length_c 5.279905
_cell_angle_alpha 90.000000
_cell_angle_beta 70.076093
_cell_angle_gamma 90.000000
_cell_volume 2386.956182
_symmetry_space_group_name_H-M "C 2/M"
_symmetry_group_IT_number 12
_symmetry_cell_setting 'monoclinic'
loop_
_space_group_symop_operation_xyz
x,y,z
-x,y,-z
-x,-y,-z
x,-y,z
1/2+x,1/2+y,z
1/2-x,1/2+y,-z
1/2-x,1/2-y,-z
1/2+x,1/2-y,z
loop_
_atom_site_type_symbol
_atom_site_label
_atom_site_fract_x
_atom_site_fract_y
_atom_site_fract_z
Si Si1 0.752021 0.615367 0.474633
Si Si2 0.693297 0.215647 0.923764
Si Si3 0.609187 0.373379 0.690332
Si Si4 0.427836 0.754119 0.219152
Si Si5 0.618141 0.869929 0.399974
Si Si6 0.112177 0.500000 0.457420
Si Si7 0.568764 0.568850 0.254104
Si Si8 0.802527 0.500000 0.159061
O O1 0.682244 0.618904 0.699216
O O2 0.814315 0.610171 0.565093
O O3 0.760700 0.559668 0.272263
O O4 0.763019 0.680640 0.338562
O O5 0.647602 0.162978 0.113055
O O6 0.750000 0.250000 0.000000
O O7 0.634239 0.253470 0.884831
O O8 0.580935 0.309506 0.627770
O O9 0.614459 0.410779 0.421489
O O10 0.568392 0.393999 0.993799
O O11 0.415529 0.815278 0.396726
O O12 0.500000 0.757632 0.000000
O O13 0.579532 0.933707 0.450229
O O14 0.138658 0.500000 0.711017
O O15 0.168035 0.500000 0.161010
O O16 0.500000 0.571373 0.500000
O O17 0.582561 0.500000 0.159261
#
# Coordination Sequence:
#
# PCOD9200004 Si02
#       8
#     8   8   8   8   8   4   8   4
#     4  10  23  38  61 100 135 173 220 286 353 417
#     4  11  22  40  68  98 135 177 228 288 358 414
#     4  12  26  43  69 102 136 183 235 292 347 415
#     4  11  26  45  67  99 138 187 239 289 349 426
#     4  10  22  42  66  97 137 180 226 290 359 420
#     4  10  20  40  67  97 135 184 223 287 361 425
#     4  11  26  47  67  93 136 189 240 291 344 406
#     4  10  20  36  62  96 137 175 224 277 349 427
#
# _framework density 23.460840000000001
#
# number of rings (size 3 to 8) (size 9 to 14) (size 15 to 20)
#    0.000    1.286    1.429    3.429    8.000    4.000 
#    0.000    0.357    0.000    0.857    0.000    0.000 
#    0.000    0.000    0.000    0.000    0.000    0.000 
#
# Total GULP energy -156013.576862 kJ/mol
# GULP energy per Si atom -5571.913459 kJ/mol
# Density = 2.340744 g / cm^3
# Si number density = 23.460840 Si / 1000 Ang^3
#
#
#
# Elastic Constant Matrix: (Units=GPa)
#
#
# Indices 1 2 3 4 5 6 
#
# 1 49.8846 28.9924 28.5390 0.0000 -22.5509 0.0000
# 2 28.9924 108.7469 13.4227 0.0000 -5.1903 0.0000
# 3 28.5390 13.4227 73.0804 0.0000 -3.3546 0.0000
# 4 0.0000 0.0000 0.0000 45.2128 0.0000 -7.7719
# 5 -22.5509 -5.1903 -3.3546 0.0000 27.9564 0.0000
# 6 0.0000 0.0000 0.0000 -7.7719 0.0000 5.4086
#
#
#
# Elastic Compliance Matrix: (Units=1/GPa)
#
#
# Indices 1 2 3 4 5 6 
#
# 1 0.053695 -0.010307 -0.017270 0.000000 0.039327 0.000000
# 2 -0.010307 0.011454 0.001646 0.000000 -0.005990 0.000000
# 3 -0.017270 0.001646 0.019608 0.000000 -0.011273 0.000000
# 4 0.000000 0.000000 0.000000 0.029373 0.000000 0.042207
# 5 0.039327 -0.005990 -0.011273 0.000000 0.065028 0.000000
# 6 0.000000 0.000000 0.000000 0.042207 0.000000 0.245540
#
#
# Mechanical properties :
#
#
# Convention : Reuss Voigt Hill
#
# Bulk Modulus (GPa) = 30.39925 41.51334 35.95629
# Shear Modulus (GPa) = 10.25589 26.43275 18.34432
#
# Velocity S-wave (km/s) = 2.09308 3.36024 2.79930
# Velocity P-wave (km/s) = 4.33900 5.72609 5.08011
#
# Compressibility (1/GPa) = 0.03289555
#
# Stress axis : x y z
#
# Youngs Moduli (GPa) = 18.62378 87.30278 50.99922
#
# Poissons Ratio (x) = 0.89979 0.88078
# Poissons Ratio (y) = 0.19195 -0.08395
# Poissons Ratio (z) = 0.32164 -0.14371
#
# Static dielectric constant tensor:
#      x y z
#    x 1.940900 0.000000 -0.402010 
#    y 0.000000 2.157420 0.000000 
#    z -0.402010 0.000000 0.581230 
# 
# From -- ./inp_files/25635.got.cif
#   From: 2010.05.17/outbox.cif.g08.bks.cpg/sg12_13_cif.got.tgz:25635.got - 2010.06.03 13:09:07.
