data_PCOD9200135
_publ_section_title
;
Structure prediction by ZEFSAII (Michael W. Deem and Ramdas Pophale) SiO2 
 PCOD9200135
Probable space group: C 2/M
;
_chemical_formula_sum "Si O2"
_cell_formula_units_Z 64
_cell_length_a 19.201001
_cell_length_b 30.298413
_cell_length_c 9.348540
_cell_angle_alpha 90.000000
_cell_angle_beta 145.842131
_cell_angle_gamma 90.000000
_cell_volume 3053.641203
_symmetry_space_group_name_H-M "C 2/M"
_symmetry_group_IT_number 12
_symmetry_cell_setting 'monoclinic'
loop_
_space_group_symop_operation_xyz
x,y,z
-x,y,-z
-x,-y,-z
x,-y,z
1/2+x,1/2+y,z
1/2-x,1/2+y,-z
1/2-x,1/2-y,-z
1/2+x,1/2-y,z
loop_
_atom_site_type_symbol
_atom_site_label
_atom_site_fract_x
_atom_site_fract_y
_atom_site_fract_z
Si Si1 0.997414 0.918834 0.326027
Si Si2 0.139150 0.611634 0.263600
Si Si3 0.709318 0.839214 0.095752
Si Si4 0.129935 0.050087 0.295385
Si Si5 0.922840 0.333059 0.575211
Si Si6 0.261169 0.619554 0.888067
Si Si7 0.409077 0.734964 0.480694
Si Si8 0.971641 0.168986 0.118581
O O1 0.000000 0.923296 0.500000
O O2 0.089315 0.949111 0.393347
O O3 0.152867 0.000000 0.287301
O O4 0.852014 0.922285 0.029792
O O5 0.191434 0.630767 0.204764
O O6 0.247246 0.580030 0.510963
O O7 0.113749 0.652436 0.327160
O O8 0.000000 0.591758 0.000000
O O9 0.789337 0.795679 0.257414
O O10 0.570001 0.827453 0.814018
O O11 0.767982 0.865864 0.063670
O O12 0.029804 0.130701 0.321389
O O13 0.000000 0.065817 0.000000
O O14 0.876700 0.374925 0.402575
O O15 0.875060 0.285612 0.444210
O O16 0.329674 0.656766 0.907544
O O17 0.500000 0.729668 0.500000
O O18 0.482132 0.715077 0.741346
O O19 0.000000 0.164727 0.000000
#
# Coordination Sequence:
#
# PCOD9200135 Si02
#       8
#     8   8   8   8   8   8   8   8
#     4  10  20  36  64  93 122 160 197 244 303 370
#     4  10  24  45  62  89 125 165 205 250 307 372
#     4  11  23  40  59  82 120 161 215 254 300 367
#     4  11  23  40  68 101 129 156 195 249 303 368
#     4  11  26  38  57  83 117 162 209 270 303 357
#     4  10  21  37  58  82 114 165 204 244 314 359
#     4  12  23  39  58  81 117 160 212 263 317 352
#     4  10  22  35  59  87 114 162 208 248 300 365
#
# _framework density 20.958586
#
# number of rings (size 3 to 8) (size 9 to 14) (size 15 to 20)
#    0.750    0.625    1.250    4.875    5.250    3.500 
#    0.000    0.000    0.000    0.000    0.000    0.000 
#    0.000   16.500    0.000    0.000    0.000    0.000 
#
# Total GULP energy -178432.374045 kJ/mol
# GULP energy per Si atom -5576.011689 kJ/mol
# Density = 2.091088 g / cm^3
# Si number density = 20.958586 Si / 1000 Ang^3
#
#
#
# Elastic Constant Matrix: (Units=GPa)
#
#
# Indices 1 2 3 4 5 6 
#
# 1 138.1096 21.6374 31.0008 0.0000 -6.2321 0.0000
# 2 21.6374 61.9096 22.6573 0.0000 19.5848 0.0000
# 3 31.0008 22.6573 101.0384 0.0000 21.3978 0.0000
# 4 0.0000 0.0000 0.0000 19.4032 0.0000 2.2970
# 5 -6.2321 19.5848 21.3978 0.0000 43.1338 0.0000
# 6 0.0000 0.0000 0.0000 2.2970 0.0000 7.0599
#
#
#
# Elastic Compliance Matrix: (Units=1/GPa)
#
#
# Indices 1 2 3 4 5 6 
#
# 1 0.008558 -0.003276 -0.002758 0.000000 0.004092 0.000000
# 2 -0.003276 0.020799 -0.001742 0.000000 -0.009053 0.000000
# 3 -0.002758 -0.001742 0.012348 0.000000 -0.005733 0.000000
# 4 0.000000 0.000000 0.000000 0.053602 0.000000 -0.017440
# 5 0.004092 -0.009053 -0.005733 0.000000 0.030730 0.000000
# 6 0.000000 0.000000 0.000000 -0.017440 0.000000 0.147318
#
#
# Mechanical properties :
#
#
# Convention : Reuss Voigt Hill
#
# Bulk Modulus (GPa) = 38.23530 50.18319 44.20925
# Shear Modulus (GPa) = 16.79977 28.97019 22.88498
#
# Velocity S-wave (km/s) = 2.83427 3.72191 3.30800
# Velocity P-wave (km/s) = 5.38458 6.51660 5.97745
#
# Compressibility (1/GPa) = 0.02615384
#
# Stress axis : x y z
#
# Youngs Moduli (GPa) = 116.85638 48.07956 80.98455
#
# Poissons Ratio (x) = 0.15751 0.22332
# Poissons Ratio (y) = 0.38283 0.14104
# Poissons Ratio (z) = 0.32224 0.08374
#
# Static dielectric constant tensor:
#      x y z
#    x 1.773820 0.000000 0.010920 
#    y 0.000000 1.720810 0.000000 
#    z 0.010920 0.000000 1.900770 
# 
# From -- ./inp_files/80749.got.cif
#   From: 2010.05.17/outbox.cif.g08.bks.cpg/sg12_41_cif.got.tgz:80749.got - 2010.06.03 13:09:07.
