data_PCOD9200215
_publ_section_title
;
Structure prediction by ZEFSAII (Michael W. Deem and Ramdas Pophale) SiO2 
 PCOD9200215
Probable space group: C 2/M
;
_chemical_formula_sum "Si O2"
_cell_formula_units_Z 34
_cell_length_a 13.113048
_cell_length_b 13.198623
_cell_length_c 7.245870
_cell_angle_alpha 90.000000
_cell_angle_beta 107.169905
_cell_angle_gamma 90.000000
_cell_volume 1198.183409
_symmetry_space_group_name_H-M "C 2/M"
_symmetry_group_IT_number 12
_symmetry_cell_setting 'monoclinic'
loop_
_space_group_symop_operation_xyz
x,y,z
-x,y,-z
-x,-y,-z
x,-y,z
1/2+x,1/2+y,z
1/2-x,1/2+y,-z
1/2-x,1/2-y,-z
1/2+x,1/2-y,z
loop_
_atom_site_type_symbol
_atom_site_label
_atom_site_fract_x
_atom_site_fract_y
_atom_site_fract_z
Si Si1 0.958923 0.889425 0.693938
Si Si2 0.000000 0.500000 0.000000
Si Si3 0.083960 0.331319 0.295070
Si Si4 0.332824 0.826017 0.282863
Si Si5 0.193554 0.108399 0.877016
O O1 0.069169 0.887547 0.865774
O O2 0.000000 0.880204 0.500000
O O3 0.896443 0.788876 0.715569
O O4 0.908447 0.000000 0.687029
O O5 0.920545 0.410087 0.872752
O O6 0.159232 0.363688 0.504237
O O7 0.958071 0.333198 0.289874
O O8 0.294608 0.709215 0.238651
O O9 0.265372 0.885391 0.096436
O O10 0.204235 0.000000 0.787329
#
# Coordination Sequence:
#
# PCOD9200215 Si02
#       5
#     8   2   8   8   8
#     4   9  15  31  58  86 108 123 168 238 285 318
#     4  12  28  34  50  72 116 166 190 202 252 322
#     4  10  20  37  50  79 108 148 184 221 262 318
#     4   9  18  32  55  79 106 132 182 230 272 312
#     4   9  16  26  51  92 104 124 161 230 289 319
#
# _framework density 28.376287000000001
#
# number of rings (size 3 to 8) (size 9 to 14) (size 15 to 20)
#    0.000    2.588    4.706    0.000    3.294    0.941 
#    0.000    0.588    0.000   12.706    0.000    0.000 
#    0.000    0.000    0.000    0.000    0.000    0.000 
#
# Total GULP energy -94978.723629 kJ/mol
# GULP energy per Si atom -5586.983743 kJ/mol
# Density = 2.831170 g / cm^3
# Si number density = 28.376287 Si / 1000 Ang^3
#
#
#
# Elastic Constant Matrix: (Units=GPa)
#
#
# Indices 1 2 3 4 5 6 
#
# 1 95.5811 34.5522 40.2458 0.0000 -1.4075 0.0000
# 2 34.5522 211.4138 66.1203 0.0000 -8.1499 0.0000
# 3 40.2458 66.1203 239.5750 0.0000 38.2176 0.0000
# 4 0.0000 0.0000 0.0000 20.3464 0.0000 2.0276
# 5 -1.4075 -8.1499 38.2176 0.0000 47.1493 0.0000
# 6 0.0000 0.0000 0.0000 2.0276 0.0000 27.5125
#
#
#
# Elastic Compliance Matrix: (Units=1/GPa)
#
#
# Indices 1 2 3 4 5 6 
#
# 1 0.011739 -0.001264 -0.001888 0.000000 0.001663 0.000000
# 2 -0.001264 0.005552 -0.001685 0.000000 0.002288 0.000000
# 3 -0.001888 -0.001685 0.005756 0.000000 -0.005013 0.000000
# 4 0.000000 0.000000 0.000000 0.049512 0.000000 -0.003649
# 5 0.001663 0.002288 -0.005013 0.000000 0.025718 0.000000
# 6 0.000000 0.000000 0.000000 -0.003649 0.000000 0.036616
#
#
# Mechanical properties :
#
#
# Convention : Reuss Voigt Hill
#
# Bulk Modulus (GPa) = 74.78080 92.04517 83.41299
# Shear Modulus (GPa) = 33.55157 46.04508 39.79833
#
# Velocity S-wave (km/s) = 3.44231 4.03260 3.74909
# Velocity P-wave (km/s) = 6.49691 7.36140 6.94262
#
# Compressibility (1/GPa) = 0.01337242
#
# Stress axis : x y z
#
# Youngs Moduli (GPa) = 85.18747 180.12397 173.73151
#
# Poissons Ratio (x) = 0.22764 0.32808
# Poissons Ratio (y) = 0.10766 0.29271
# Poissons Ratio (z) = 0.16087 0.30348
#
# Static dielectric constant tensor:
#      x y z
#    x 2.428650 0.000000 -0.063800 
#    y 0.000000 2.196850 0.000000 
#    z -0.063800 0.000000 2.143120 
# 
# From -- ./inp_files/84908.got.cif
#   From: 2010.05.17/outbox.cif.g08.bks.cpg/sg12_43_cif.got.tgz:84908.got - 2010.06.03 13:09:07.
