data_PCOD9200319
_publ_section_title
;
Structure prediction by ZEFSAII (Michael W. Deem and Ramdas Pophale) SiO2 
 PCOD9200319
Probable space group: C 2/M
;
_chemical_formula_sum "Si O2"
_cell_formula_units_Z 60
_cell_length_a 9.863196
_cell_length_b 22.761150
_cell_length_c 24.887656
_cell_angle_alpha 90.000000
_cell_angle_beta 141.922333
_cell_angle_gamma 90.000000
_cell_volume 3445.801817
_symmetry_space_group_name_H-M "C 2/M"
_symmetry_group_IT_number 12
_symmetry_cell_setting 'monoclinic'
loop_
_space_group_symop_operation_xyz
x,y,z
-x,y,-z
-x,-y,-z
x,-y,z
1/2+x,1/2+y,z
1/2-x,1/2+y,-z
1/2-x,1/2-y,-z
1/2+x,1/2-y,z
loop_
_atom_site_type_symbol
_atom_site_label
_atom_site_fract_x
_atom_site_fract_y
_atom_site_fract_z
Si Si1 0.113027 0.257379 0.692851
Si Si2 0.166419 0.187220 0.601319
Si Si3 0.000977 0.152332 0.173553
Si Si4 0.500000 0.391015 0.000000
Si Si5 0.804863 0.318765 0.015109
Si Si6 0.775603 0.859162 0.208429
Si Si7 0.752953 0.937177 0.824407
Si Si8 0.258159 0.431986 0.311044
O O1 0.099820 0.233972 0.627286
O O2 0.348275 0.290263 0.771024
O O3 0.128724 0.199038 0.733674
O O4 0.909759 0.296015 0.653134
O O5 0.150315 0.122116 0.623887
O O6 0.000000 0.190633 0.500000
O O7 0.151755 0.111665 0.184145
O O8 0.778882 0.163053 0.070126
O O9 0.935646 0.124455 0.209706
O O10 0.646317 0.350427 0.007946
O O11 0.349629 0.428607 0.913889
O O12 0.750000 0.250000 0.000000
O O13 0.045327 0.338808 0.109436
O O14 0.758392 0.908148 0.249537
O O15 0.493583 0.934635 0.748697
O O16 0.824702 0.000000 0.825343
O O17 0.344875 0.500000 0.342194
#
# Coordination Sequence:
#
# PCOD9200319 Si02
#       8
#     8   8   8   4   8   8   8   8
#     4  11  21  37  60  87 118 154 184 225 299 350
#     4  11  23  40  63  91 118 145 186 242 299 359
#     4  11  22  34  54  83 118 153 195 234 280 339
#     4  10  21  34  52  78 106 150 195 238 276 328
#     4  11  22  30  52  81 119 153 190 234 283 328
#     4  11  22  37  55  84 123 156 190 238 283 341
#     4  10  20  37  57  77 107 151 200 240 277 330
#     4  10  22  40  63  84 111 154 197 237 289 347
#
# _framework density 17.412492
#
# number of rings (size 3 to 8) (size 9 to 14) (size 15 to 20)
#    0.000    1.333    5.333    1.000    1.867    0.800 
#    0.000    0.000    0.000    2.400    0.000    0.933 
#    0.000    0.000    0.000    0.000    0.000    0.000 
#
# Total GULP energy -167133.596282 kJ/mol
# GULP energy per Si atom -5571.119876 kJ/mol
# Density = 1.737286 g / cm^3
# Si number density = 17.412492 Si / 1000 Ang^3
#
#
#
# Elastic Constant Matrix: (Units=GPa)
#
#
# Indices 1 2 3 4 5 6 
#
# 1 75.8390 17.8189 34.0463 -0.0045 -19.7130 -0.0008
# 2 17.8189 89.3244 27.7509 -0.0026 -15.2828 -0.0006
# 3 34.0463 27.7509 93.7293 -0.0017 -19.7093 -0.0006
# 4 -0.0045 -0.0026 -0.0017 -18.7676 -0.0027 -3.3037
# 5 -19.7130 -15.2828 -19.7093 -0.0027 28.7033 -0.0007
# 6 -0.0008 -0.0006 -0.0006 -3.3037 -0.0007 2.9743
#
#
#
# Elastic Compliance Matrix: (Units=1/GPa)
#
#
# Indices 1 2 3 4 5 6 
#
# 1 0.017561 -0.000659 -0.004349 -0.000005 0.008723 0.000000
# 2 -0.000659 0.012932 -0.002614 -0.000002 0.004638 0.000001
# 3 -0.004349 -0.002614 0.014144 -0.000001 0.005333 0.000001
# 4 -0.000005 -0.000002 -0.000001 -0.044569 -0.000011 -0.049505
# 5 0.008723 0.004638 0.005333 -0.000011 0.046961 0.000003
# 6 0.000000 0.000001 0.000001 -0.049505 0.000003 0.281230
#
#
# Mechanical properties :
#
#
# Convention : Reuss Voigt Hill
#
# Bulk Modulus (GPa) = 34.02342 46.45831 40.24087
# Shear Modulus (GPa) = 14.15218 14.53379 14.34299
#
# Velocity S-wave (km/s) = 2.85399 2.89221 2.87316
# Velocity P-wave (km/s) = 5.51746 6.15566 5.84528
#
# Compressibility (1/GPa) = 0.02939152
#
# Stress axis : x y z
#
# Youngs Moduli (GPa) = 56.94558 77.32553 70.69965
#
# Poissons Ratio (x) = 0.05099 0.30749
# Poissons Ratio (y) = 0.03755 0.18482
# Poissons Ratio (z) = 0.24767 0.20214
#
# Static dielectric constant tensor:
#      x y z
#    x 1.576460 0.000000 -0.002890 
#    y 0.000000 1.570910 0.000000 
#    z -0.002890 0.000000 1.598530 
# 
# From -- ./inp_files/301928.got.cif
#   From: 2010.05.17/outbox.cif.g08.bks.cpg/sg12_151_cif.got.tgz:301928.got - 2010.06.03 13:09:07.
