data_PCOD9200974
_publ_section_title
;
Structure prediction by ZEFSAII (Michael W. Deem and Ramdas Pophale) SiO2 
 PCOD9200974
Probable space group: C 2/M
;
_chemical_formula_sum "Si O2"
_cell_formula_units_Z 50
_cell_length_a 26.048173
_cell_length_b 7.497848
_cell_length_c 12.682579
_cell_angle_alpha 90.000000
_cell_angle_beta 58.370171
_cell_angle_gamma 90.000000
_cell_volume 2109.029615
_symmetry_space_group_name_H-M "C 2/M"
_symmetry_group_IT_number 12
_symmetry_cell_setting 'monoclinic'
loop_
_space_group_symop_operation_xyz
x,y,z
-x,y,-z
-x,-y,-z
x,-y,z
1/2+x,1/2+y,z
1/2-x,1/2+y,-z
1/2-x,1/2-y,-z
1/2+x,1/2-y,z
loop_
_atom_site_type_symbol
_atom_site_label
_atom_site_fract_x
_atom_site_fract_y
_atom_site_fract_z
Si Si1 0.643172 0.800405 0.057404
Si Si2 0.500000 0.500000 0.500000
Si Si3 0.582133 0.783579 0.332197
Si Si4 0.833439 0.715152 0.568853
Si Si5 0.485095 0.287633 0.892990
Si Si6 0.886956 0.209273 0.288299
Si Si7 0.795394 0.791930 0.216545
O O1 0.628920 0.731493 0.189328
O O2 0.576720 0.799589 0.076406
O O3 0.665963 0.000000 0.047097
O O4 0.687437 0.715892 0.924412
O O5 0.524054 0.658875 0.392363
O O6 0.613736 0.731664 0.408311
O O7 0.571892 0.000000 0.337766
O O8 0.832906 0.500000 0.570733
O O9 0.848083 0.773892 0.435308
O O10 0.769406 0.782462 0.681096
O O11 0.475268 0.500000 0.887669
O O12 0.545468 0.219293 0.770534
O O13 0.500000 0.260566 0.000000
O O14 0.849067 0.285429 0.231033
O O15 0.897343 0.000000 0.253831
O O16 0.792498 0.000000 0.248572
#
# Coordination Sequence:
#
# PCOD9200974 Si02
#       7
#     8   2   8   8   8   8   8
#     4  11  24  40  61  93 131 165 208 272 325 375
#     4  12  26  44  76  94 126 188 210 254 346 376
#     4  10  26  46  65 103 137 166 222 272 315 392
#     4  10  23  42  63  89 130 171 211 270 331 377
#     4  10  20  37  60  87 123 162 208 260 311 385
#     4  10  21  36  61  94 125 162 218 271 316 391
#     4  10  21  41  65  89 124 172 217 267 322 387
#
# _framework density 23.707585000000002
#
# number of rings (size 3 to 8) (size 9 to 14) (size 15 to 20)
#    0.000    1.760    1.600    1.200    5.600    2.880 
#    0.000    0.000    0.000    0.000    0.000    0.000 
#    0.000    0.000    0.000    0.000    0.000    0.000 
#
# Total GULP energy -139431.928827 kJ/mol
# GULP energy per Si atom -5577.277153 kJ/mol
# Density = 2.365363 g / cm^3
# Si number density = 23.707585 Si / 1000 Ang^3
#
#
#
# Elastic Constant Matrix: (Units=GPa)
#
#
# Indices 1 2 3 4 5 6 
#
# 1 19.7834 6.8908 12.9598 0.0000 -11.9343 0.0000
# 2 6.8908 70.3184 8.2873 0.0000 -1.0760 0.0000
# 3 12.9598 8.2873 133.9501 0.0000 -15.6774 0.0000
# 4 0.0000 0.0000 0.0000 28.9298 0.0000 1.4366
# 5 -11.9343 -1.0760 -15.6774 0.0000 44.5150 0.0000
# 6 0.0000 0.0000 0.0000 1.4366 0.0000 -2.8900
#
#
#
# Elastic Compliance Matrix: (Units=1/GPa)
#
#
# Indices 1 2 3 4 5 6 
#
# 1 0.064682 -0.005618 -0.004064 0.000000 0.015774 0.000000
# 2 -0.005618 0.014814 -0.000529 0.000000 -0.001334 0.000000
# 3 -0.004064 -0.000529 0.008096 0.000000 0.001749 0.000000
# 4 0.000000 0.000000 0.000000 0.033734 0.000000 0.016769
# 5 0.015774 -0.001334 0.001749 0.000000 0.027277 0.000000
# 6 0.000000 0.000000 0.000000 0.016769 0.000000 -0.337691
#
#
# Mechanical properties :
#
#
# Convention : Reuss Voigt Hill
#
# Bulk Modulus (GPa) = 14.88786 31.14753 23.01770
# Shear Modulus (GPa) = -34.18217 27.17189 -3.50514
#
# Velocity S-wave (km/s) = -3.80126 3.38912 -1.21725
# Velocity P-wave (km/s) = 3.60175 5.33682 2.78469
#
# Compressibility (1/GPa) = 0.06716880
#
# Stress axis : x y z
#
# Youngs Moduli (GPa) = 15.46017 67.50598 123.51593
#
# Poissons Ratio (x) = 0.37926 0.50201
# Poissons Ratio (y) = 0.08686 0.06535
# Poissons Ratio (z) = 0.06284 0.03572
#
# Static dielectric constant tensor:
#      x y z
#    x 1.939090 0.000000 -0.025650 
#    y 0.000000 1.867940 0.000000 
#    z -0.025650 0.000000 1.897660 
# 
# From -- ./inp_files/180545.got.cif
#   From: 2010.05.17/outbox.cif.g08.bks.cpg/sg12_91_cif.got.tgz:180545.got - 2010.06.03 13:09:07.
