data_PCOD9200662
_publ_section_title
;
Structure prediction by ZEFSAII (Michael W. Deem and Ramdas Pophale) SiO2 
 PCOD9200662
Probable space group: C 2/M
;
_chemical_formula_sum "Si O2"
_cell_formula_units_Z 48
_cell_length_a 31.819902
_cell_length_b 8.668477
_cell_length_c 9.398457
_cell_angle_alpha 90.000000
_cell_angle_beta 90.145339
_cell_angle_gamma 90.000000
_cell_volume 2592.368887
_symmetry_space_group_name_H-M "C 2/M"
_symmetry_group_IT_number 12
_symmetry_cell_setting 'monoclinic'
loop_
_space_group_symop_operation_xyz
x,y,z
-x,y,-z
-x,-y,-z
x,-y,z
1/2+x,1/2+y,z
1/2-x,1/2+y,-z
1/2-x,1/2-y,-z
1/2+x,1/2-y,z
loop_
_atom_site_type_symbol
_atom_site_label
_atom_site_fract_x
_atom_site_fract_y
_atom_site_fract_z
Si Si1 0.959237 0.815041 0.415720
Si Si2 0.710994 0.315785 0.089595
Si Si3 0.367860 0.815150 0.080744
Si Si4 0.369820 0.814722 0.412280
Si Si5 0.457971 0.685395 0.081595
Si Si6 0.211345 0.685977 0.408387
O O1 0.914752 0.747267 0.463161
O O2 0.963656 0.779880 0.248617
O O3 0.000000 0.757880 0.500000
O O4 0.957328 0.000000 0.431256
O O5 0.713475 0.500000 0.093012
O O6 0.712674 0.250398 0.249195
O O7 0.750000 0.250000 0.000000
O O8 0.668128 0.262164 0.013195
O O9 0.363186 0.766638 0.247146
O O10 0.414617 0.764690 0.034712
O O11 0.363760 0.000000 0.072969
O O12 0.331527 0.766035 0.511732
O O13 0.371291 0.000000 0.411934
O O14 0.453348 0.500000 0.065434
O O15 0.500000 0.733557 0.000000
O O16 0.212992 0.500000 0.405011
O O17 0.250000 0.750000 0.500000
#
# Coordination Sequence:
#
# PCOD9200662 Si02
#       6
#     8   8   8   8   8   8
#     4   9  18  32  51  76 106 142 184 228 273 324
#     4  12  25  41  61  86 115 149 189 234 286 342
#     4  10  20  37  59  84 114 148 189 235 284 339
#     4   9  20  37  57  81 111 146 184 228 277 331
#     4   9  18  33  52  76 109 148 189 232 279 332
#     4  11  23  40  61  87 117 150 189 232 281 338
#
# _framework density 18.515882999999999
#
# number of rings (size 3 to 8) (size 9 to 14) (size 15 to 20)
#    0.000    2.000    0.000    3.500    0.000    5.333 
#    0.000    1.667    0.000    0.000    0.000    0.000 
#    0.000    0.000    0.000    0.000    0.000    0.000 
#
# Total GULP energy -134056.294581 kJ/mol
# GULP energy per Si atom -5585.678941 kJ/mol
# Density = 1.847374 g / cm^3
# Si number density = 18.515883 Si / 1000 Ang^3
#
#
#
# Elastic Constant Matrix: (Units=GPa)
#
#
# Indices 1 2 3 4 5 6 
#
# 1 208.7993 61.8457 111.4723 0.0000 -2.7914 0.0000
# 2 61.8457 61.5229 46.6043 0.0000 -0.0118 0.0000
# 3 111.4723 46.6043 115.2716 0.0000 -0.8435 0.0000
# 4 0.0000 0.0000 0.0000 26.3761 0.0000 1.4524
# 5 -2.7914 -0.0118 -0.8435 0.0000 42.3687 0.0000
# 6 0.0000 0.0000 0.0000 1.4524 0.0000 37.6451
#
#
#
# Elastic Compliance Matrix: (Units=1/GPa)
#
#
# Indices 1 2 3 4 5 6 
#
# 1 0.010604 -0.004173 -0.008564 0.000000 0.000527 0.000000
# 2 -0.004173 0.025073 -0.006105 0.000000 -0.000389 0.000000
# 3 -0.008564 -0.006105 0.019424 0.000000 -0.000179 0.000000
# 4 0.000000 0.000000 0.000000 0.037994 0.000000 -0.001466
# 5 0.000527 -0.000389 -0.000179 0.000000 0.023633 0.000000
# 6 0.000000 0.000000 0.000000 -0.001466 0.000000 0.026620
#
#
# Mechanical properties :
#
#
# Convention : Reuss Voigt Hill
#
# Bulk Modulus (GPa) = 57.41083 91.71535 74.56309
# Shear Modulus (GPa) = 26.76127 32.32278 29.54202
#
# Velocity S-wave (km/s) = 3.80585 4.18266 3.99870
# Velocity P-wave (km/s) = 7.09833 8.54208 7.85345
#
# Compressibility (1/GPa) = 0.01741832
#
# Stress axis : x y z
#
# Youngs Moduli (GPa) = 94.30152 39.88364 51.48344
#
# Poissons Ratio (x) = 0.16642 0.44090
# Poissons Ratio (y) = 0.39348 0.31430
# Poissons Ratio (z) = 0.80759 0.24348
#
# Static dielectric constant tensor:
#      x y z
#    x 1.617620 0.000000 -0.006250 
#    y 0.000000 1.626640 0.000000 
#    z -0.006250 0.000000 1.620310 
# 
# From -- ./inp_files/108685.got.cif
#   From: 2010.05.17/outbox.cif.g08.bks.cpg/sg12_55_cif.got.tgz:108685.got - 2010.06.03 13:09:07.
