data_PCOD9200572
_publ_section_title
;
Structure prediction by ZEFSAII (Michael W. Deem and Ramdas Pophale) SiO2 
 PCOD9200572
Probable space group: C 2/M
;
_chemical_formula_sum "Si O2"
_cell_formula_units_Z 56
_cell_length_a 12.484715
_cell_length_b 27.860510
_cell_length_c 14.118518
_cell_angle_alpha 90.000000
_cell_angle_beta 34.544742
_cell_angle_gamma 90.000000
_cell_volume 2784.696512
_symmetry_space_group_name_H-M "C 2/M"
_symmetry_group_IT_number 12
_symmetry_cell_setting 'monoclinic'
loop_
_space_group_symop_operation_xyz
x,y,z
-x,y,-z
-x,-y,-z
x,-y,z
1/2+x,1/2+y,z
1/2-x,1/2+y,-z
1/2-x,1/2-y,-z
1/2+x,1/2-y,z
loop_
_atom_site_type_symbol
_atom_site_label
_atom_site_fract_x
_atom_site_fract_y
_atom_site_fract_z
Si Si1 0.541124 0.301691 0.215716
Si Si2 0.467448 0.901385 0.779205
Si Si3 0.311568 0.121760 0.094774
Si Si4 0.223892 0.945696 0.331064
Si Si5 0.671772 0.200004 0.171393
Si Si6 0.272500 0.843203 0.675582
Si Si7 0.187026 0.553432 0.298054
O O1 0.643851 0.340564 0.206947
O O2 0.556657 0.249261 0.249820
O O3 0.337920 0.320294 0.331164
O O4 0.670781 0.299666 0.025842
O O5 0.675165 0.918845 0.655657
O O6 0.458435 0.846383 0.752848
O O7 0.377335 0.933332 0.761882
O O8 0.353865 0.900875 0.961175
O O9 0.273663 0.080743 0.197990
O O10 0.500000 0.147127 0.000000
O O11 0.000000 0.945841 0.500000
O O12 0.295981 0.000000 0.278522
O O13 0.764063 0.189235 0.205418
O O14 0.500000 0.844141 0.500000
O O15 0.206948 0.898454 0.742495
O O16 0.275759 0.500000 0.237215
O O17 0.000000 0.551032 0.500000
#
# Coordination Sequence:
#
# PCOD9200572 Si02
#       7
#     8   8   8   8   8   8   8
#     4  10  20  37  59  79 108 146 179 224 273 321
#     4   9  18  35  56  79 106 140 185 232 273 317
#     4   9  20  36  56  82 110 142 187 231 271 321
#     4  10  21  35  53  79 110 145 183 225 278 335
#     4   9  20  36  57  78 102 143 188 219 266 327
#     4  10  21  35  53  82 114 141 177 224 272 325
#     4   9  18  33  54  78 106 144 184 220 266 326
#
# _framework density 20.109909999999999
#
# number of rings (size 3 to 8) (size 9 to 14) (size 15 to 20)
#    0.000    2.571    0.000    0.857    0.000   11.714 
#    0.000    3.571    0.000   12.000    0.000    0.000 
#    0.000    0.000    0.000    0.000    0.000    0.000 
#
# Total GULP energy -156179.682506 kJ/mol
# GULP energy per Si atom -5577.845804 kJ/mol
# Density = 2.006414 g / cm^3
# Si number density = 20.109910 Si / 1000 Ang^3
#
#
#
# Elastic Constant Matrix: (Units=GPa)
#
#
# Indices 1 2 3 4 5 6 
#
# 1 78.1788 48.7732 16.8443 0.0000 -9.0945 0.0000
# 2 48.7732 127.1261 21.6833 0.0000 -16.5676 0.0000
# 3 16.8443 21.6833 21.7417 0.0000 -2.3640 0.0000
# 4 0.0000 0.0000 0.0000 20.8169 0.0000 4.4637
# 5 -9.0945 -16.5676 -2.3640 0.0000 33.0539 0.0000
# 6 0.0000 0.0000 0.0000 4.4637 0.0000 15.3185
#
#
#
# Elastic Compliance Matrix: (Units=1/GPa)
#
#
# Indices 1 2 3 4 5 6 
#
# 1 0.018131 -0.005261 -0.008611 0.000000 0.001736 0.000000
# 2 -0.005261 0.011593 -0.007066 0.000000 0.003858 0.000000
# 3 -0.008611 -0.007066 0.059533 0.000000 -0.001653 0.000000
# 4 0.000000 0.000000 0.000000 0.051239 0.000000 -0.014931
# 5 0.001736 0.003858 -0.001653 0.000000 0.032547 0.000000
# 6 0.000000 0.000000 0.000000 -0.014931 0.000000 0.069631
#
#
# Mechanical properties :
#
#
# Convention : Reuss Voigt Hill
#
# Bulk Modulus (GPa) = 21.10579 44.62756 32.86668
# Shear Modulus (GPa) = 16.64760 23.15424 19.90092
#
# Velocity S-wave (km/s) = 2.88033 3.39689 3.14922
# Velocity P-wave (km/s) = 4.64540 6.13393 5.44081
#
# Compressibility (1/GPa) = 0.04738037
#
# Stress axis : x y z
#
# Youngs Moduli (GPa) = 55.15539 86.26163 16.79730
#
# Poissons Ratio (x) = 0.45383 0.14464
# Poissons Ratio (y) = 0.29017 0.11869
# Poissons Ratio (z) = 0.47494 0.60953
#
# Static dielectric constant tensor:
#      x y z
#    x 1.690920 0.000000 -0.004160 
#    y 0.000000 1.718230 0.000000 
#    z -0.004160 0.000000 1.754310 
# 
# From -- ./inp_files/209099.got.cif
#   From: 2010.05.17/outbox.cif.g08.bks.cpg/sg12_105_cif.got.tgz:209099.got - 2010.06.03 13:09:07.
