data_PCOD9200362
_publ_section_title
;
Structure prediction by ZEFSAII (Michael W. Deem and Ramdas Pophale) SiO2 
 PCOD9200362
Probable space group: C 2/M
;
_chemical_formula_sum "Si O2"
_cell_formula_units_Z 56
_cell_length_a 24.163628
_cell_length_b 26.910972
_cell_length_c 14.549028
_cell_angle_alpha 90.000000
_cell_angle_beta 162.154946
_cell_angle_gamma 90.000000
_cell_volume 2899.188798
_symmetry_space_group_name_H-M "C 2/M"
_symmetry_group_IT_number 12
_symmetry_cell_setting 'monoclinic'
loop_
_space_group_symop_operation_xyz
x,y,z
-x,y,-z
-x,-y,-z
x,-y,z
1/2+x,1/2+y,z
1/2-x,1/2+y,-z
1/2-x,1/2-y,-z
1/2+x,1/2-y,z
loop_
_atom_site_type_symbol
_atom_site_label
_atom_site_fract_x
_atom_site_fract_y
_atom_site_fract_z
Si Si1 0.343937 0.060284 0.683746
Si Si2 0.669545 0.725105 0.966723
Si Si3 0.853819 0.807169 0.352264
Si Si4 0.418816 0.057808 0.590341
Si Si5 0.187555 0.921384 0.742469
Si Si6 0.689095 0.118651 0.752860
Si Si7 0.527861 0.555616 0.305223
O O1 0.377757 0.071903 0.631080
O O2 0.147780 0.075920 0.411053
O O3 0.343562 0.000000 0.689518
O O4 0.500000 0.078448 0.000000
O O5 0.696121 0.768325 0.082692
O O6 0.778287 0.676934 0.175114
O O7 0.750000 0.750000 0.000000
O O8 0.469557 0.707003 0.624597
O O9 0.788752 0.863265 0.242922
O O10 0.000000 0.803175 0.500000
O O11 0.328308 0.096672 0.377470
O O12 0.363942 0.000000 0.488133
O O13 0.636606 0.060510 0.926336
O O14 0.000000 0.928744 0.500000
O O15 0.162533 0.946746 0.604558
O O16 0.500000 0.104760 0.500000
O O17 0.861488 0.090543 0.067341
O O18 0.462707 0.500000 0.182019
#
# Coordination Sequence:
#
# PCOD9200362 Si02
#       7
#     8   8   8   8   8   8   8
#     4   9  18  38  62  84 111 155 222 269 289 336
#     4  10  20  37  57  83 115 157 198 247 293 360
#     4   9  19  32  54  80 112 149 197 242 293 351
#     4  11  24  38  58  87 123 168 211 252 299 353
#     4  11  21  34  55  87 123 160 208 243 299 376
#     4  12  25  38  56  88 131 160 197 242 310 381
#     4  11  22  38  60  83 120 168 205 252 301 349
#
# _framework density 19.315749
#
# number of rings (size 3 to 8) (size 9 to 14) (size 15 to 20)
#    0.000    1.571    2.857    3.000    6.000    4.000 
#    0.000    2.143    0.000    0.000    0.000    6.000 
#    0.000    0.000    0.000    0.000    0.000    0.000 
#
# Total GULP energy -156195.476735 kJ/mol
# GULP energy per Si atom -5578.409883 kJ/mol
# Density = 1.927179 g / cm^3
# Si number density = 19.315749 Si / 1000 Ang^3
#
#
#
# Elastic Constant Matrix: (Units=GPa)
#
#
# Indices 1 2 3 4 5 6 
#
# 1 75.4100 29.6411 14.7256 0.0001 -9.9261 0.0001
# 2 29.6411 98.7089 25.9339 -0.0002 -6.9785 -0.0001
# 3 14.7256 25.9339 49.1677 0.0003 -16.1493 0.0002
# 4 0.0001 -0.0002 0.0003 -102.3312 -0.0002 -95.6206
# 5 -9.9261 -6.9785 -16.1493 -0.0002 34.5256 -0.0001
# 6 0.0001 -0.0001 0.0002 -95.6206 -0.0001 -30.8181
#
#
#
# Elastic Compliance Matrix: (Units=1/GPa)
#
#
# Indices 1 2 3 4 5 6 
#
# 1 0.015542 -0.004051 -0.001559 0.000000 0.002920 0.000000
# 2 -0.004051 0.012828 -0.006007 0.000000 -0.001381 0.000000
# 3 -0.001559 -0.006007 0.027680 0.000000 0.011285 0.000000
# 4 0.000000 0.000000 0.000000 0.005145 0.000000 -0.015964
# 5 0.002920 -0.001381 0.011285 0.000000 0.034803 0.000000
# 6 0.000000 0.000000 0.000000 -0.015964 0.000000 0.017085
#
#
# Mechanical properties :
#
#
# Convention : Reuss Voigt Hill
#
# Bulk Modulus (GPa) = 30.47189 40.43197 35.45193
# Shear Modulus (GPa) = 33.95478 -9.52566 12.21456
#
# Velocity S-wave (km/s) = 4.19726 -2.22312 2.51741
# Velocity P-wave (km/s) = 6.26891 3.79314 5.18108
#
# Compressibility (1/GPa) = 0.03281713
#
# Stress axis : x y z
#
# Youngs Moduli (GPa) = 64.34195 77.95615 36.12685
#
# Poissons Ratio (x) = 0.31580 0.05631
# Poissons Ratio (y) = 0.26065 0.21700
# Poissons Ratio (z) = 0.10030 0.46825
#
# Static dielectric constant tensor:
#      x y z
#    x 1.710650 0.000000 -0.012900 
#    y 0.000000 1.726500 0.000000 
#    z -0.012900 0.000000 1.710130 
# 
# From -- ./inp_files/242315.got.cif
#   From: 2010.05.17/outbox.cif.g08.bks.cpg/sg12_122_cif.got.tgz:242315.got - 2010.06.03 13:09:07.
