data_PCOD9200730
_publ_section_title
;
Structure prediction by ZEFSAII (Michael W. Deem and Ramdas Pophale) SiO2 
 PCOD9200730
Probable space group: C 2/M
;
_chemical_formula_sum "Si O2"
_cell_formula_units_Z 48
_cell_length_a 30.275363
_cell_length_b 8.509983
_cell_length_c 19.172526
_cell_angle_alpha 90.000000
_cell_angle_beta 30.239631
_cell_angle_gamma 90.000000
_cell_volume 2487.701789
_symmetry_space_group_name_H-M "C 2/M"
_symmetry_group_IT_number 12
_symmetry_cell_setting 'monoclinic'
loop_
_space_group_symop_operation_xyz
x,y,z
-x,y,-z
-x,-y,-z
x,-y,z
1/2+x,1/2+y,z
1/2-x,1/2+y,-z
1/2-x,1/2-y,-z
1/2+x,1/2-y,z
loop_
_atom_site_type_symbol
_atom_site_label
_atom_site_fract_x
_atom_site_fract_y
_atom_site_fract_z
Si Si1 0.743080 0.312419 0.930004
Si Si2 0.900953 0.309455 0.460472
Si Si3 0.900921 0.811815 0.617045
Si Si4 0.462746 0.310047 0.125922
Si Si5 0.735269 0.311027 0.596599
Si Si6 0.447130 0.188657 0.855194
O O1 0.743870 0.500000 0.930718
O O2 0.825425 0.256344 0.770478
O O3 0.750000 0.250000 0.000000
O O4 0.650158 0.255613 0.024705
O O5 0.902501 0.500000 0.462908
O O6 0.891844 0.240022 0.549518
O O7 0.814350 0.257473 0.537077
O O8 0.986505 0.262358 0.298258
O O9 0.000000 0.759817 0.500000
O O10 0.896541 0.000000 0.629008
O O11 0.466356 0.500000 0.128733
O O12 0.362472 0.258243 0.254763
O O13 0.510796 0.240783 0.128324
O O14 0.500000 0.267934 0.000000
O O15 0.736768 0.500000 0.596505
O O16 0.750000 0.250000 0.500000
O O17 0.442369 0.000000 0.860612
#
# Coordination Sequence:
#
# PCOD9200730 Si02
#       6
#     8   8   8   8   8   8
#     4  12  26  45  69  95 128 165 206 255 315 376
#     4  10  22  39  62  92 127 167 210 259 314 371
#     4  11  25  44  67  97 128 161 207 256 308 373
#     4  10  22  38  59  88 125 169 215 263 317 373
#     4  10  20  37  59  87 123 164 211 258 313 372
#     4  11  23  41  64  93 128 167 215 262 314 374
#
# _framework density 19.294917999999999
#
# number of rings (size 3 to 8) (size 9 to 14) (size 15 to 20)
#    0.000    1.333    1.667    3.500    2.333    6.333 
#    0.000    0.000    0.000    0.000    0.000    0.000 
#    0.000    0.000    0.000    0.000    0.000    0.000 
#
# Total GULP energy -134026.173051 kJ/mol
# GULP energy per Si atom -5584.423877 kJ/mol
# Density = 1.925100 g / cm^3
# Si number density = 19.294918 Si / 1000 Ang^3
#
#
#
# Elastic Constant Matrix: (Units=GPa)
#
#
# Indices 1 2 3 4 5 6 
#
# 1 170.1229 40.2868 112.7342 -0.0005 -7.2009 0.0003
# 2 40.2868 55.6716 56.4287 0.0040 -3.3759 -0.0009
# 3 112.7342 56.4287 233.4682 0.0040 -4.5120 -0.0002
# 4 -0.0005 0.0040 0.0040 25.9327 -0.0007 7.2249
# 5 -7.2009 -3.3759 -4.5120 -0.0007 39.7526 -0.0006
# 6 0.0003 -0.0009 -0.0002 7.2249 -0.0006 34.4937
#
#
#
# Elastic Compliance Matrix: (Units=1/GPa)
#
#
# Indices 1 2 3 4 5 6 
#
# 1 0.008995 -0.002737 -0.003663 0.000001 0.000981 0.000000
# 2 -0.002737 0.024698 -0.004627 -0.000003 0.001076 0.000001
# 3 -0.003663 -0.004627 0.007166 0.000000 -0.000243 0.000000
# 4 0.000001 -0.000003 0.000000 0.040951 0.000000 -0.008577
# 5 0.000981 0.001076 -0.000243 0.000000 0.025397 0.000000
# 6 0.000000 0.000001 0.000000 -0.008577 0.000000 0.030787
#
#
# Mechanical properties :
#
#
# Convention : Reuss Voigt Hill
#
# Bulk Modulus (GPa) = 53.17749 97.57358 75.37554
# Shear Modulus (GPa) = 30.06304 36.69002 33.37653
#
# Velocity S-wave (km/s) = 3.95154 4.36539 4.16361
# Velocity P-wave (km/s) = 6.95986 8.72286 7.89075
#
# Compressibility (1/GPa) = 0.01880495
#
# Stress axis : x y z
#
# Youngs Moduli (GPa) = 111.17178 40.48835 139.55535
#
# Poissons Ratio (x) = 0.11082 0.51118
# Poissons Ratio (y) = 0.30428 0.64574
# Poissons Ratio (z) = 0.40721 0.18734
#
# Static dielectric constant tensor:
#      x y z
#    x 1.580300 -0.000010 -0.069710 
#    y -0.000010 1.682930 0.000000 
#    z -0.069710 0.000000 1.584630 
# 
# From -- ./inp_files/274020.got.cif
#   From: 2010.05.17/outbox.cif.g08.bks.cpg/sg12_138_cif.got.tgz:274020.got - 2010.06.03 13:09:07.
