data_PCOD9200282
_publ_section_title
;
Structure prediction by ZEFSAII (Michael W. Deem and Ramdas Pophale) SiO2 
 PCOD9200282
Probable space group: C 2/M
;
_chemical_formula_sum "Si O2"
_cell_formula_units_Z 36
_cell_length_a 10.065193
_cell_length_b 25.319702
_cell_length_c 7.319467
_cell_angle_alpha 90.000000
_cell_angle_beta 46.569646
_cell_angle_gamma 90.000000
_cell_volume 1354.636325
_symmetry_space_group_name_H-M "C 2/M"
_symmetry_group_IT_number 12
_symmetry_cell_setting 'monoclinic'
loop_
_space_group_symop_operation_xyz
x,y,z
-x,y,-z
-x,-y,-z
x,-y,z
1/2+x,1/2+y,z
1/2-x,1/2+y,-z
1/2-x,1/2-y,-z
1/2+x,1/2-y,z
loop_
_atom_site_type_symbol
_atom_site_label
_atom_site_fract_x
_atom_site_fract_y
_atom_site_fract_z
Si Si1 0.779784 0.221838 0.694519
Si Si2 0.293815 0.168484 0.632003
Si Si3 0.365432 0.438865 0.355278
Si Si4 0.500000 0.859985 0.000000
Si Si5 0.770886 0.559438 0.093069
O O1 0.719091 0.198118 0.553203
O O2 0.717380 0.280489 0.814089
O O3 0.662680 0.178851 0.909688
O O4 0.000000 0.217885 0.500000
O O5 0.500000 0.162608 0.500000
O O6 0.205660 0.111545 0.689032
O O7 0.322630 0.500000 0.340365
O O8 0.297638 0.432863 0.631020
O O9 0.585581 0.433635 0.155694
O O10 0.444070 0.903545 0.897966
O O11 0.832760 0.500000 0.010441
#
# Coordination Sequence:
#
# PCOD9200282 Si02
#       5
#     8   8   8   4   8
#     4  10  22  39  58  83 116 148 188 237 278 326
#     4  10  20  37  56  81 119 150 184 234 277 332
#     4   9  17  34  57  80 111 150 184 227 285 329
#     4  12  19  32  64  88 107 148 190 234 284 328
#     4   9  18  31  55  88 113 137 184 240 279 326
#
# _framework density 26.575399000000001
#
# number of rings (size 3 to 8) (size 9 to 14) (size 15 to 20)
#    0.000    2.222    2.222    3.000    0.000    0.444 
#    0.000   17.778    0.000    0.000    0.000    3.889 
#    0.000    0.000    0.000    0.000    0.000    0.000 
#
# Total GULP energy -100260.346670 kJ/mol
# GULP energy per Si atom -5570.019259 kJ/mol
# Density = 2.651491 g / cm^3
# Si number density = 26.575399 Si / 1000 Ang^3
#
#
#
# Elastic Constant Matrix: (Units=GPa)
#
#
# Indices 1 2 3 4 5 6 
#
# 1 127.3941 111.4600 41.2947 0.0000 -45.9668 0.0000
# 2 111.4600 317.1784 60.6458 0.0000 -56.6055 0.0000
# 3 41.2947 60.6458 67.3310 0.0000 -24.1269 0.0000
# 4 0.0000 0.0000 0.0000 12.7965 0.0000 28.5988
# 5 -45.9668 -56.6055 -24.1269 0.0000 59.9800 0.0000
# 6 0.0000 0.0000 0.0000 28.5988 0.0000 -17.0451
#
#
#
# Elastic Compliance Matrix: (Units=1/GPa)
#
#
# Indices 1 2 3 4 5 6 
#
# 1 0.014017 -0.003115 -0.003499 0.000000 0.006394 0.000000
# 2 -0.003115 0.004879 -0.001974 0.000000 0.001423 0.000000
# 3 -0.003499 -0.001974 0.020035 0.000000 0.003515 0.000000
# 4 0.000000 0.000000 0.000000 0.016453 0.000000 0.027605
# 5 0.006394 0.001423 0.003515 0.000000 0.024329 0.000000
# 6 0.000000 0.000000 0.000000 0.027605 0.000000 -0.012352
#
#
# Mechanical properties :
#
#
# Convention : Reuss Voigt Hill
#
# Bulk Modulus (GPa) = 45.96841 104.30048 75.13445
# Shear Modulus (GPa) = 54.47195 31.04649 42.75922
#
# Velocity S-wave (km/s) = 4.53229 3.42166 4.01556
# Velocity P-wave (km/s) = 6.68758 7.41233 7.05926
#
# Compressibility (1/GPa) = 0.02175407
#
# Stress axis : x y z
#
# Youngs Moduli (GPa) = 71.34197 204.96137 49.91143
#
# Poissons Ratio (x) = 0.63855 0.17465
# Poissons Ratio (y) = 0.22226 0.09852
# Poissons Ratio (z) = 0.24965 0.40458
#
# Static dielectric constant tensor:
#      x y z
#    x 1.724030 0.000000 -0.114560 
#    y 0.000000 2.493710 0.000000 
#    z -0.114560 0.000000 5.347500 
# 
# From -- ./inp_files/134635.got.cif
#   From: 2010.05.17/outbox.cif.g08.bks.cpg/sg12_68_cif.got.tgz:134635.got - 2010.06.03 13:09:07.
