data_PCOD9200200
_publ_section_title
;
Structure prediction by ZEFSAII (Michael W. Deem and Ramdas Pophale) SiO2 
 PCOD9200200
Probable space group: C 2/M
;
_chemical_formula_sum "Si O2"
_cell_formula_units_Z 60
_cell_length_a 21.323175
_cell_length_b 16.610699
_cell_length_c 13.205792
_cell_angle_alpha 90.000000
_cell_angle_beta 140.224587
_cell_angle_gamma 90.000000
_cell_volume 2992.504823
_symmetry_space_group_name_H-M "C 2/M"
_symmetry_group_IT_number 12
_symmetry_cell_setting 'monoclinic'
loop_
_space_group_symop_operation_xyz
x,y,z
-x,y,-z
-x,-y,-z
x,-y,z
1/2+x,1/2+y,z
1/2-x,1/2+y,-z
1/2-x,1/2-y,-z
1/2+x,1/2-y,z
loop_
_atom_site_type_symbol
_atom_site_label
_atom_site_fract_x
_atom_site_fract_y
_atom_site_fract_z
Si Si1 0.843449 0.259405 0.188808
Si Si2 0.744702 0.863045 0.196704
Si Si3 0.315202 0.500000 0.131331
Si Si4 0.117182 0.589748 0.638831
Si Si5 0.219682 0.673682 0.580349
Si Si6 0.901893 0.233164 0.939842
Si Si7 0.322404 0.357503 0.509846
Si Si8 0.547138 0.638614 0.798574
O O1 0.821517 0.207497 0.261736
O O2 0.850371 0.350475 0.232359
O O3 0.935625 0.217998 0.250055
O O4 0.750000 0.250000 0.000000
O O5 0.759290 0.930258 0.131043
O O6 0.641588 0.816297 0.069550
O O7 0.773352 0.888716 0.345567
O O8 0.381123 0.570749 0.155939
O O9 0.156941 0.500000 0.704959
O O10 0.153698 0.623762 0.576575
O O11 0.000000 0.587926 0.500000
O O12 0.318680 0.698524 0.762683
O O13 0.254590 0.626968 0.523231
O O14 0.172555 0.759300 0.490283
O O15 0.921627 0.168697 0.052010
O O16 0.000000 0.248065 0.000000
O O17 0.433847 0.386999 0.657061
#
# Coordination Sequence:
#
# PCOD9200200 Si02
#       8
#     8   8   4   8   8   8   8   8
#     4  11  20  38  60  88 122 169 213 260 320 383
#     4  10  22  42  61  90 123 170 207 268 314 384
#     4  10  26  41  62  90 134 164 217 258 334 372
#     4  11  23  41  65  96 131 168 216 272 333 393
#     4  10  20  40  60  96 123 166 213 259 320 380
#     4  11  20  40  66  92 125 164 219 265 317 385
#     4  10  20  36  68  87 122 163 207 255 316 378
#     4  11  22  38  63  96 121 165 211 265 310 391
#
# _framework density 20.050093
#
# number of rings (size 3 to 8) (size 9 to 14) (size 15 to 20)
#    0.000    1.467    5.333    0.800    0.000    2.667 
#   13.200    0.667    0.000    0.000    0.000    0.000 
#    0.000    0.000    0.000    0.000    0.000    0.000 
#
# Total GULP energy -167022.098542 kJ/mol
# GULP energy per Si atom -5567.403285 kJ/mol
# Density = 2.000446 g / cm^3
# Si number density = 20.050093 Si / 1000 Ang^3
#
#
#
# Elastic Constant Matrix: (Units=GPa)
#
#
# Indices 1 2 3 4 5 6 
#
# 1 150.1797 44.5386 36.0373 0.0000 8.8506 0.0000
# 2 44.5386 111.2194 18.2337 0.0000 -1.1602 0.0000
# 3 36.0373 18.2337 50.2355 0.0000 2.3685 0.0000
# 4 0.0000 0.0000 0.0000 6.2493 0.0000 9.9064
# 5 8.8506 -1.1602 2.3685 0.0000 29.9119 0.0000
# 6 0.0000 0.0000 0.0000 9.9064 0.0000 14.9639
#
#
#
# Elastic Compliance Matrix: (Units=1/GPa)
#
#
# Indices 1 2 3 4 5 6 
#
# 1 0.008862 -0.002710 -0.005265 0.000000 -0.002310 0.000000
# 2 -0.002710 0.010401 -0.001895 0.000000 0.001355 0.000000
# 3 -0.005265 -0.001895 0.024392 0.000000 -0.000447 0.000000
# 4 0.000000 0.000000 0.000000 -3.237265 0.000000 2.143124
# 5 -0.002310 0.001355 -0.000447 0.000000 0.034203 0.000000
# 6 0.000000 0.000000 0.000000 2.143124 0.000000 -1.351957
#
#
# Mechanical properties :
#
#
# Convention : Reuss Voigt Hill
#
# Bulk Modulus (GPa) = 41.81386 56.58377 49.19881
# Shear Modulus (GPa) = -1.11516 24.41334 11.64909
#
# Velocity S-wave (km/s) = -0.74659 3.49322 2.41301
# Velocity P-wave (km/s) = 4.48963 6.67477 5.68812
#
# Compressibility (1/GPa) = 0.02391551
#
# Stress axis : x y z
#
# Youngs Moduli (GPa) = 112.84401 96.14236 40.99717
#
# Poissons Ratio (x) = 0.26052 0.21584
# Poissons Ratio (y) = 0.30578 0.07770
# Poissons Ratio (z) = 0.59409 0.18222
#
# Static dielectric constant tensor:
#      x y z
#    x 1.734550 0.000000 -0.016500 
#    y 0.000000 1.728280 0.000000 
#    z -0.016500 0.000000 1.743810 
# 
# From -- ./inp_files/233905.got.cif
#   From: 2010.05.17/outbox.cif.g08.bks.cpg/sg12_117_cif.got.tgz:233905.got - 2010.06.03 13:09:07.
