data_PCOD9200724
_publ_section_title
;
Structure prediction by ZEFSAII (Michael W. Deem and Ramdas Pophale) SiO2 
 PCOD9200724
Probable space group: C 2/M
;
_chemical_formula_sum "Si O2"
_cell_formula_units_Z 56
_cell_length_a 25.870990
_cell_length_b 8.259226
_cell_length_c 15.016846
_cell_angle_alpha 90.000000
_cell_angle_beta 58.514624
_cell_angle_gamma 90.000000
_cell_volume 2736.306991
_symmetry_space_group_name_H-M "C 2/M"
_symmetry_group_IT_number 12
_symmetry_cell_setting 'monoclinic'
loop_
_space_group_symop_operation_xyz
x,y,z
-x,y,-z
-x,-y,-z
x,-y,z
1/2+x,1/2+y,z
1/2-x,1/2+y,-z
1/2-x,1/2-y,-z
1/2+x,1/2-y,z
loop_
_atom_site_type_symbol
_atom_site_label
_atom_site_fract_x
_atom_site_fract_y
_atom_site_fract_z
Si Si1 0.573896 0.193046 0.693902
Si Si2 0.753226 0.304241 0.770468
Si Si3 0.525836 0.195728 0.073397
Si Si4 0.503184 0.695574 0.394697
Si Si5 0.791756 0.807164 0.381535
Si Si6 0.840741 0.193794 0.996318
Si Si7 0.862997 0.195643 0.779870
O O1 0.521948 0.251293 0.809037
O O2 0.551688 0.242558 0.616082
O O3 0.639153 0.258539 0.662319
O O4 0.576346 0.000000 0.697407
O O5 0.750527 0.500000 0.772123
O O6 0.731923 0.244618 0.692882
O O7 0.820230 0.252514 0.738728
O O8 0.707984 0.243068 0.888958
O O9 0.591799 0.267830 0.030790
O O10 0.530603 0.000000 0.073475
O O11 0.500000 0.239269 0.000000
O O12 0.500000 0.748027 0.500000
O O13 0.501884 0.500000 0.394152
O O14 0.567593 0.749399 0.295376
O O15 0.750000 0.750000 0.500000
O O16 0.788445 0.000000 0.381000
O O17 0.836927 0.255846 0.898212
O O18 0.833343 0.000000 0.999184
O O19 0.863214 0.000000 0.780946
#
# Coordination Sequence:
#
# PCOD9200724 Si02
#       7
#     8   8   8   8   8   8   8
#     4  11  23  40  63  92 122 156 199 247 299 353
#     4  10  23  40  60  88 121 157 199 248 299 352
#     4  10  21  36  57  87 122 157 195 241 293 349
#     4  10  22  40  62  90 122 158 199 246 302 360
#     4  11  25  44  64  88 119 158 202 249 300 355
#     4  10  20  37  59  87 120 155 198 241 293 356
#     4  10  21  37  60  90 122 158 198 241 296 358
#
# _framework density 20.465541000000002
#
# number of rings (size 3 to 8) (size 9 to 14) (size 15 to 20)
#    0.000    1.714    1.429    2.143    2.000    4.000 
#    0.000    0.000    0.000    0.000    0.000    0.000 
#    0.000    0.000    0.000    0.000    0.000    0.000 
#
# Total GULP energy -156512.457023 kJ/mol
# GULP energy per Si atom -5589.730608 kJ/mol
# Density = 2.041896 g / cm^3
# Si number density = 20.465541 Si / 1000 Ang^3
#
#
#
# Elastic Constant Matrix: (Units=GPa)
#
#
# Indices 1 2 3 4 5 6 
#
# 1 138.9512 2.2089 30.9582 0.0000 19.7772 0.0000
# 2 2.2089 9.0461 11.5866 0.0000 4.5168 0.0000
# 3 30.9582 11.5866 77.6897 0.0000 20.5880 0.0000
# 4 0.0000 0.0000 0.0000 16.5155 0.0000 -0.9148
# 5 19.7772 4.5168 20.5880 0.0000 39.5352 0.0000
# 6 0.0000 0.0000 0.0000 -0.9148 0.0000 30.4280
#
#
#
# Elastic Compliance Matrix: (Units=1/GPa)
#
#
# Indices 1 2 3 4 5 6 
#
# 1 0.008229 0.003288 -0.002992 0.000000 -0.002934 0.000000
# 2 0.003288 0.139118 -0.020198 0.000000 -0.007020 0.000000
# 3 -0.002992 -0.020198 0.018640 0.000000 -0.005903 0.000000
# 4 0.000000 0.000000 0.000000 0.060650 0.000000 0.001823
# 5 -0.002934 -0.007020 -0.005903 0.000000 0.030638 0.000000
# 6 0.000000 0.000000 0.000000 0.001823 0.000000 0.032919
#
#
# Mechanical properties :
#
#
# Convention : Reuss Voigt Hill
#
# Bulk Modulus (GPa) = 7.92495 35.02158 21.47327
# Shear Modulus (GPa) = 13.43872 29.35794 21.39833
#
# Velocity S-wave (km/s) = 2.56530 3.79160 3.23705
# Velocity P-wave (km/s) = 3.55740 6.02643 4.94838
#
# Compressibility (1/GPa) = 0.12618372
#
# Stress axis : x y z
#
# Youngs Moduli (GPa) = 121.52614 7.18813 53.64665
#
# Poissons Ratio (x) = -0.02363 0.16050
# Poissons Ratio (y) = -0.39955 1.08354
# Poissons Ratio (z) = 0.36359 0.14518
#
# Static dielectric constant tensor:
#      x y z
#    x 1.681810 0.000000 0.008830 
#    y 0.000000 1.711770 0.000000 
#    z 0.008830 0.000000 1.729830 
# 
# From -- ./inp_files/238417.got.cif
#   From: 2010.05.17/outbox.cif.g08.bks.cpg/sg12_120_cif.got.tgz:238417.got - 2010.06.03 13:09:07.
