data_PCOD9200089
_publ_section_title
;
Structure prediction by ZEFSAII (Michael W. Deem and Ramdas Pophale) SiO2 
 PCOD9200089
Probable space group: C 2/M
;
_chemical_formula_sum "Si O2"
_cell_formula_units_Z 64
_cell_length_a 18.276051
_cell_length_b 24.149349
_cell_length_c 9.845350
_cell_angle_alpha 90.000000
_cell_angle_beta 40.799562
_cell_angle_gamma 90.000000
_cell_volume 2839.278066
_symmetry_space_group_name_H-M "C 2/M"
_symmetry_group_IT_number 12
_symmetry_cell_setting 'monoclinic'
loop_
_space_group_symop_operation_xyz
x,y,z
-x,y,-z
-x,-y,-z
x,-y,z
1/2+x,1/2+y,z
1/2-x,1/2+y,-z
1/2-x,1/2-y,-z
1/2+x,1/2-y,z
loop_
_atom_site_type_symbol
_atom_site_label
_atom_site_fract_x
_atom_site_fract_y
_atom_site_fract_z
Si Si1 0.594050 0.564515 0.711137
Si Si2 0.307378 0.563538 0.726210
Si Si3 0.616711 0.906748 0.351212
Si Si4 0.180329 0.337947 0.814691
Si Si5 0.341633 0.248028 0.610478
Si Si6 0.793592 0.354418 0.517236
Si Si7 0.091197 0.293790 0.212396
Si Si8 0.130905 0.064480 0.073834
O O1 0.606329 0.500000 0.744717
O O2 0.621231 0.562815 0.511286
O O3 0.686901 0.606222 0.639392
O O4 0.534944 0.585679 0.106323
O O5 0.275874 0.500000 0.800465
O O6 0.200571 0.601305 0.845481
O O7 0.370260 0.586878 0.770442
O O8 0.500000 0.938637 0.500000
O O9 0.626472 0.886600 0.492056
O O10 0.602737 0.853561 0.271157
O O11 0.739531 0.930740 0.150242
O O12 0.301907 0.308553 0.626644
O O13 0.141624 0.342162 0.714452
O O14 0.122651 0.301565 0.011496
O O15 0.266996 0.202624 0.634743
O O16 0.338298 0.242380 0.778204
O O17 0.467401 0.231878 0.393638
O O18 0.101270 0.000000 0.122972
#
# Coordination Sequence:
#
# PCOD9200089 Si02
#       8
#     8   8   8   8   8   8   8   8
#     4   9  19  37  59  92 135 170 206 272 341 389
#     4   9  18  35  62  97 131 165 213 271 325 395
#     4  11  21  42  64  83 126 170 216 272 326 376
#     4  11  21  38  67  96 126 172 223 269 339 390
#     4  10  21  41  61  91 133 167 219 277 327 393
#     4  10  22  39  61  91 130 166 215 273 325 392
#     4  10  20  41  64  88 121 173 213 268 331 388
#     4  10  20  36  63  95 129 173 221 265 327 400
#
# _framework density 22.540941
#
# number of rings (size 3 to 8) (size 9 to 14) (size 15 to 20)
#    0.000    2.000    3.750    1.125    0.000    3.250 
#    9.000    2.500    0.000    0.750    0.000    7.875 
#    0.000    0.000    0.000    0.000    0.000    0.000 
#
# Total GULP energy -178407.605228 kJ/mol
# GULP energy per Si atom -5575.237663 kJ/mol
# Density = 2.248964 g / cm^3
# Si number density = 22.540941 Si / 1000 Ang^3
#
#
#
# Elastic Constant Matrix: (Units=GPa)
#
#
# Indices 1 2 3 4 5 6 
#
# 1 129.7218 28.6009 46.3842 0.0000 12.5288 0.0000
# 2 28.6009 54.9069 3.3485 0.0000 3.8833 0.0000
# 3 46.3842 3.3485 113.1587 0.0000 20.2780 0.0000
# 4 0.0000 0.0000 0.0000 19.0144 0.0000 -6.7123
# 5 12.5288 3.8833 20.2780 0.0000 37.7309 0.0000
# 6 0.0000 0.0000 0.0000 -6.7123 0.0000 14.8301
#
#
#
# Elastic Compliance Matrix: (Units=1/GPa)
#
#
# Indices 1 2 3 4 5 6 
#
# 1 0.010311 -0.005075 -0.003935 0.000000 -0.000786 0.000000
# 2 -0.005075 0.020850 0.001711 0.000000 -0.001380 0.000000
# 3 -0.003935 0.001711 0.011284 0.000000 -0.004934 0.000000
# 4 0.000000 0.000000 0.000000 0.062592 0.000000 0.028330
# 5 -0.000786 -0.001380 -0.004934 0.000000 0.029558 0.000000
# 6 0.000000 0.000000 0.000000 0.028330 0.000000 0.080253
#
#
# Mechanical properties :
#
#
# Convention : Reuss Voigt Hill
#
# Bulk Modulus (GPa) = 35.91394 50.49498 43.20446
# Shear Modulus (GPa) = 20.94423 28.94534 24.94478
#
# Velocity S-wave (km/s) = 3.05153 3.58735 3.33023
# Velocity P-wave (km/s) = 5.32758 6.29356 5.83061
#
# Compressibility (1/GPa) = 0.02784434
#
# Stress axis : x y z
#
# Youngs Moduli (GPa) = 96.98454 47.96247 88.62306
#
# Poissons Ratio (x) = 0.24342 0.34876
# Poissons Ratio (y) = 0.49223 -0.15161
# Poissons Ratio (z) = 0.38167 -0.08205
#
# Static dielectric constant tensor:
#      x y z
#    x 1.874370 0.000000 -0.008270 
#    y 0.000000 1.838150 0.000000 
#    z -0.008270 0.000000 1.918200 
# 
# From -- ./inp_files/91084.got.cif
#   From: 2010.05.17/outbox.cif.g08.bks.cpg/sg12_46_cif.got.tgz:91084.got - 2010.06.03 13:09:07.
