data_PCOD9200607
_publ_section_title
;
Structure prediction by ZEFSAII (Michael W. Deem and Ramdas Pophale) SiO2 
 PCOD9200607
Probable space group: C 2/M
;
_chemical_formula_sum "Si O2"
_cell_formula_units_Z 64
_cell_length_a 30.740764
_cell_length_b 7.923565
_cell_length_c 19.025077
_cell_angle_alpha 90.000000
_cell_angle_beta 39.317996
_cell_angle_gamma 90.000000
_cell_volume 2936.251508
_symmetry_space_group_name_H-M "C 2/M"
_symmetry_group_IT_number 12
_symmetry_cell_setting 'monoclinic'
loop_
_space_group_symop_operation_xyz
x,y,z
-x,y,-z
-x,-y,-z
x,-y,z
1/2+x,1/2+y,z
1/2-x,1/2+y,-z
1/2-x,1/2-y,-z
1/2+x,1/2-y,z
loop_
_atom_site_type_symbol
_atom_site_label
_atom_site_fract_x
_atom_site_fract_y
_atom_site_fract_z
Si Si1 0.539895 0.795943 0.570626
Si Si2 0.815753 0.702201 0.214318
Si Si3 0.107213 0.193219 0.259532
Si Si4 0.174054 0.702456 0.317286
Si Si5 0.814661 0.311559 0.963051
Si Si6 0.682690 0.203805 0.628034
Si Si7 0.042174 0.706116 0.730442
Si Si8 0.401877 0.207917 0.979576
O O1 0.470651 0.730209 0.621110
O O2 0.609624 0.740950 0.445604
O O3 0.538550 0.740338 0.653690
O O4 0.538255 0.000000 0.570421
O O5 0.822198 0.500000 0.210952
O O6 0.744852 0.740218 0.263038
O O7 0.814303 0.768526 0.295580
O O8 0.878060 0.761407 0.086611
O O9 0.158994 0.231431 0.258042
O O10 0.124325 0.305311 0.170352
O O11 0.114510 0.000000 0.228601
O O12 0.173674 0.500000 0.314670
O O13 0.797172 0.500000 0.005890
O O14 0.844342 0.228187 0.995960
O O15 0.750000 0.250000 0.000000
O O16 0.750000 0.250000 0.500000
O O17 0.613362 0.262219 0.676281
O O18 0.679783 0.000000 0.634034
O O19 0.041929 0.500000 0.730207
O O20 0.976012 0.760511 0.858120
O O21 0.401934 0.000000 0.977756
#
# Coordination Sequence:
#
# PCOD9200607 Si02
#       8
#     8   8   8   8   8   8   8   8
#     4  10  20  37  59  82 111 151 201 247 294 357
#     4  10  21  37  58  89 121 149 189 246 300 348
#     4  12  24  37  55  83 118 154 196 247 303 358
#     4  11  23  38  59  84 114 157 200 242 297 365
#     4  11  21  36  58  83 116 160 205 250 297 354
#     4  10  21  37  61  90 121 154 194 240 293 355
#     4   9  17  34  60  86 113 151 195 241 292 354
#     4   9  18  34  58  83 113 151 194 243 292 342
#
# _framework density 21.796496999999999
#
# number of rings (size 3 to 8) (size 9 to 14) (size 15 to 20)
#    0.000    1.750    1.250    3.750    0.000    5.500 
#    0.000    3.750    0.000    0.000    0.000    1.750 
#    0.000    0.000    0.000    0.000    0.000    0.000 
#
# Total GULP energy -178847.016087 kJ/mol
# GULP energy per Si atom -5588.969253 kJ/mol
# Density = 2.174689 g / cm^3
# Si number density = 21.796497 Si / 1000 Ang^3
#
#
#
# Elastic Constant Matrix: (Units=GPa)
#
#
# Indices 1 2 3 4 5 6 
#
# 1 121.2959 2.6212 37.0975 0.0064 5.9687 -0.0030
# 2 2.6212 23.2848 2.9262 0.0321 3.9721 -0.0198
# 3 37.0975 2.9262 110.7315 -0.0011 8.5555 -0.0082
# 4 0.0064 0.0321 -0.0011 16.5920 -0.0080 -4.1117
# 5 5.9687 3.9721 8.5555 -0.0080 38.1357 0.0034
# 6 -0.0030 -0.0198 -0.0082 -4.1117 0.0034 18.2378
#
#
#
# Elastic Compliance Matrix: (Units=1/GPa)
#
#
# Indices 1 2 3 4 5 6 
#
# 1 0.009214 -0.000537 -0.003018 -0.000003 -0.000709 -0.000001
# 2 -0.000537 0.043828 -0.000643 -0.000079 -0.004337 0.000030
# 3 -0.003018 -0.000643 0.010194 0.000003 -0.001748 0.000004
# 4 -0.000003 -0.000079 0.000003 0.063837 0.000020 0.014392
# 5 -0.000709 -0.004337 -0.001748 0.000020 0.027177 -0.000006
# 6 -0.000001 0.000030 0.000004 0.014392 -0.000006 0.058076
#
#
# Mechanical properties :
#
#
# Convention : Reuss Voigt Hill
#
# Bulk Modulus (GPa) = 18.23511 37.84469 28.03990
# Shear Modulus (GPa) = 20.92045 28.77093 24.84569
#
# Velocity S-wave (km/s) = 3.10144 3.63709 3.37989
# Velocity P-wave (km/s) = 4.60537 5.91932 5.30320
#
# Compressibility (1/GPa) = 0.05483926
#
# Stress axis : x y z
#
# Youngs Moduli (GPa) = 108.53307 22.81661 98.09771
#
# Poissons Ratio (x) = 0.01225 0.29604
# Poissons Ratio (y) = 0.05828 0.06310
# Poissons Ratio (z) = 0.32754 0.01468
#
# Static dielectric constant tensor:
#      x y z
#    x 1.771400 -0.000010 0.004180 
#    y -0.000010 1.828960 0.000020 
#    z 0.004180 0.000020 1.813000 
# 
# From -- ./inp_files/295447.got.cif
#   From: 2010.05.17/outbox.cif.g08.bks.cpg/sg12_148_cif.got.tgz:295447.got - 2010.06.03 13:09:07.
