data_PCOD9200699
_publ_section_title
;
Structure prediction by ZEFSAII (Michael W. Deem and Ramdas Pophale) SiO2 
 PCOD9200699
Probable space group: C 2/M
;
_chemical_formula_sum "Si O2"
_cell_formula_units_Z 60
_cell_length_a 8.449965
_cell_length_b 11.892784
_cell_length_c 30.017582
_cell_angle_alpha 90.000000
_cell_angle_beta 112.356707
_cell_angle_gamma 90.000000
_cell_volume 2789.830369
_symmetry_space_group_name_H-M "C 2/M"
_symmetry_group_IT_number 12
_symmetry_cell_setting 'monoclinic'
loop_
_space_group_symop_operation_xyz
x,y,z
-x,y,-z
-x,-y,-z
x,-y,z
1/2+x,1/2+y,z
1/2-x,1/2+y,-z
1/2-x,1/2-y,-z
1/2+x,1/2-y,z
loop_
_atom_site_type_symbol
_atom_site_label
_atom_site_fract_x
_atom_site_fract_y
_atom_site_fract_z
Si Si1 0.780100 0.175658 0.227471
Si Si2 0.448357 0.630617 0.809538
Si Si3 0.010341 0.628688 0.552976
Si Si4 0.882072 0.208044 0.613203
Si Si5 0.049318 0.500000 0.145978
Si Si6 0.335688 0.785529 0.100819
Si Si7 0.970438 0.870046 0.049576
Si Si8 0.246840 0.373075 0.327827
O O1 0.730410 0.303918 0.209966
O O2 0.967443 0.142900 0.230348
O O3 0.749374 0.154865 0.275912
O O4 0.651921 0.096896 0.185981
O O5 0.435836 0.500000 0.820527
O O6 0.583679 0.698368 0.854875
O O7 0.951942 0.500000 0.551177
O O8 0.207894 0.639144 0.589340
O O9 0.000000 0.660511 0.500000
O O10 0.902559 0.710075 0.572988
O O11 0.862151 0.285946 0.654819
O O12 0.056294 0.138282 0.635158
O O13 0.945520 0.398870 0.108868
O O14 0.146128 0.828181 0.091661
O O15 0.331674 0.713067 0.055266
O O16 0.934772 0.000000 0.056864
O O17 0.000000 0.863536 0.000000
O O18 0.184553 0.500000 0.327844
#
# Coordination Sequence:
#
# PCOD9200699 Si02
#       8
#     8   8   8   8   4   8   8   8
#     4  11  22  40  60  88 119 158 197 253 295 350
#     4  11  23  40  61  88 119 151 201 244 298 352
#     4  10  20  37  59  85 118 153 197 252 302 351
#     4  10  22  36  57  88 115 157 202 241 296 366
#     4  10  20  38  62  86 118 152 199 240 296 346
#     4  11  22  41  66  88 122 160 193 248 298 351
#     4  11  24  43  64  93 125 158 200 244 299 363
#     4  11  21  38  59  81 120 158 197 242 298 353
#
# _framework density 21.506684
#
# number of rings (size 3 to 8) (size 9 to 14) (size 15 to 20)
#    0.000    1.333    2.000    4.400    0.000    0.000 
#    6.000    3.667    0.000    6.400    0.000    0.000 
#    0.000    0.000    0.000    0.000    0.000    0.000 
#
# Total GULP energy -167196.526257 kJ/mol
# GULP energy per Si atom -5573.217542 kJ/mol
# Density = 2.145773 g / cm^3
# Si number density = 21.506684 Si / 1000 Ang^3
#
#
#
# Elastic Constant Matrix: (Units=GPa)
#
#
# Indices 1 2 3 4 5 6 
#
# 1 29.2430 15.6775 -0.5172 0.0000 -9.0382 0.0000
# 2 15.6775 152.8246 28.3003 0.0000 -8.1666 0.0000
# 3 -0.5172 28.3003 39.5178 0.0000 -18.7820 0.0000
# 4 0.0000 0.0000 0.0000 23.9305 0.0000 -1.5057
# 5 -9.0382 -8.1666 -18.7820 0.0000 30.3306 0.0000
# 6 0.0000 0.0000 0.0000 -1.5057 0.0000 10.0526
#
#
#
# Elastic Compliance Matrix: (Units=1/GPa)
#
#
# Indices 1 2 3 4 5 6 
#
# 1 0.044157 -0.006170 0.014823 0.000000 0.020676 0.000000
# 2 -0.006170 0.008481 -0.008421 0.000000 -0.004770 0.000000
# 3 0.014823 -0.008421 0.046128 0.000000 0.030714 0.000000
# 4 0.000000 0.000000 0.000000 0.042185 0.000000 0.006319
# 5 0.020676 -0.004770 0.030714 0.000000 0.056867 0.000000
# 6 0.000000 0.000000 0.000000 0.006319 0.000000 0.100423
#
#
# Mechanical properties :
#
#
# Convention : Reuss Voigt Hill
#
# Bulk Modulus (GPa) = 10.07762 34.27851 22.17806
# Shear Modulus (GPa) = 15.11247 24.73773 19.92510
#
# Velocity S-wave (km/s) = 2.65370 3.39519 3.04708
# Velocity P-wave (km/s) = 3.75306 5.59847 4.76594
#
# Compressibility (1/GPa) = 0.09922977
#
# Stress axis : x y z
#
# Youngs Moduli (GPa) = 22.64661 117.91100 21.67896
#
# Poissons Ratio (x) = 0.72750 -0.32136
# Poissons Ratio (y) = 0.13973 0.18257
# Poissons Ratio (z) = -0.33570 0.99297
#
# Static dielectric constant tensor:
#      x y z
#    x 1.841690 0.000000 -0.020370 
#    y 0.000000 1.746190 0.000000 
#    z -0.020370 0.000000 1.802660 
# 
# From -- ./inp_files/355831.got.cif
#   From: 2010.05.17/outbox.cif.g08.bks.cpg/sg12_178_cif.got.tgz:355831.got - 2010.06.03 13:09:07.
