data_PCOD9200431
_publ_section_title
;
Structure prediction by ZEFSAII (Michael W. Deem and Ramdas Pophale) SiO2 
 PCOD9200431
Probable space group: C 2/M
;
_chemical_formula_sum "Si O2"
_cell_formula_units_Z 56
_cell_length_a 19.306353
_cell_length_b 8.651130
_cell_length_c 25.560461
_cell_angle_alpha 90.000000
_cell_angle_beta 134.543391
_cell_angle_gamma 90.000000
_cell_volume 3042.708620
_symmetry_space_group_name_H-M "C 2/M"
_symmetry_group_IT_number 12
_symmetry_cell_setting 'monoclinic'
loop_
_space_group_symop_operation_xyz
x,y,z
-x,y,-z
-x,-y,-z
x,-y,z
1/2+x,1/2+y,z
1/2-x,1/2+y,-z
1/2-x,1/2-y,-z
1/2+x,1/2-y,z
loop_
_atom_site_type_symbol
_atom_site_label
_atom_site_fract_x
_atom_site_fract_y
_atom_site_fract_z
Si Si1 0.551221 0.175397 0.181402
Si Si2 0.246927 0.820621 0.441547
Si Si3 0.389655 0.811206 0.426851
Si Si4 0.836735 0.312858 0.081269
Si Si5 0.052892 0.326202 0.307658
Si Si6 0.755636 0.315164 0.257127
Si Si7 0.848520 0.815497 0.204728
O O1 0.441872 0.234655 0.112359
O O2 0.548224 0.165290 0.242672
O O3 0.646096 0.271634 0.216358
O O4 0.562008 0.000000 0.166322
O O5 0.250000 0.750000 0.500000
O O6 0.321093 0.755086 0.437929
O O7 0.138744 0.789642 0.365165
O O8 0.268861 0.000000 0.457034
O O9 0.500000 0.763873 0.500000
O O10 0.335202 0.764725 0.343794
O O11 0.389678 0.000000 0.425658
O O12 0.836945 0.500000 0.083737
O O13 0.825829 0.247971 0.134527
O O14 0.750000 0.250000 0.000000
O O15 0.071983 0.500000 0.338077
O O16 0.951428 0.262056 0.274156
O O17 0.763763 0.500000 0.256410
O O18 0.776784 0.236268 0.212724
O O19 0.856362 0.000000 0.206577
#
# Coordination Sequence:
#
# PCOD9200431 Si02
#       7
#     8   8   8   8   8   8   8
#     4   9  19  36  59  85 116 151 190 235 290 345
#     4  11  22  36  55  81 111 149 196 247 302 358
#     4   9  20  37  55  79 113 155 199 245 299 353
#     4  10  21  40  65  94 124 157 193 237 291 349
#     4  10  20  37  58  80 110 150 195 247 296 348
#     4  11  21  36  60  86 117 157 202 247 295 354
#     4  11  23  38  59  88 121 155 196 243 291 350
#
# _framework density 18.404653
#
# number of rings (size 3 to 8) (size 9 to 14) (size 15 to 20)
#    0.000    1.857    1.429    3.857    2.000    2.857 
#    0.000    0.714    0.000    7.714    0.000    0.000 
#    0.000    0.000    0.000    0.000    0.000    0.000 
#
# Total GULP energy -156122.823191 kJ/mol
# GULP energy per Si atom -5575.815114 kJ/mol
# Density = 1.836276 g / cm^3
# Si number density = 18.404653 Si / 1000 Ang^3
#
#
#
# Elastic Constant Matrix: (Units=GPa)
#
#
# Indices 1 2 3 4 5 6 
#
# 1 96.5661 28.6258 41.5021 0.0000 3.0314 0.0000
# 2 28.6258 42.7719 -2.6517 0.0000 -5.6935 0.0000
# 3 41.5021 -2.6517 95.7306 0.0000 9.2821 0.0000
# 4 0.0000 0.0000 0.0000 27.9215 0.0000 0.6099
# 5 3.0314 -5.6935 9.2821 0.0000 20.0975 0.0000
# 6 0.0000 0.0000 0.0000 0.6099 0.0000 27.8077
#
#
#
# Elastic Compliance Matrix: (Units=1/GPa)
#
#
# Indices 1 2 3 4 5 6 
#
# 1 0.017426 -0.012487 -0.007645 0.000000 -0.002635 0.000000
# 2 -0.012487 0.033244 0.005484 0.000000 0.008768 0.000000
# 3 -0.007645 0.005484 0.014290 0.000000 -0.003893 0.000000
# 4 0.000000 0.000000 0.000000 0.035832 0.000000 -0.000786
# 5 -0.002635 0.008768 -0.003893 0.000000 0.054437 0.000000
# 6 0.000000 0.000000 0.000000 -0.000786 0.000000 0.035978
#
#
# Mechanical properties :
#
#
# Convention : Reuss Voigt Hill
#
# Bulk Modulus (GPa) = 28.03959 41.11344 34.57652
# Shear Modulus (GPa) = 21.51554 26.33817 23.92685
#
# Velocity S-wave (km/s) = 3.42281 3.78704 3.60952
# Velocity P-wave (km/s) = 5.55779 6.44277 6.01657
#
# Compressibility (1/GPa) = 0.03566386
#
# Stress axis : x y z
#
# Youngs Moduli (GPa) = 57.38693 30.08041 69.98072
#
# Poissons Ratio (x) = 0.37562 0.53500
# Poissons Ratio (y) = 0.71659 -0.38379
# Poissons Ratio (z) = 0.43872 -0.16497
#
# Static dielectric constant tensor:
#      x y z
#    x 1.633160 0.000000 0.026040 
#    y 0.000000 1.625620 0.000000 
#    z 0.026040 0.000000 1.593840 
# 
# From -- ./inp_files/363158.got.cif
#   From: 2010.05.17/outbox.cif.g08.bks.cpg/sg12_182_cif.got.tgz:363158.got - 2010.06.03 13:09:07.
