data_PCOD9200642
_publ_section_title
;
Structure prediction by ZEFSAII (Michael W. Deem and Ramdas Pophale) SiO2 
 PCOD9200642
Probable space group: C 2/M
;
_chemical_formula_sum "Si O2"
_cell_formula_units_Z 40
_cell_length_a 31.431117
_cell_length_b 7.444020
_cell_length_c 21.944175
_cell_angle_alpha 90.000000
_cell_angle_beta 162.450867
_cell_angle_gamma 90.000000
_cell_volume 1548.131390
_symmetry_space_group_name_H-M "C 2/M"
_symmetry_group_IT_number 12
_symmetry_cell_setting 'monoclinic'
loop_
_space_group_symop_operation_xyz
x,y,z
-x,y,-z
-x,-y,-z
x,-y,z
1/2+x,1/2+y,z
1/2-x,1/2+y,-z
1/2-x,1/2-y,-z
1/2+x,1/2-y,z
loop_
_atom_site_type_symbol
_atom_site_label
_atom_site_fract_x
_atom_site_fract_y
_atom_site_fract_z
Si Si1 0.871776 0.716753 0.474361
Si Si2 0.119056 0.699937 0.888582
Si Si3 0.340838 0.714915 0.291318
Si Si4 0.413683 0.711669 0.709411
Si Si5 0.880257 0.792762 0.787685
O O1 0.874744 0.500000 0.483339
O O2 0.817292 0.752918 0.331457
O O3 0.758089 0.787745 0.369120
O O4 0.031602 0.779878 0.711166
O O5 0.167118 0.500000 0.935391
O O6 0.990326 0.688051 0.760776
O O7 0.238309 0.783658 0.096507
O O8 0.500000 0.781914 0.500000
O O9 0.337081 0.500000 0.278653
O O10 0.437713 0.500000 0.731283
O O11 0.250000 0.750000 0.500000
O O12 0.464077 0.779373 0.843636
O O13 0.843018 0.000000 0.720603
O O14 0.000000 0.798847 0.000000
#
# Coordination Sequence:
#
# PCOD9200642 Si02
#       5
#     8   8   8   8   8
#     4  10  20  37  59  83 113 152 196 237 284 347
#     4  10  21  39  60  84 118 157 194 238 291 347
#     4  10  23  42  61  84 116 150 189 246 308 352
#     4  11  20  33  55  83 118 155 190 229 278 338
#     4   9  17  30  50  77 110 147 185 225 272 329
#
# _framework density 25.837599999999998
#
# number of rings (size 3 to 8) (size 9 to 14) (size 15 to 20)
#    0.000    2.000    2.000    1.800    0.000    4.400 
#    0.000    0.000    0.000    4.200    0.000    0.000 
#    0.000    0.000    0.000    0.000    0.000    0.000 
#
# Total GULP energy -111389.348922 kJ/mol
# GULP energy per Si atom -5569.467446 kJ/mol
# Density = 2.577879 g / cm^3
# Si number density = 25.837600 Si / 1000 Ang^3
#
#
#
# Elastic Constant Matrix: (Units=GPa)
#
#
# Indices 1 2 3 4 5 6 
#
# 1 68.7232 -7.8016 14.6209 0.0000 -0.6384 0.0000
# 2 -7.8016 99.6845 9.1441 0.0000 1.9917 0.0000
# 3 14.6209 9.1441 175.4327 0.0000 -21.3577 0.0000
# 4 0.0000 0.0000 0.0000 2.7044 0.0000 -10.3876
# 5 -0.6384 1.9917 -21.3577 0.0000 37.3192 0.0000
# 6 0.0000 0.0000 0.0000 -10.3876 0.0000 7.5587
#
#
#
# Elastic Compliance Matrix: (Units=1/GPa)
#
#
# Indices 1 2 3 4 5 6 
#
# 1 0.014991 0.001313 -0.001392 0.000000 -0.000610 0.000000
# 2 0.001313 0.010223 -0.000759 0.000000 -0.000957 0.000000
# 3 -0.001392 -0.000759 0.006296 0.000000 0.003620 0.000000
# 4 0.000000 0.000000 0.000000 -0.086424 0.000000 -0.118769
# 5 -0.000610 -0.000957 0.003620 0.000000 0.028908 0.000000
# 6 0.000000 0.000000 0.000000 -0.118769 0.000000 -0.030921
#
#
# Mechanical properties :
#
#
# Convention : Reuss Voigt Hill
#
# Bulk Modulus (GPa) = 33.51808 41.75190 37.63499
# Shear Modulus (GPa) = -110.36066 31.37492 -39.49287
#
# Velocity S-wave (km/s) = -6.54262 3.48848 -3.91385
# Velocity P-wave (km/s) = 6.63881 5.69389 2.41386
#
# Compressibility (1/GPa) = 0.02983465
#
# Stress axis : x y z
#
# Youngs Moduli (GPa) = 66.70807 97.81715 158.81848
#
# Poissons Ratio (x) = -0.12845 0.22109
# Poissons Ratio (y) = -0.08760 0.12052
# Poissons Ratio (z) = 0.09286 0.07423
#
# Static dielectric constant tensor:
#      x y z
#    x 1.757460 0.000000 0.244440 
#    y 0.000000 1.083640 0.000000 
#    z 0.244440 0.000000 1.831530 
# 
# From -- ./inp_files/151862.got.cif
#   From: 2010.05.17/outbox.cif.g08.bks.cpg/sg12_76_cif.got.tgz:151862.got - 2010.06.03 13:09:07.
