data_PCOD9200212
_publ_section_title
;
Structure prediction by ZEFSAII (Michael W. Deem and Ramdas Pophale) SiO2 
 PCOD9200212
Probable space group: C 2/M
;
_chemical_formula_sum "Si O2"
_cell_formula_units_Z 44
_cell_length_a 14.140655
_cell_length_b 18.262636
_cell_length_c 8.441671
_cell_angle_alpha 90.000000
_cell_angle_beta 85.857130
_cell_angle_gamma 90.000000
_cell_volume 2174.328301
_symmetry_space_group_name_H-M "C 2/M"
_symmetry_group_IT_number 12
_symmetry_cell_setting 'monoclinic'
loop_
_space_group_symop_operation_xyz
x,y,z
-x,y,-z
-x,-y,-z
x,-y,z
1/2+x,1/2+y,z
1/2-x,1/2+y,-z
1/2-x,1/2-y,-z
1/2+x,1/2-y,z
loop_
_atom_site_type_symbol
_atom_site_label
_atom_site_fract_x
_atom_site_fract_y
_atom_site_fract_z
Si Si1 0.702012 0.500000 0.905106
Si Si2 0.729548 0.629279 0.656366
Si Si3 0.479713 0.645128 0.328130
Si Si4 0.063865 0.300527 0.330114
Si Si5 0.773982 0.000000 0.593783
Si Si6 0.000000 0.372779 0.000000
Si Si7 0.365792 0.000000 0.131497
Si Si8 0.948045 0.000000 0.823143
O O1 0.724015 0.572151 0.801818
O O2 0.773179 0.500000 0.039426
O O3 0.601013 0.500000 0.000692
O O4 0.629437 0.672346 0.672355
O O5 0.827693 0.674036 0.649629
O O6 0.722681 0.574032 0.508954
O O7 0.500000 0.615040 0.500000
O O8 0.549514 0.713807 0.305325
O O9 0.498618 0.576262 0.215351
O O10 0.033621 0.332604 0.159310
O O11 0.000000 0.317957 0.500000
O O12 0.670502 0.000000 0.686358
O O13 0.862107 0.000000 0.702936
O O14 0.920828 0.427577 0.076303
#
# Coordination Sequence:
#
# PCOD9200212 Si02
#       8
#     4   8   8   8   4   4   4   4
#     4  10  22  38  66  99 130 162 215 275 324 384
#     4  11  22  43  65  98 131 168 219 269 327 391
#     4  11  24  43  67  96 130 172 217 275 327 389
#     4  11  26  44  66  97 135 179 217 266 333 395
#     4  10  20  36  74  95 123 169 219 272 325 379
#     4  11  22  44  64  93 144 168 220 271 320 392
#     4  10  20  38  65  99 124 177 218 264 322 386
#     4  11  21  43  67  97 127 164 221 274 330 382
#
# _framework density 20.236134
#
# number of rings (size 3 to 8) (size 9 to 14) (size 15 to 20)
#    0.000    1.273    3.636    2.455    0.000    5.818 
#    6.545    4.545    0.000    0.000    0.000    0.000 
#    0.000    0.000    0.000    0.000    0.000    0.000 
#
# Total GULP energy -122603.003004 kJ/mol
# GULP energy per Si atom -5572.863773 kJ/mol
# Density = 2.019008 g / cm^3
# Si number density = 20.236134 Si / 1000 Ang^3
#
#
#
# Elastic Constant Matrix: (Units=GPa)
#
#
# Indices 1 2 3 4 5 6 
#
# 1 149.1867 62.5508 37.5883 0.0000 -9.6638 0.0000
# 2 62.5508 108.7180 50.9386 0.0000 -10.5350 0.0000
# 3 37.5883 50.9386 96.7710 0.0000 -4.0070 0.0000
# 4 0.0000 0.0000 0.0000 26.2044 0.0000 -5.8487
# 5 -9.6638 -10.5350 -4.0070 0.0000 36.9202 0.0000
# 6 0.0000 0.0000 0.0000 -5.8487 0.0000 37.4061
#
#
#
# Elastic Compliance Matrix: (Units=1/GPa)
#
#
# Indices 1 2 3 4 5 6 
#
# 1 0.008939 -0.004572 -0.001027 0.000000 0.000924 0.000000
# 2 -0.004572 0.014843 -0.005938 0.000000 0.002394 0.000000
# 3 -0.001027 -0.005938 0.013839 0.000000 -0.000461 0.000000
# 4 0.000000 0.000000 0.000000 0.039541 0.000000 0.006183
# 5 0.000924 0.002394 -0.000461 0.000000 0.027960 0.000000
# 6 0.000000 0.000000 0.000000 0.006183 0.000000 0.027700
#
#
# Mechanical properties :
#
#
# Convention : Reuss Voigt Hill
#
# Bulk Modulus (GPa) = 68.74582 72.98123 70.86352
# Shear Modulus (GPa) = 31.10505 33.67935 32.39220
#
# Velocity S-wave (km/s) = 3.92485 4.08403 4.00523
# Velocity P-wave (km/s) = 7.38815 7.64082 7.51555
#
# Compressibility (1/GPa) = 0.01454634
#
# Stress axis : x y z
#
# Youngs Moduli (GPa) = 111.87438 67.37258 72.25871
#
# Poissons Ratio (x) = 0.30803 0.07421
# Poissons Ratio (y) = 0.51150 0.42907
# Poissons Ratio (z) = 0.11490 0.40006
#
# Static dielectric constant tensor:
#      x y z
#    x 1.768980 0.000000 0.007050 
#    y 0.000000 1.672910 0.000000 
#    z 0.007050 0.000000 1.772900 
# 
# From -- ./inp_files/61140.got.cif
#   From: 2010.05.17/outbox.cif.g08.bks.cpg/sg12_31_cif.got.tgz:61140.got - 2010.06.03 13:09:07.
