data_PCOD9200058
_publ_section_title
;
Structure prediction by ZEFSAII (Michael W. Deem and Ramdas Pophale) SiO2 
 PCOD9200058
Probable space group: C 2/M
;
_chemical_formula_sum "Si O2"
_cell_formula_units_Z 52
_cell_length_a 9.485966
_cell_length_b 27.408688
_cell_length_c 15.961824
_cell_angle_alpha 90.000000
_cell_angle_beta 139.914685
_cell_angle_gamma 90.000000
_cell_volume 2672.325407
_symmetry_space_group_name_H-M "C 2/M"
_symmetry_group_IT_number 12
_symmetry_cell_setting 'monoclinic'
loop_
_space_group_symop_operation_xyz
x,y,z
-x,y,-z
-x,-y,-z
x,-y,z
1/2+x,1/2+y,z
1/2-x,1/2+y,-z
1/2-x,1/2-y,-z
1/2+x,1/2-y,z
loop_
_atom_site_type_symbol
_atom_site_label
_atom_site_fract_x
_atom_site_fract_y
_atom_site_fract_z
Si Si1 0.082943 0.189948 0.666176
Si Si2 0.724506 0.213205 0.640700
Si Si3 0.949249 0.443791 0.744252
Si Si4 0.017185 0.636783 0.916163
Si Si5 0.015411 0.841312 0.905599
Si Si6 0.893919 0.052635 0.858767
Si Si7 0.000000 0.107267 0.500000
O O1 0.160392 0.232414 0.639236
O O2 0.302580 0.169468 0.807778
O O3 0.983190 0.144018 0.570945
O O4 0.909049 0.210628 0.653044
O O5 0.500000 0.190917 0.500000
O O6 0.832409 0.188412 0.771961
O O7 0.942617 0.500000 0.770625
O O8 0.020011 0.405374 0.847609
O O9 0.714599 0.425629 0.606395
O O10 0.135213 0.441820 0.757413
O O11 0.000000 0.614175 0.000000
O O12 0.234359 0.669538 0.004606
O O13 0.983077 0.897670 0.861652
O O14 0.000000 0.837928 0.000000
O O15 0.940128 0.000000 0.839149
O O16 0.000000 0.050548 0.000000
#
# Coordination Sequence:
#
# PCOD9200058 Si02
#       7
#     8   8   8   8   8   8   4
#     4  11  26  43  65  91 122 171 211 270 317 385
#     4  12  27  43  66  92 129 163 222 262 326 382
#     4  10  20  36  63  92 124 168 211 255 309 383
#     4  11  22  41  59  92 132 158 208 268 323 364
#     4  11  23  40  67  94 124 171 210 266 321 380
#     4   9  17  33  59  89 117 155 213 255 298 371
#     4  10  23  40  64  86 132 164 215 258 320 380
#
# _framework density 19.458708999999999
#
# number of rings (size 3 to 8) (size 9 to 14) (size 15 to 20)
#    0.000    1.385    5.385    0.692    4.308    1.538 
#    0.000    0.000    0.000    0.462    0.000    0.000 
#    0.000    0.000    0.000    0.000    0.000    0.000 
#
# Total GULP energy -145046.589070 kJ/mol
# GULP energy per Si atom -5578.714964 kJ/mol
# Density = 1.941442 g / cm^3
# Si number density = 19.458709 Si / 1000 Ang^3
#
#
#
# Elastic Constant Matrix: (Units=GPa)
#
#
# Indices 1 2 3 4 5 6 
#
# 1 79.3675 10.6916 25.1099 0.0000 16.1572 0.0000
# 2 10.6916 60.0710 29.9894 0.0000 14.2524 0.0000
# 3 25.1099 29.9894 118.9986 0.0000 20.8399 0.0000
# 4 0.0000 0.0000 0.0000 41.1949 0.0000 13.8954
# 5 16.1572 14.2524 20.8399 0.0000 23.1003 0.0000
# 6 0.0000 0.0000 0.0000 13.8954 0.0000 12.8576
#
#
#
# Elastic Compliance Matrix: (Units=1/GPa)
#
#
# Indices 1 2 3 4 5 6 
#
# 1 0.014940 0.000333 -0.001628 0.000000 -0.009187 0.000000
# 2 0.000333 0.020691 -0.003573 0.000000 -0.009776 0.000000
# 3 -0.001628 -0.003573 0.010762 0.000000 -0.006366 0.000000
# 4 0.000000 0.000000 0.000000 0.038200 0.000000 -0.041283
# 5 -0.009187 -0.009776 -0.006366 0.000000 0.061490 0.000000
# 6 0.000000 0.000000 0.000000 -0.041283 0.000000 0.122391
#
#
# Mechanical properties :
#
#
# Convention : Reuss Voigt Hill
#
# Bulk Modulus (GPa) = 27.27881 43.33543 35.30712
# Shear Modulus (GPa) = 17.21603 28.27363 22.74483
#
# Velocity S-wave (km/s) = 2.97770 3.81597 3.42259
# Velocity P-wave (km/s) = 5.08640 6.46021 5.81402
#
# Compressibility (1/GPa) = 0.03665850
#
# Stress axis : x y z
#
# Youngs Moduli (GPa) = 66.93506 48.33110 92.91788
#
# Poissons Ratio (x) = -0.01610 0.15123
# Poissons Ratio (y) = -0.02230 0.33196
# Poissons Ratio (z) = 0.10894 0.17267
#
# Static dielectric constant tensor:
#      x y z
#    x 1.674190 0.000000 0.007650 
#    y 0.000000 1.680390 0.000000 
#    z 0.007650 0.000000 1.726740 
# 
# From -- ./inp_files/201364.got.cif
#   From: 2010.05.17/outbox.cif.g08.bks.cpg/sg12_101_cif.got.tgz:201364.got - 2010.06.03 13:09:07.
