data_PCOD9200528
_publ_section_title
;
Structure prediction by ZEFSAII (Michael W. Deem and Ramdas Pophale) SiO2 
 PCOD9200528
Probable space group: C 2/M
;
_chemical_formula_sum "Si O2"
_cell_formula_units_Z 58
_cell_length_a 29.100143
_cell_length_b 9.188861
_cell_length_c 24.314484
_cell_angle_alpha 90.000000
_cell_angle_beta 29.930953
_cell_angle_gamma 90.000000
_cell_volume 3244.024348
_symmetry_space_group_name_H-M "C 2/M"
_symmetry_group_IT_number 12
_symmetry_cell_setting 'monoclinic'
loop_
_space_group_symop_operation_xyz
x,y,z
-x,y,-z
-x,-y,-z
x,-y,z
1/2+x,1/2+y,z
1/2-x,1/2+y,-z
1/2-x,1/2-y,-z
1/2+x,1/2-y,z
loop_
_atom_site_type_symbol
_atom_site_label
_atom_site_fract_x
_atom_site_fract_y
_atom_site_fract_z
Si Si1 0.110136 0.835367 0.884413
Si Si2 0.702624 0.666697 0.499870
Si Si3 0.299264 0.826385 0.108252
Si Si4 0.452974 0.174059 0.857753
Si Si5 0.626464 0.832405 0.756219
Si Si6 0.892538 0.661680 0.707466
Si Si7 0.506722 0.675589 0.298060
Si Si8 0.000000 0.500000 0.500000
O O1 0.147599 0.733678 0.893646
O O2 0.132731 0.770635 0.801767
O O3 0.145876 0.000000 0.854482
O O4 0.000000 0.839214 0.000000
O O5 0.691312 0.500000 0.529256
O O6 0.750000 0.750000 0.500000
O O7 0.775449 0.671214 0.375276
O O8 0.601251 0.719632 0.589998
O O9 0.201799 0.745679 0.206981
O O10 0.287283 0.000000 0.124140
O O11 0.364345 0.796221 0.987886
O O12 0.544772 0.209678 0.798542
O O13 0.453336 0.262487 0.800702
O O14 0.456678 0.000000 0.842692
O O15 0.606320 0.000000 0.793968
O O16 0.870176 0.500000 0.753458
O O17 0.946246 0.752116 0.697991
O O18 0.953010 0.625336 0.590231
O O19 0.514696 0.500000 0.291812
#
# Coordination Sequence:
#
# PCOD9200528 Si02
#       8
#     8   8   8   8   8   8   8   2
#     4  11  23  37  57  89 128 170 214 261 317 377
#     4  10  21  36  57  87 124 164 209 258 311 368
#     4  11  23  41  66  94 127 166 215 268 322 379
#     4  10  21  37  62  93 129 172 208 255 318 382
#     4  10  20  37  58  85 124 169 217 256 314 379
#     4  10  23  46  70  91 122 161 209 260 318 380
#     4  11  23  39  63  96 131 166 213 264 316 377
#     4   8  24  48  74  92 122 160 218 258 324 378
#
# _framework density 17.879028000000002
#
# number of rings (size 3 to 8) (size 9 to 14) (size 15 to 20)
#    0.414    1.241    2.759    1.655    0.000    4.966 
#    0.000    2.759    0.000    0.000    0.000    0.000 
#    0.000    0.000    0.000    0.000    0.000    0.000 
#
# Total GULP energy -161513.760340 kJ/mol
# GULP energy per Si atom -5569.440012 kJ/mol
# Density = 1.783833 g / cm^3
# Si number density = 17.879028 Si / 1000 Ang^3
#
#
#
# Elastic Constant Matrix: (Units=GPa)
#
#
# Indices 1 2 3 4 5 6 
#
# 1 114.2311 61.7525 73.5195 -0.0004 -4.8678 0.0002
# 2 61.7525 90.6974 62.1578 0.0004 5.0207 -0.0004
# 3 73.5195 62.1578 101.5318 0.0012 1.8701 -0.0037
# 4 -0.0004 0.0004 0.0012 28.2800 -0.0016 1.3193
# 5 -4.8678 5.0207 1.8701 -0.0016 26.3192 0.0022
# 6 0.0002 -0.0004 -0.0037 1.3193 0.0022 33.9670
#
#
#
# Elastic Compliance Matrix: (Units=1/GPa)
#
#
# Indices 1 2 3 4 5 6 
#
# 1 0.018680 -0.006336 -0.009746 0.000001 0.005356 -0.000002
# 2 -0.006336 0.021353 -0.008399 0.000000 -0.004648 0.000000
# 3 -0.009746 -0.008399 0.022081 -0.000001 -0.001769 0.000003
# 4 0.000001 0.000000 -0.000001 0.035425 0.000003 -0.001376
# 5 0.005356 -0.004648 -0.001769 0.000003 0.039998 -0.000003
# 6 -0.000002 0.000000 0.000003 -0.001376 -0.000003 0.029494
#
#
# Mechanical properties :
#
#
# Convention : Reuss Voigt Hill
#
# Bulk Modulus (GPa) = 76.03378 77.92443 76.97911
# Shear Modulus (GPa) = 22.68846 24.98194 23.83520
#
# Velocity S-wave (km/s) = 3.56617 3.74207 3.65518
# Velocity P-wave (km/s) = 7.71854 7.89618 7.80787
#
# Compressibility (1/GPa) = 0.01315205
#
# Stress axis : x y z
#
# Youngs Moduli (GPa) = 53.53259 46.83248 45.28810
#
# Poissons Ratio (x) = 0.29671 0.44139
# Poissons Ratio (y) = 0.33916 0.38037
# Poissons Ratio (z) = 0.52175 0.39334
#
# Static dielectric constant tensor:
#      x y z
#    x 1.576400 0.000000 -0.025830 
#    y 0.000000 1.625000 0.000000 
#    z -0.025830 0.000000 1.602630 
# 
# From -- ./inp_files/351398.got.cif
#   From: 2010.05.17/outbox.cif.g08.bks.cpg/sg12_176_cif.got.tgz:351398.got - 2010.06.03 13:09:07.
