data_PCOD9200299
_publ_section_title
;
Structure prediction by ZEFSAII (Michael W. Deem and Ramdas Pophale) SiO2 
 PCOD9200299
Probable space group: C 2/M
;
_chemical_formula_sum "Si O2"
_cell_formula_units_Z 48
_cell_length_a 13.160733
_cell_length_b 13.802167
_cell_length_c 29.189973
_cell_angle_alpha 90.000000
_cell_angle_beta 150.399463
_cell_angle_gamma 90.000000
_cell_volume 2619.051590
_symmetry_space_group_name_H-M "C 2/M"
_symmetry_group_IT_number 12
_symmetry_cell_setting 'monoclinic'
loop_
_space_group_symop_operation_xyz
x,y,z
-x,y,-z
-x,-y,-z
x,-y,z
1/2+x,1/2+y,z
1/2-x,1/2+y,-z
1/2-x,1/2-y,-z
1/2+x,1/2-y,z
loop_
_atom_site_type_symbol
_atom_site_label
_atom_site_fract_x
_atom_site_fract_y
_atom_site_fract_z
Si Si1 0.154653 0.110083 0.679580
Si Si2 0.723895 0.819868 0.532929
Si Si3 0.867719 0.887313 0.170714
Si Si4 0.573942 0.192918 0.131035
Si Si5 0.636441 0.389183 0.939865
Si Si6 0.278268 0.781749 0.363972
O O1 0.285837 0.158380 0.771863
O O2 0.181438 0.180833 0.646464
O O3 0.916092 0.109199 0.602237
O O4 0.221315 0.000000 0.697080
O O5 0.750000 0.750000 0.500000
O O6 0.483217 0.848047 0.437734
O O7 0.750399 0.769259 0.592825
O O8 0.686733 0.839844 0.129091
O O9 0.830293 0.882672 0.101873
O O10 0.078940 0.833073 0.265399
O O11 0.882967 0.000000 0.190171
O O12 0.531463 0.307789 0.114225
O O13 0.351607 0.141636 0.047136
O O14 0.581747 0.500000 0.929694
#
# Coordination Sequence:
#
# PCOD9200299 Si02
#       6
#     8   8   8   8   8   8
#     4  11  21  36  59  86 115 153 195 236 288 342
#     4   9  20  37  58  78 114 152 186 234 288 342
#     4  11  21  36  60  86 114 152 195 237 286 338
#     4  11  21  36  62  86 119 150 194 240 281 335
#     4  10  22  39  59  85 118 155 193 234 286 339
#     4  10  20  37  56  85 116 147 188 240 288 336
#
# _framework density 18.327244
#
# number of rings (size 3 to 8) (size 9 to 14) (size 15 to 20)
#    0.000    1.667    3.333    2.000    0.000    2.000 
#    0.000    9.167    0.000    3.000    0.000    0.000 
#    0.000    0.000    0.000    0.000    0.000    0.000 
#
# Total GULP energy -133834.077346 kJ/mol
# GULP energy per Si atom -5576.419889 kJ/mol
# Density = 1.828553 g / cm^3
# Si number density = 18.327244 Si / 1000 Ang^3
#
#
#
# Elastic Constant Matrix: (Units=GPa)
#
#
# Indices 1 2 3 4 5 6 
#
# 1 65.0634 32.9998 4.6844 0.0000 5.7644 0.0000
# 2 32.9998 138.0231 34.8137 0.0000 16.5214 0.0000
# 3 4.6844 34.8137 80.6893 -0.0003 5.4193 0.0000
# 4 0.0000 0.0000 -0.0003 8.1865 0.0000 3.2673
# 5 5.7644 16.5214 5.4193 0.0000 25.5512 0.0000
# 6 0.0000 0.0000 0.0000 3.2673 0.0000 24.7079
#
#
#
# Elastic Compliance Matrix: (Units=1/GPa)
#
#
# Indices 1 2 3 4 5 6 
#
# 1 0.017593 -0.004269 0.000915 0.000000 -0.001403 0.000000
# 2 -0.004269 0.009730 -0.003644 0.000000 -0.004556 0.000000
# 3 0.000915 -0.003644 0.013967 0.000001 -0.000812 0.000000
# 4 0.000000 0.000000 0.000001 0.128958 0.000000 -0.017053
# 5 -0.001403 -0.004556 -0.000812 0.000000 0.042571 0.000000
# 6 0.000000 0.000000 0.000000 -0.017053 0.000000 0.042728
#
#
# Mechanical properties :
#
#
# Convention : Reuss Voigt Hill
#
# Bulk Modulus (GPa) = 36.63920 47.64130 42.14025
# Shear Modulus (GPa) = 17.94409 25.77431 21.85920
#
# Velocity S-wave (km/s) = 3.13244 3.75419 3.45732
# Velocity P-wave (km/s) = 5.75482 6.69650 6.24344
#
# Compressibility (1/GPa) = 0.02729317
#
# Stress axis : x y z
#
# Youngs Moduli (GPa) = 56.83958 102.77039 71.59701
#
# Poissons Ratio (x) = 0.43875 -0.06550
# Poissons Ratio (y) = 0.24266 0.26093
# Poissons Ratio (z) = -0.05200 0.37454
#
# Static dielectric constant tensor:
#      x y z
#    x 1.620740 0.000000 0.011130 
#    y 0.000000 1.547060 0.000000 
#    z 0.011130 0.000000 1.653810 
# 
# From -- ./inp_files/358495.got.cif
#   From: 2010.05.17/outbox.cif.g08.bks.cpg/sg12_180_cif.got.tgz:358495.got - 2010.06.03 13:09:07.
