data_PCOD9200627
_publ_section_title
;
Structure prediction by ZEFSAII (Michael W. Deem and Ramdas Pophale) SiO2 
 PCOD9200627
Probable space group: C 2/M
;
_chemical_formula_sum "Si O2"
_cell_formula_units_Z 64
_cell_length_a 19.931143
_cell_length_b 7.586399
_cell_length_c 16.984374
_cell_angle_alpha 90.000000
_cell_angle_beta 91.942200
_cell_angle_gamma 90.000000
_cell_volume 2566.657190
_symmetry_space_group_name_H-M "C 2/M"
_symmetry_group_IT_number 12
_symmetry_cell_setting 'monoclinic'
loop_
_space_group_symop_operation_xyz
x,y,z
-x,y,-z
-x,-y,-z
x,-y,z
1/2+x,1/2+y,z
1/2-x,1/2+y,-z
1/2-x,1/2-y,-z
1/2+x,1/2-y,z
loop_
_atom_site_type_symbol
_atom_site_label
_atom_site_fract_x
_atom_site_fract_y
_atom_site_fract_z
Si Si1 0.965366 0.705901 0.580166
Si Si2 0.221695 0.212326 0.233435
Si Si3 0.926620 0.704891 0.010074
Si Si4 0.085767 0.214628 0.164150
Si Si5 0.034930 0.202690 0.744814
Si Si6 0.829445 0.789515 0.505352
Si Si7 0.657475 0.291544 0.664743
Si Si8 0.204809 0.712128 0.921644
O O1 0.981983 0.500000 0.587218
O O2 0.995119 0.793781 0.659807
O O3 0.884624 0.724551 0.569588
O O4 0.000000 0.773710 0.500000
O O5 0.144957 0.269059 0.225254
O O6 0.265742 0.268942 0.308540
O O7 0.260038 0.276710 0.156335
O O8 0.221973 0.000000 0.232707
O O9 0.936423 0.500000 0.031895
O O10 0.896420 0.717203 0.921205
O O11 0.870666 0.781159 0.065914
O O12 0.000000 0.788101 0.000000
O O13 0.014174 0.281590 0.191877
O O14 0.084798 0.000000 0.161104
O O15 0.107023 0.284564 0.727907
O O16 0.044916 0.000000 0.769298
O O17 0.750000 0.750000 0.500000
O O18 0.855220 0.718310 0.421951
O O19 0.834371 0.000000 0.508290
O O20 0.643667 0.500000 0.660371
O O21 0.200579 0.500000 0.915682
O O22 0.250000 0.750000 0.000000
#
# Coordination Sequence:
#
# PCOD9200627 Si02
#       8
#     8   8   8   8   8   8   8   8
#     4  11  23  40  64  93 120 155 203 249 297 358
#     4  10  22  38  58  85 118 152 194 244 295 348
#     4  10  22  38  58  85 117 152 193 240 292 346
#     4  10  22  40  60  86 116 152 197 241 290 351
#     4  10  22  41  62  86 119 159 199 241 296 355
#     4  11  24  42  64  90 123 159 201 251 301 356
#     4  10  23  41  60  86 119 155 197 240 290 354
#     4  10  20  37  59  83 111 149 192 236 286 344
#
# _framework density 24.935155000000002
#
# number of rings (size 3 to 8) (size 9 to 14) (size 15 to 20)
#    0.000    1.750    2.500    0.750    3.500    3.750 
#    0.000    0.000    0.000    0.000    0.000    0.000 
#    0.000    0.000    0.000    0.000    0.000    0.000 
#
# Total GULP energy -178933.772994 kJ/mol
# GULP energy per Si atom -5591.680406 kJ/mol
# Density = 2.487840 g / cm^3
# Si number density = 24.935155 Si / 1000 Ang^3
#
#
#
# Elastic Constant Matrix: (Units=GPa)
#
#
# Indices 1 2 3 4 5 6 
#
# 1 117.7281 3.8106 -13.9877 0.0000 -0.1911 0.0000
# 2 3.8106 71.1976 -5.2373 0.0000 -7.3237 0.0000
# 3 -13.9877 -5.2373 42.1533 0.0000 2.4315 0.0000
# 4 0.0000 0.0000 0.0000 9.4688 0.0000 10.3376
# 5 -0.1911 -7.3237 2.4315 0.0000 47.4184 0.0000
# 6 0.0000 0.0000 0.0000 10.3376 0.0000 16.7176
#
#
#
# Elastic Compliance Matrix: (Units=1/GPa)
#
#
# Indices 1 2 3 4 5 6 
#
# 1 0.008849 -0.000276 0.002911 0.000000 -0.000156 0.000000
# 2 -0.000276 0.014396 0.001574 0.000000 0.002142 0.000000
# 3 0.002911 0.001574 0.024943 0.000000 -0.001024 0.000000
# 4 0.000000 0.000000 0.000000 0.325053 0.000000 -0.201001
# 5 -0.000156 0.002142 -0.001024 0.000000 0.021472 0.000000
# 6 0.000000 0.000000 0.000000 -0.201001 0.000000 0.184109
#
#
# Mechanical properties :
#
#
# Convention : Reuss Voigt Hill
#
# Bulk Modulus (GPa) = 17.66572 22.25002 19.95787
# Shear Modulus (GPa) = 8.48503 31.15385 19.81944
#
# Velocity S-wave (km/s) = 1.84668 3.53851 2.82235
# Velocity P-wave (km/s) = 3.41277 5.06333 4.31766
#
# Compressibility (1/GPa) = 0.05660679
#
# Stress axis : x y z
#
# Youngs Moduli (GPa) = 113.01120 69.46259 40.09064
#
# Poissons Ratio (x) = 0.01914 -0.11671
# Poissons Ratio (y) = 0.03114 -0.06309
# Poissons Ratio (z) = -0.32898 -0.10931
#
# Static dielectric constant tensor:
#      x y z
#    x 2.015730 0.000000 -0.025990 
#    y 0.000000 1.924560 0.000000 
#    z -0.025990 0.000000 1.972410 
# 
# From -- ./inp_files/281345.got.cif
#   From: 2010.05.17/outbox.cif.g08.bks.cpg/sg12_141_cif.got.tgz:281345.got - 2010.06.03 13:09:07.
