data_PCOD9200919
_publ_section_title
;
Structure prediction by ZEFSAII (Michael W. Deem and Ramdas Pophale) SiO2 
 PCOD9200919
Probable space group: C 2/M
;
_chemical_formula_sum "Si O2"
_cell_formula_units_Z 48
_cell_length_a 23.335552
_cell_length_b 17.126465
_cell_length_c 10.758735
_cell_angle_alpha 90.000000
_cell_angle_beta 30.243781
_cell_angle_gamma 90.000000
_cell_volume 2165.718015
_symmetry_space_group_name_H-M "C 2/M"
_symmetry_group_IT_number 12
_symmetry_cell_setting 'monoclinic'
loop_
_space_group_symop_operation_xyz
x,y,z
-x,y,-z
-x,-y,-z
x,-y,z
1/2+x,1/2+y,z
1/2-x,1/2+y,-z
1/2-x,1/2-y,-z
1/2+x,1/2-y,z
loop_
_atom_site_type_symbol
_atom_site_label
_atom_site_fract_x
_atom_site_fract_y
_atom_site_fract_z
Si Si1 0.857105 0.335791 0.363812
Si Si2 0.897255 0.174276 0.421451
Si Si3 0.420655 0.911472 0.989102
Si Si4 0.902897 0.174645 0.781644
Si Si5 0.630205 0.410495 0.749160
Si Si6 0.287463 0.839267 0.023495
O O1 0.883235 0.248567 0.357917
O O2 0.879333 0.352254 0.175488
O O3 0.727478 0.360014 0.631033
O O4 0.945627 0.391620 0.268931
O O5 0.852296 0.098906 0.432269
O O6 0.813065 0.189187 0.694535
O O7 0.027032 0.162744 0.223010
O O8 0.360290 0.897528 0.970929
O O9 0.403637 0.000000 0.064559
O O10 0.784879 0.133568 0.961455
O O11 0.000000 0.153666 0.500000
O O12 0.867840 0.265936 0.842289
O O13 0.637603 0.500000 0.774910
O O14 0.500000 0.383360 0.000000
#
# Coordination Sequence:
#
# PCOD9200919 Si02
#       6
#     8   8   8   8   8   8
#     4  11  22  36  59  90 120 155 196 246 292 352
#     4  11  22  35  61  89 115 157 203 245 289 353
#     4  11  22  37  61  90 123 154 193 244 301 359
#     4   9  20  38  58  87 113 145 196 250 295 342
#     4  11  25  39  54  82 129 166 193 238 292 355
#     4  10  20  37  60  86 115 151 192 246 299 343
#
# _framework density 22.163550999999998
#
# number of rings (size 3 to 8) (size 9 to 14) (size 15 to 20)
#    0.000    1.500    3.333    2.500    4.667    0.000 
#    0.000    0.833    0.000    3.500    0.000    0.000 
#    0.000    0.000    0.000    0.000    0.000    0.000 
#
# Total GULP energy -133837.791631 kJ/mol
# GULP energy per Si atom -5576.574651 kJ/mol
# Density = 2.211311 g / cm^3
# Si number density = 22.163551 Si / 1000 Ang^3
#
#
#
# Elastic Constant Matrix: (Units=GPa)
#
#
# Indices 1 2 3 4 5 6 
#
# 1 132.6634 29.1353 32.4416 0.0000 -54.4230 0.0000
# 2 29.1353 49.7545 3.3588 0.0000 -6.3464 0.0000
# 3 32.4416 3.3588 62.8372 0.0000 -29.9683 0.0000
# 4 0.0000 0.0000 0.0000 13.9681 0.0000 2.2802
# 5 -54.4230 -6.3464 -29.9683 0.0000 44.9411 0.0000
# 6 0.0000 0.0000 0.0000 2.2802 0.0000 7.3765
#
#
#
# Elastic Compliance Matrix: (Units=1/GPa)
#
#
# Indices 1 2 3 4 5 6 
#
# 1 0.017525 -0.007669 0.001418 0.000000 0.021085 0.000000
# 2 -0.007669 0.023830 -0.000203 0.000000 -0.006057 0.000000
# 3 0.001418 -0.000203 0.023459 0.000000 0.017332 0.000000
# 4 0.000000 0.000000 0.000000 0.075396 0.000000 -0.023306
# 5 0.021085 -0.006057 0.017332 0.000000 0.058488 0.000000
# 6 0.000000 0.000000 0.000000 -0.023306 0.000000 0.142769
#
#
# Mechanical properties :
#
#
# Convention : Reuss Voigt Hill
#
# Bulk Modulus (GPa) = 19.26537 41.68072 30.47304
# Shear Modulus (GPa) = 13.45254 25.27843 19.36548
#
# Velocity S-wave (km/s) = 2.46634 3.38085 2.95914
# Velocity P-wave (km/s) = 4.10143 5.83841 5.04523
#
# Compressibility (1/GPa) = 0.05190660
#
# Stress axis : x y z
#
# Youngs Moduli (GPa) = 57.06048 41.96315 42.62813
#
# Poissons Ratio (x) = 0.32180 -0.06045
# Poissons Ratio (y) = 0.43758 0.00867
# Poissons Ratio (z) = -0.08091 0.00853
#
# Static dielectric constant tensor:
#      x y z
#    x 1.921730 0.000000 0.010810 
#    y 0.000000 1.748580 0.000000 
#    z 0.010810 0.000000 1.921240 
# 
# From -- ./inp_files/177304.got.cif
#   From: 2010.05.17/outbox.cif.g08.bks.cpg/sg12_89_cif.got.tgz:177304.got - 2010.06.03 13:09:07.
