data_PCOD9200763
_publ_section_title
;
Structure prediction by ZEFSAII (Michael W. Deem and Ramdas Pophale) SiO2 
 PCOD9200763
Probable space group: C 2/M
;
_chemical_formula_sum "Si O2"
_cell_formula_units_Z 38
_cell_length_a 9.780625
_cell_length_b 23.289959
_cell_length_c 7.263454
_cell_angle_alpha 90.000000
_cell_angle_beta 84.783818
_cell_angle_gamma 90.000000
_cell_volume 1647.692903
_symmetry_space_group_name_H-M "C 2/M"
_symmetry_group_IT_number 12
_symmetry_cell_setting 'monoclinic'
loop_
_space_group_symop_operation_xyz
x,y,z
-x,y,-z
-x,-y,-z
x,-y,z
1/2+x,1/2+y,z
1/2-x,1/2+y,-z
1/2-x,1/2-y,-z
1/2+x,1/2-y,z
loop_
_atom_site_type_symbol
_atom_site_label
_atom_site_fract_x
_atom_site_fract_y
_atom_site_fract_z
Si Si1 0.612464 0.118965 0.865873
Si Si2 0.500000 0.000000 0.500000
Si Si3 0.713612 0.909210 0.464665
Si Si4 0.089760 0.703966 0.319252
Si Si5 0.880156 0.180606 0.864020
Si Si6 0.500000 0.611174 0.500000
O O1 0.674718 0.085483 0.685955
O O2 0.520696 0.170712 0.792875
O O3 0.745237 0.146397 0.948415
O O4 0.500000 0.086277 0.000000
O O5 0.399451 0.049652 0.604309
O O6 0.687821 0.844530 0.395742
O O7 0.872667 0.923429 0.430462
O O8 0.158340 0.755752 0.201995
O O9 0.000000 0.728176 0.500000
O O10 0.937023 0.148444 0.674595
O O11 0.000000 0.183418 0.000000
#
# Coordination Sequence:
#
# PCOD9200763 Si02
#       6
#     8   2   8   8   8   4
#     4  10  22  38  57  91 132 160 210 250 295 362
#     4  12  20  44  74  92 104 152 224 246 340 374
#     4  10  23  41  68  89 121 163 203 274 303 374
#     4  10  20  37  59  90 125 168 209 251 294 358
#     4  11  24  36  63  93 129 181 204 241 298 371
#     4  10  24  42  60  96 134 160 206 252 320 354
#
# _framework density 23.062549000000001
#
# number of rings (size 3 to 8) (size 9 to 14) (size 15 to 20)
#    0.000    1.684    4.211    0.632    5.895    4.632 
#    0.000    0.526    0.000    0.000    0.000    6.632 
#    0.000    0.000    0.000    0.000    0.000    0.000 
#
# Total GULP energy -105861.884598 kJ/mol
# GULP energy per Si atom -5571.678137 kJ/mol
# Density = 2.301006 g / cm^3
# Si number density = 23.062549 Si / 1000 Ang^3
#
#
#
# Elastic Constant Matrix: (Units=GPa)
#
#
# Indices 1 2 3 4 5 6 
#
# 1 159.5280 18.6835 10.9621 0.0000 -6.7220 0.0000
# 2 18.6835 31.9723 -3.9578 0.0000 -6.0073 0.0000
# 3 10.9621 -3.9578 81.3401 0.0000 -5.5072 0.0000
# 4 0.0000 0.0000 0.0000 335.1464 0.0000 207.3898
# 5 -6.7220 -6.0073 -5.5072 0.0000 38.3101 0.0000
# 6 0.0000 0.0000 0.0000 207.3898 0.0000 122.6376
#
#
#
# Elastic Compliance Matrix: (Units=1/GPa)
#
#
# Indices 1 2 3 4 5 6 
#
# 1 0.006835 -0.004053 -0.001091 0.000000 0.000407 0.000000
# 2 -0.004053 0.034932 0.002594 0.000000 0.005139 0.000000
# 3 -0.001091 0.002594 0.012706 0.000000 0.002042 0.000000
# 4 0.000000 0.000000 0.000000 -0.064243 0.000000 0.108639
# 5 0.000407 0.005139 0.002042 0.000000 0.027274 0.000000
# 6 0.000000 0.000000 0.000000 0.108639 0.000000 -0.175563
#
#
# Mechanical properties :
#
#
# Convention : Reuss Voigt Hill
#
# Bulk Modulus (GPa) = 20.25382 36.02399 28.13890
# Shear Modulus (GPa) = -36.62955 115.69566 39.53305
#
# Velocity S-wave (km/s) = -3.98963 7.09048 4.14474
# Velocity P-wave (km/s) = 3.52445 9.09325 5.92729
#
# Compressibility (1/GPa) = 0.04937340
#
# Stress axis : x y z
#
# Youngs Moduli (GPa) = 146.30025 28.62687 78.70597
#
# Poissons Ratio (x) = 0.11602 0.08585
# Poissons Ratio (y) = 0.59293 -0.20415
# Poissons Ratio (z) = 0.15959 -0.07425
#
# Static dielectric constant tensor:
#      x y z
#    x 1.930620 0.000000 0.029350 
#    y 0.000000 1.911170 0.000000 
#    z 0.029350 0.000000 1.986620 
# 
# From -- ./inp_files/39256.got.cif
#   From: 2010.05.17/outbox.cif.g08.bks.cpg/sg12_20_cif.got.tgz:39256.got - 2010.06.03 13:09:07.
