data_PCOD9200804
_publ_section_title
;
Structure prediction by ZEFSAII (Michael W. Deem and Ramdas Pophale) SiO2 
 PCOD9200804
Probable space group: C 2/M
;
_chemical_formula_sum "Si O2"
_cell_formula_units_Z 40
_cell_length_a 24.396298
_cell_length_b 8.438973
_cell_length_c 8.348712
_cell_angle_alpha 90.000000
_cell_angle_beta 96.132757
_cell_angle_gamma 90.000000
_cell_volume 1708.993506
_symmetry_space_group_name_H-M "C 2/M"
_symmetry_group_IT_number 12
_symmetry_cell_setting 'monoclinic'
loop_
_space_group_symop_operation_xyz
x,y,z
-x,y,-z
-x,-y,-z
x,-y,z
1/2+x,1/2+y,z
1/2-x,1/2+y,-z
1/2-x,1/2-y,-z
1/2+x,1/2-y,z
loop_
_atom_site_type_symbol
_atom_site_label
_atom_site_fract_x
_atom_site_fract_y
_atom_site_fract_z
Si Si1 0.077554 0.315422 0.579252
Si Si2 0.319196 0.189405 0.184247
Si Si3 0.220458 0.686400 0.333242
Si Si4 0.383642 0.808267 0.884079
Si Si5 0.483494 0.317409 0.742014
O O1 0.073993 0.500000 0.529094
O O2 0.139068 0.280997 0.655075
O O3 0.053968 0.209799 0.429310
O O4 0.036987 0.287299 0.718186
O O5 0.262083 0.275024 0.200744
O O6 0.309665 0.000000 0.172842
O O7 0.352944 0.237585 0.037775
O O8 0.215414 0.500000 0.350803
O O9 0.250000 0.750000 0.500000
O O10 0.159618 0.744427 0.267528
O O11 0.443479 0.736386 0.871828
O O12 0.388366 0.000000 0.882554
O O13 0.499227 0.500000 0.762640
#
# Coordination Sequence:
#
# PCOD9200804 Si02
#       5
#     8   8   8   8   8
#     4  10  20  37  60  83 110 148 188 230 278 331
#     4  10  22  39  60  84 112 146 187 231 278 331
#     4  11  23  38  60  85 113 148 186 229 277 329
#     4  10  22  40  58  81 114 151 186 225 278 337
#     4  11  22  36  57  85 114 147 187 233 276 324
#
# _framework density 23.40559
#
# number of rings (size 3 to 8) (size 9 to 14) (size 15 to 20)
#    0.000    1.600    0.000    6.000    0.000    9.600 
#    0.000    4.000    0.000    0.000    0.000    0.000 
#    0.000    0.000    0.000    0.000    0.000    0.000 
#
# Total GULP energy -111938.214249 kJ/mol
# GULP energy per Si atom -5596.910712 kJ/mol
# Density = 2.335232 g / cm^3
# Si number density = 23.405590 Si / 1000 Ang^3
#
#
#
# Elastic Constant Matrix: (Units=GPa)
#
#
# Indices 1 2 3 4 5 6 
#
# 1 105.7889 0.4478 -2.2034 0.0000 -12.7902 0.0000
# 2 0.4478 25.2303 -3.7900 0.0000 4.5836 0.0000
# 3 -2.2034 -3.7900 64.0470 0.0000 -11.8108 0.0000
# 4 0.0000 0.0000 0.0000 28.6161 0.0000 -12.2292
# 5 -12.7902 4.5836 -11.8108 0.0000 40.2304 0.0000
# 6 0.0000 0.0000 0.0000 -12.2292 0.0000 19.8712
#
#
#
# Elastic Compliance Matrix: (Units=1/GPa)
#
#
# Indices 1 2 3 4 5 6 
#
# 1 0.009899 -0.000670 0.000947 0.000000 0.003501 0.000000
# 2 -0.000670 0.040680 0.001576 0.000000 -0.004385 0.000000
# 3 0.000947 0.001576 0.016664 0.000000 0.005014 0.000000
# 4 0.000000 0.000000 0.000000 0.047416 0.000000 0.029181
# 5 0.003501 -0.004385 0.005014 0.000000 0.027941 0.000000
# 6 0.000000 0.000000 0.000000 0.029181 0.000000 0.068283
#
#
# Mechanical properties :
#
#
# Convention : Reuss Voigt Hill
#
# Bulk Modulus (GPa) = 14.09488 20.44167 17.26828
# Shear Modulus (GPa) = 21.66123 31.11765 26.38944
#
# Velocity S-wave (km/s) = 3.04546 3.65018 3.36145
# Velocity P-wave (km/s) = 4.28970 5.14954 4.73916
#
# Compressibility (1/GPa) = 0.07094773
#
# Stress axis : x y z
#
# Youngs Moduli (GPa) = 101.02395 24.58209 60.01000
#
# Poissons Ratio (x) = 0.01646 -0.05680
# Poissons Ratio (y) = 0.06764 -0.09455
# Poissons Ratio (z) = -0.09563 -0.03873
#
# Static dielectric constant tensor:
#      x y z
#    x 1.880860 0.000000 0.002490 
#    y 0.000000 1.782160 0.000000 
#    z 0.002490 0.000000 1.998770 
# 
# From -- ./inp_files/92772.got.cif
#   From: 2010.05.17/outbox.cif.g08.bks.cpg/sg12_47_cif.got.tgz:92772.got - 2010.06.03 13:09:07.
