data_PCOD9200766
_publ_section_title
;
Structure prediction by ZEFSAII (Michael W. Deem and Ramdas Pophale) SiO2 
 PCOD9200766
Probable space group: C 2/M
;
_chemical_formula_sum "Si O2"
_cell_formula_units_Z 56
_cell_length_a 17.824075
_cell_length_b 15.113027
_cell_length_c 21.669250
_cell_angle_alpha 90.000000
_cell_angle_beta 151.644123
_cell_angle_gamma 90.000000
_cell_volume 2772.344368
_symmetry_space_group_name_H-M "C 2/M"
_symmetry_group_IT_number 12
_symmetry_cell_setting 'monoclinic'
loop_
_space_group_symop_operation_xyz
x,y,z
-x,y,-z
-x,-y,-z
x,-y,z
1/2+x,1/2+y,z
1/2-x,1/2+y,-z
1/2-x,1/2-y,-z
1/2+x,1/2-y,z
loop_
_atom_site_type_symbol
_atom_site_label
_atom_site_fract_x
_atom_site_fract_y
_atom_site_fract_z
Si Si1 0.768153 0.145421 0.001599
Si Si2 0.079042 0.600168 0.284940
Si Si3 0.171978 0.899497 0.094443
Si Si4 0.331698 0.171107 0.522403
Si Si5 0.619976 0.739147 0.703481
Si Si6 0.186443 0.896594 0.648448
Si Si7 0.995623 0.901323 0.277168
O O1 0.880834 0.106734 0.135607
O O2 0.750000 0.250000 0.000000
O O3 0.589170 0.109535 0.869551
O O4 0.837332 0.121989 0.984905
O O5 0.129934 0.500000 0.326459
O O6 0.070541 0.629649 0.349604
O O7 0.213578 0.638983 0.337766
O O8 0.267547 0.818373 0.193517
O O9 0.239870 0.000000 0.150712
O O10 0.000000 0.900634 0.000000
O O11 0.250000 0.250000 0.500000
O O12 0.457764 0.210428 0.565912
O O13 0.179771 0.114651 0.392149
O O14 0.702059 0.674154 0.714343
O O15 0.563555 0.673420 0.717839
O O16 0.000000 0.899442 0.500000
O O17 0.233498 0.000000 0.696700
O O18 0.984197 0.000000 0.296482
#
# Coordination Sequence:
#
# PCOD9200766 Si02
#       7
#     8   8   8   8   8   8   8
#     4  12  23  42  65  95 126 162 216 268 317 379
#     4  11  22  39  65  92 124 166 212 258 316 384
#     4  11  25  45  66  88 123 173 219 259 313 380
#     4  10  20  37  59  91 126 165 207 253 304 372
#     4  11  22  40  63  93 131 166 212 261 314 382
#     4  10  22  39  63  97 133 170 206 255 325 389
#     4  11  22  37  64  98 131 162 205 268 328 375
#
# _framework density 20.19951
#
# number of rings (size 3 to 8) (size 9 to 14) (size 15 to 20)
#    0.000    1.143    2.857    4.714    2.000    1.714 
#    0.000    0.000    0.000    3.857    0.000    0.000 
#    0.000    0.000    0.000    0.000    0.000    0.000 
#
# Total GULP energy -156131.705854 kJ/mol
# GULP energy per Si atom -5576.132352 kJ/mol
# Density = 2.015354 g / cm^3
# Si number density = 20.199510 Si / 1000 Ang^3
#
#
#
# Elastic Constant Matrix: (Units=GPa)
#
#
# Indices 1 2 3 4 5 6 
#
# 1 91.6644 27.3880 13.5744 0.0035 16.2286 0.0000
# 2 27.3880 131.9137 24.6556 -0.0234 -3.6526 -0.0042
# 3 13.5744 24.6556 88.9022 -0.0139 5.9257 -0.0015
# 4 0.0035 -0.0234 -0.0139 12.8719 -0.0061 -0.2956
# 5 16.2286 -3.6526 5.9257 -0.0061 22.1984 0.0006
# 6 0.0000 -0.0042 -0.0015 -0.2956 0.0006 27.4825
#
#
#
# Elastic Compliance Matrix: (Units=1/GPa)
#
#
# Indices 1 2 3 4 5 6 
#
# 1 0.013740 -0.003035 -0.000563 -0.000015 -0.010394 0.000000
# 2 -0.003035 0.008749 -0.002247 0.000016 0.004258 0.000001
# 3 -0.000563 -0.002247 0.012171 0.000008 -0.003207 0.000000
# 4 -0.000015 0.000016 0.000008 0.077708 0.000033 0.000836
# 5 -0.010394 0.004258 -0.003207 0.000033 0.054204 0.000000
# 6 0.000000 0.000001 0.000000 0.000836 0.000000 0.036396
#
#
# Mechanical properties :
#
#
# Convention : Reuss Voigt Hill
#
# Bulk Modulus (GPa) = 43.53654 49.30180 46.41917
# Shear Modulus (GPa) = 22.49072 28.96804 25.72938
#
# Velocity S-wave (km/s) = 3.34043 3.79105 3.57285
# Velocity P-wave (km/s) = 6.03970 6.60479 6.32855
#
# Compressibility (1/GPa) = 0.02296921
#
# Stress axis : x y z
#
# Youngs Moduli (GPa) = 72.78119 114.30249 82.16130
#
# Poissons Ratio (x) = 0.34693 0.04629
# Poissons Ratio (y) = 0.22090 0.18459
# Poissons Ratio (z) = 0.04100 0.25680
#
# Static dielectric constant tensor:
#      x y z
#    x 1.742830 0.000000 -0.040970 
#    y 0.000000 1.742090 0.000000 
#    z -0.040970 0.000000 1.802160 
# 
# From -- ./inp_files/316790.got.cif
#   From: 2010.05.17/outbox.cif.g08.bks.cpg/sg12_159_cif.got.tgz:316790.got - 2010.06.03 13:09:07.
