data_PCOD9200512
_publ_section_title
;
Structure prediction by ZEFSAII (Michael W. Deem and Ramdas Pophale) SiO2 
 PCOD9200512
Probable space group: C 2/M
;
_chemical_formula_sum "Si O2"
_cell_formula_units_Z 36
_cell_length_a 14.260694
_cell_length_b 9.614656
_cell_length_c 29.366019
_cell_angle_alpha 90.000000
_cell_angle_beta 29.541752
_cell_angle_gamma 90.000000
_cell_volume 1985.259132
_symmetry_space_group_name_H-M "C 2/M"
_symmetry_group_IT_number 12
_symmetry_cell_setting 'monoclinic'
loop_
_space_group_symop_operation_xyz
x,y,z
-x,y,-z
-x,-y,-z
x,-y,z
1/2+x,1/2+y,z
1/2-x,1/2+y,-z
1/2-x,1/2-y,-z
1/2+x,1/2-y,z
loop_
_atom_site_type_symbol
_atom_site_label
_atom_site_fract_x
_atom_site_fract_y
_atom_site_fract_z
Si Si1 0.495528 0.500000 0.055332
Si Si2 0.368129 0.838389 0.512000
Si Si3 0.729235 0.000000 0.896788
Si Si4 0.315774 0.213971 0.159855
Si Si5 0.000228 0.334837 0.354401
Si Si6 0.153578 0.500000 0.028912
O O1 0.384795 0.364075 0.116758
O O2 0.500000 0.500000 0.000000
O O3 0.702880 0.500000 0.990259
O O4 0.500000 0.816124 0.500000
O O5 0.195195 0.730153 0.582503
O O6 0.484740 0.823538 0.415619
O O7 0.298730 0.000000 0.542653
O O8 0.773664 0.868131 0.845880
O O9 0.500000 0.000000 0.000000
O O10 0.781589 0.000000 0.927994
O O11 0.166910 0.240249 0.262944
O O12 0.506522 0.128700 0.091816
O O13 0.020162 0.500000 0.335069
#
# Coordination Sequence:
#
# PCOD9200512 Si02
#       6
#     4   8   4   8   8   4
#     4  12  22  38  58  80 120 149 181 239 293 332
#     4   9  20  39  62  83 115 153 189 224 282 345
#     4   8  18  38  58  77 107 148 194 226 271 333
#     4  10  20  37  58  85 112 146 192 237 275 336
#     4  10  20  38  58  88 119 146 182 241 284 328
#     4  10  22  40  58  81 111 157 195 227 282 335
#
# _framework density 18.133652999999999
#
# number of rings (size 3 to 8) (size 9 to 14) (size 15 to 20)
#    0.000    2.444    1.111    2.667    3.111    0.444 
#    8.000    0.000    0.000    0.000    0.000    0.000 
#    0.000    0.000    0.000    0.000    0.000    0.000 
#
# Total GULP energy -100298.890130 kJ/mol
# GULP energy per Si atom -5572.160563 kJ/mol
# Density = 1.809238 g / cm^3
# Si number density = 18.133653 Si / 1000 Ang^3
#
#
#
# Elastic Constant Matrix: (Units=GPa)
#
#
# Indices 1 2 3 4 5 6 
#
# 1 127.6328 41.7231 43.7909 -0.0001 18.1605 0.0002
# 2 41.7231 123.6957 49.1578 -0.0001 7.5870 0.0001
# 3 43.7909 49.1578 88.6790 -0.0004 10.0714 0.0007
# 4 -0.0001 -0.0001 -0.0004 58.0841 -0.0001 -13.6127
# 5 18.1605 7.5870 10.0714 -0.0001 7.4952 0.0000
# 6 0.0002 0.0001 0.0007 -13.6127 0.0000 28.1523
#
#
#
# Elastic Compliance Matrix: (Units=1/GPa)
#
#
# Indices 1 2 3 4 5 6 
#
# 1 0.013023 -0.001806 -0.002424 0.000000 -0.026470 0.000000
# 2 -0.001806 0.010687 -0.005075 0.000000 0.000378 0.000000
# 3 -0.002424 -0.005075 0.016564 0.000000 -0.011248 0.000000
# 4 0.000000 0.000000 0.000000 0.019417 0.000000 0.009389
# 5 -0.026470 0.000378 -0.011248 0.000000 0.212284 0.000001
# 6 0.000000 0.000000 0.000000 0.009389 0.000001 0.040061
#
#
# Mechanical properties :
#
#
# Convention : Reuss Voigt Hill
#
# Bulk Modulus (GPa) = 46.15812 67.70567 56.93190
# Shear Modulus (GPa) = 14.79867 32.43539 23.61703
#
# Velocity S-wave (km/s) = 2.85983 4.23387 3.61277
# Velocity P-wave (km/s) = 6.03444 7.83064 6.99047
#
# Compressibility (1/GPa) = 0.02166466
#
# Stress axis : x y z
#
# Youngs Moduli (GPa) = 76.78582 93.56810 60.37053
#
# Poissons Ratio (x) = 0.16899 0.14632
# Poissons Ratio (y) = 0.13868 0.30641
# Poissons Ratio (z) = 0.18611 0.47490
#
# Static dielectric constant tensor:
#      x y z
#    x 1.634070 0.000000 0.022290 
#    y 0.000000 2.154690 0.000000 
#    z 0.022290 0.000000 1.646680 
# 
# From -- ./inp_files/266779.got.cif
#   From: 2010.05.17/outbox.cif.g08.bks.cpg/sg12_134_cif.got.tgz:266779.got - 2010.06.03 13:09:07.
