data_PCOD9200476
_publ_section_title
;
Structure prediction by ZEFSAII (Michael W. Deem and Ramdas Pophale) SiO2 
 PCOD9200476
Probable space group: C 2/M
;
_chemical_formula_sum "Si O2"
_cell_formula_units_Z 64
_cell_length_a 22.179408
_cell_length_b 20.786319
_cell_length_c 8.700485
_cell_angle_alpha 90.000000
_cell_angle_beta 54.952310
_cell_angle_gamma 90.000000
_cell_volume 3283.841462
_symmetry_space_group_name_H-M "C 2/M"
_symmetry_group_IT_number 12
_symmetry_cell_setting 'monoclinic'
loop_
_space_group_symop_operation_xyz
x,y,z
-x,y,-z
-x,-y,-z
x,-y,z
1/2+x,1/2+y,z
1/2-x,1/2+y,-z
1/2-x,1/2-y,-z
1/2+x,1/2-y,z
loop_
_atom_site_type_symbol
_atom_site_label
_atom_site_fract_x
_atom_site_fract_y
_atom_site_fract_z
Si Si1 0.418619 0.794358 0.596060
Si Si2 0.231355 0.187171 0.430205
Si Si3 0.931960 0.923081 0.773964
Si Si4 0.418327 0.926823 0.097473
Si Si5 0.577019 0.350561 0.531731
Si Si6 0.330253 0.891425 0.507863
Si Si7 0.271104 0.428051 0.069710
Si Si8 0.821399 0.337311 0.015193
O O1 0.500000 0.823817 0.500000
O O2 0.431297 0.721541 0.522415
O O3 0.373253 0.834477 0.535114
O O4 0.372163 0.797969 0.822264
O O5 0.250000 0.250000 0.500000
O O6 0.149270 0.160047 0.528389
O O7 0.274287 0.133910 0.462273
O O8 0.268547 0.200154 0.209880
O O9 0.912660 0.898760 0.628716
O O10 0.002947 0.880098 0.716190
O O11 0.948360 0.000000 0.752342
O O12 0.856388 0.911132 0.977682
O O13 0.386555 0.928466 0.316924
O O14 0.421017 0.000000 0.033523
O O15 0.500000 0.900092 0.000000
O O16 0.372743 0.882534 0.046801
O O17 0.281681 0.926774 0.705775
O O18 0.272810 0.500000 0.000928
O O19 0.233616 0.380252 0.005231
#
# Coordination Sequence:
#
# PCOD9200476 Si02
#       8
#     8   8   8   8   8   8   8   8
#     4  11  21  36  60  86 120 154 199 260 308 365
#     4  11  22  39  57  85 124 160 201 248 304 372
#     4  10  21  39  64  92 123 158 205 259 303 360
#     4  10  20  37  58  82 120 161 199 245 306 374
#     4  11  20  37  59  87 120 154 204 246 312 363
#     4  10  22  37  58  87 124 157 200 254 310 363
#     4  10  20  38  62  90 120 157 209 258 305 363
#     4  10  22  36  58  87 116 158 204 254 306 363
#
# _framework density 19.489370000000001
#
# number of rings (size 3 to 8) (size 9 to 14) (size 15 to 20)
#    0.000    1.625    3.750    2.250    0.000    1.500 
#    0.000    2.500    0.000    7.500    0.000    0.000 
#    0.000    0.000    0.000    0.000    0.000    0.000 
#
# Total GULP energy -178312.744958 kJ/mol
# GULP energy per Si atom -5572.273280 kJ/mol
# Density = 1.944501 g / cm^3
# Si number density = 19.489370 Si / 1000 Ang^3
#
#
#
# Elastic Constant Matrix: (Units=GPa)
#
#
# Indices 1 2 3 4 5 6 
#
# 1 138.7248 43.4083 56.4996 0.0000 -26.0991 0.0000
# 2 43.4083 79.2210 25.8523 0.0000 -16.3066 0.0000
# 3 56.4996 25.8523 97.6810 0.0000 -21.7569 0.0000
# 4 0.0000 0.0000 0.0000 8.5197 0.0000 -16.5916
# 5 -26.0991 -16.3066 -21.7569 0.0000 34.0806 0.0000
# 6 0.0000 0.0000 0.0000 -16.5916 0.0000 -8.8035
#
#
#
# Elastic Compliance Matrix: (Units=1/GPa)
#
#
# Indices 1 2 3 4 5 6 
#
# 1 0.010906 -0.003750 -0.004494 0.000000 0.003689 0.000000
# 2 -0.003750 0.015873 -0.001142 0.000000 0.003994 0.000000
# 3 -0.004494 -0.001142 0.014282 0.000000 0.005129 0.000000
# 4 0.000000 0.000000 0.000000 0.025133 0.000000 -0.047366
# 5 0.003689 0.003994 0.005129 0.000000 0.037352 0.000000
# 6 0.000000 0.000000 0.000000 -0.047366 0.000000 -0.024322
#
#
# Mechanical properties :
#
#
# Convention : Reuss Voigt Hill
#
# Bulk Modulus (GPa) = 44.86853 63.01637 53.94245
# Shear Modulus (GPa) = 47.42687 19.41711 33.42199
#
# Velocity S-wave (km/s) = 4.93838 3.15983 4.14561
# Velocity P-wave (km/s) = 7.45579 6.76141 7.11707
#
# Compressibility (1/GPa) = 0.02228734
#
# Stress axis : x y z
#
# Youngs Moduli (GPa) = 91.68969 63.00197 70.02000
#
# Poissons Ratio (x) = 0.23627 0.31469
# Poissons Ratio (y) = 0.34385 0.07998
# Poissons Ratio (z) = 0.41207 0.07196
#
# Static dielectric constant tensor:
#      x y z
#    x 1.719520 0.000000 -0.038820 
#    y 0.000000 1.708190 0.000000 
#    z -0.038820 0.000000 1.733410 
# 
# From -- ./inp_files/99095.got.cif
#   From: 2010.05.17/outbox.cif.g08.bks.cpg/sg12_50_cif.got.tgz:99095.got - 2010.06.03 13:09:07.
