data_PCOD9200830
_publ_section_title
;
Structure prediction by ZEFSAII (Michael W. Deem and Ramdas Pophale) SiO2 
 PCOD9200830
Probable space group: C 2/M
;
_chemical_formula_sum "Si O2"
_cell_formula_units_Z 56
_cell_length_a 17.610706
_cell_length_b 12.974727
_cell_length_c 14.096465
_cell_angle_alpha 90.000000
_cell_angle_beta 60.497247
_cell_angle_gamma 90.000000
_cell_volume 2803.303904
_symmetry_space_group_name_H-M "C 2/M"
_symmetry_group_IT_number 12
_symmetry_cell_setting 'monoclinic'
loop_
_space_group_symop_operation_xyz
x,y,z
-x,y,-z
-x,-y,-z
x,-y,z
1/2+x,1/2+y,z
1/2-x,1/2+y,-z
1/2-x,1/2-y,-z
1/2+x,1/2-y,z
loop_
_atom_site_type_symbol
_atom_site_label
_atom_site_fract_x
_atom_site_fract_y
_atom_site_fract_z
Si Si1 0.047856 0.118211 0.763295
Si Si2 0.400449 0.118486 0.946122
Si Si3 0.153551 0.214158 0.534106
Si Si4 0.593522 0.819139 0.838098
Si Si5 0.507705 0.882850 0.608604
Si Si6 0.784385 0.121261 0.695106
Si Si7 0.378421 0.738368 0.798700
O O1 0.113779 0.134544 0.634426
O O2 0.079602 0.198729 0.823750
O O3 0.953092 0.157991 0.786593
O O4 0.045572 0.000000 0.794401
O O5 0.504142 0.127954 0.857238
O O6 0.350322 0.196190 0.907752
O O7 0.372661 0.000000 0.955564
O O8 0.397265 0.154769 0.056789
O O9 0.250000 0.250000 0.500000
O O10 0.091118 0.313010 0.579094
O O11 0.157827 0.166174 0.426359
O O12 0.682462 0.858129 0.736476
O O13 0.500000 0.885421 0.500000
O O14 0.425949 0.823061 0.703134
O O15 0.513713 0.000000 0.639539
O O16 0.808968 0.179726 0.777077
O O17 0.799127 0.000000 0.696175
#
# Coordination Sequence:
#
# PCOD9200830 Si02
#       7
#     8   8   8   8   8   8   8
#     4  10  21  39  59  83 119 159 193 237 291 343
#     4  10  20  40  66  88 114 154 195 247 298 341
#     4  11  22  39  55  90 121 150 197 240 285 358
#     4  10  21  39  61  90 117 145 204 246 287 356
#     4  10  20  37  60  83 117 157 191 237 287 339
#     4  12  23  38  59  86 120 156 191 242 298 346
#     4  10  22  38  57  88 120 151 203 234 284 359
#
# _framework density 19.976427999999999
#
# number of rings (size 3 to 8) (size 9 to 14) (size 15 to 20)
#    0.000    1.571    2.857    3.000    0.000    1.714 
#    0.000   10.000    0.000    0.000    0.000    0.000 
#    0.000    0.000    0.000    0.000    0.000    0.000 
#
# Total GULP energy -156437.396918 kJ/mol
# GULP energy per Si atom -5587.049890 kJ/mol
# Density = 1.993096 g / cm^3
# Si number density = 19.976428 Si / 1000 Ang^3
#
#
#
# Elastic Constant Matrix: (Units=GPa)
#
#
# Indices 1 2 3 4 5 6 
#
# 1 54.7922 27.9328 7.0837 0.0000 5.1364 0.0000
# 2 27.9328 157.8432 22.4744 0.0000 11.1548 0.0000
# 3 7.0837 22.4744 47.1800 0.0000 8.2915 0.0000
# 4 0.0000 0.0000 0.0000 18.8821 0.0000 10.8461
# 5 5.1364 11.1548 8.2915 0.0000 30.7475 0.0000
# 6 0.0000 0.0000 0.0000 10.8461 0.0000 18.3820
#
#
#
# Elastic Compliance Matrix: (Units=1/GPa)
#
#
# Indices 1 2 3 4 5 6 
#
# 1 0.020251 -0.003288 -0.001144 0.000000 -0.001882 0.000000
# 2 -0.003288 0.007413 -0.002794 0.000000 -0.001387 0.000000
# 3 -0.001144 -0.002794 0.023605 0.000000 -0.005161 0.000000
# 4 0.000000 0.000000 0.000000 0.080112 0.000000 -0.047269
# 5 -0.001882 -0.001387 -0.005161 0.000000 0.034732 0.000000
# 6 0.000000 0.000000 0.000000 -0.047269 0.000000 0.082292
#
#
# Mechanical properties :
#
#
# Convention : Reuss Voigt Hill
#
# Bulk Modulus (GPa) = 27.16040 41.64414 34.40227
# Shear Modulus (GPa) = 18.17330 27.09063 22.63197
#
# Velocity S-wave (km/s) = 3.01946 3.68656 3.36956
# Velocity P-wave (km/s) = 5.07759 6.24603 5.69187
#
# Compressibility (1/GPa) = 0.03681831
#
# Stress axis : x y z
#
# Youngs Moduli (GPa) = 49.37975 134.89717 42.36396
#
# Poissons Ratio (x) = 0.44353 0.04845
# Poissons Ratio (y) = 0.16236 0.11836
# Poissons Ratio (z) = 0.05647 0.37689
#
# Static dielectric constant tensor:
#      x y z
#    x 1.692930 0.000000 0.009190 
#    y 0.000000 1.675510 0.000000 
#    z 0.009190 0.000000 1.753130 
# 
# From -- ./inp_files/223713.got.cif
#   From: 2010.05.17/outbox.cif.g08.bks.cpg/sg12_112_cif.got.tgz:223713.got - 2010.06.03 13:09:07.
