data_PCOD9200735
_publ_section_title
;
Structure prediction by ZEFSAII (Michael W. Deem and Ramdas Pophale) SiO2 
 PCOD9200735
Probable space group: C 2/M
;
_chemical_formula_sum "Si O2"
_cell_formula_units_Z 52
_cell_length_a 16.150143
_cell_length_b 28.884525
_cell_length_c 7.608677
_cell_angle_alpha 90.000000
_cell_angle_beta 43.657671
_cell_angle_gamma 90.000000
_cell_volume 2450.297910
_symmetry_space_group_name_H-M "C 2/M"
_symmetry_group_IT_number 12
_symmetry_cell_setting 'monoclinic'
loop_
_space_group_symop_operation_xyz
x,y,z
-x,y,-z
-x,-y,-z
x,-y,z
1/2+x,1/2+y,z
1/2-x,1/2+y,-z
1/2-x,1/2-y,-z
1/2+x,1/2-y,z
loop_
_atom_site_type_symbol
_atom_site_label
_atom_site_fract_x
_atom_site_fract_y
_atom_site_fract_z
Si Si1 0.853516 0.734278 0.691178
Si Si2 0.881468 0.169220 0.555067
Si Si3 0.055660 0.500000 0.649851
Si Si4 0.351689 0.448896 0.035846
Si Si5 0.117909 0.071906 0.600406
Si Si6 0.207127 0.362329 0.116995
Si Si7 0.699235 0.000000 0.793672
Si Si8 0.500000 0.079929 0.500000
O O1 0.856343 0.776977 0.548300
O O2 0.813226 0.681386 0.722431
O O3 0.000000 0.730286 0.500000
O O4 0.750000 0.750000 0.000000
O O5 0.887411 0.127674 0.406867
O O6 0.000000 0.167961 0.500000
O O7 0.771409 0.155394 0.846460
O O8 0.075477 0.453591 0.509366
O O9 0.130472 0.500000 0.711584
O O10 0.911729 0.500000 0.903844
O O11 0.304054 0.500000 0.063306
O O12 0.359884 0.444351 0.234465
O O13 0.286367 0.403150 0.072931
O O14 0.486304 0.445742 0.754321
O O15 0.217102 0.045543 0.330971
O O16 0.082570 0.386453 0.261691
#
# Coordination Sequence:
#
# PCOD9200735 Si02
#       8
#     8   8   4   8   8   8   4   4
#     4   9  19  37  61  88 118 151 190 245 306 356
#     4  10  20  37  59  88 114 143 189 246 294 344
#     4  10  24  36  53  78 111 155 191 231 277 341
#     4  11  22  37  56  85 120 161 194 234 295 355
#     4  11  20  37  58  82 116 155 192 238 290 351
#     4  11  21  37  60  87 114 150 193 242 292 345
#     4  11  20  39  56  73 111 158 195 225 287 344
#     4  11  22  36  52  82 116 142 192 233 274 340
#
# _framework density 21.221909
#
# number of rings (size 3 to 8) (size 9 to 14) (size 15 to 20)
#    0.000    1.538    3.846    2.308    2.154    0.000 
#    1.385    1.923    0.000    0.000    0.000    0.000 
#    0.000    0.000    0.000    0.000    0.000    0.000 
#
# Total GULP energy -144828.753388 kJ/mol
# GULP energy per Si atom -5570.336669 kJ/mol
# Density = 2.117361 g / cm^3
# Si number density = 21.221909 Si / 1000 Ang^3
#
#
#
# Elastic Constant Matrix: (Units=GPa)
#
#
# Indices 1 2 3 4 5 6 
#
# 1 30.2313 27.6617 7.3434 0.0000 -12.2263 0.0000
# 2 27.6617 196.0545 20.1346 0.0000 -10.6096 0.0000
# 3 7.3434 20.1346 89.6510 0.0000 -27.6262 0.0000
# 4 0.0000 0.0000 0.0000 39.5242 0.0000 -4.1079
# 5 -12.2263 -10.6096 -27.6262 0.0000 27.7711 0.0000
# 6 0.0000 0.0000 0.0000 -4.1079 0.0000 22.4849
#
#
#
# Elastic Compliance Matrix: (Units=1/GPa)
#
#
# Indices 1 2 3 4 5 6 
#
# 1 0.046471 -0.005789 0.004494 0.000000 0.022718 0.000000
# 2 -0.005789 0.005970 -0.001369 0.000000 -0.001629 0.000000
# 3 0.004494 -0.001369 0.016644 0.000000 0.018013 0.000000
# 4 0.000000 0.000000 0.000000 0.025791 0.000000 0.004712
# 5 0.022718 -0.001629 0.018013 0.000000 0.063307 0.000000
# 6 0.000000 0.000000 0.000000 0.004712 0.000000 0.045335
#
#
# Mechanical properties :
#
#
# Convention : Reuss Voigt Hill
#
# Bulk Modulus (GPa) = 15.68402 47.35734 31.52068
# Shear Modulus (GPa) = 21.72985 35.34251 28.53618
#
# Velocity S-wave (km/s) = 3.20337 4.08533 3.67093
# Velocity P-wave (km/s) = 4.59224 6.67960 5.73174
#
# Compressibility (1/GPa) = 0.06375915
#
# Stress axis : x y z
#
# Youngs Moduli (GPa) = 21.51865 167.51067 60.07995
#
# Poissons Ratio (x) = 0.96970 -0.27002
# Poissons Ratio (y) = 0.12457 0.08223
# Poissons Ratio (z) = -0.09671 0.22927
#
# Static dielectric constant tensor:
#      x y z
#    x 1.747170 0.000000 -0.033100 
#    y 0.000000 1.803960 0.000000 
#    z -0.033100 0.000000 1.820610 
# 
# From -- ./inp_files/79851.got.cif
#   From: 2010.05.17/outbox.cif.g08.bks.cpg/sg12_40_cif.got.tgz:79851.got - 2010.06.03 13:09:07.
