data_PCOD9200592
_publ_section_title
;
Structure prediction by ZEFSAII (Michael W. Deem and Ramdas Pophale) SiO2 
 PCOD9200592
Probable space group: C 2/M
;
_chemical_formula_sum "Si O2"
_cell_formula_units_Z 56
_cell_length_a 19.532836
_cell_length_b 8.895005
_cell_length_c 26.772778
_cell_angle_alpha 90.000000
_cell_angle_beta 38.040492
_cell_angle_gamma 90.000000
_cell_volume 2866.417685
_symmetry_space_group_name_H-M "C 2/M"
_symmetry_group_IT_number 12
_symmetry_cell_setting 'monoclinic'
loop_
_space_group_symop_operation_xyz
x,y,z
-x,y,-z
-x,-y,-z
x,-y,z
1/2+x,1/2+y,z
1/2-x,1/2+y,-z
1/2-x,1/2-y,-z
1/2+x,1/2-y,z
loop_
_atom_site_type_symbol
_atom_site_label
_atom_site_fract_x
_atom_site_fract_y
_atom_site_fract_z
Si Si1 0.599001 0.179225 0.480487
Si Si2 0.291326 0.178580 0.309465
Si Si3 0.236485 0.821639 0.133271
Si Si4 0.050229 0.828551 0.027367
Si Si5 0.127939 0.320244 0.574351
Si Si6 0.002379 0.681106 0.251440
Si Si7 0.687537 0.319382 0.805809
O O1 0.500000 0.216934 0.500000
O O2 0.706830 0.268825 0.400846
O O3 0.570046 0.211457 0.554552
O O4 0.621342 0.000000 0.463743
O O5 0.414809 0.215892 0.258111
O O6 0.262650 0.262216 0.274576
O O7 0.283981 0.000000 0.306796
O O8 0.120830 0.758969 0.179095
O O9 0.257842 0.750438 0.176066
O O10 0.234620 0.000000 0.138563
O O11 0.339970 0.770095 0.039418
O O12 0.943573 0.774961 0.119628
O O13 0.078696 0.000000 0.025107
O O14 0.000000 0.833249 0.000000
O O15 0.140799 0.500000 0.571961
O O16 0.250000 0.250000 0.500000
O O17 0.056613 0.269623 0.662750
O O18 0.017199 0.500000 0.244856
O O19 0.693276 0.500000 0.806487
#
# Coordination Sequence:
#
# PCOD9200592 Si02
#       7
#     8   8   8   8   8   8   8
#     4  10  22  38  58  84 112 149 193 235 284 343
#     4  11  23  39  58  84 116 151 192 240 291 334
#     4  11  22  35  58  91 118 146 190 238 280 332
#     4   8  16  34  58  83 112 150 188 227 282 341
#     4  10  20  37  59  81 109 148 191 232 283 339
#     4  10  22  39  57  80 116 157 192 232 285 341
#     4  10  21  38  61  85 115 153 190 231 286 345
#
# _framework density 19.536580000000001
#
# number of rings (size 3 to 8) (size 9 to 14) (size 15 to 20)
#    0.000    2.000    1.429    3.000    2.000    5.143 
#    0.000    0.714    0.000    0.000    0.000    0.000 
#    0.000    0.000    0.000    0.000    0.000    0.000 
#
# Total GULP energy -156333.207879 kJ/mol
# GULP energy per Si atom -5583.328853 kJ/mol
# Density = 1.949211 g / cm^3
# Si number density = 19.536580 Si / 1000 Ang^3
#
#
#
# Elastic Constant Matrix: (Units=GPa)
#
#
# Indices 1 2 3 4 5 6 
#
# 1 56.1858 23.6356 -8.2861 0.0001 -13.1707 -0.0001
# 2 23.6356 40.7161 5.8374 0.0001 -15.8897 -0.0003
# 3 -8.2861 5.8374 26.3068 0.0000 -10.8047 -0.0001
# 4 0.0001 0.0001 0.0000 27.1552 0.0000 -4.6519
# 5 -13.1707 -15.8897 -10.8047 0.0000 35.7640 0.0000
# 6 -0.0001 -0.0003 -0.0001 -4.6519 0.0000 22.4039
#
#
#
# Elastic Compliance Matrix: (Units=1/GPa)
#
#
# Indices 1 2 3 4 5 6 
#
# 1 0.028732 -0.015675 0.015999 0.000000 0.008450 0.000000
# 2 -0.015675 0.038305 -0.010067 0.000000 0.008205 0.000000
# 3 0.015999 -0.010067 0.052367 0.000000 0.017240 0.000000
# 4 0.000000 0.000000 0.000000 0.038184 0.000000 0.007928
# 5 0.008450 0.008205 0.017240 0.000000 0.039927 0.000000
# 6 0.000000 0.000000 0.000000 0.007928 0.000000 0.046281
#
#
# Mechanical properties :
#
#
# Convention : Reuss Voigt Hill
#
# Bulk Modulus (GPa) = 10.00823 18.39806 14.20315
# Shear Modulus (GPa) = 16.85838 23.86606 20.36222
#
# Velocity S-wave (km/s) = 2.94073 3.49894 3.23191
# Velocity P-wave (km/s) = 4.08221 5.07555 4.60573
#
# Compressibility (1/GPa) = 0.09991781
#
# Stress axis : x y z
#
# Youngs Moduli (GPa) = 34.80385 26.10629 19.09601
#
# Poissons Ratio (x) = 0.40922 -0.30552
# Poissons Ratio (y) = 0.54555 0.19224
# Poissons Ratio (z) = -0.55683 0.26282
#
# Static dielectric constant tensor:
#      x y z
#    x 1.675090 0.000000 -0.000390 
#    y 0.000000 1.653890 0.000000 
#    z -0.000390 0.000000 1.686540 
# 
# From -- ./inp_files/362930.got.cif
#   From: 2010.05.17/outbox.cif.g08.bks.cpg/sg12_182_cif.got.tgz:362930.got - 2010.06.03 13:09:07.
