data_PCOD9200250
_publ_section_title
;
Structure prediction by ZEFSAII (Michael W. Deem and Ramdas Pophale) SiO2 
 PCOD9200250
Probable space group: C 2/M
;
_chemical_formula_sum "Si O2"
_cell_formula_units_Z 64
_cell_length_a 29.084015
_cell_length_b 25.888599
_cell_length_c 8.291981
_cell_angle_alpha 90.000000
_cell_angle_beta 147.038410
_cell_angle_gamma 90.000000
_cell_volume 3396.888734
_symmetry_space_group_name_H-M "C 2/M"
_symmetry_group_IT_number 12
_symmetry_cell_setting 'monoclinic'
loop_
_space_group_symop_operation_xyz
x,y,z
-x,y,-z
-x,-y,-z
x,-y,z
1/2+x,1/2+y,z
1/2-x,1/2+y,-z
1/2-x,1/2-y,-z
1/2+x,1/2-y,z
loop_
_atom_site_type_symbol
_atom_site_label
_atom_site_fract_x
_atom_site_fract_y
_atom_site_fract_z
Si Si1 0.592284 0.440489 0.197533
Si Si2 0.686764 0.628014 0.725846
Si Si3 0.091519 0.813533 0.687098
Si Si4 0.845929 0.699158 0.136221
Si Si5 0.093381 0.343740 0.345524
Si Si6 0.803425 0.303660 0.656400
Si Si7 0.679142 0.612215 0.197396
Si Si8 0.292415 0.060036 0.291940
O O1 0.617866 0.500000 0.265257
O O2 0.656139 0.407570 0.492063
O O3 0.599642 0.413971 0.046633
O O4 0.500000 0.437816 0.000000
O O5 0.602832 0.653916 0.556616
O O6 0.752974 0.674115 0.884561
O O7 0.736776 0.588729 0.991374
O O8 0.139302 0.759840 0.801124
O O9 0.000000 0.805919 0.500000
O O10 0.145896 0.847850 0.968421
O O11 0.897036 0.675522 0.440448
O O12 0.862620 0.692377 0.991061
O O13 0.150650 0.312247 0.382117
O O14 0.127096 0.402744 0.446883
O O15 0.000000 0.340209 0.000000
O O16 0.750000 0.250000 0.500000
O O17 0.739086 0.351505 0.480276
O O18 0.736133 0.567916 0.286096
O O19 0.308990 0.000000 0.307939
#
# Coordination Sequence:
#
# PCOD9200250 Si02
#       8
#     8   8   8   8   8   8   8   8
#     4  11  22  35  55  84 117 152 190 245 308 350
#     4  10  21  38  58  83 117 151 201 244 287 363
#     4  11  23  36  57  86 117 157 195 239 301 354
#     4  11  23  39  63  85 121 165 197 245 294 351
#     4  10  25  40  58  93 123 153 204 250 300 364
#     4  11  22  38  62  87 117 159 204 242 294 357
#     4  10  20  37  55  83 114 148 199 241 288 362
#     4   9  19  38  63  83 107 152 200 248 300 350
#
# _framework density 18.840771
#
# number of rings (size 3 to 8) (size 9 to 14) (size 15 to 20)
#    0.000    1.625    2.500    2.625    3.500    0.250 
#    0.000    1.250    0.000    6.000    0.000    3.500 
#    0.000    0.000    0.000    0.000    0.000    0.000 
#
# Total GULP energy -178159.362509 kJ/mol
# GULP energy per Si atom -5567.480078 kJ/mol
# Density = 1.879789 g / cm^3
# Si number density = 18.840771 Si / 1000 Ang^3
#
#
#
# Elastic Constant Matrix: (Units=GPa)
#
#
# Indices 1 2 3 4 5 6 
#
# 1 56.7974 50.3706 25.7885 0.0000 -3.9487 0.0000
# 2 50.3706 137.8393 31.2671 0.0000 8.1701 0.0000
# 3 25.7885 31.2671 68.0544 0.0000 -2.2348 0.0000
# 4 0.0000 0.0000 0.0000 17.7922 0.0000 -0.7861
# 5 -3.9487 8.1701 -2.2348 0.0000 28.7628 0.0000
# 6 0.0000 0.0000 0.0000 -0.7861 0.0000 22.2050
#
#
#
# Elastic Compliance Matrix: (Units=1/GPa)
#
#
# Indices 1 2 3 4 5 6 
#
# 1 0.029644 -0.009719 -0.006560 0.000000 0.006321 0.000000
# 2 -0.009719 0.011484 -0.001748 0.000000 -0.004732 0.000000
# 3 -0.006560 -0.001748 0.018016 0.000000 0.000996 0.000000
# 4 0.000000 0.000000 0.000000 0.056293 0.000000 0.001993
# 5 0.006321 -0.004732 0.000996 0.000000 0.037056 0.000000
# 6 0.000000 0.000000 0.000000 0.001993 0.000000 0.045105
#
#
# Mechanical properties :
#
#
# Convention : Reuss Voigt Hill
#
# Bulk Modulus (GPa) = 43.31305 53.06037 48.18671
# Shear Modulus (GPa) = 20.71679 24.10300 22.40989
#
# Velocity S-wave (km/s) = 3.31958 3.58061 3.45256
# Velocity P-wave (km/s) = 6.14261 6.73187 6.44398
#
# Compressibility (1/GPa) = 0.02308773
#
# Stress axis : x y z
#
# Youngs Moduli (GPa) = 33.73351 87.08013 55.50602
#
# Poissons Ratio (x) = 0.84637 0.36413
# Poissons Ratio (y) = 0.32787 0.09705
# Poissons Ratio (z) = 0.22130 0.15225
#
# Static dielectric constant tensor:
#      x y z
#    x 1.734370 0.000000 -0.030720 
#    y 0.000000 1.619290 0.000000 
#    z -0.030720 0.000000 1.631870 
# 
# From -- ./inp_files/113653.got.cif
#   From: 2010.05.17/outbox.cif.g08.bks.cpg/sg12_57_cif.got.tgz:113653.got - 2010.06.03 13:09:07.
