data_PCOD9200955
_publ_section_title
;
Structure prediction by ZEFSAII (Michael W. Deem and Ramdas Pophale) SiO2 
 PCOD9200955
Probable space group: C 2/M
;
_chemical_formula_sum "Si O2"
_cell_formula_units_Z 56
_cell_length_a 9.310450
_cell_length_b 17.416636
_cell_length_c 21.892156
_cell_angle_alpha 90.000000
_cell_angle_beta 45.057218
_cell_angle_gamma 90.000000
_cell_volume 2512.706458
_symmetry_space_group_name_H-M "C 2/M"
_symmetry_group_IT_number 12
_symmetry_cell_setting 'monoclinic'
loop_
_space_group_symop_operation_xyz
x,y,z
-x,y,-z
-x,-y,-z
x,-y,z
1/2+x,1/2+y,z
1/2-x,1/2+y,-z
1/2-x,1/2-y,-z
1/2+x,1/2-y,z
loop_
_atom_site_type_symbol
_atom_site_label
_atom_site_fract_x
_atom_site_fract_y
_atom_site_fract_z
Si Si1 0.215016 0.665745 0.710980
Si Si2 0.636076 0.913408 0.859030
Si Si3 0.060116 0.588592 0.635759
Si Si4 0.125301 0.174306 0.525928
Si Si5 0.391388 0.287832 0.857044
Si Si6 0.232625 0.126092 0.929680
Si Si7 0.831990 0.913100 0.182071
O O1 0.189735 0.604410 0.772622
O O2 0.456606 0.673124 0.629352
O O3 0.138825 0.638857 0.668140
O O4 0.079158 0.740522 0.769264
O O5 0.749847 0.844444 0.859896
O O6 0.390639 0.905523 0.931826
O O7 0.692344 0.000000 0.860586
O O8 0.097829 0.500000 0.638602
O O9 0.816484 0.598255 0.714706
O O10 0.198131 0.610587 0.536391
O O11 0.250000 0.250000 0.500000
O O12 0.000000 0.175950 0.500000
O O13 0.258799 0.218182 0.923178
O O14 0.502259 0.346321 0.869139
O O15 0.292411 0.097419 0.843368
O O16 0.000000 0.101337 0.000000
O O17 0.910528 0.000000 0.160734
#
# Coordination Sequence:
#
# PCOD9200955 Si02
#       7
#     8   8   8   8   8   8   8
#     4  10  21  35  61  86 120 155 203 248 291 342
#     4  11  23  39  62  91 121 155 198 246 294 350
#     4  10  20  37  60  87 116 156 204 249 295 349
#     4  10  22  35  57  84 116 157 200 244 293 348
#     4  11  23  38  63  90 123 156 196 245 299 357
#     4  11  24  42  66  90 115 154 199 241 292 359
#     4  11  22  40  62  87 122 160 196 243 302 357
#
# _framework density 22.286726999999999
#
# number of rings (size 3 to 8) (size 9 to 14) (size 15 to 20)
#    0.000    1.429    2.857    3.857    4.000    6.571 
#    0.000    0.000    0.000    3.000    0.000    0.000 
#    0.000    0.000    0.000    0.000    0.000    0.000 
#
# Total GULP energy -156100.653570 kJ/mol
# GULP energy per Si atom -5575.023342 kJ/mol
# Density = 2.223600 g / cm^3
# Si number density = 22.286727 Si / 1000 Ang^3
#
#
#
# Elastic Constant Matrix: (Units=GPa)
#
#
# Indices 1 2 3 4 5 6 
#
# 1 36.0099 11.2181 -5.6919 -0.0001 -3.6155 0.0002
# 2 11.2181 127.2178 9.8855 0.0001 -7.2013 0.0002
# 3 -5.6919 9.8855 102.9974 0.0003 -14.6753 -0.0003
# 4 -0.0001 0.0001 0.0003 16.7976 0.0003 -1.8647
# 5 -3.6155 -7.2013 -14.6753 0.0003 8.2775 -0.0002
# 6 0.0002 0.0002 -0.0003 -1.8647 -0.0002 1.0068
#
#
#
# Elastic Compliance Matrix: (Units=1/GPa)
#
#
# Indices 1 2 3 4 5 6 
#
# 1 0.031203 -0.001967 0.004832 -0.000001 0.020484 -0.000004
# 2 -0.001967 0.008399 0.000005 0.000000 0.006457 -0.000001
# 3 0.004832 0.000005 0.013750 0.000000 0.026493 0.000006
# 4 -0.000001 0.000000 0.000000 0.074941 -0.000001 0.138804
# 5 0.020484 0.006457 0.026493 -0.000001 0.182345 0.000027
# 6 -0.000004 -0.000001 0.000006 0.138804 0.000027 1.250371
#
#
# Mechanical properties :
#
#
# Convention : Reuss Voigt Hill
#
# Bulk Modulus (GPa) = 16.92282 33.00538 24.96410
# Shear Modulus (GPa) = 3.17467 21.93726 12.55597
#
# Velocity S-wave (km/s) = 1.19480 3.14079 2.37614
# Velocity P-wave (km/s) = 3.08434 5.29097 4.33056
#
# Compressibility (1/GPa) = 0.05909180
#
# Stress axis : x y z
#
# Youngs Moduli (GPa) = 32.04780 119.05996 72.72564
#
# Poissons Ratio (x) = 0.23425 -0.35140
# Poissons Ratio (y) = 0.06305 -0.00037
# Poissons Ratio (z) = -0.15485 -0.00061
#
# Static dielectric constant tensor:
#      x y z
#    x 1.931810 0.000000 0.081490 
#    y 0.000000 1.794270 0.000000 
#    z 0.081490 0.000000 2.134090 
# 
# From -- ./inp_files/356647.got.cif
#   From: 2010.05.17/outbox.cif.g08.bks.cpg/sg12_179_cif.got.tgz:356647.got - 2010.06.03 13:09:07.
