data_PCOD9200354
_publ_section_title
;
Structure prediction by ZEFSAII (Michael W. Deem and Ramdas Pophale) SiO2 
 PCOD9200354
Probable space group: C 2/M
;
_chemical_formula_sum "Si O2"
_cell_formula_units_Z 56
_cell_length_a 13.935407
_cell_length_b 14.681866
_cell_length_c 13.404705
_cell_angle_alpha 90.000000
_cell_angle_beta 61.797005
_cell_angle_gamma 90.000000
_cell_volume 2416.971181
_symmetry_space_group_name_H-M "C 2/M"
_symmetry_group_IT_number 12
_symmetry_cell_setting 'monoclinic'
loop_
_space_group_symop_operation_xyz
x,y,z
-x,y,-z
-x,-y,-z
x,-y,z
1/2+x,1/2+y,z
1/2-x,1/2+y,-z
1/2-x,1/2-y,-z
1/2+x,1/2-y,z
loop_
_atom_site_type_symbol
_atom_site_label
_atom_site_fract_x
_atom_site_fract_y
_atom_site_fract_z
Si Si1 0.603239 0.652471 0.896271
Si Si2 0.619339 0.858225 0.968966
Si Si3 0.341006 0.140328 0.817612
Si Si4 0.268332 0.610515 0.557952
Si Si5 0.327698 0.652332 0.749851
Si Si6 0.935910 0.103802 0.299763
Si Si7 0.041724 0.396200 0.581839
O O1 0.614683 0.749901 0.946014
O O2 0.720628 0.606362 0.848634
O O3 0.576832 0.664355 0.792659
O O4 0.500000 0.606441 0.000000
O O5 0.722128 0.891643 0.854482
O O6 0.500000 0.894448 0.000000
O O7 0.640982 0.871972 0.074358
O O8 0.340493 0.246789 0.788391
O O9 0.440942 0.100998 0.706346
O O10 0.266903 0.500000 0.574641
O O11 0.304627 0.654151 0.643787
O O12 0.353187 0.629292 0.427947
O O13 0.148879 0.642588 0.581569
O O14 0.441894 0.606014 0.718728
O O15 0.910139 0.000000 0.281209
O O16 0.074856 0.500000 0.538438
O O17 0.000000 0.350765 0.500000
#
# Coordination Sequence:
#
# PCOD9200354 Si02
#       7
#     8   8   8   8   8   8   8
#     4  10  20  37  57  82 115 152 191 232 284 343
#     4  10  20  38  61  85 117 152 189 238 292 345
#     4  11  22  38  62  90 118 151 192 241 295 345
#     4  10  22  40  60  83 116 159 199 238 288 344
#     4  11  21  37  60  88 119 153 195 240 290 346
#     4  11  23  39  59  84 119 159 197 239 287 344
#     4  10  22  42  64  86 116 153 195 242 291 345
#
# _framework density 23.169494
#
# number of rings (size 3 to 8) (size 9 to 14) (size 15 to 20)
#    0.000    1.571    0.000    6.857    0.000    5.429 
#    0.000    7.143    0.000    3.857    0.000    0.000 
#    0.000    0.000    0.000    0.000    0.000    0.000 
#
# Total GULP energy -156653.303676 kJ/mol
# GULP energy per Si atom -5594.760846 kJ/mol
# Density = 2.311676 g / cm^3
# Si number density = 23.169494 Si / 1000 Ang^3
#
#
#
# Elastic Constant Matrix: (Units=GPa)
#
#
# Indices 1 2 3 4 5 6 
#
# 1 221.4730 -1.7042 99.8054 0.0000 -6.6868 0.0000
# 2 -1.7042 55.3872 -9.1106 0.0000 -4.7548 0.0000
# 3 99.8054 -9.1106 179.2341 0.0000 -1.7176 0.0000
# 4 0.0000 0.0000 0.0000 4.1589 0.0000 -13.5208
# 5 -6.6868 -4.7548 -1.7176 0.0000 59.6142 0.0000
# 6 0.0000 0.0000 0.0000 -13.5208 0.0000 -4.4148
#
#
#
# Elastic Compliance Matrix: (Units=1/GPa)
#
#
# Indices 1 2 3 4 5 6 
#
# 1 0.006054 -0.000322 -0.003382 0.000000 0.000556 0.000000
# 2 -0.000322 0.018355 0.001127 0.000000 0.001460 0.000000
# 3 -0.003382 0.001127 0.007519 0.000000 -0.000073 0.000000
# 4 0.000000 0.000000 0.000000 0.021945 0.000000 -0.067210
# 5 0.000556 0.001460 -0.000073 0.000000 0.016951 0.000000
# 6 0.000000 0.000000 0.000000 -0.067210 0.000000 -0.020673
#
#
# Mechanical properties :
#
#
# Convention : Reuss Voigt Hill
#
# Bulk Modulus (GPa) = 37.35167 70.45283 53.90225
# Shear Modulus (GPa) = 77.84406 36.34525 57.09465
#
# Velocity S-wave (km/s) = 5.80264 3.96494 4.96947
# Velocity P-wave (km/s) = 7.81346 7.17179 7.49949
#
# Compressibility (1/GPa) = 0.02677257
#
# Stress axis : x y z
#
# Youngs Moduli (GPa) = 165.19148 54.47973 132.99506
#
# Poissons Ratio (x) = 0.01756 0.44978
# Poissons Ratio (y) = 0.05324 -0.14982
# Poissons Ratio (z) = 0.55867 -0.06137
#
# Static dielectric constant tensor:
#      x y z
#    x 1.855420 0.000000 -0.038000 
#    y 0.000000 1.964140 0.000000 
#    z -0.038000 0.000000 1.803570 
# 
# From -- ./inp_files/146028.got.cif
#   From: 2010.05.17/outbox.cif.g08.bks.cpg/sg12_74_cif.got.tgz:146028.got - 2010.06.03 13:09:07.
