data_PCOD9200672
_publ_section_title
;
Structure prediction by ZEFSAII (Michael W. Deem and Ramdas Pophale) SiO2 
 PCOD9200672
Probable space group: C 2/M
;
_chemical_formula_sum "Si O2"
_cell_formula_units_Z 60
_cell_length_a 27.241675
_cell_length_b 18.910536
_cell_length_c 9.828839
_cell_angle_alpha 90.000000
_cell_angle_beta 39.381086
_cell_angle_gamma 90.000000
_cell_volume 3212.585160
_symmetry_space_group_name_H-M "C 2/M"
_symmetry_group_IT_number 12
_symmetry_cell_setting 'monoclinic'
loop_
_space_group_symop_operation_xyz
x,y,z
-x,y,-z
-x,-y,-z
x,-y,z
1/2+x,1/2+y,z
1/2-x,1/2+y,-z
1/2-x,1/2-y,-z
1/2+x,1/2-y,z
loop_
_atom_site_type_symbol
_atom_site_label
_atom_site_fract_x
_atom_site_fract_y
_atom_site_fract_z
Si Si1 0.425710 0.500000 0.307274
Si Si2 0.216999 0.722033 0.214483
Si Si3 0.733113 0.813750 0.639178
Si Si4 0.063047 0.274489 0.971428
Si Si5 0.956842 0.738340 0.459748
Si Si6 0.873381 0.882307 0.214153
Si Si7 0.690650 0.579212 0.934392
Si Si8 0.574595 0.597085 0.425411
O O1 0.418756 0.438416 0.204830
O O2 0.423292 0.560529 0.434104
O O3 0.237890 0.783505 0.278393
O O4 0.125891 0.706079 0.400109
O O5 0.256280 0.648840 0.177214
O O6 0.250000 0.750000 0.000000
O O7 0.750000 0.750000 0.500000
O O8 0.787672 0.876062 0.466922
O O9 0.640351 0.820857 0.830180
O O10 0.017827 0.264486 0.208276
O O11 0.090518 0.196394 0.862646
O O12 0.000000 0.302987 0.000000
O O13 0.933603 0.819225 0.538688
O O14 0.000000 0.708937 0.500000
O O15 0.865436 0.907818 0.075148
O O16 0.724748 0.500000 0.845390
O O17 0.646119 0.581186 0.173331
O O18 0.500000 0.574524 0.500000
#
# Coordination Sequence:
#
# PCOD9200672 Si02
#       8
#     4   8   8   8   8   8   8   8
#     4  12  23  38  57  88 119 177 209 237 291 375
#     4  12  22  39  66  89 117 164 207 258 310 364
#     4  10  20  37  59  84 118 155 200 260 294 351
#     4  11  21  36  56  88 119 153 195 260 310 349
#     4  11  22  39  61  91 119 151 202 258 310 363
#     4  11  23  40  58  85 126 163 211 246 302 366
#     4  12  24  41  59  88 122 166 207 250 310 370
#     4  11  23  40  57  84 129 163 201 250 299 363
#
# _framework density 18.676546999999999
#
# number of rings (size 3 to 8) (size 9 to 14) (size 15 to 20)
#    0.000    0.800    5.333    5.800    0.000    0.000 
#    0.000    1.667    0.000    0.400    1.733    1.400 
#    0.000    0.000    0.000    0.000    0.000    0.000 
#
# Total GULP energy -167024.587414 kJ/mol
# GULP energy per Si atom -5567.486247 kJ/mol
# Density = 1.863404 g / cm^3
# Si number density = 18.676547 Si / 1000 Ang^3
#
#
#
# Elastic Constant Matrix: (Units=GPa)
#
#
# Indices 1 2 3 4 5 6 
#
# 1 121.0777 5.7030 48.2612 0.0000 8.7119 0.0000
# 2 5.7030 40.6737 6.4985 0.0000 -2.4203 0.0000
# 3 48.2612 6.4985 92.3596 0.0000 -3.6590 0.0000
# 4 0.0000 0.0000 0.0000 -40.1260 0.0000 56.1374
# 5 8.7119 -2.4203 -3.6590 0.0000 39.3624 0.0000
# 6 0.0000 0.0000 0.0000 56.1374 0.0000 115.8707
#
#
#
# Elastic Compliance Matrix: (Units=1/GPa)
#
#
# Indices 1 2 3 4 5 6 
#
# 1 0.010779 -0.000778 -0.005695 0.000000 -0.002963 0.000000
# 2 -0.000778 0.024996 -0.001289 0.000000 0.001589 0.000000
# 3 -0.005695 -0.001289 0.013992 0.000000 0.002482 0.000000
# 4 0.000000 0.000000 0.000000 -0.014854 0.000000 0.007196
# 5 -0.002963 0.001589 0.002482 0.000000 0.026389 0.000000
# 6 0.000000 0.000000 0.000000 0.007196 0.000000 0.005144
#
#
# Mechanical properties :
#
#
# Convention : Reuss Voigt Hill
#
# Bulk Modulus (GPa) = 29.20362 41.67072 35.43717
# Shear Modulus (GPa) = 53.54208 35.93132 44.73670
#
# Velocity S-wave (km/s) = 5.36007 4.39096 4.89953
# Velocity P-wave (km/s) = 7.34694 6.93308 7.14301
#
# Compressibility (1/GPa) = 0.03424233
#
# Stress axis : x y z
#
# Youngs Moduli (GPa) = 92.77281 40.00719 71.46852
#
# Poissons Ratio (x) = 0.03112 0.40702
# Poissons Ratio (y) = 0.07216 0.09215
# Poissons Ratio (z) = 0.52835 0.05158
#
# Static dielectric constant tensor:
#      x y z
#    x 1.708870 0.000000 -0.002810 
#    y 0.000000 1.621210 0.000000 
#    z -0.002810 0.000000 1.755290 
# 
# From -- ./inp_files/106551.got.cif
#   From: 2010.05.17/outbox.cif.g08.bks.cpg/sg12_54_cif.got.tgz:106551.got - 2010.06.03 13:09:07.
