data_PCOD9200646
_publ_section_title
;
Structure prediction by ZEFSAII (Michael W. Deem and Ramdas Pophale) SiO2 
 PCOD9200646
Probable space group: C 2/M
;
_chemical_formula_sum "Si O2"
_cell_formula_units_Z 48
_cell_length_a 8.704847
_cell_length_b 10.849594
_cell_length_c 25.389336
_cell_angle_alpha 90.000000
_cell_angle_beta 107.125946
_cell_angle_gamma 90.000000
_cell_volume 2291.549658
_symmetry_space_group_name_H-M "C 2/M"
_symmetry_group_IT_number 12
_symmetry_cell_setting 'monoclinic'
loop_
_space_group_symop_operation_xyz
x,y,z
-x,y,-z
-x,-y,-z
x,-y,z
1/2+x,1/2+y,z
1/2-x,1/2+y,-z
1/2-x,1/2-y,-z
1/2+x,1/2-y,z
loop_
_atom_site_type_symbol
_atom_site_label
_atom_site_fract_x
_atom_site_fract_y
_atom_site_fract_z
Si Si1 0.570695 0.361663 0.701323
Si Si2 0.189661 0.863374 0.027776
Si Si3 0.859179 0.364270 0.154539
Si Si4 0.856037 0.782593 0.775130
Si Si5 0.510046 0.139184 0.386098
Si Si6 0.845669 0.794680 0.458775
O O1 0.564921 0.500000 0.678101
O O2 0.747533 0.329162 0.741476
O O3 0.441345 0.351665 0.735571
O O4 0.530486 0.248864 0.658353
O O5 0.242102 0.842894 0.093514
O O6 0.253647 0.000000 0.018927
O O7 0.250000 0.750000 0.000000
O O8 0.000000 0.867361 0.000000
O O9 0.930201 0.500000 0.155156
O O10 0.762556 0.358072 0.199566
O O11 0.001175 0.267195 0.173855
O O12 0.703972 0.139274 0.412389
O O13 0.419146 0.184743 0.430200
O O14 0.458759 0.000000 0.366688
O O15 0.750000 0.750000 0.500000
O O16 0.000000 0.861518 0.500000
#
# Coordination Sequence:
#
# PCOD9200646 Si02
#       6
#     8   8   8   8   8   8
#     4  11  24  41  61  88 121 157 199 245 296 353
#     4  10  21  37  58  86 119 155 196 243 297 357
#     4  10  20  37  59  83 115 154 196 244 297 352
#     4  10  22  38  60  86 115 153 200 248 296 348
#     4  11  24  41  64  93 124 159 199 243 294 353
#     4   9  21  41  63  91 122 155 194 243 292 341
#
# _framework density 20.946525000000001
#
# number of rings (size 3 to 8) (size 9 to 14) (size 15 to 20)
#    0.000    1.833    0.000    3.000    0.000   11.667 
#    0.000    9.167    0.000    0.000    0.000    0.000 
#    0.000    0.000    0.000    0.000    0.000    0.000 
#
# Total GULP energy -133859.105340 kJ/mol
# GULP energy per Si atom -5577.462723 kJ/mol
# Density = 2.089885 g / cm^3
# Si number density = 20.946525 Si / 1000 Ang^3
#
#
#
# Elastic Constant Matrix: (Units=GPa)
#
#
# Indices 1 2 3 4 5 6 
#
# 1 81.1724 29.2254 12.5721 0.0000 7.6697 0.0000
# 2 29.2254 158.2682 53.0373 0.0000 -1.9330 0.0000
# 3 12.5721 53.0373 86.6144 0.0000 9.7706 0.0000
# 4 0.0000 0.0000 0.0000 64.2600 0.0000 -5.3645
# 5 7.6697 -1.9330 9.7706 0.0000 35.4180 0.0000
# 6 0.0000 0.0000 0.0000 -5.3645 0.0000 13.6245
#
#
#
# Elastic Compliance Matrix: (Units=1/GPa)
#
#
# Indices 1 2 3 4 5 6 
#
# 1 0.013522 -0.002505 -0.000085 0.000000 -0.003041 0.000000
# 2 -0.002505 0.008531 -0.005134 0.000000 0.002424 0.000000
# 3 -0.000085 -0.005134 0.015204 0.000000 -0.004456 0.000000
# 4 0.000000 0.000000 0.000000 0.016091 0.000000 0.006336
# 5 -0.003041 0.002424 -0.004456 0.000000 0.030254 0.000000
# 6 0.000000 0.000000 0.000000 0.006336 0.000000 0.075892
#
#
# Mechanical properties :
#
#
# Convention : Reuss Voigt Hill
#
# Bulk Modulus (GPa) = 45.85483 57.30273 51.57878
# Shear Modulus (GPa) = 27.44052 38.07519 32.75785
#
# Velocity S-wave (km/s) = 3.62336 4.26811 3.95888
# Velocity P-wave (km/s) = 6.28043 7.19063 6.75089
#
# Compressibility (1/GPa) = 0.02180795
#
# Stress axis : x y z
#
# Youngs Moduli (GPa) = 73.95285 117.21965 65.77209
#
# Poissons Ratio (x) = 0.29369 0.00562
# Poissons Ratio (y) = 0.18529 0.33765
# Poissons Ratio (z) = 0.00632 0.60177
#
# Static dielectric constant tensor:
#      x y z
#    x 1.741840 0.000000 0.026250 
#    y 0.000000 1.759270 0.000000 
#    z 0.026250 0.000000 1.778680 
# 
# From -- ./inp_files/332270.got.cif
#   From: 2010.05.17/outbox.cif.g08.bks.cpg/sg12_167_cif.got.tgz:332270.got - 2010.06.03 13:09:07.
