data_PCOD9200800
_publ_section_title
;
Structure prediction by ZEFSAII (Michael W. Deem and Ramdas Pophale) SiO2 
 PCOD9200800
Probable space group: C 2/M
;
_chemical_formula_sum "Si O2"
_cell_formula_units_Z 64
_cell_length_a 20.132228
_cell_length_b 31.494528
_cell_length_c 15.135792
_cell_angle_alpha 90.000000
_cell_angle_beta 160.089513
_cell_angle_gamma 90.000000
_cell_volume 3268.248582
_symmetry_space_group_name_H-M "C 2/M"
_symmetry_group_IT_number 12
_symmetry_cell_setting 'monoclinic'
loop_
_space_group_symop_operation_xyz
x,y,z
-x,y,-z
-x,-y,-z
x,-y,z
1/2+x,1/2+y,z
1/2-x,1/2+y,-z
1/2-x,1/2-y,-z
1/2+x,1/2-y,z
loop_
_atom_site_type_symbol
_atom_site_label
_atom_site_fract_x
_atom_site_fract_y
_atom_site_fract_z
Si Si1 0.796949 0.708808 0.290361
Si Si2 0.714309 0.364862 0.308073
Si Si3 0.184874 0.548029 0.022306
Si Si4 0.966540 0.171559 0.753188
Si Si5 0.768135 0.699730 0.709729
Si Si6 0.531050 0.581461 0.766867
Si Si7 0.219194 0.607432 0.231933
Si Si8 0.764619 0.952786 0.590194
O O1 0.832270 0.667573 0.396158
O O2 0.757411 0.752299 0.291379
O O3 0.000000 0.716848 0.500000
O O4 0.619587 0.699123 0.000780
O O5 0.699218 0.347005 0.388347
O O6 0.750106 0.414752 0.357676
O O7 0.500000 0.359977 0.000000
O O8 0.247310 0.500000 0.123835
O O9 0.288728 0.560379 0.059478
O O10 0.234221 0.581733 0.159957
O O11 0.950152 0.547847 0.721674
O O12 0.852533 0.194369 0.531924
O O13 0.076760 0.129509 0.855505
O O14 0.714310 0.656638 0.696256
O O15 0.000000 0.695212 0.000000
O O16 0.360965 0.586458 0.481377
O O17 0.432874 0.558018 0.728406
O O18 0.000000 0.605415 0.000000
O O19 0.798080 0.000000 0.668051
#
# Coordination Sequence:
#
# PCOD9200800 Si02
#       8
#     8   8   8   8   8   8   8   8
#     4  11  24  39  60  91 122 156 199 250 306 366
#     4   9  20  40  63  84 113 156 201 245 304 360
#     4  11  23  35  56  88 121 161 204 249 302 357
#     4   9  21  41  61  89 117 155 203 246 300 362
#     4  10  22  39  63  88 119 157 202 250 302 362
#     4  10  20  37  60  82 119 161 200 247 301 357
#     4  10  20  38  57  82 117 161 205 248 299 361
#     4  10  21  37  59  87 118 155 203 252 301 362
#
# _framework density 19.582355
#
# number of rings (size 3 to 8) (size 9 to 14) (size 15 to 20)
#    0.000    2.000    1.250    1.875    3.500    6.500 
#    0.000    0.000    0.000    0.375    0.000    0.000 
#    0.000    0.000    0.000    0.000    0.000    0.000 
#
# Total GULP energy -178289.890915 kJ/mol
# GULP energy per Si atom -5571.559091 kJ/mol
# Density = 1.953778 g / cm^3
# Si number density = 19.582355 Si / 1000 Ang^3
#
#
#
# Elastic Constant Matrix: (Units=GPa)
#
#
# Indices 1 2 3 4 5 6 
#
# 1 55.0656 37.6813 23.3996 0.0000 -5.1525 -0.0012
# 2 37.6813 95.6790 38.5629 0.0002 -14.7123 0.0003
# 3 23.3996 38.5629 40.5609 0.0000 -5.6354 -0.0023
# 4 0.0000 0.0002 0.0000 23.8170 -0.0001 -13.8878
# 5 -5.1525 -14.7123 -5.6354 -0.0001 19.3763 -0.0019
# 6 -0.0012 0.0003 -0.0023 -13.8878 -0.0019 1.3385
#
#
#
# Elastic Compliance Matrix: (Units=1/GPa)
#
#
# Indices 1 2 3 4 5 6 
#
# 1 0.026658 -0.007106 -0.008740 -0.000001 -0.000849 -0.000002
# 2 -0.007106 0.020307 -0.013889 0.000003 0.009490 0.000005
# 3 -0.008740 -0.013889 0.042845 -0.000008 -0.000409 -0.000014
# 4 -0.000001 0.000003 -0.000008 -0.008314 -0.000009 -0.086264
# 5 -0.000849 0.009490 -0.000409 -0.000009 0.058471 -0.000016
# 6 -0.000002 0.000005 -0.000014 -0.086264 -0.000016 -0.147940
#
#
# Mechanical properties :
#
#
# Convention : Reuss Voigt Hill
#
# Bulk Modulus (GPa) = 32.96174 43.39924 38.18049
# Shear Modulus (GPa) = 81.15417 15.01714 48.08566
#
# Velocity S-wave (km/s) = 6.44457 2.77225 4.96074
# Velocity P-wave (km/s) = 8.49974 5.69716 7.23544
#
# Compressibility (1/GPa) = 0.03033820
#
# Stress axis : x y z
#
# Youngs Moduli (GPa) = 37.51245 49.24293 23.34018
#
# Poissons Ratio (x) = 0.34994 0.20400
# Poissons Ratio (y) = 0.26658 0.32417
# Poissons Ratio (z) = 0.32788 0.68393
#
# Static dielectric constant tensor:
#      x y z
#    x 1.711120 0.000000 -0.009540 
#    y 0.000000 1.765410 0.000000 
#    z -0.009540 0.000000 1.659930 
# 
# From -- ./inp_files/236033.got.cif
#   From: 2010.05.17/outbox.cif.g08.bks.cpg/sg12_119_cif.got.tgz:236033.got - 2010.06.03 13:09:07.
