data_PCOD9200055
_publ_section_title
;
Structure prediction by ZEFSAII (Michael W. Deem and Ramdas Pophale) SiO2 
 PCOD9200055
Probable space group: C 2/M
;
_chemical_formula_sum "Si O2"
_cell_formula_units_Z 56
_cell_length_a 16.728861
_cell_length_b 18.418496
_cell_length_c 13.583376
_cell_angle_alpha 90.000000
_cell_angle_beta 140.263555
_cell_angle_gamma 90.000000
_cell_volume 2675.492969
_symmetry_space_group_name_H-M "C 2/M"
_symmetry_group_IT_number 12
_symmetry_cell_setting 'monoclinic'
loop_
_space_group_symop_operation_xyz
x,y,z
-x,y,-z
-x,-y,-z
x,-y,z
1/2+x,1/2+y,z
1/2-x,1/2+y,-z
1/2-x,1/2-y,-z
1/2+x,1/2-y,z
loop_
_atom_site_type_symbol
_atom_site_label
_atom_site_fract_x
_atom_site_fract_y
_atom_site_fract_z
Si Si1 0.624218 0.586143 0.172062
Si Si2 0.868154 0.669748 0.364787
Si Si3 0.188087 0.916570 0.460414
Si Si4 0.078096 0.414096 0.205510
Si Si5 0.351983 0.281112 0.170011
Si Si6 0.124635 0.770811 0.439416
Si Si7 0.304340 0.088883 0.894278
O O1 0.625395 0.500000 0.158868
O O2 0.748354 0.619738 0.244623
O O3 0.638260 0.597412 0.303210
O O4 0.500000 0.615027 0.000000
O O5 0.860008 0.727342 0.269977
O O6 0.869258 0.718378 0.463197
O O7 0.000000 0.628153 0.500000
O O8 0.337139 0.904221 0.617588
O O9 0.130620 0.855566 0.475288
O O10 0.162482 0.000000 0.462330
O O11 0.066724 0.500000 0.179245
O O12 0.155369 0.390891 0.180638
O O13 0.934505 0.390270 0.073781
O O14 0.491777 0.271374 0.257972
O O15 0.305498 0.360644 0.164902
O O16 0.250000 0.250000 0.000000
O O17 0.250000 0.750000 0.500000
O O18 0.282084 0.000000 0.879021
#
# Coordination Sequence:
#
# PCOD9200055 Si02
#       7
#     8   8   8   8   8   8   8
#     4  10  22  40  63  91 121 158 211 261 304 361
#     4  10  23  43  62  87 128 163 202 254 311 372
#     4  10  20  36  63  92 121 158 208 257 303 372
#     4   8  16  32  60  94 122 159 203 248 312 380
#     4  11  26  40  57  92 126 161 209 257 309 372
#     4  11  23  41  63  89 120 165 206 255 311 377
#     4   9  18  37  61  90 130 165 204 259 314 375
#
# _framework density 20.930721999999999
#
# number of rings (size 3 to 8) (size 9 to 14) (size 15 to 20)
#    0.000    2.143    1.429    1.714    4.000    0.857 
#    2.571    0.714    0.000    5.143    0.000    0.000 
#    0.000    0.000    0.000    0.000    0.000    0.000 
#
# Total GULP energy -155887.464582 kJ/mol
# GULP energy per Si atom -5567.409449 kJ/mol
# Density = 2.088308 g / cm^3
# Si number density = 20.930722 Si / 1000 Ang^3
#
#
#
# Elastic Constant Matrix: (Units=GPa)
#
#
# Indices 1 2 3 4 5 6 
#
# 1 54.2001 23.5976 44.8161 0.0000 19.6073 0.0000
# 2 23.5976 53.7183 34.3657 0.0000 9.2539 0.0000
# 3 44.8161 34.3657 190.6095 0.0000 23.4728 0.0000
# 4 0.0000 0.0000 0.0000 20.1237 0.0000 4.0808
# 5 19.6073 9.2539 23.4728 0.0000 29.7169 0.0000
# 6 0.0000 0.0000 0.0000 4.0808 0.0000 20.6643
#
#
#
# Elastic Compliance Matrix: (Units=1/GPa)
#
#
# Indices 1 2 3 4 5 6 
#
# 1 0.030579 -0.008455 -0.003883 0.000000 -0.014476 0.000000
# 2 -0.008455 0.023805 -0.002302 0.000000 -0.000016 0.000000
# 3 -0.003883 -0.002302 0.006835 0.000000 -0.002121 0.000000
# 4 0.000000 0.000000 0.000000 0.051766 0.000000 -0.010223
# 5 -0.014476 -0.000016 -0.002121 0.000000 0.044882 0.000000
# 6 0.000000 0.000000 0.000000 -0.010223 0.000000 0.050412
#
#
# Mechanical properties :
#
#
# Convention : Reuss Voigt Hill
#
# Bulk Modulus (GPa) = 31.30885 56.00963 43.65924
# Shear Modulus (GPa) = 20.14469 27.15087 23.64778
#
# Velocity S-wave (km/s) = 3.10570 3.60554 3.36491
# Velocity P-wave (km/s) = 5.27743 6.64461 6.00009
#
# Compressibility (1/GPa) = 0.03193985
#
# Stress axis : x y z
#
# Youngs Moduli (GPa) = 32.70270 42.00745 146.29783
#
# Poissons Ratio (x) = 0.35518 0.56801
# Poissons Ratio (y) = 0.27650 0.33678
# Poissons Ratio (z) = 0.12697 0.09670
#
# Static dielectric constant tensor:
#      x y z
#    x 1.777830 0.000000 0.064820 
#    y 0.000000 1.768340 0.000000 
#    z 0.064820 0.000000 1.780350 
# 
# From -- ./inp_files/227631.got.cif
#   From: 2010.05.17/outbox.cif.g08.bks.cpg/sg12_114_cif.got.tgz:227631.got - 2010.06.03 13:09:07.
