data_PCOD9200713
_publ_section_title
;
Structure prediction by ZEFSAII (Michael W. Deem and Ramdas Pophale) SiO2 
 PCOD9200713
Probable space group: C 2/M
;
_chemical_formula_sum "Si O2"
_cell_formula_units_Z 56
_cell_length_a 30.083612
_cell_length_b 12.339166
_cell_length_c 7.206887
_cell_angle_alpha 90.000000
_cell_angle_beta 77.188896
_cell_angle_gamma 90.000000
_cell_volume 2608.648143
_symmetry_space_group_name_H-M "C 2/M"
_symmetry_group_IT_number 12
_symmetry_cell_setting 'monoclinic'
loop_
_space_group_symop_operation_xyz
x,y,z
-x,y,-z
-x,-y,-z
x,-y,z
1/2+x,1/2+y,z
1/2-x,1/2+y,-z
1/2-x,1/2-y,-z
1/2+x,1/2-y,z
loop_
_atom_site_type_symbol
_atom_site_label
_atom_site_fract_x
_atom_site_fract_y
_atom_site_fract_z
Si Si1 0.455715 0.000000 0.284347
Si Si2 0.341047 0.376850 0.459295
Si Si3 0.311253 0.314209 0.083125
Si Si4 0.254849 0.621821 0.793542
Si Si5 0.010272 0.123978 0.272538
Si Si6 0.938676 0.500000 0.850750
Si Si7 0.402731 0.769818 0.895904
Si Si8 0.577125 0.767759 0.693856
O O1 0.509675 0.000000 0.270164
O O2 0.435585 0.885864 0.371501
O O3 0.446635 0.000000 0.068507
O O4 0.354054 0.500000 0.499105
O O5 0.328487 0.374266 0.251382
O O6 0.295627 0.348107 0.615054
O O7 0.383920 0.297728 0.450478
O O8 0.286096 0.205921 0.176340
O O9 0.275630 0.373991 0.982337
O O10 0.353576 0.282163 0.912353
O O11 0.240068 0.500000 0.762993
O O12 0.056778 0.189024 0.197156
O O13 0.000000 0.118971 0.500000
O O14 0.968137 0.194992 0.237042
O O15 0.012260 0.000000 0.200883
O O16 0.912866 0.390729 0.817266
O O17 0.403917 0.782997 0.117634
#
# Coordination Sequence:
#
# PCOD9200713 Si02
#       8
#     4   8   8   8   8   4   8   8
#     4   9  16  32  58  80 116 148 188 232 292 332
#     4  10  21  38  63  90 121 159 199 243 296 356
#     4  10  22  39  62  89 120 151 202 247 295 365
#     4  10  22  40  64  88 120 157 192 249 308 356
#     4  11  24  37  53  81 119 156 193 238 286 343
#     4   9  16  32  56  82 110 146 186 238 284 343
#     4  10  21  36  60  85 110 151 194 238 289 349
#     4  10  20  37  59  86 116 152 196 237 286 347
#
# _framework density 21.467058999999999
#
# number of rings (size 3 to 8) (size 9 to 14) (size 15 to 20)
#    0.000    2.000    1.429    1.714    3.000    4.000 
#    1.286    1.429    7.857    0.000    0.000    0.000 
#    0.000    0.000    0.000    0.000    0.000    0.000 
#
# Total GULP energy -156434.421551 kJ/mol
# GULP energy per Si atom -5586.943627 kJ/mol
# Density = 2.141820 g / cm^3
# Si number density = 21.467059 Si / 1000 Ang^3
#
#
#
# Elastic Constant Matrix: (Units=GPa)
#
#
# Indices 1 2 3 4 5 6 
#
# 1 54.0049 40.1337 3.3948 0.0000 -26.2385 0.0000
# 2 40.1337 126.6168 11.9989 0.0000 -35.0679 0.0000
# 3 3.3948 11.9989 78.5486 0.0000 -22.0023 0.0000
# 4 0.0000 0.0000 0.0000 -94.7537 0.0000 -46.9127
# 5 -26.2385 -35.0679 -22.0023 0.0000 42.8411 0.0000
# 6 0.0000 0.0000 0.0000 -46.9127 0.0000 4.3520
#
#
#
# Elastic Compliance Matrix: (Units=1/GPa)
#
#
# Indices 1 2 3 4 5 6 
#
# 1 0.030133 -0.005494 0.004026 0.000000 0.016025 0.000000
# 2 -0.005494 0.011271 0.000184 0.000000 0.005956 0.000000
# 3 0.004026 0.000184 0.015490 0.000000 0.010572 0.000000
# 4 0.000000 0.000000 0.000000 -0.001665 0.000000 -0.017952
# 5 0.016025 0.005956 0.010572 0.000000 0.043461 0.000000
# 6 0.000000 0.000000 0.000000 -0.017952 0.000000 0.036260
#
#
# Mechanical properties :
#
#
# Convention : Reuss Voigt Hill
#
# Bulk Modulus (GPa) = 18.40763 41.13612 29.77187
# Shear Modulus (GPa) = 32.12791 4.06407 18.09599
#
# Velocity S-wave (km/s) = 3.87281 1.37742 2.90654
# Velocity P-wave (km/s) = 5.34711 4.66195 5.01624
#
# Compressibility (1/GPa) = 0.05432531
#
# Stress axis : x y z
#
# Youngs Moduli (GPa) = 33.18643 88.71970 64.55733
#
# Poissons Ratio (x) = 0.48745 -0.25990
# Poissons Ratio (y) = 0.18234 -0.01187
# Poissons Ratio (z) = -0.13360 -0.01632
#
# Static dielectric constant tensor:
#      x y z
#    x 1.777310 0.000000 0.040850 
#    y 0.000000 1.787940 0.000000 
#    z 0.040850 0.000000 1.806060 
# 
# From -- ./inp_files/109894.got.cif
#   From: 2010.05.17/outbox.cif.g08.bks.cpg/sg12_55_cif.got.tgz:109894.got - 2010.06.03 13:09:07.
