data_PCOD9200051
_publ_section_title
;
Structure prediction by ZEFSAII (Michael W. Deem and Ramdas Pophale) SiO2 
 PCOD9200051
Probable space group: C 2/M
;
_chemical_formula_sum "Si O2"
_cell_formula_units_Z 64
_cell_length_a 17.808486
_cell_length_b 23.514695
_cell_length_c 24.590591
_cell_angle_alpha 90.000000
_cell_angle_beta 160.924403
_cell_angle_gamma 90.000000
_cell_volume 3365.408858
_symmetry_space_group_name_H-M "C 2/M"
_symmetry_group_IT_number 12
_symmetry_cell_setting 'monoclinic'
loop_
_space_group_symop_operation_xyz
x,y,z
-x,y,-z
-x,-y,-z
x,-y,z
1/2+x,1/2+y,z
1/2-x,1/2+y,-z
1/2-x,1/2-y,-z
1/2+x,1/2-y,z
loop_
_atom_site_type_symbol
_atom_site_label
_atom_site_fract_x
_atom_site_fract_y
_atom_site_fract_z
Si Si1 0.424979 0.741205 0.558063
Si Si2 0.003781 0.809974 0.726821
Si Si3 0.423945 0.436619 0.678982
Si Si4 0.423160 0.064676 0.384780
Si Si5 0.753509 0.561772 0.801754
Si Si6 0.180777 0.153614 0.661799
Si Si7 0.670088 0.673009 0.167798
Si Si8 0.578298 0.234479 0.930478
O O1 0.184063 0.768170 0.375282
O O2 0.422842 0.698790 0.608655
O O3 0.531658 0.705479 0.583010
O O4 0.599297 0.792508 0.691202
O O5 0.995581 0.873085 0.746645
O O6 0.261147 0.788371 0.910514
O O7 0.492905 0.500000 0.749061
O O8 0.150002 0.434686 0.501413
O O9 0.544927 0.436057 0.702464
O O10 0.500000 0.076393 0.500000
O O11 0.248640 0.112293 0.244739
O O12 0.331069 0.000000 0.320970
O O13 0.741677 0.500000 0.766214
O O14 0.745266 0.612675 0.754677
O O15 0.000000 0.564700 0.000000
O O16 0.409210 0.183808 0.796695
O O17 0.000000 0.121793 0.500000
O O18 0.554509 0.711453 0.135862
O O19 0.500000 0.668366 0.000000
O O20 0.750000 0.250000 0.000000
#
# Coordination Sequence:
#
# PCOD9200051 Si02
#       8
#     8   8   8   8   8   8   8   8
#     4  10  21  34  59  86 118 160 199 246 308 368
#     4  11  19  36  60  88 119 155 203 255 299 368
#     4  10  20  36  63  92 117 155 210 259 301 359
#     4  10  23  42  64  90 122 165 213 259 312 373
#     4  10  21  39  64  91 119 159 209 258 310 372
#     4  11  23  38  57  86 125 160 199 250 311 369
#     4  11  22  40  61  91 124 161 205 256 314 376
#     4  11  25  38  59  89 126 163 205 253 314 374
#
# _framework density 19.017005999999999
#
# number of rings (size 3 to 8) (size 9 to 14) (size 15 to 20)
#    0.000    1.500    3.750    1.500    1.750    2.500 
#    2.250    0.000    0.000    0.000    0.000    0.000 
#    0.000    0.000    0.000    0.000    0.000    0.000 
#
# Total GULP energy -178223.449594 kJ/mol
# GULP energy per Si atom -5569.482800 kJ/mol
# Density = 1.897372 g / cm^3
# Si number density = 19.017006 Si / 1000 Ang^3
#
#
#
# Elastic Constant Matrix: (Units=GPa)
#
#
# Indices 1 2 3 4 5 6 
#
# 1 65.8823 22.9923 24.1249 0.0199 15.6610 0.0005
# 2 22.9923 113.2650 41.8109 0.0003 4.8135 0.0048
# 3 24.1249 41.8109 83.8465 -0.0855 6.2510 0.0101
# 4 0.0199 0.0003 -0.0855 32.8610 0.0118 5.3732
# 5 15.6610 4.8135 6.2510 0.0118 25.7304 0.0163
# 6 0.0005 0.0048 0.0101 5.3732 0.0163 21.4207
#
#
#
# Elastic Compliance Matrix: (Units=1/GPa)
#
#
# Indices 1 2 3 4 5 6 
#
# 1 0.019903 -0.002163 -0.003845 -0.000021 -0.010775 0.000015
# 2 -0.002163 0.011069 -0.004930 -0.000012 0.000444 0.000003
# 3 -0.003845 -0.004930 0.015529 0.000046 -0.000510 -0.000017
# 4 -0.000021 -0.000012 0.000046 0.031733 -0.000006 -0.007960
# 5 -0.010775 0.000444 -0.000510 -0.000006 0.045464 -0.000033
# 6 0.000015 0.000003 -0.000017 -0.007960 -0.000033 0.048681
#
#
# Mechanical properties :
#
#
# Convention : Reuss Voigt Hill
#
# Bulk Modulus (GPa) = 40.60897 48.98333 44.79615
# Shear Modulus (GPa) = 24.69585 27.60683 26.15134
#
# Velocity S-wave (km/s) = 3.60755 3.81424 3.71233
# Velocity P-wave (km/s) = 6.22518 6.72395 6.47937
#
# Compressibility (1/GPa) = 0.02462510
#
# Stress axis : x y z
#
# Youngs Moduli (GPa) = 50.24445 90.34139 64.39368
#
# Poissons Ratio (x) = 0.19541 0.24757
# Poissons Ratio (y) = 0.10868 0.31749
# Poissons Ratio (z) = 0.19317 0.44542
#
# Static dielectric constant tensor:
#      x y z
#    x 1.704800 0.000020 -0.012450 
#    y 0.000020 1.685220 -0.000080 
#    z -0.012450 -0.000080 1.699150 
# 
# From -- ./inp_files/345035.got.cif
#   From: 2010.05.17/outbox.cif.g08.bks.cpg/sg12_173_cif.got.tgz:345035.got - 2010.06.03 13:09:07.
