data_PCOD9200231
_publ_section_title
;
Structure prediction by ZEFSAII (Michael W. Deem and Ramdas Pophale) SiO2 
 PCOD9200231
Probable space group: C 2/M
;
_chemical_formula_sum "Si O2"
_cell_formula_units_Z 64
_cell_length_a 9.464977
_cell_length_b 24.373235
_cell_length_c 20.941412
_cell_angle_alpha 90.000000
_cell_angle_beta 47.967915
_cell_angle_gamma 90.000000
_cell_volume 3588.335622
_symmetry_space_group_name_H-M "C 2/M"
_symmetry_group_IT_number 12
_symmetry_cell_setting 'monoclinic'
loop_
_space_group_symop_operation_xyz
x,y,z
-x,y,-z
-x,-y,-z
x,-y,z
1/2+x,1/2+y,z
1/2-x,1/2+y,-z
1/2-x,1/2-y,-z
1/2+x,1/2-y,z
loop_
_atom_site_type_symbol
_atom_site_label
_atom_site_fract_x
_atom_site_fract_y
_atom_site_fract_z
Si Si1 0.281600 0.102872 0.914781
Si Si2 0.050017 0.064304 0.411923
Si Si3 0.392669 0.741009 0.197360
Si Si4 0.204022 0.365992 0.757647
Si Si5 0.298617 0.729174 0.082642
Si Si6 0.509887 0.436849 0.102631
Si Si7 0.792229 0.435865 0.584395
Si Si8 0.549889 0.632734 0.753221
O O1 0.508249 0.104164 0.837499
O O2 0.217165 0.166511 0.935044
O O3 0.169290 0.075417 0.889722
O O4 0.197045 0.074960 0.003478
O O5 0.203764 0.103289 0.330961
O O6 0.000000 0.078369 0.500000
O O7 0.858428 0.068538 0.427747
O O8 0.111261 0.000000 0.391459
O O9 0.346431 0.801737 0.237004
O O10 0.284716 0.730729 0.163760
O O11 0.616652 0.739353 0.111608
O O12 0.369843 0.692850 0.254948
O O13 0.362121 0.366470 0.765776
O O14 0.500000 0.752961 0.000000
O O15 0.506581 0.500000 0.123949
O O16 0.498840 0.396664 0.165691
O O17 0.805380 0.500000 0.598319
O O18 0.707256 0.401792 0.668127
O O19 0.000000 0.417188 0.500000
#
# Coordination Sequence:
#
# PCOD9200231 Si02
#       8
#     8   8   8   8   8   8   8   8
#     4  10  20  37  54  79 114 149 193 235 278 333
#     4   9  19  38  62  86 112 140 180 232 282 340
#     4  11  21  36  54  81 114 148 190 239 279 337
#     4  10  23  38  59  84 114 154 186 234 287 334
#     4  11  19  34  54  78 105 149 195 239 281 320
#     4  11  22  37  56  80 114 155 192 237 286 336
#     4   9  19  37  60  86 110 138 182 232 284 341
#     4  11  21  39  57  82 117 149 190 235 287 337
#
# _framework density 17.835566
#
# number of rings (size 3 to 8) (size 9 to 14) (size 15 to 20)
#    0.000    1.750    3.750    1.500    0.000    4.000 
#    0.000    2.500    0.000    3.000    0.000    0.000 
#    0.000    0.000    0.000    0.000    0.000    0.000 
#
# Total GULP energy -178595.880552 kJ/mol
# GULP energy per Si atom -5581.121267 kJ/mol
# Density = 1.779497 g / cm^3
# Si number density = 17.835566 Si / 1000 Ang^3
#
#
#
# Elastic Constant Matrix: (Units=GPa)
#
#
# Indices 1 2 3 4 5 6 
#
# 1 57.5104 25.6431 53.5672 0.0000 -1.7686 0.0000
# 2 25.6431 84.9975 52.4234 0.0000 -1.0246 0.0000
# 3 53.5672 52.4234 122.9485 0.0000 -5.3323 0.0000
# 4 0.0000 0.0000 0.0000 84.9302 0.0000 7.8598
# 5 -1.7686 -1.0246 -5.3323 0.0000 32.2964 0.0000
# 6 0.0000 0.0000 0.0000 7.8598 0.0000 19.4677
#
#
#
# Elastic Compliance Matrix: (Units=1/GPa)
#
#
# Indices 1 2 3 4 5 6 
#
# 1 0.029378 -0.001305 -0.012263 0.000000 -0.000457 0.000000
# 2 -0.001305 0.016033 -0.006294 0.000000 -0.000602 0.000000
# 3 -0.012263 -0.006294 0.016238 0.000000 0.001810 0.000000
# 4 0.000000 0.000000 0.000000 0.012231 0.000000 -0.004938
# 5 -0.000457 -0.000602 0.001810 0.000000 0.031218 0.000000
# 6 0.000000 0.000000 0.000000 -0.004938 0.000000 0.053361
#
#
# Mechanical properties :
#
#
# Convention : Reuss Voigt Hill
#
# Bulk Modulus (GPa) = 45.60832 58.74709 52.17771
# Shear Modulus (GPa) = 24.33170 36.26037 30.29603
#
# Velocity S-wave (km/s) = 3.69755 4.51381 4.12592
# Velocity P-wave (km/s) = 6.62240 7.75730 7.21221
#
# Compressibility (1/GPa) = 0.02192582
#
# Stress axis : x y z
#
# Youngs Moduli (GPa) = 34.03864 62.36984 61.58225
#
# Poissons Ratio (x) = 0.08141 0.75519
# Poissons Ratio (y) = 0.04443 0.38759
# Poissons Ratio (z) = 0.41742 0.39254
#
# Static dielectric constant tensor:
#      x y z
#    x 1.610930 0.000000 -0.006420 
#    y 0.000000 1.605420 0.000000 
#    z -0.006420 0.000000 1.599820 
# 
# From -- ./inp_files/302328.got.cif
#   From: 2010.05.17/outbox.cif.g08.bks.cpg/sg12_152_cif.got.tgz:302328.got - 2010.06.03 13:09:07.
