data_PCOD9200083
_publ_section_title
;
Structure prediction by ZEFSAII (Michael W. Deem and Ramdas Pophale) SiO2 
 PCOD9200083
Probable space group: C 2/M
;
_chemical_formula_sum "Si O2"
_cell_formula_units_Z 56
_cell_length_a 15.267803
_cell_length_b 21.737833
_cell_length_c 7.438800
_cell_angle_alpha 90.000000
_cell_angle_beta 72.271841
_cell_angle_gamma 90.000000
_cell_volume 2351.614385
_symmetry_space_group_name_H-M "C 2/M"
_symmetry_group_IT_number 12
_symmetry_cell_setting 'monoclinic'
loop_
_space_group_symop_operation_xyz
x,y,z
-x,y,-z
-x,-y,-z
x,-y,z
1/2+x,1/2+y,z
1/2-x,1/2+y,-z
1/2-x,1/2-y,-z
1/2+x,1/2-y,z
loop_
_atom_site_type_symbol
_atom_site_label
_atom_site_fract_x
_atom_site_fract_y
_atom_site_fract_z
Si Si1 0.586466 0.569466 0.815324
Si Si2 0.500319 0.311810 0.220820
Si Si3 0.393252 0.155314 0.021821
Si Si4 0.396021 0.066012 0.499158
Si Si5 0.261530 0.068006 0.923107
Si Si6 0.172614 0.252240 0.200351
Si Si7 0.364192 0.794296 0.402869
O O1 0.609809 0.500000 0.731596
O O2 0.552549 0.624140 0.707575
O O3 0.670210 0.594316 0.886008
O O4 0.500000 0.562100 0.000000
O O5 0.605052 0.306302 0.224591
O O6 0.443903 0.257176 0.350330
O O7 0.500000 0.303280 0.000000
O O8 0.319655 0.101648 0.038926
O O9 0.391400 0.191688 0.834781
O O10 0.500000 0.139811 0.000000
O O11 0.349370 0.199656 0.199179
O O12 0.500000 0.065046 0.500000
O O13 0.330987 0.064124 0.712593
O O14 0.382243 0.132676 0.421581
O O15 0.380313 0.000000 0.408529
O O16 0.234912 0.000000 0.002320
O O17 0.196139 0.272323 0.388785
O O18 0.250000 0.250000 0.000000
#
# Coordination Sequence:
#
# PCOD9200083 Si02
#       7
#     8   8   8   8   8   8   8
#     4   9  21  42  72 104 137 184 244 308 373 436
#     4  11  22  42  70 103 140 186 243 298 371 438
#     4  12  24  41  65 101 141 191 237 292 350 439
#     4  10  20  36  63  94 132 187 239 284 348 424
#     4  10  22  42  69 102 144 191 240 303 371 435
#     4  12  26  43  67  99 144 187 240 302 357 432
#     4  12  23  42  69  98 145 193 233 291 364 431
#
# _framework density 23.813427000000001
#
# number of rings (size 3 to 8) (size 9 to 14) (size 15 to 20)
#    0.000    1.143    4.286    2.143    4.000    1.429 
#    2.571    0.000    0.000    2.143    0.000    0.000 
#    0.000    2.286    0.000    0.000    0.000    0.000 
#
# Total GULP energy -156028.183218 kJ/mol
# GULP energy per Si atom -5572.435115 kJ/mol
# Density = 2.375923 g / cm^3
# Si number density = 23.813427 Si / 1000 Ang^3
#
#
#
# Elastic Constant Matrix: (Units=GPa)
#
#
# Indices 1 2 3 4 5 6 
#
# 1 123.6616 38.2770 40.8836 0.0000 1.9026 0.0000
# 2 38.2770 150.1888 29.8683 0.0000 7.5060 0.0000
# 3 40.8836 29.8683 107.8275 0.0000 6.4313 0.0000
# 4 0.0000 0.0000 0.0000 29.6213 0.0000 10.9755
# 5 1.9026 7.5060 6.4313 0.0000 40.2804 0.0000
# 6 0.0000 0.0000 0.0000 10.9755 0.0000 35.4772
#
#
#
# Elastic Compliance Matrix: (Units=1/GPa)
#
#
# Indices 1 2 3 4 5 6 
#
# 1 0.009711 -0.001860 -0.003190 0.000000 0.000397 0.000000
# 2 -0.001860 0.007444 -0.001291 0.000000 -0.001093 0.000000
# 3 -0.003190 -0.001291 0.010922 0.000000 -0.001353 0.000000
# 4 0.000000 0.000000 0.000000 0.038130 0.000000 -0.011796
# 5 0.000397 -0.001093 -0.001353 0.000000 0.025227 0.000000
# 6 0.000000 0.000000 0.000000 -0.011796 0.000000 0.031837
#
#
# Mechanical properties :
#
#
# Convention : Reuss Voigt Hill
#
# Bulk Modulus (GPa) = 64.96556 66.63731 65.80143
# Shear Modulus (GPa) = 35.43934 39.25237 37.34586
#
# Velocity S-wave (km/s) = 3.86192 4.06437 3.96443
# Velocity P-wave (km/s) = 6.87213 7.07596 6.97479
#
# Compressibility (1/GPa) = 0.01539277
#
# Stress axis : x y z
#
# Youngs Moduli (GPa) = 102.97515 134.33890 91.55719
#
# Poissons Ratio (x) = 0.24992 0.29211
# Poissons Ratio (y) = 0.19157 0.11824
# Poissons Ratio (z) = 0.32853 0.17349
#
# Static dielectric constant tensor:
#      x y z
#    x 2.093360 0.000000 0.078840 
#    y 0.000000 2.054040 0.000000 
#    z 0.078840 0.000000 1.934260 
# 
# From -- ./inp_files/64044.got.cif
#   From: 2010.05.17/outbox.cif.g08.bks.cpg/sg12_33_cif.got.tgz:64044.got - 2010.06.03 13:09:07.
