data_PCOD9200007
_publ_section_title
;
Structure prediction by ZEFSAII (Michael W. Deem and Ramdas Pophale) SiO2 
 PCOD9200007
Probable space group: C 2/M
;
_chemical_formula_sum "Si O2"
_cell_formula_units_Z 44
_cell_length_a 16.297075
_cell_length_b 17.374520
_cell_length_c 9.062821
_cell_angle_alpha 90.000000
_cell_angle_beta 134.511518
_cell_angle_gamma 90.000000
_cell_volume 1829.962222
_symmetry_space_group_name_H-M "C 2/M"
_symmetry_group_IT_number 12
_symmetry_cell_setting 'monoclinic'
loop_
_space_group_symop_operation_xyz
x,y,z
-x,y,-z
-x,-y,-z
x,-y,z
1/2+x,1/2+y,z
1/2-x,1/2+y,-z
1/2-x,1/2-y,-z
1/2+x,1/2-y,z
loop_
_atom_site_type_symbol
_atom_site_label
_atom_site_fract_x
_atom_site_fract_y
_atom_site_fract_z
Si Si1 0.134767 0.410765 0.393983
Si Si2 0.347897 0.410311 0.454134
Si Si3 0.000000 0.697672 0.000000
Si Si4 0.694332 0.192923 0.045762
Si Si5 0.822041 0.409836 0.225830
Si Si6 0.048214 0.907661 0.902457
O O1 0.096014 0.500000 0.339050
O O2 0.265652 0.411467 0.495527
O O3 0.133400 0.381986 0.560009
O O4 0.067896 0.356982 0.198258
O O5 0.353452 0.500000 0.406476
O O6 0.285708 0.354425 0.259442
O O7 0.529410 0.380209 0.333081
O O8 0.898684 0.735080 0.968158
O O9 0.632424 0.130890 0.862046
O O10 0.750000 0.250000 0.000000
O O11 0.846331 0.500000 0.249199
O O12 0.683939 0.399050 0.053748
O O13 0.027155 0.000000 0.873884
O O14 0.000000 0.881013 0.000000
#
# Coordination Sequence:
#
# PCOD9200007 Si02
#       6
#     8   8   4   8   8   8
#     4   9  17  33  62  96 126 161 207 259 314 371
#     4   9  17  34  63  97 131 167 208 259 317 381
#     4  10  23  44  64  84 121 166 212 262 320 380
#     4  11  25  45  62  89 125 168 216 265 315 378
#     4  10  20  36  62  97 130 162 208 263 311 374
#     4   9  15  29  58  96 133 165 200 248 311 372
#
# _framework density 24.044212000000002
#
# number of rings (size 3 to 8) (size 9 to 14) (size 15 to 20)
#    0.000    2.364    1.818    0.818    0.000    3.636 
#    1.636   11.818    0.000    0.000    0.000    0.000 
#    0.000    0.000    0.000    0.000    0.000    0.000 
#
# Total GULP energy -123059.930126 kJ/mol
# GULP energy per Si atom -5593.633188 kJ/mol
# Density = 2.398949 g / cm^3
# Si number density = 24.044212 Si / 1000 Ang^3
#
#
#
# Elastic Constant Matrix: (Units=GPa)
#
#
# Indices 1 2 3 4 5 6 
#
# 1 115.9528 24.1254 37.8107 0.0000 -12.6410 0.0000
# 2 24.1254 46.0118 34.6684 0.0000 -9.0222 0.0000
# 3 37.8107 34.6684 146.5550 0.0000 -2.8189 0.0000
# 4 0.0000 0.0000 0.0000 22.6480 0.0000 -5.1084
# 5 -12.6410 -9.0222 -2.8189 0.0000 40.2649 0.0000
# 6 0.0000 0.0000 0.0000 -5.1084 0.0000 50.9624
#
#
#
# Elastic Compliance Matrix: (Units=1/GPa)
#
#
# Indices 1 2 3 4 5 6 
#
# 1 0.010184 -0.003587 -0.001735 0.000000 0.002272 0.000000
# 2 -0.003587 0.028984 -0.005835 0.000000 0.004960 0.000000
# 3 -0.001735 -0.005835 0.008627 0.000000 -0.001248 0.000000
# 4 0.000000 0.000000 0.000000 0.045175 0.000000 0.004528
# 5 0.002272 0.004960 -0.001248 0.000000 0.026573 0.000000
# 6 0.000000 0.000000 0.000000 0.004528 0.000000 0.020076
#
#
# Mechanical properties :
#
#
# Convention : Reuss Voigt Hill
#
# Bulk Modulus (GPa) = 39.24643 55.74764 47.49704
# Shear Modulus (GPa) = 29.33791 36.90271 33.12031
#
# Velocity S-wave (km/s) = 3.49688 3.92188 3.71546
# Velocity P-wave (km/s) = 5.71509 6.61393 6.18087
#
# Compressibility (1/GPa) = 0.02548002
#
# Stress axis : x y z
#
# Youngs Moduli (GPa) = 98.19299 34.50228 115.90887
#
# Poissons Ratio (x) = 0.12375 0.20113
# Poissons Ratio (y) = 0.35220 0.67638
# Poissons Ratio (z) = 0.17039 0.20134
#
# Static dielectric constant tensor:
#      x y z
#    x 1.960700 0.000000 -0.007240 
#    y 0.000000 1.965360 0.000000 
#    z -0.007240 0.000000 1.885820 
# 
# From -- ./inp_files/62832.got.cif
#   From: 2010.05.17/outbox.cif.g08.bks.cpg/sg12_32_cif.got.tgz:62832.got - 2010.06.03 13:09:07.
