data_PCOD9200100
_publ_section_title
;
Structure prediction by ZEFSAII (Michael W. Deem and Ramdas Pophale) SiO2 
 PCOD9200100
Probable space group: C 2/M
;
_chemical_formula_sum "Si O2"
_cell_formula_units_Z 56
_cell_length_a 15.756286
_cell_length_b 23.654347
_cell_length_c 10.133711
_cell_angle_alpha 90.000000
_cell_angle_beta 40.054696
_cell_angle_gamma 90.000000
_cell_volume 2430.493360
_symmetry_space_group_name_H-M "C 2/M"
_symmetry_group_IT_number 12
_symmetry_cell_setting 'monoclinic'
loop_
_space_group_symop_operation_xyz
x,y,z
-x,y,-z
-x,-y,-z
x,-y,z
1/2+x,1/2+y,z
1/2-x,1/2+y,-z
1/2-x,1/2-y,-z
1/2+x,1/2-y,z
loop_
_atom_site_type_symbol
_atom_site_label
_atom_site_fract_x
_atom_site_fract_y
_atom_site_fract_z
Si Si1 0.848479 0.229278 0.135976
Si Si2 0.826961 0.653034 0.222411
Si Si3 0.898559 0.288439 0.399877
Si Si4 0.098920 0.406380 0.490228
Si Si5 0.404907 0.934861 0.921480
Si Si6 0.707109 0.379161 0.945498
Si Si7 0.967912 0.838281 0.382346
O O1 0.820147 0.293815 0.129355
O O2 0.753880 0.220372 0.375438
O O3 0.790805 0.186790 0.096925
O O4 0.000000 0.216542 0.000000
O O5 0.880020 0.599305 0.084225
O O6 0.682669 0.642180 0.450962
O O7 0.092879 0.683077 0.754569
O O8 0.939313 0.340343 0.444420
O O9 0.970095 0.228546 0.336687
O O10 0.243990 0.408176 0.251233
O O11 0.000000 0.432006 0.500000
O O12 0.053245 0.431975 0.683782
O O13 0.368359 0.000000 0.978427
O O14 0.308509 0.903548 0.931389
O O15 0.563113 0.378803 0.184228
O O16 0.000000 0.840504 0.500000
#
# Coordination Sequence:
#
# PCOD9200100 Si02
#       7
#     8   8   8   8   8   8   8
#     4  10  20  36  63  97 132 173 206 257 325 398
#     4  11  23  38  60  95 137 171 209 263 323 392
#     4  10  21  37  59  95 135 174 203 250 326 397
#     4   9  21  40  60  89 122 165 219 266 310 374
#     4  11  25  44  65  90 125 173 226 273 316 369
#     4  10  21  39  64  93 124 166 216 266 321 383
#     4  11  20  37  61  96 136 166 207 259 326 395
#
# _framework density 23.040589000000001
#
# number of rings (size 3 to 8) (size 9 to 14) (size 15 to 20)
#    0.000    1.714    1.429    3.857    4.000    4.286 
#    0.000    2.857    0.000    1.286    0.000    0.000 
#    0.000    0.000    0.000    0.000    0.000    0.000 
#
# Total GULP energy -156103.540772 kJ/mol
# GULP energy per Si atom -5575.126456 kJ/mol
# Density = 2.298815 g / cm^3
# Si number density = 23.040589 Si / 1000 Ang^3
#
#
#
# Elastic Constant Matrix: (Units=GPa)
#
#
# Indices 1 2 3 4 5 6 
#
# 1 50.6246 39.0837 41.3212 0.0000 12.5314 0.0000
# 2 39.0837 117.3975 64.6505 0.0000 3.4240 0.0000
# 3 41.3212 64.6505 188.2793 0.0000 -5.4885 0.0000
# 4 0.0000 0.0000 0.0000 15.1129 0.0000 -2.3782
# 5 12.5314 3.4240 -5.4885 0.0000 39.0259 0.0000
# 6 0.0000 0.0000 0.0000 -2.3782 0.0000 1.9759
#
#
#
# Elastic Compliance Matrix: (Units=1/GPa)
#
#
# Indices 1 2 3 4 5 6 
#
# 1 0.032162 -0.007836 -0.004668 0.000000 -0.010296 0.000000
# 2 -0.007836 0.012494 -0.002539 0.000000 0.001063 0.000000
# 3 -0.004668 -0.002539 0.007288 0.000000 0.002747 0.000000
# 4 0.000000 0.000000 0.000000 0.081629 0.000000 0.098249
# 5 -0.010296 0.001063 0.002747 0.000000 0.029223 0.000000
# 6 0.000000 0.000000 0.000000 0.098249 0.000000 0.624343
#
#
# Mechanical properties :
#
#
# Convention : Reuss Voigt Hill
#
# Bulk Modulus (GPa) = 45.75258 71.82358 58.78808
# Shear Modulus (GPa) = 6.06419 25.30601 15.68510
#
# Velocity S-wave (km/s) = 1.62409 3.31769 2.61197
# Velocity P-wave (km/s) = 4.83915 6.77616 5.88786
#
# Compressibility (1/GPa) = 0.02185669
#
# Stress axis : x y z
#
# Youngs Moduli (GPa) = 31.09276 80.03580 137.21674
#
# Poissons Ratio (x) = 0.62719 0.64050
# Poissons Ratio (y) = 0.24365 0.34846
# Poissons Ratio (z) = 0.14513 0.20325
#
# Static dielectric constant tensor:
#      x y z
#    x 1.943690 0.000000 0.032590 
#    y 0.000000 1.871100 0.000000 
#    z 0.032590 0.000000 1.997130 
# 
# From -- ./inp_files/170277.got.cif
#   From: 2010.05.17/outbox.cif.g08.bks.cpg/sg12_86_cif.got.tgz:170277.got - 2010.06.03 13:09:07.
