data_PCOD9200021
_publ_section_title
;
Structure prediction by ZEFSAII (Michael W. Deem and Ramdas Pophale) SiO2 
 PCOD9200021
Probable space group: C 2/M
;
_chemical_formula_sum "Si O2"
_cell_formula_units_Z 48
_cell_length_a 16.504914
_cell_length_b 15.745335
_cell_length_c 9.524230
_cell_angle_alpha 90.000000
_cell_angle_beta 89.138022
_cell_angle_gamma 90.000000
_cell_volume 2474.832988
_symmetry_space_group_name_H-M "C 2/M"
_symmetry_group_IT_number 12
_symmetry_cell_setting 'monoclinic'
loop_
_space_group_symop_operation_xyz
x,y,z
-x,y,-z
-x,-y,-z
x,-y,z
1/2+x,1/2+y,z
1/2-x,1/2+y,-z
1/2-x,1/2-y,-z
1/2+x,1/2-y,z
loop_
_atom_site_type_symbol
_atom_site_label
_atom_site_fract_x
_atom_site_fract_y
_atom_site_fract_z
Si Si1 0.682069 0.696695 0.685598
Si Si2 0.019150 0.902319 0.665769
Si Si3 0.582473 0.000000 0.584197
Si Si4 0.351127 0.834365 0.552510
Si Si5 0.048757 0.262813 0.206206
Si Si6 0.876233 0.311329 0.076596
Si Si7 0.414989 0.000000 0.087353
O O1 0.611150 0.627011 0.696025
O O2 0.657378 0.756714 0.555293
O O3 0.768961 0.659234 0.644456
O O4 0.683046 0.757164 0.822935
O O5 0.000000 0.894236 0.500000
O O6 0.964117 0.834418 0.748691
O O7 0.005909 0.000000 0.705899
O O8 0.500000 0.000000 0.500000
O O9 0.632038 0.917278 0.537884
O O10 0.565222 0.000000 0.748684
O O11 0.422848 0.814769 0.659182
O O12 0.963305 0.298584 0.152555
O O13 0.111583 0.272662 0.077725
O O14 0.866328 0.412611 0.061064
O O15 0.500000 0.000000 0.000000
#
# Coordination Sequence:
#
# PCOD9200021 Si02
#       7
#     8   8   4   8   8   8   4
#     4  10  22  40  58  87 118 161 190 239 307 353
#     4  10  20  36  63  87 110 150 202 249 284 343
#     4  12  26  36  64  96 119 152 200 255 296 350
#     4  11  23  38  60  86 126 151 193 246 298 359
#     4  10  20  37  59  88 116 153 200 243 297 354
#     4  10  21  36  61  86 118 162 197 244 298 355
#     4  12  20  36  56  88 122 151 200 247 291 355
#
# _framework density 19.395247999999999
#
# number of rings (size 3 to 8) (size 9 to 14) (size 15 to 20)
#    0.000    1.500    5.000    1.000    3.500    0.667 
#    0.000    6.667    1.833    0.000    0.000    0.000 
#    0.000    0.000    0.000    0.000    0.000    0.000 
#
# Total GULP energy -134078.543547 kJ/mol
# GULP energy per Si atom -5586.605981 kJ/mol
# Density = 1.935110 g / cm^3
# Si number density = 19.395248 Si / 1000 Ang^3
#
#
#
# Elastic Constant Matrix: (Units=GPa)
#
#
# Indices 1 2 3 4 5 6 
#
# 1 37.9574 23.4650 17.5239 0.0000 -13.2933 0.0000
# 2 23.4650 135.1828 51.6639 0.0000 -9.2349 0.0000
# 3 17.5239 51.6639 98.6037 0.0000 -26.7069 0.0000
# 4 0.0000 0.0000 0.0000 29.8551 0.0000 -6.4904
# 5 -13.2933 -9.2349 -26.7069 0.0000 28.0530 0.0000
# 6 0.0000 0.0000 0.0000 -6.4904 0.0000 14.2082
#
#
#
# Elastic Compliance Matrix: (Units=1/GPa)
#
#
# Indices 1 2 3 4 5 6 
#
# 1 0.034637 -0.005255 0.000774 0.000000 0.015420 0.000000
# 2 -0.005255 0.010141 -0.005591 0.000000 -0.004475 0.000000
# 3 0.000774 -0.005591 0.016890 0.000000 0.014605 0.000000
# 4 0.000000 0.000000 0.000000 0.037188 0.000000 0.016988
# 5 0.015420 -0.004475 0.014605 0.000000 0.055386 0.000000
# 6 0.000000 0.000000 0.000000 0.016988 0.000000 0.078142
#
#
# Mechanical properties :
#
#
# Convention : Reuss Voigt Hill
#
# Bulk Modulus (GPa) = 24.08290 50.78327 37.43308
# Shear Modulus (GPa) = 18.77104 26.36266 22.56685
#
# Velocity S-wave (km/s) = 3.11435 3.69078 3.41475
# Velocity P-wave (km/s) = 5.03747 6.66353 5.90672
#
# Compressibility (1/GPa) = 0.04152325
#
# Stress axis : x y z
#
# Youngs Moduli (GPa) = 28.87099 98.61213 59.20812
#
# Poissons Ratio (x) = 0.51818 -0.04584
# Poissons Ratio (y) = 0.15171 0.33106
# Poissons Ratio (z) = -0.02235 0.55139
#
# Static dielectric constant tensor:
#      x y z
#    x 1.696110 0.000000 -0.008630 
#    y 0.000000 1.670330 0.000000 
#    z -0.008630 0.000000 1.679230 
# 
# From -- ./inp_files/73663.got.cif
#   From: 2010.05.17/outbox.cif.g08.bks.cpg/sg12_37_cif.got.tgz:73663.got - 2010.06.03 13:09:07.
