data_PCOD9200074
_publ_section_title
;
Structure prediction by ZEFSAII (Michael W. Deem and Ramdas Pophale) SiO2 
 PCOD9200074
Probable space group: C 2/M
;
_chemical_formula_sum "Si O2"
_cell_formula_units_Z 48
_cell_length_a 32.032316
_cell_length_b 19.667586
_cell_length_c 13.928892
_cell_angle_alpha 90.000000
_cell_angle_beta 17.501091
_cell_angle_gamma 90.000000
_cell_volume 2638.906484
_symmetry_space_group_name_H-M "C 2/M"
_symmetry_group_IT_number 12
_symmetry_cell_setting 'monoclinic'
loop_
_space_group_symop_operation_xyz
x,y,z
-x,y,-z
-x,-y,-z
x,-y,z
1/2+x,1/2+y,z
1/2-x,1/2+y,-z
1/2-x,1/2-y,-z
1/2+x,1/2-y,z
loop_
_atom_site_type_symbol
_atom_site_label
_atom_site_fract_x
_atom_site_fract_y
_atom_site_fract_z
Si Si1 0.867465 0.078030 0.861635
Si Si2 0.664687 0.077713 0.134023
Si Si3 0.145189 0.076496 0.619183
Si Si4 0.852926 0.811693 0.264103
Si Si5 0.901148 0.200100 0.936900
Si Si6 0.702893 0.324200 0.312962
O O1 0.871050 0.136801 0.932751
O O2 0.000000 0.085083 0.500000
O O3 0.871396 0.000000 0.891363
O O4 0.734040 0.085898 0.086082
O O5 0.500000 0.085289 0.500000
O O6 0.697496 0.000000 0.031091
O O7 0.728885 0.130950 0.919739
O O8 0.225194 0.123513 0.518877
O O9 0.154363 0.122209 0.502686
O O10 0.190572 0.000000 0.500456
O O11 0.000000 0.071224 0.000000
O O12 0.750000 0.750000 0.500000
O O13 0.875949 0.821552 0.101710
O O14 0.000000 0.798561 0.000000
O O15 0.066267 0.212880 0.571471
O O16 0.809220 0.266547 0.116173
#
# Coordination Sequence:
#
# PCOD9200074 Si02
#       6
#     8   8   8   8   8   8
#     4  10  22  41  64  90 125 164 208 264 315 367
#     4  10  23  44  65  87 123 168 207 255 315 370
#     4  10  20  36  63  94 119 155 210 260 307 368
#     4  11  20  40  61  89 125 166 200 252 312 370
#     4  12  24  38  62  94 125 165 208 256 318 370
#     4  12  24  39  62  93 124 164 208 260 310 374
#
# _framework density 18.189352
#
# number of rings (size 3 to 8) (size 9 to 14) (size 15 to 20)
#    0.000    1.167    6.667    0.500    2.333    2.667 
#    0.000    0.000    0.000    0.500    0.000    0.000 
#    0.000    0.000    0.000    0.000    0.000    0.000 
#
# Total GULP energy -133629.834791 kJ/mol
# GULP energy per Si atom -5567.909783 kJ/mol
# Density = 1.814795 g / cm^3
# Si number density = 18.189352 Si / 1000 Ang^3
#
#
#
# Elastic Constant Matrix: (Units=GPa)
#
#
# Indices 1 2 3 4 5 6 
#
# 1 108.4428 74.7912 50.7864 -0.0001 -5.1156 0.0000
# 2 74.7912 164.1333 57.8167 -0.0001 -4.1083 0.0000
# 3 50.7864 57.8167 74.6433 0.0007 -16.6112 0.0002
# 4 -0.0001 -0.0001 0.0007 17.3073 0.0000 4.2240
# 5 -5.1156 -4.1083 -16.6112 0.0000 32.2587 0.0000
# 6 0.0000 0.0000 0.0002 4.2240 0.0000 37.7088
#
#
#
# Elastic Compliance Matrix: (Units=1/GPa)
#
#
# Indices 1 2 3 4 5 6 
#
# 1 0.015899 -0.004573 -0.007730 0.000000 -0.002041 0.000000
# 2 -0.004573 0.009887 -0.005001 0.000000 -0.002041 0.000000
# 3 -0.007730 -0.005001 0.024978 -0.000001 0.010999 0.000000
# 4 0.000000 0.000000 -0.000001 0.059403 -0.000001 -0.006654
# 5 -0.002041 -0.002041 0.010999 -0.000001 0.036080 0.000000
# 6 0.000000 0.000000 0.000000 -0.006654 0.000000 0.027264
#
#
# Mechanical properties :
#
#
# Convention : Reuss Voigt Hill
#
# Bulk Modulus (GPa) = 61.89558 79.33423 70.61491
# Shear Modulus (GPa) = 23.41880 28.37663 25.89772
#
# Velocity S-wave (km/s) = 3.59207 3.95406 3.77740
# Velocity P-wave (km/s) = 7.16284 8.03471 7.61127
#
# Compressibility (1/GPa) = 0.01615624
#
# Stress axis : x y z
#
# Youngs Moduli (GPa) = 62.89647 101.14317 40.03589
#
# Poissons Ratio (x) = 0.46254 0.30946
# Poissons Ratio (y) = 0.28763 0.20022
# Poissons Ratio (z) = 0.48617 0.50581
#
# Static dielectric constant tensor:
#      x y z
#    x 1.631660 0.000000 -0.002340 
#    y 0.000000 1.658030 0.000000 
#    z -0.002340 0.000000 1.662620 
# 
# From -- ./inp_files/184771.got.cif
#   From: 2010.05.17/outbox.cif.g08.bks.cpg/sg12_93_cif.got.tgz:184771.got - 2010.06.03 13:09:07.
