data_PCOD9200192
_publ_section_title
;
Structure prediction by ZEFSAII (Michael W. Deem and Ramdas Pophale) SiO2 
 PCOD9200192
Probable space group: C 2/M
;
_chemical_formula_sum "Si O2"
_cell_formula_units_Z 40
_cell_length_a 7.222856
_cell_length_b 13.491342
_cell_length_c 18.175040
_cell_angle_alpha 90.000000
_cell_angle_beta 119.171745
_cell_angle_gamma 90.000000
_cell_volume 1546.445385
_symmetry_space_group_name_H-M "C 2/M"
_symmetry_group_IT_number 12
_symmetry_cell_setting 'monoclinic'
loop_
_space_group_symop_operation_xyz
x,y,z
-x,y,-z
-x,-y,-z
x,-y,z
1/2+x,1/2+y,z
1/2-x,1/2+y,-z
1/2-x,1/2-y,-z
1/2+x,1/2-y,z
loop_
_atom_site_type_symbol
_atom_site_label
_atom_site_fract_x
_atom_site_fract_y
_atom_site_fract_z
Si Si1 0.133683 0.112158 0.100559
Si Si2 0.542052 0.384131 0.292486
Si Si3 0.518000 0.117734 0.337644
Si Si4 0.911703 0.305303 0.809696
Si Si5 0.189507 0.113655 0.478247
O O1 0.065885 0.204315 0.138824
O O2 0.383845 0.128031 0.132058
O O3 0.104019 0.000000 0.125619
O O4 0.000000 0.117740 0.000000
O O5 0.494758 0.500000 0.291796
O O6 0.325405 0.341524 0.217746
O O7 0.600961 0.345291 0.385304
O O8 0.764948 0.376262 0.293127
O O9 0.592255 0.179948 0.281156
O O10 0.611831 0.149263 0.435249
O O11 0.576408 0.000000 0.338872
O O12 0.000000 0.115834 0.500000
O O13 0.244839 0.000000 0.470777
#
# Coordination Sequence:
#
# PCOD9200192 Si02
#       5
#     8   8   8   8   8
#     4  11  28  56  87 120 159 203 257 325 404 491
#     4  10  20  36  68 115 168 222 273 332 396 458
#     4  10  20  36  67 114 168 220 276 333 388 464
#     4  12  25  47  82 119 156 202 263 325 399 478
#     4   9  15  29  57 104 165 224 276 331 389 451
#
# _framework density 25.865769
#
# number of rings (size 3 to 8) (size 9 to 14) (size 15 to 20)
#    0.000    1.600    2.000    3.000    2.800    2.400 
#    0.000    2.000    0.000   12.000    0.000    2.800 
#    0.000    1.600    0.000    0.000    0.000    0.000 
#
# Total GULP energy -111916.464778 kJ/mol
# GULP energy per Si atom -5595.823239 kJ/mol
# Density = 2.580690 g / cm^3
# Si number density = 25.865769 Si / 1000 Ang^3
#
#
#
# Elastic Constant Matrix: (Units=GPa)
#
#
# Indices 1 2 3 4 5 6 
#
# 1 133.0590 33.7006 54.4254 0.0000 10.4436 0.0000
# 2 33.7006 176.8666 59.3929 0.0000 -11.0666 0.0000
# 3 54.4254 59.3929 185.5255 0.0000 29.1606 0.0000
# 4 0.0000 0.0000 0.0000 32.0029 0.0000 -14.4471
# 5 10.4436 -11.0666 29.1606 0.0000 42.7629 0.0000
# 6 0.0000 0.0000 0.0000 -14.4471 0.0000 34.8534
#
#
#
# Elastic Compliance Matrix: (Units=1/GPa)
#
#
# Indices 1 2 3 4 5 6 
#
# 1 0.008698 -0.001023 -0.002071 0.000000 -0.000977 0.000000
# 2 -0.001023 0.006925 -0.002506 0.000000 0.003751 0.000000
# 3 -0.002071 -0.002506 0.007641 0.000000 -0.005354 0.000000
# 4 0.000000 0.000000 0.000000 0.038440 0.000000 0.015934
# 5 -0.000977 0.003751 -0.005354 0.000000 0.028245 0.000000
# 6 0.000000 0.000000 0.000000 0.015934 0.000000 0.035296
#
#
# Mechanical properties :
#
#
# Convention : Reuss Voigt Hill
#
# Bulk Modulus (GPa) = 82.88786 87.83210 85.35998
# Shear Modulus (GPa) = 35.59516 45.11933 40.35724
#
# Velocity S-wave (km/s) = 3.71367 4.18109 3.95429
# Velocity P-wave (km/s) = 7.10658 7.57227 7.34312
#
# Compressibility (1/GPa) = 0.01206449
#
# Stress axis : x y z
#
# Youngs Moduli (GPa) = 114.96586 144.39673 130.86577
#
# Poissons Ratio (x) = 0.14775 0.27096
# Poissons Ratio (y) = 0.11764 0.32801
# Poissons Ratio (z) = 0.23804 0.36193
#
# Static dielectric constant tensor:
#      x y z
#    x 2.019030 0.000000 -0.056540 
#    y 0.000000 2.180440 0.000000 
#    z -0.056540 0.000000 2.082380 
# 
# From -- ./inp_files/255571.got.cif
#   From: 2010.05.17/outbox.cif.g08.bks.cpg/sg12_128_cif.got.tgz:255571.got - 2010.06.03 13:09:07.
