data_PCOD9200744
_publ_section_title
;
Structure prediction by ZEFSAII (Michael W. Deem and Ramdas Pophale) SiO2 
 PCOD9200744
Probable space group: C 2/M
;
_chemical_formula_sum "Si O2"
_cell_formula_units_Z 64
_cell_length_a 25.297695
_cell_length_b 8.605520
_cell_length_c 31.852269
_cell_angle_alpha 90.000000
_cell_angle_beta 28.343615
_cell_angle_gamma 90.000000
_cell_volume 3292.084876
_symmetry_space_group_name_H-M "C 2/M"
_symmetry_group_IT_number 12
_symmetry_cell_setting 'monoclinic'
loop_
_space_group_symop_operation_xyz
x,y,z
-x,y,-z
-x,-y,-z
x,-y,z
1/2+x,1/2+y,z
1/2-x,1/2+y,-z
1/2-x,1/2-y,-z
1/2+x,1/2-y,z
loop_
_atom_site_type_symbol
_atom_site_label
_atom_site_fract_x
_atom_site_fract_y
_atom_site_fract_z
Si Si1 0.561544 0.185294 0.500438
Si Si2 0.820531 0.684613 0.816685
Si Si3 0.500441 0.680422 0.756201
Si Si4 0.412790 0.177530 0.989266
Si Si5 0.629674 0.177491 0.080095
Si Si6 0.691131 0.814730 0.672151
Si Si7 0.144576 0.689446 0.800433
Si Si8 0.370025 0.314132 0.690603
O O1 0.500000 0.229264 0.500000
O O2 0.680244 0.267995 0.420226
O O3 0.478883 0.235060 0.595231
O O4 0.578333 0.000000 0.488723
O O5 0.823649 0.500000 0.810624
O O6 0.915295 0.737497 0.783674
O O7 0.849091 0.764906 0.752807
O O8 0.695407 0.735253 0.917752
O O9 0.505205 0.500000 0.742138
O O10 0.445781 0.711179 0.839722
O O11 0.622857 0.746961 0.680330
O O12 0.398257 0.170765 0.949126
O O13 0.539000 0.243288 0.902473
O O14 0.410504 0.000000 0.007631
O O15 0.623042 0.000000 0.101186
O O16 0.750000 0.250000 0.000000
O O17 0.648265 0.762610 0.748760
O O18 0.677425 0.000000 0.681019
O O19 0.137043 0.500000 0.805792
O O20 0.261285 0.733789 0.739744
O O21 0.381021 0.500000 0.679646
#
# Coordination Sequence:
#
# PCOD9200744 Si02
#       8
#     8   8   8   8   8   8   8   8
#     4  11  23  40  65 100 134 163 200 255 315 372
#     4  12  26  43  61  86 124 172 217 261 311 376
#     4  12  24  39  60  90 127 167 210 261 316 374
#     4  10  20  37  59  88 124 165 211 258 307 368
#     4  11  20  32  55  85 120 160 207 259 308 363
#     4  11  21  39  65  98 130 162 205 257 317 376
#     4   9  19  36  62  93 125 160 205 256 308 367
#     4  11  23  43  68  92 121 166 214 259 311 376
#
# _framework density 19.440567999999999
#
# number of rings (size 3 to 8) (size 9 to 14) (size 15 to 20)
#    0.000    1.125    3.750    3.750    0.000    1.500 
#    0.000    4.375    0.000    0.000    0.000    0.000 
#    0.000    0.000    0.000    0.000    0.000    0.000 
#
# Total GULP energy -178654.663865 kJ/mol
# GULP energy per Si atom -5582.958246 kJ/mol
# Density = 1.939632 g / cm^3
# Si number density = 19.440568 Si / 1000 Ang^3
#
#
#
# Elastic Constant Matrix: (Units=GPa)
#
#
# Indices 1 2 3 4 5 6 
#
# 1 45.9823 -7.9686 28.3617 0.0034 -5.4146 -0.0079
# 2 -7.9686 32.4588 -11.8990 0.0021 -8.9391 -0.0056
# 3 28.3617 -11.8990 85.9465 0.0055 -15.7437 -0.0070
# 4 0.0034 0.0021 0.0055 26.2978 0.0015 5.3623
# 5 -5.4146 -8.9391 -15.7437 0.0015 34.6656 -0.0024
# 6 -0.0079 -0.0056 -0.0070 5.3623 -0.0024 19.6657
#
#
#
# Elastic Compliance Matrix: (Units=1/GPa)
#
#
# Indices 1 2 3 4 5 6 
#
# 1 0.027784 0.004251 -0.008273 -0.000005 0.001679 0.000011
# 2 0.004251 0.037795 0.006257 -0.000009 0.013252 0.000019
# 3 -0.008273 0.006257 0.016678 -0.000005 0.007896 0.000007
# 4 -0.000005 -0.000009 -0.000005 0.040265 -0.000008 -0.010979
# 5 0.001679 0.013252 0.007896 -0.000008 0.036112 0.000014
# 6 0.000011 0.000019 0.000007 -0.010979 0.000014 0.053844
#
#
# Mechanical properties :
#
#
# Convention : Reuss Voigt Hill
#
# Bulk Modulus (GPa) = 11.53021 20.15285 15.84153
# Shear Modulus (GPa) = 21.10447 26.51872 23.81159
#
# Velocity S-wave (km/s) = 3.29840 3.69737 3.50357
# Velocity P-wave (km/s) = 4.52215 5.34942 4.95308
#
# Compressibility (1/GPa) = 0.08672865
#
# Stress axis : x y z
#
# Youngs Moduli (GPa) = 35.99153 26.45826 59.96033
#
# Poissons Ratio (x) = -0.11247 0.49603
# Poissons Ratio (y) = -0.15299 -0.37520
# Poissons Ratio (z) = 0.29774 -0.16556
#
# Static dielectric constant tensor:
#      x y z
#    x 1.701440 0.000000 -0.017310 
#    y 0.000000 1.616380 0.000000 
#    z -0.017310 0.000000 1.691500 
# 
# From -- ./inp_files/382241.got.cif
#   From: 2010.05.17/outbox.cif.g08.bks.cpg/sg12_192_cif.got.tgz:382241.got - 2010.06.03 13:09:07.
