data_PCOD9200806
_publ_section_title
;
Structure prediction by ZEFSAII (Michael W. Deem and Ramdas Pophale) SiO2 
 PCOD9200806
Probable space group: C 2/M
;
_chemical_formula_sum "Si O2"
_cell_formula_units_Z 42
_cell_length_a 13.950449
_cell_length_b 9.475051
_cell_length_c 22.717892
_cell_angle_alpha 90.000000
_cell_angle_beta 38.115656
_cell_angle_gamma 90.000000
_cell_volume 1853.529452
_symmetry_space_group_name_H-M "C 2/M"
_symmetry_group_IT_number 12
_symmetry_cell_setting 'monoclinic'
loop_
_space_group_symop_operation_xyz
x,y,z
-x,y,-z
-x,-y,-z
x,-y,z
1/2+x,1/2+y,z
1/2-x,1/2+y,-z
1/2-x,1/2-y,-z
1/2+x,1/2-y,z
loop_
_atom_site_type_symbol
_atom_site_label
_atom_site_fract_x
_atom_site_fract_y
_atom_site_fract_z
Si Si1 0.759728 0.662609 0.284912
Si Si2 0.571106 0.339257 0.146653
Si Si3 0.500000 0.000000 0.000000
Si Si4 0.886690 0.218943 0.007472
Si Si5 0.002455 0.663047 0.632524
Si Si6 0.691231 0.658902 0.450102
O O1 0.792679 0.500000 0.254568
O O2 0.647341 0.737903 0.292535
O O3 0.669128 0.663683 0.391271
O O4 0.910046 0.756907 0.223640
O O5 0.563393 0.500000 0.173746
O O6 0.708383 0.249988 0.111212
O O7 0.613867 0.346489 0.056582
O O8 0.538800 0.875537 0.029519
O O9 0.000000 0.147027 0.000000
O O10 0.957461 0.500000 0.645934
O O11 0.123837 0.672883 0.627212
O O12 0.106031 0.720615 0.527919
O O13 0.649028 0.500000 0.492340
#
# Coordination Sequence:
#
# PCOD9200806 Si02
#       6
#     8   8   2   8   8   8
#     4  11  24  37  55  81 115 152 184 227 279 332
#     4  11  22  37  58  85 115 144 184 232 276 327
#     4   8  16  40  62  84 106 148 182 228 264 348
#     4   9  20  38  63  81 111 146 185 224 276 331
#     4  10  20  37  60  83 111 145 188 235 278 327
#     4   9  20  39  58  80 112 149 188 227 277 335
#
# _framework density 22.659472999999998
#
# number of rings (size 3 to 8) (size 9 to 14) (size 15 to 20)
#    0.571    1.524    0.952    1.714    1.333    7.238 
#    0.000    3.810    0.000    0.000    0.000    0.000 
#    0.000    0.000    0.000    0.000    0.000    0.000 
#
# Total GULP energy -116935.234356 kJ/mol
# GULP energy per Si atom -5568.344493 kJ/mol
# Density = 2.260790 g / cm^3
# Si number density = 22.659473 Si / 1000 Ang^3
#
#
#
# Elastic Constant Matrix: (Units=GPa)
#
#
# Indices 1 2 3 4 5 6 
#
# 1 107.1428 15.7393 6.8872 0.0000 -26.2267 0.0000
# 2 15.7393 119.4993 15.2924 0.0000 -15.2531 0.0000
# 3 6.8872 15.2924 42.6407 0.0000 -20.2426 0.0000
# 4 0.0000 0.0000 0.0000 17.9943 0.0000 7.4719
# 5 -26.2267 -15.2531 -20.2426 0.0000 35.5004 0.0000
# 6 0.0000 0.0000 0.0000 7.4719 0.0000 8.0643
#
#
#
# Elastic Compliance Matrix: (Units=1/GPa)
#
#
# Indices 1 2 3 4 5 6 
#
# 1 0.011719 -0.000649 0.003178 0.000000 0.010191 0.000000
# 2 -0.000649 0.009001 -0.002077 0.000000 0.002203 0.000000
# 3 0.003178 -0.002077 0.033421 0.000000 0.020512 0.000000
# 4 0.000000 0.000000 0.000000 0.090323 0.000000 -0.083688
# 5 0.010191 0.002203 0.020512 0.000000 0.048340 0.000000
# 6 0.000000 0.000000 0.000000 -0.083688 0.000000 0.201544
#
#
# Mechanical properties :
#
#
# Convention : Reuss Voigt Hill
#
# Bulk Modulus (GPa) = 18.16760 38.34675 28.25718
# Shear Modulus (GPa) = 12.14202 27.73607 19.93904
#
# Velocity S-wave (km/s) = 2.31735 3.50242 2.96960
# Velocity P-wave (km/s) = 3.89810 5.77198 4.92498
#
# Compressibility (1/GPa) = 0.05504303
#
# Stress axis : x y z
#
# Youngs Moduli (GPa) = 85.33193 111.10109 29.92124
#
# Poissons Ratio (x) = 0.07215 -0.09508
# Poissons Ratio (y) = 0.05542 0.06215
# Poissons Ratio (z) = -0.27117 0.23079
#
# Static dielectric constant tensor:
#      x y z
#    x 1.875460 0.000000 -0.042670 
#    y 0.000000 1.790450 0.000000 
#    z -0.042670 0.000000 1.909870 
# 
# From -- ./inp_files/359574.got.cif
#   From: 2010.05.17/outbox.cif.g08.bks.cpg/sg12_180_cif.got.tgz:359574.got - 2010.06.03 13:09:07.
