data_PCOD9200205
_publ_section_title
;
Structure prediction by ZEFSAII (Michael W. Deem and Ramdas Pophale) SiO2 
 PCOD9200205
Probable space group: C 2/M
;
_chemical_formula_sum "Si O2"
_cell_formula_units_Z 52
_cell_length_a 10.324803
_cell_length_b 14.017069
_cell_length_c 34.078736
_cell_angle_alpha 90.000000
_cell_angle_beta 34.754272
_cell_angle_gamma 90.000000
_cell_volume 2811.522257
_symmetry_space_group_name_H-M "C 2/M"
_symmetry_group_IT_number 12
_symmetry_cell_setting 'monoclinic'
loop_
_space_group_symop_operation_xyz
x,y,z
-x,y,-z
-x,-y,-z
x,-y,z
1/2+x,1/2+y,z
1/2-x,1/2+y,-z
1/2-x,1/2-y,-z
1/2+x,1/2-y,z
loop_
_atom_site_type_symbol
_atom_site_label
_atom_site_fract_x
_atom_site_fract_y
_atom_site_fract_z
Si Si1 0.470097 0.194044 0.460605
Si Si2 0.589784 0.796347 0.683172
Si Si3 0.398109 0.240570 0.227566
Si Si4 0.790701 0.500000 0.471748
Si Si5 0.902703 0.609532 0.887957
Si Si6 0.000000 0.746914 0.000000
Si Si7 0.223558 0.390157 0.881548
Si Si8 0.753202 0.500000 0.386903
O O1 0.500000 0.199886 0.500000
O O2 0.250000 0.250000 0.500000
O O3 0.694763 0.237062 0.385569
O O4 0.419156 0.089236 0.457992
O O5 0.572113 0.782812 0.734220
O O6 0.362306 0.757937 0.719179
O O7 0.640453 0.905401 0.658505
O O8 0.507060 0.155700 0.174648
O O9 0.537357 0.336128 0.181517
O O10 0.797959 0.500000 0.422610
O O11 0.521794 0.500000 0.549672
O O12 0.822019 0.500000 0.903288
O O13 0.711617 0.681178 0.952297
O O14 0.107486 0.608598 0.867917
O O15 0.933746 0.676108 0.051797
O O16 0.240780 0.500000 0.891209
#
# Coordination Sequence:
#
# PCOD9200205 Si02
#       8
#     8   8   8   4   8   4   8   4
#     4  12  24  44  68  95 130 166 217 276 331 383
#     4  12  25  43  65  93 125 171 213 264 320 389
#     4  11  24  43  61  92 128 171 215 258 315 383
#     4  11  23  44  64 100 126 166 208 276 336 385
#     4  10  21  40  63  90 131 166 210 258 315 368
#     4  10  20  36  68  96 124 162 218 256 310 364
#     4  10  21  40  63  93 130 168 206 261 309 372
#     4  11  24  40  70  92 130 162 216 267 328 392
#
# _framework density 18.495318000000001
#
# number of rings (size 3 to 8) (size 9 to 14) (size 15 to 20)
#    0.000    1.077    3.077    3.923    2.154    0.000 
#    2.769    0.000    0.000    0.000    0.000    0.000 
#    0.000    0.000    0.000    0.000    0.000    0.000 
#
# Total GULP energy -145230.902276 kJ/mol
# GULP energy per Si atom -5585.803934 kJ/mol
# Density = 1.845322 g / cm^3
# Si number density = 18.495318 Si / 1000 Ang^3
#
#
#
# Elastic Constant Matrix: (Units=GPa)
#
#
# Indices 1 2 3 4 5 6 
#
# 1 90.5745 35.8884 25.7063 0.0111 1.5283 -0.0079
# 2 35.8884 161.7517 44.8079 -0.0143 2.1270 0.0113
# 3 25.7063 44.8079 87.0301 -0.0640 -0.4217 0.0503
# 4 0.0111 -0.0143 -0.0640 -24.2731 0.0214 30.9895
# 5 1.5283 2.1270 -0.4217 0.0214 32.7687 -0.0142
# 6 -0.0079 0.0113 0.0503 30.9895 -0.0142 10.1393
#
#
#
# Elastic Compliance Matrix: (Units=1/GPa)
#
#
# Indices 1 2 3 4 5 6 
#
# 1 0.012621 -0.002053 -0.002673 0.000009 -0.000490 -0.000003
# 2 -0.002053 0.007554 -0.003285 0.000002 -0.000437 -0.000001
# 3 -0.002673 -0.003285 0.013973 -0.000025 0.000518 0.000009
# 4 0.000009 0.000002 -0.000025 -0.008404 0.000016 0.025686
# 5 -0.000490 -0.000437 0.000518 0.000016 0.030575 -0.000008
# 6 -0.000003 -0.000001 0.000009 0.025686 -0.000008 0.020119
#
#
# Mechanical properties :
#
#
# Convention : Reuss Voigt Hill
#
# Bulk Modulus (GPa) = 55.16947 61.35130 58.26038
# Shear Modulus (GPa) = 50.76029 19.25722 35.00876
#
# Velocity S-wave (km/s) = 5.24448 3.23025 4.35540
# Velocity P-wave (km/s) = 8.15882 6.86702 7.54063
#
# Compressibility (1/GPa) = 0.01812597
#
# Stress axis : x y z
#
# Youngs Moduli (GPa) = 79.23194 132.38844 71.56449
#
# Poissons Ratio (x) = 0.27184 0.19130
# Poissons Ratio (y) = 0.16269 0.23506
# Poissons Ratio (z) = 0.21180 0.43484
#
# Static dielectric constant tensor:
#      x y z
#    x 1.617110 0.000010 0.009390 
#    y 0.000010 1.587270 0.000020 
#    z 0.009390 0.000020 1.659310 
# 
# From -- ./inp_files/372525.got.cif
#   From: 2010.05.17/outbox.cif.g08.bks.cpg/sg12_187_cif.got.tgz:372525.got - 2010.06.03 13:09:07.
