data_PCOD9200047
_publ_section_title
;
Structure prediction by ZEFSAII (Michael W. Deem and Ramdas Pophale) SiO2 
 PCOD9200047
Probable space group: C 2/M
;
_chemical_formula_sum "Si O2"
_cell_formula_units_Z 32
_cell_length_a 14.276849
_cell_length_b 10.999114
_cell_length_c 11.478417
_cell_angle_alpha 90.000000
_cell_angle_beta 52.382161
_cell_angle_gamma 90.000000
_cell_volume 1427.749056
_symmetry_space_group_name_H-M "C 2/M"
_symmetry_group_IT_number 12
_symmetry_cell_setting 'monoclinic'
loop_
_space_group_symop_operation_xyz
x,y,z
-x,y,-z
-x,-y,-z
x,-y,z
1/2+x,1/2+y,z
1/2-x,1/2+y,-z
1/2-x,1/2-y,-z
1/2+x,1/2-y,z
loop_
_atom_site_type_symbol
_atom_site_label
_atom_site_fract_x
_atom_site_fract_y
_atom_site_fract_z
Si Si1 0.376865 0.366169 0.312979
Si Si2 0.611544 0.362313 0.012146
Si Si3 0.269461 0.363674 0.823549
Si Si4 0.119340 0.283113 0.460593
O O1 0.397421 0.500000 0.347747
O O2 0.470275 0.351813 0.137620
O O3 0.240964 0.357863 0.375877
O O4 0.398987 0.266720 0.395333
O O5 0.643607 0.500000 0.945968
O O6 0.656213 0.362839 0.113858
O O7 0.674405 0.243567 0.912693
O O8 0.220548 0.500000 0.844361
O O9 0.348982 0.325884 0.652888
O O10 0.000000 0.341706 0.500000
#
# Coordination Sequence:
#
# PCOD9200047 Si02
#       4
#     8   8   8   8
#     4  10  22  40  62  89 121 160 206 252 303 367
#     4   9  19  38  62  88 120 159 204 250 301 365
#     4  10  20  36  63  91 119 159 204 252 303 359
#     4  11  22  38  62  90 122 158 203 255 305 360
#
# _framework density 22.412901000000002
#
# number of rings (size 3 to 8) (size 9 to 14) (size 15 to 20)
#    0.000    2.000    2.500    0.750    0.000    3.500 
#    0.000   10.000    0.000    0.000    0.000    0.000 
#    0.000    0.000    0.000    0.000    0.000    0.000 
#
# Total GULP energy -89343.918952 kJ/mol
# GULP energy per Si atom -5583.994935 kJ/mol
# Density = 2.236189 g / cm^3
# Si number density = 22.412901 Si / 1000 Ang^3
#
#
#
# Elastic Constant Matrix: (Units=GPa)
#
#
# Indices 1 2 3 4 5 6 
#
# 1 105.7600 23.1511 -4.4456 0.0000 -31.3729 0.0000
# 2 23.1511 122.3124 43.1025 0.0000 -16.1016 0.0000
# 3 -4.4456 43.1025 105.2659 0.0000 -14.0850 0.0000
# 4 0.0000 0.0000 0.0000 26.6602 0.0000 0.2430
# 5 -31.3729 -16.1016 -14.0850 0.0000 39.4798 0.0000
# 6 0.0000 0.0000 0.0000 0.2430 0.0000 28.7942
#
#
#
# Elastic Compliance Matrix: (Units=1/GPa)
#
#
# Indices 1 2 3 4 5 6 
#
# 1 0.013190 -0.002096 0.002839 0.000000 0.010639 0.000000
# 2 -0.002096 0.010154 -0.004111 0.000000 0.001009 0.000000
# 3 0.002839 -0.004111 0.011951 0.000000 0.004843 0.000000
# 4 0.000000 0.000000 0.000000 0.037512 0.000000 -0.000317
# 5 0.010639 0.001009 0.004843 0.000000 0.035923 0.000000
# 6 0.000000 0.000000 0.000000 -0.000317 0.000000 0.034732
#
#
# Mechanical properties :
#
#
# Convention : Reuss Voigt Hill
#
# Bulk Modulus (GPa) = 35.01721 50.77272 42.89497
# Shear Modulus (GPa) = 31.30506 37.08884 34.19695
#
# Velocity S-wave (km/s) = 3.74136 4.07233 3.91035
# Velocity P-wave (km/s) = 5.85844 6.69436 6.29030
#
# Compressibility (1/GPa) = 0.02855738
#
# Stress axis : x y z
#
# Youngs Moduli (GPa) = 75.81723 98.48146 83.67432
#
# Poissons Ratio (x) = 0.20646 -0.23755
# Poissons Ratio (y) = 0.15894 0.34401
# Poissons Ratio (z) = -0.21524 0.40489
#
# Static dielectric constant tensor:
#      x y z
#    x 1.939510 0.000000 0.024500 
#    y 0.000000 1.747230 0.000000 
#    z 0.024500 0.000000 1.833050 
# 
# From -- ./inp_files/139734.got.cif
#   From: 2010.05.17/outbox.cif.g08.bks.cpg/sg12_70_cif.got.tgz:139734.got - 2010.06.03 13:09:07.
