data_PCOD9200706
_publ_section_title
;
Structure prediction by ZEFSAII (Michael W. Deem and Ramdas Pophale) SiO2 
 PCOD9200706
Probable space group: C 2/M
;
_chemical_formula_sum "Si O2"
_cell_formula_units_Z 50
_cell_length_a 28.821084
_cell_length_b 7.511975
_cell_length_c 11.872637
_cell_angle_alpha 90.000000
_cell_angle_beta 54.598473
_cell_angle_gamma 90.000000
_cell_volume 2095.217495
_symmetry_space_group_name_H-M "C 2/M"
_symmetry_group_IT_number 12
_symmetry_cell_setting 'monoclinic'
loop_
_space_group_symop_operation_xyz
x,y,z
-x,y,-z
-x,-y,-z
x,-y,z
1/2+x,1/2+y,z
1/2-x,1/2+y,-z
1/2-x,1/2-y,-z
1/2+x,1/2-y,z
loop_
_atom_site_type_symbol
_atom_site_label
_atom_site_fract_x
_atom_site_fract_y
_atom_site_fract_z
Si Si1 0.697860 0.783510 0.394977
Si Si2 0.140947 0.708491 0.693931
Si Si3 0.000000 0.000000 0.500000
Si Si4 0.588681 0.280780 0.165947
Si Si5 0.814839 0.796750 0.133472
Si Si6 0.986905 0.785507 0.146012
Si Si7 0.080612 0.700532 0.437663
O O1 0.685438 0.720544 0.539260
O O2 0.754769 0.715173 0.255352
O O3 0.641059 0.745965 0.404847
O O4 0.702563 0.000000 0.394911
O O5 0.151507 0.500000 0.696820
O O6 0.147574 0.797826 0.805553
O O7 0.077326 0.729819 0.736135
O O8 0.032552 0.844829 0.528033
O O9 0.586656 0.500000 0.180168
O O10 0.535774 0.225397 0.162552
O O11 0.587492 0.208083 0.292880
O O12 0.645961 0.223589 0.020532
O O13 0.802900 0.000000 0.116412
O O14 0.988524 0.000000 0.142672
O O15 0.000000 0.723766 0.000000
O O16 0.066206 0.500000 0.493534
#
# Coordination Sequence:
#
# PCOD9200706 Si02
#       7
#     8   8   2   8   8   8   8
#     4   9  22  42  63  91 127 171 219 265 327 389
#     4  11  22  36  57  92 128 162 213 270 327 388
#     4  12  26  48  68  98 134 168 222 266 322 392
#     4  10  21  39  64  95 128 166 220 272 323 387
#     4  10  20  41  66  88 126 171 215 270 323 387
#     4  10  20  37  59  85 119 163 212 259 320 389
#     4  11  25  45  69  98 134 176 216 267 329 385
#
# _framework density 23.863871
#
# number of rings (size 3 to 8) (size 9 to 14) (size 15 to 20)
#    0.000    1.760    2.400    1.200    2.240    2.240 
#    2.880    0.000    0.000    0.000    0.000    0.000 
#    0.000    0.000    0.000    0.000    0.000    0.000 
#
# Total GULP energy -139667.388770 kJ/mol
# GULP energy per Si atom -5586.695551 kJ/mol
# Density = 2.380956 g / cm^3
# Si number density = 23.863871 Si / 1000 Ang^3
#
#
#
# Elastic Constant Matrix: (Units=GPa)
#
#
# Indices 1 2 3 4 5 6 
#
# 1 39.2833 2.0942 16.0391 0.0000 -11.8802 0.0000
# 2 2.0942 90.9281 2.3033 0.0000 -8.5351 0.0000
# 3 16.0391 2.3033 115.0948 0.0000 -6.1439 0.0000
# 4 0.0000 0.0000 0.0000 19.3786 0.0000 -6.8431
# 5 -11.8802 -8.5351 -6.1439 0.0000 44.0356 0.0000
# 6 0.0000 0.0000 0.0000 -6.8431 0.0000 12.8950
#
#
#
# Elastic Compliance Matrix: (Units=1/GPa)
#
#
# Indices 1 2 3 4 5 6 
#
# 1 0.029183 0.000114 -0.003675 0.000000 0.007383 0.000000
# 2 0.000114 0.011203 -0.000123 0.000000 0.002185 0.000000
# 3 -0.003675 -0.000123 0.009218 0.000000 0.000271 0.000000
# 4 0.000000 0.000000 0.000000 0.063504 0.000000 0.033700
# 5 0.007383 0.002185 0.000271 0.000000 0.025162 0.000000
# 6 0.000000 0.000000 0.000000 0.033700 0.000000 0.095434
#
#
# Mechanical properties :
#
#
# Convention : Reuss Voigt Hill
#
# Bulk Modulus (GPa) = 23.67709 31.79772 27.73741
# Shear Modulus (GPa) = 19.59628 30.25315 24.92471
#
# Velocity S-wave (km/s) = 2.86871 3.56439 3.23531
# Velocity P-wave (km/s) = 4.57340 5.50395 5.06011
#
# Compressibility (1/GPa) = 0.04223491
#
# Stress axis : x y z
#
# Youngs Moduli (GPa) = 34.26634 89.25943 108.48875
#
# Poissons Ratio (x) = -0.01017 0.39870
# Poissons Ratio (y) = -0.00390 0.01339
# Poissons Ratio (z) = 0.12593 0.01102
#
# Static dielectric constant tensor:
#      x y z
#    x 1.868260 0.000000 -0.033230 
#    y 0.000000 1.905460 0.000000 
#    z -0.033230 0.000000 1.966800 
# 
# From -- ./inp_files/180564.got.cif
#   From: 2010.05.17/outbox.cif.g08.bks.cpg/sg12_91_cif.got.tgz:180564.got - 2010.06.03 13:09:07.
