data_PCOD9200802
_publ_section_title
;
Structure prediction by ZEFSAII (Michael W. Deem and Ramdas Pophale) SiO2 
 PCOD9200802
Probable space group: C 2/M
;
_chemical_formula_sum "Si O2"
_cell_formula_units_Z 40
_cell_length_a 25.202414
_cell_length_b 7.628648
_cell_length_c 9.936678
_cell_angle_alpha 90.000000
_cell_angle_beta 65.451300
_cell_angle_gamma 90.000000
_cell_volume 1737.742516
_symmetry_space_group_name_H-M "C 2/M"
_symmetry_group_IT_number 12
_symmetry_cell_setting 'monoclinic'
loop_
_space_group_symop_operation_xyz
x,y,z
-x,y,-z
-x,-y,-z
x,-y,z
1/2+x,1/2+y,z
1/2-x,1/2+y,-z
1/2-x,1/2-y,-z
1/2+x,1/2-y,z
loop_
_atom_site_type_symbol
_atom_site_label
_atom_site_fract_x
_atom_site_fract_y
_atom_site_fract_z
Si Si1 0.301903 0.204856 0.117881
Si Si2 0.849237 0.786801 0.358818
Si Si3 0.820787 0.211798 0.684030
Si Si4 0.595152 0.206503 0.178218
Si Si5 0.021277 0.794919 0.834889
O O1 0.318151 0.220248 0.257733
O O2 0.236525 0.279373 0.176928
O O3 0.298901 0.000000 0.084354
O O4 0.355095 0.281978 0.975283
O O5 0.822058 0.727692 0.528589
O O6 0.916672 0.726097 0.279813
O O7 0.846593 0.000000 0.359858
O O8 0.878943 0.262652 0.701841
O O9 0.817686 0.000000 0.686021
O O10 0.531857 0.280971 0.212626
O O11 0.590023 0.000000 0.158610
O O12 0.032464 0.000000 0.848208
O O13 0.000000 0.716991 0.000000
#
# Coordination Sequence:
#
# PCOD9200802 Si02
#       5
#     8   8   8   8   8
#     4  10  21  37  58  84 114 148 185 228 277 329
#     4  10  21  37  60  86 110 145 189 230 276 330
#     4  10  22  39  57  82 116 149 184 228 278 331
#     4  11  23  37  57  85 114 148 187 228 277 328
#     4  10  20  37  60  83 109 145 188 230 275 329
#
# _framework density 23.018370999999998
#
# number of rings (size 3 to 8) (size 9 to 14) (size 15 to 20)
#    0.000    1.800    2.000    1.800    0.000    4.400 
#    0.000    4.000    0.000    0.000    0.000    0.000 
#    0.000    0.000    0.000    0.000    0.000    0.000 
#
# Total GULP energy -111803.243437 kJ/mol
# GULP energy per Si atom -5590.162172 kJ/mol
# Density = 2.296598 g / cm^3
# Si number density = 23.018371 Si / 1000 Ang^3
#
#
#
# Elastic Constant Matrix: (Units=GPa)
#
#
# Indices 1 2 3 4 5 6 
#
# 1 96.6292 -12.7921 -13.2124 0.0000 -1.7337 0.0000
# 2 -12.7921 48.7635 1.0674 0.0000 -13.6565 0.0000
# 3 -13.2124 1.0674 51.5248 0.0000 4.5610 0.0000
# 4 0.0000 0.0000 0.0000 3.4687 0.0000 14.6657
# 5 -1.7337 -13.6565 4.5610 0.0000 41.0339 0.0000
# 6 0.0000 0.0000 0.0000 14.6657 0.0000 9.5717
#
#
#
# Elastic Compliance Matrix: (Units=1/GPa)
#
#
# Indices 1 2 3 4 5 6 
#
# 1 0.011165 0.003218 0.002686 0.000000 0.001244 0.000000
# 2 0.003218 0.023610 -0.000375 0.000000 0.008035 0.000000
# 3 0.002686 -0.000375 0.020305 0.000000 -0.002268 0.000000
# 4 0.000000 0.000000 0.000000 -0.052627 0.000000 0.080634
# 5 0.001244 0.008035 -0.002268 0.000000 0.027349 0.000000
# 6 0.000000 0.000000 0.000000 0.080634 0.000000 -0.019071
#
#
# Mechanical properties :
#
#
# Convention : Reuss Voigt Hill
#
# Bulk Modulus (GPa) = 15.11971 16.33814 15.72893
# Shear Modulus (GPa) = 230.22109 25.60519 127.91314
#
# Velocity S-wave (km/s) = 10.01166 3.33886 7.46262
# Velocity P-wave (km/s) = 11.84176 4.68799 9.00568
#
# Compressibility (1/GPa) = 0.06613885
#
# Stress axis : x y z
#
# Youngs Moduli (GPa) = 89.56961 42.35492 49.24782
#
# Poissons Ratio (x) = -0.13632 -0.13228
# Poissons Ratio (y) = -0.28827 0.01847
# Poissons Ratio (z) = -0.24059 0.01589
#
# Static dielectric constant tensor:
#      x y z
#    x 1.845790 0.000000 -0.033240 
#    y 0.000000 1.850090 0.000000 
#    z -0.033240 0.000000 1.858690 
# 
# From -- ./inp_files/92743.got.cif
#   From: 2010.05.17/outbox.cif.g08.bks.cpg/sg12_47_cif.got.tgz:92743.got - 2010.06.03 13:09:07.
