data_PCOD9200808
_publ_section_title
;
Structure prediction by ZEFSAII (Michael W. Deem and Ramdas Pophale) SiO2 
 PCOD9200808
Probable space group: C 2/M
;
_chemical_formula_sum "Si O2"
_cell_formula_units_Z 64
_cell_length_a 14.715327
_cell_length_b 9.291975
_cell_length_c 30.513648
_cell_angle_alpha 90.000000
_cell_angle_beta 126.322451
_cell_angle_gamma 90.000000
_cell_volume 3361.579765
_symmetry_space_group_name_H-M "C 2/M"
_symmetry_group_IT_number 12
_symmetry_cell_setting 'monoclinic'
loop_
_space_group_symop_operation_xyz
x,y,z
-x,y,-z
-x,-y,-z
x,-y,z
1/2+x,1/2+y,z
1/2-x,1/2+y,-z
1/2-x,1/2-y,-z
1/2+x,1/2-y,z
loop_
_atom_site_type_symbol
_atom_site_label
_atom_site_fract_x
_atom_site_fract_y
_atom_site_fract_z
Si Si1 0.818265 0.329775 0.743732
Si Si2 0.885387 0.166395 0.939551
Si Si3 0.415028 0.171217 0.343727
Si Si4 0.117533 0.667469 0.333883
Si Si5 0.710206 0.671003 0.944573
Si Si6 0.571328 0.665239 0.453851
Si Si7 0.224399 0.335782 0.559718
Si Si8 0.450131 0.330928 0.856950
O O1 0.798358 0.500000 0.743541
O O2 0.700945 0.248570 0.701377
O O3 0.892329 0.309967 0.720701
O O4 0.880830 0.263447 0.803163
O O5 0.792628 0.275103 0.930342
O O6 0.908014 0.184480 0.894741
O O7 0.850530 0.000000 0.937601
O O8 0.000000 0.188263 0.000000
O O9 0.504265 0.193506 0.329299
O O10 0.473299 0.243320 0.402781
O O11 0.400770 0.000000 0.345748
O O12 0.148567 0.500000 0.350295
O O13 0.216666 0.765678 0.381523
O O14 0.715964 0.500000 0.952942
O O15 0.581982 0.707878 0.895897
O O16 0.750000 0.750000 0.000000
O O17 0.537878 0.500000 0.451967
O O18 0.675315 0.663587 0.448344
O O19 0.623790 0.741050 0.511332
O O20 0.189530 0.500000 0.557147
O O21 0.439757 0.500000 0.842066
#
# Coordination Sequence:
#
# PCOD9200808 Si02
#       8
#     8   8   8   8   8   8   8   8
#     4  11  24  41  60  84 115 150 197 245 288 342
#     4  10  20  39  63  89 123 160 194 234 289 346
#     4  10  20  37  60  83 111 150 195 240 294 351
#     4   9  20  38  58  80 111 152 192 236 292 351
#     4  11  22  38  62  93 125 158 196 237 286 344
#     4   9  16  28  49  79 114 149 186 233 292 351
#     4   9  16  27  49  81 112 145 188 237 289 347
#     4  10  23  42  61  84 120 159 194 237 292 346
#
# _framework density 19.038667
#
# number of rings (size 3 to 8) (size 9 to 14) (size 15 to 20)
#    0.000    2.125    1.250    1.875    0.000    7.250 
#    0.000    4.375    0.000    3.750    0.000    0.000 
#    0.000    0.000    0.000    0.000    0.000    0.000 
#
# Total GULP energy -178816.837426 kJ/mol
# GULP energy per Si atom -5588.026170 kJ/mol
# Density = 1.899533 g / cm^3
# Si number density = 19.038667 Si / 1000 Ang^3
#
#
#
# Elastic Constant Matrix: (Units=GPa)
#
#
# Indices 1 2 3 4 5 6 
#
# 1 47.0071 32.9713 25.2864 0.0000 9.8328 0.0000
# 2 32.9713 90.2631 62.1276 0.0000 10.5176 0.0000
# 3 25.2864 62.1276 109.4842 0.0000 6.4606 0.0000
# 4 0.0000 0.0000 0.0000 40.0263 0.0000 1.5642
# 5 9.8328 10.5176 6.4606 0.0000 25.7118 0.0000
# 6 0.0000 0.0000 0.0000 1.5642 0.0000 25.9967
#
#
#
# Elastic Compliance Matrix: (Units=1/GPa)
#
#
# Indices 1 2 3 4 5 6 
#
# 1 0.029957 -0.009224 -0.001250 0.000000 -0.007369 0.000000
# 2 -0.009224 0.021653 -0.009990 0.000000 -0.002820 0.000000
# 3 -0.001250 -0.009990 0.015045 0.000000 0.000784 0.000000
# 4 0.000000 0.000000 0.000000 0.025042 0.000000 -0.001507
# 5 -0.007369 -0.002820 0.000784 0.000000 0.042667 0.000000
# 6 0.000000 0.000000 0.000000 -0.001507 0.000000 0.038557
#
#
# Mechanical properties :
#
#
# Convention : Reuss Voigt Hill
#
# Bulk Modulus (GPa) = 38.86978 54.16946 46.51962
# Shear Modulus (GPa) = 22.47950 26.77156 24.62553
#
# Velocity S-wave (km/s) = 3.43990 3.75396 3.60036
# Velocity P-wave (km/s) = 6.01978 6.87777 6.46303
#
# Compressibility (1/GPa) = 0.02572693
#
# Stress axis : x y z
#
# Youngs Moduli (GPa) = 33.38146 46.18342 66.46617
#
# Poissons Ratio (x) = 0.42598 0.08308
# Poissons Ratio (y) = 0.30790 0.66402
# Poissons Ratio (z) = 0.04172 0.46139
#
# Static dielectric constant tensor:
#      x y z
#    x 1.686590 0.000000 -0.019350 
#    y 0.000000 1.639170 0.000000 
#    z -0.019350 0.000000 1.614200 
# 
# From -- ./inp_files/375479.got.cif
#   From: 2010.05.17/outbox.cif.g08.bks.cpg/sg12_188_cif.got.tgz:375479.got - 2010.06.03 13:09:07.
