data_PCOD9200199
_publ_section_title
;
Structure prediction by ZEFSAII (Michael W. Deem and Ramdas Pophale) SiO2 
 PCOD9200199
Probable space group: C 2/M
;
_chemical_formula_sum "Si O2"
_cell_formula_units_Z 38
_cell_length_a 13.240917
_cell_length_b 14.752601
_cell_length_c 20.785435
_cell_angle_alpha 90.000000
_cell_angle_beta 155.662598
_cell_angle_gamma 90.000000
_cell_volume 1673.239518
_symmetry_space_group_name_H-M "C 2/M"
_symmetry_group_IT_number 12
_symmetry_cell_setting 'monoclinic'
loop_
_space_group_symop_operation_xyz
x,y,z
-x,y,-z
-x,-y,-z
x,-y,z
1/2+x,1/2+y,z
1/2-x,1/2+y,-z
1/2-x,1/2-y,-z
1/2+x,1/2-y,z
loop_
_atom_site_type_symbol
_atom_site_label
_atom_site_fract_x
_atom_site_fract_y
_atom_site_fract_z
Si Si1 0.000000 0.814931 0.000000
Si Si2 0.630791 0.658376 0.746559
Si Si3 0.000000 0.500000 0.000000
Si Si4 0.181760 0.604150 0.277642
Si Si5 0.383473 0.397169 0.068373
Si Si6 0.726841 0.711751 0.363013
O O1 0.779926 0.750175 0.848532
O O2 0.079962 0.873309 0.985142
O O3 0.785738 0.578578 0.869601
O O4 0.642690 0.634779 0.678415
O O5 0.364154 0.671265 0.622585
O O6 0.222841 0.500000 0.320598
O O7 0.199244 0.679787 0.342024
O O8 0.907830 0.607708 0.088534
O O9 0.463227 0.500000 0.127756
O O10 0.534202 0.328025 0.199242
O O11 0.000000 0.686915 0.500000
#
# Coordination Sequence:
#
# PCOD9200199 Si02
#       6
#     4   8   2   8   8   8
#     4  11  19  39  69  98 130 166 224 290 332 382
#     4  11  22  38  67  99 129 168 225 277 328 390
#     4  10  20  36  68 104 120 162 226 284 312 378
#     4  11  23  44  73  99 126 174 236 289 324 391
#     4  11  23  40  67 101 132 172 226 282 339 392
#     4  12  27  44  65  96 144 180 217 274 347 410
#
# _framework density 22.710436999999999
#
# number of rings (size 3 to 8) (size 9 to 14) (size 15 to 20)
#    0.000    0.842    5.263    3.474    4.421    1.684 
#    0.000    0.000    0.000    0.000    0.000    0.000 
#    0.000    0.000    0.000    0.000    0.000    0.000 
#
# Total GULP energy -106144.585799 kJ/mol
# GULP energy per Si atom -5586.557147 kJ/mol
# Density = 2.265875 g / cm^3
# Si number density = 22.710437 Si / 1000 Ang^3
#
#
#
# Elastic Constant Matrix: (Units=GPa)
#
#
# Indices 1 2 3 4 5 6 
#
# 1 84.5706 55.0759 16.8715 0.0029 27.0809 0.0001
# 2 55.0759 141.8236 42.3733 0.0139 8.5713 0.0015
# 3 16.8715 42.3733 114.2695 0.0170 19.0745 0.0002
# 4 0.0029 0.0139 0.0170 4.8994 0.0040 -7.7049
# 5 27.0809 8.5713 19.0745 0.0040 41.7570 -0.0015
# 6 0.0001 0.0015 0.0002 -7.7049 -0.0015 -33.6153
#
#
#
# Elastic Compliance Matrix: (Units=1/GPa)
#
#
# Indices 1 2 3 4 5 6 
#
# 1 0.020563 -0.007810 0.001969 0.000010 -0.012632 -0.000002
# 2 -0.007810 0.010900 -0.003638 -0.000013 0.004490 0.000003
# 3 0.001969 -0.003638 0.010715 -0.000017 -0.005425 0.000004
# 4 0.000010 -0.000013 -0.000017 0.150027 -0.000012 -0.034387
# 5 -0.012632 0.004490 -0.005425 -0.000012 0.033697 0.000001
# 6 -0.000002 0.000003 0.000004 -0.034387 0.000001 -0.021866
#
#
# Mechanical properties :
#
#
# Convention : Reuss Voigt Hill
#
# Bulk Modulus (GPa) = 43.06885 63.25610 53.16247
# Shear Modulus (GPa) = 21.66996 17.69777 19.68386
#
# Velocity S-wave (km/s) = 3.09234 2.79459 2.94723
# Velocity P-wave (km/s) = 5.63521 6.19086 5.91956
#
# Compressibility (1/GPa) = 0.02321864
#
# Stress axis : x y z
#
# Youngs Moduli (GPa) = 48.63102 91.74590 93.32566
#
# Poissons Ratio (x) = 0.71656 -0.18373
# Poissons Ratio (y) = 0.37982 0.33953
# Poissons Ratio (z) = -0.09574 0.33378
#
# Static dielectric constant tensor:
#      x y z
#    x 1.921010 0.000000 0.004180 
#    y 0.000000 1.797070 -0.000010 
#    z 0.004180 -0.000010 1.836670 
# 
# From -- ./inp_files/142554.got.cif
#   From: 2010.05.17/outbox.cif.g08.bks.cpg/sg12_72_cif.got.tgz:142554.got - 2010.06.03 13:09:07.
