data_PCOD9200970
_publ_section_title
;
Structure prediction by ZEFSAII (Michael W. Deem and Ramdas Pophale) SiO2 
 PCOD9200970
Probable space group: C 2/M
;
_chemical_formula_sum "Si O2"
_cell_formula_units_Z 48
_cell_length_a 9.034352
_cell_length_b 16.769422
_cell_length_c 19.748181
_cell_angle_alpha 90.000000
_cell_angle_beta 50.063222
_cell_angle_gamma 90.000000
_cell_volume 2294.023305
_symmetry_space_group_name_H-M "C 2/M"
_symmetry_group_IT_number 12
_symmetry_cell_setting 'monoclinic'
loop_
_space_group_symop_operation_xyz
x,y,z
-x,y,-z
-x,-y,-z
x,-y,z
1/2+x,1/2+y,z
1/2-x,1/2+y,-z
1/2-x,1/2-y,-z
1/2+x,1/2-y,z
loop_
_atom_site_type_symbol
_atom_site_label
_atom_site_fract_x
_atom_site_fract_y
_atom_site_fract_z
Si Si1 0.576863 0.095226 0.762004
Si Si2 0.211535 0.816204 0.415930
Si Si3 0.308316 0.592512 0.211297
Si Si4 0.514482 0.908947 0.069281
Si Si5 0.070067 0.353913 0.409718
Si Si6 0.616905 0.328356 0.034158
O O1 0.724378 0.136802 0.669223
O O2 0.365779 0.107317 0.790978
O O3 0.587561 0.127441 0.835433
O O4 0.606895 0.000000 0.754659
O O5 0.181437 0.724233 0.404354
O O6 0.377950 0.829084 0.423341
O O7 0.000000 0.845012 0.500000
O O8 0.369544 0.500000 0.187592
O O9 0.211731 0.604929 0.313669
O O10 0.480460 0.651277 0.138218
O O11 0.446277 0.000000 0.083625
O O12 0.500000 0.870473 0.000000
O O13 0.740345 0.903232 0.017602
O O14 0.000000 0.396385 0.500000
O O15 0.500000 0.320785 0.000000
O O16 0.750000 0.250000 0.000000
#
# Coordination Sequence:
#
# PCOD9200970 Si02
#       6
#     8   8   8   8   8   8
#     4   9  19  37  62  88 118 161 204 247 303 363
#     4  10  20  37  60  87 121 158 198 247 304 360
#     4  10  22  40  64  90 121 163 208 250 306 372
#     4  10  21  40  61  86 124 160 201 253 302 358
#     4  10  21  38  62  90 121 159 199 252 307 362
#     4  12  25  40  62  93 121 163 207 253 306 366
#
# _framework density 20.923936999999999
#
# number of rings (size 3 to 8) (size 9 to 14) (size 15 to 20)
#    0.000    1.833    1.667    3.000    2.333    1.333 
#    6.000    0.000    0.000    0.000    0.000    0.000 
#    0.000    0.000    0.000    0.000    0.000    0.000 
#
# Total GULP energy -133849.687035 kJ/mol
# GULP energy per Si atom -5577.070293 kJ/mol
# Density = 2.087631 g / cm^3
# Si number density = 20.923937 Si / 1000 Ang^3
#
#
#
# Elastic Constant Matrix: (Units=GPa)
#
#
# Indices 1 2 3 4 5 6 
#
# 1 68.2232 17.6976 46.1294 0.0000 14.3653 0.0000
# 2 17.6976 38.3244 47.8801 0.0002 -8.2015 -0.0002
# 3 46.1294 47.8801 203.5157 -0.0001 18.0205 0.0001
# 4 0.0000 0.0002 -0.0001 28.1103 0.0001 -11.8793
# 5 14.3653 -8.2015 18.0205 0.0001 41.8961 0.0000
# 6 0.0000 -0.0002 0.0001 -11.8793 0.0000 9.0883
#
#
#
# Elastic Compliance Matrix: (Units=1/GPa)
#
#
# Indices 1 2 3 4 5 6 
#
# 1 0.019677 -0.008490 -0.001786 0.000000 -0.007640 0.000000
# 2 -0.008490 0.046731 -0.010539 0.000000 0.016592 0.000002
# 3 -0.001786 -0.010539 0.008240 0.000000 -0.004995 0.000000
# 4 0.000000 0.000000 0.000000 0.079472 0.000000 0.103878
# 5 -0.007640 0.016592 -0.004995 0.000000 0.031885 0.000001
# 6 0.000000 0.000002 0.000000 0.103878 0.000001 0.245810
#
#
# Mechanical properties :
#
#
# Convention : Reuss Voigt Hill
#
# Bulk Modulus (GPa) = 30.28672 59.27527 44.78099
# Shear Modulus (GPa) = 10.32096 29.04270 19.68183
#
# Velocity S-wave (km/s) = 2.22336 3.72965 3.07031
# Velocity P-wave (km/s) = 4.59317 6.85109 5.83244
#
# Compressibility (1/GPa) = 0.03301778
#
# Stress axis : x y z
#
# Youngs Moduli (GPa) = 50.82191 21.39900 121.35657
#
# Poissons Ratio (x) = 0.18168 0.21674
# Poissons Ratio (y) = 0.43148 1.27897
# Poissons Ratio (z) = 0.09077 0.22552
#
# Static dielectric constant tensor:
#      x y z
#    x 2.503190 0.000000 0.549530 
#    y 0.000000 1.761690 0.000000 
#    z 0.549530 0.000000 2.176860 
# 
# From -- ./inp_files/256444.got.cif
#   From: 2010.05.17/outbox.cif.g08.bks.cpg/sg12_129_cif.got.tgz:256444.got - 2010.06.03 13:09:07.
