data_PCOD9200506
_publ_section_title
;
Structure prediction by ZEFSAII (Michael W. Deem and Ramdas Pophale) SiO2 
 PCOD9200506
Probable space group: C 2/M
;
_chemical_formula_sum "Si O2"
_cell_formula_units_Z 48
_cell_length_a 15.926005
_cell_length_b 27.611913
_cell_length_c 8.461556
_cell_angle_alpha 90.000000
_cell_angle_beta 141.494555
_cell_angle_gamma 90.000000
_cell_volume 2316.621196
_symmetry_space_group_name_H-M "C 2/M"
_symmetry_group_IT_number 12
_symmetry_cell_setting 'monoclinic'
loop_
_space_group_symop_operation_xyz
x,y,z
-x,y,-z
-x,-y,-z
x,-y,z
1/2+x,1/2+y,z
1/2-x,1/2+y,-z
1/2-x,1/2-y,-z
1/2+x,1/2-y,z
loop_
_atom_site_type_symbol
_atom_site_label
_atom_site_fract_x
_atom_site_fract_y
_atom_site_fract_z
Si Si1 0.610555 0.156559 0.520379
Si Si2 0.680623 0.797391 0.322126
Si Si3 0.562471 0.445374 0.767365
Si Si4 0.654444 0.947624 0.666861
Si Si5 0.456856 0.654016 0.752761
Si Si6 0.666018 0.728438 0.018267
O O1 0.500000 0.159482 0.500000
O O2 0.582224 0.177761 0.305268
O O3 0.657502 0.101131 0.571486
O O4 0.735914 0.188307 0.762048
O O5 0.750000 0.750000 0.500000
O O6 0.801170 0.836395 0.484260
O O7 0.635715 0.771708 0.094828
O O8 0.500000 0.441931 0.500000
O O9 0.527719 0.500000 0.774856
O O10 0.503903 0.399513 0.774574
O O11 0.726490 0.442252 0.026460
O O12 0.500000 0.949070 0.500000
O O13 0.679764 0.000000 0.626038
O O14 0.500000 0.661649 0.000000
O O15 0.535170 0.697619 0.778706
O O16 0.750000 0.750000 0.000000
#
# Coordination Sequence:
#
# PCOD9200506 Si02
#       6
#     8   8   8   8   8   8
#     4  10  20  37  58  84 118 155 206 262 313 378
#     4  10  22  39  55  82 124 159 201 269 310 373
#     4  10  22  39  62  94 131 169 212 269 334 392
#     4   9  17  34  62  93 125 164 215 270 320 387
#     4  12  22  40  63  87 128 164 214 270 325 386
#     4  11  25  36  58  87 114 168 208 255 317 385
#
# _framework density 20.719830000000002
#
# number of rings (size 3 to 8) (size 9 to 14) (size 15 to 20)
#    0.000    1.667    5.000    0.000    7.000    0.333 
#    0.000    0.833    0.000    0.000    0.000    0.000 
#    0.000   32.000    0.000    0.000    0.000    0.000 
#
# Total GULP energy -133666.404175 kJ/mol
# GULP energy per Si atom -5569.433507 kJ/mol
# Density = 2.067267 g / cm^3
# Si number density = 20.719830 Si / 1000 Ang^3
#
#
#
# Elastic Constant Matrix: (Units=GPa)
#
#
# Indices 1 2 3 4 5 6 
#
# 1 94.2699 70.9846 22.0586 0.0000 0.3533 0.0000
# 2 70.9846 178.5938 59.2200 0.0000 -1.1388 0.0000
# 3 22.0586 59.2200 76.4448 0.0000 24.4996 0.0000
# 4 0.0000 0.0000 0.0000 5.8914 0.0000 -9.3081
# 5 0.3533 -1.1388 24.4996 0.0000 25.5200 0.0000
# 6 0.0000 0.0000 0.0000 -9.3081 0.0000 29.7689
#
#
#
# Elastic Compliance Matrix: (Units=1/GPa)
#
#
# Indices 1 2 3 4 5 6 
#
# 1 0.015181 -0.006394 0.001056 0.000000 -0.001510 0.000000
# 2 -0.006394 0.011800 -0.010823 0.000000 0.011005 0.000000
# 3 0.001056 -0.010823 0.030795 0.000000 -0.030061 0.000000
# 4 0.000000 0.000000 0.000000 0.335463 0.000000 0.104892
# 5 -0.001510 0.011005 -0.030061 0.000000 0.068556 0.000000
# 6 0.000000 0.000000 0.000000 0.104892 0.000000 0.066389
#
#
# Mechanical properties :
#
#
# Convention : Reuss Voigt Hill
#
# Bulk Modulus (GPa) = 39.28526 72.64831 55.96679
# Shear Modulus (GPa) = 8.78751 25.37240 17.07995
#
# Velocity S-wave (km/s) = 2.06163 3.50315 2.87423
# Velocity P-wave (km/s) = 4.96674 7.17642 6.17129
#
# Compressibility (1/GPa) = 0.02545484
#
# Stress axis : x y z
#
# Youngs Moduli (GPa) = 65.87304 84.74933 32.47270
#
# Poissons Ratio (x) = 0.54186 -0.03430
# Poissons Ratio (y) = 0.42117 0.35145
# Poissons Ratio (z) = -0.06959 0.91723
#
# Static dielectric constant tensor:
#      x y z
#    x 1.847530 0.000000 0.000070 
#    y 0.000000 1.750950 0.000000 
#    z 0.000070 0.000000 1.867030 
# 
# From -- ./inp_files/67393.got.cif
#   From: 2010.05.17/outbox.cif.g08.bks.cpg/sg12_34_cif.got.tgz:67393.got - 2010.06.03 13:09:07.
