data_PCOD9200914
_publ_section_title
;
Structure prediction by ZEFSAII (Michael W. Deem and Ramdas Pophale) SiO2 
 PCOD9200914
Probable space group: C 2/M
;
_chemical_formula_sum "Si O2"
_cell_formula_units_Z 64
_cell_length_a 24.681596
_cell_length_b 7.767607
_cell_length_c 14.041460
_cell_angle_alpha 90.000000
_cell_angle_beta 92.103761
_cell_angle_gamma 90.000000
_cell_volume 2690.171279
_symmetry_space_group_name_H-M "C 2/M"
_symmetry_group_IT_number 12
_symmetry_cell_setting 'monoclinic'
loop_
_space_group_symop_operation_xyz
x,y,z
-x,y,-z
-x,-y,-z
x,-y,z
1/2+x,1/2+y,z
1/2-x,1/2+y,-z
1/2-x,1/2-y,-z
1/2+x,1/2-y,z
loop_
_atom_site_type_symbol
_atom_site_label
_atom_site_fract_x
_atom_site_fract_y
_atom_site_fract_z
Si Si1 0.057457 0.700575 0.691665
Si Si2 0.646959 0.206566 0.841731
Si Si3 0.626468 0.700922 0.538500
Si Si4 0.878336 0.791092 0.942122
Si Si5 0.648776 0.800257 0.328209
Si Si6 0.547396 0.694670 0.206907
Si Si7 0.237538 0.205852 0.609651
Si Si8 0.262279 0.706713 0.890100
O O1 0.068412 0.500000 0.679057
O O2 0.101140 0.776223 0.768965
O O3 0.070264 0.782012 0.590452
O O4 0.998824 0.717694 0.734516
O O5 0.708695 0.274662 0.832807
O O6 0.649377 0.000000 0.831302
O O7 0.628363 0.241211 0.948870
O O8 0.636891 0.500000 0.519695
O O9 0.631825 0.794516 0.438713
O O10 0.675238 0.764929 0.612047
O O11 0.932449 0.729005 0.892407
O O12 0.823780 0.729055 0.883346
O O13 0.878827 0.000000 0.937539
O O14 0.603025 0.697032 0.270251
O O15 0.710500 0.727214 0.328482
O O16 0.647553 0.000000 0.298520
O O17 0.528521 0.500000 0.189935
O O18 0.250000 0.250000 0.500000
O O19 0.239479 0.000000 0.622195
O O20 0.263230 0.500000 0.879560
O O21 0.250000 0.750000 0.000000
#
# Coordination Sequence:
#
# PCOD9200914 Si02
#       8
#     8   8   8   8   8   8   8   8
#     4  11  24  40  56  79 109 146 191 236 277 325
#     4   9  19  35  57  82 110 142 178 221 273 327
#     4  10  20  37  60  86 115 147 181 223 273 328
#     4   9  19  35  57  82 110 142 178 221 273 327
#     4  10  20  37  60  86 115 147 181 223 273 328
#     4  11  24  40  56  79 109 146 191 236 277 325
#     4   8  16  31  54  84 115 143 175 215 267 327
#     4   8  14  29  52  80 109 137 171 215 267 327
#
# _framework density 23.790306000000001
#
# number of rings (size 3 to 8) (size 9 to 14) (size 15 to 20)
#    0.000    2.500    0.000    1.500    0.000    5.000 
#    0.000    6.250    0.000    4.500    0.000    0.000 
#    0.000    0.000    0.000    0.000    0.000    0.000 
#
# Total GULP energy -178671.221677 kJ/mol
# GULP energy per Si atom -5583.475677 kJ/mol
# Density = 2.373616 g / cm^3
# Si number density = 23.790306 Si / 1000 Ang^3
#
#
#
# Elastic Constant Matrix: (Units=GPa)
#
#
# Indices 1 2 3 4 5 6 
#
# 1 83.8907 1.4407 23.4168 0.0000 -32.9501 0.0000
# 2 1.4407 65.4232 -2.5651 0.0000 -5.9267 0.0000
# 3 23.4168 -2.5651 58.8291 0.0000 -16.9131 0.0000
# 4 0.0000 0.0000 0.0000 22.9279 0.0000 0.5200
# 5 -32.9501 -5.9267 -16.9131 0.0000 39.4426 0.0000
# 6 0.0000 0.0000 0.0000 0.5200 0.0000 14.4384
#
#
#
# Elastic Compliance Matrix: (Units=1/GPa)
#
#
# Indices 1 2 3 4 5 6 
#
# 1 0.018319 0.000741 -0.003225 0.000000 0.014032 0.000000
# 2 0.000741 0.015648 0.001416 0.000000 0.003578 0.000000
# 3 -0.003225 0.001416 0.020110 0.000000 0.006141 0.000000
# 4 0.000000 0.000000 0.000000 0.043651 0.000000 -0.001572
# 5 0.014032 0.003578 0.006141 0.000000 0.040247 0.000000
# 6 0.000000 0.000000 0.000000 -0.001572 0.000000 0.069316
#
#
# Mechanical properties :
#
#
# Convention : Reuss Voigt Hill
#
# Bulk Modulus (GPa) = 19.25276 28.08086 23.66681
# Shear Modulus (GPa) = 22.05157 27.75181 24.90169
#
# Velocity S-wave (km/s) = 3.04783 3.41914 3.23881
# Velocity P-wave (km/s) = 4.52724 5.23607 4.89451
#
# Compressibility (1/GPa) = 0.05194062
#
# Stress axis : x y z
#
# Youngs Moduli (GPa) = 54.58704 63.90432 49.72752
#
# Poissons Ratio (x) = -0.04737 0.16039
# Poissons Ratio (y) = -0.04047 -0.07040
# Poissons Ratio (z) = 0.17607 -0.09048
#
# Static dielectric constant tensor:
#      x y z
#    x 1.951630 0.000000 -0.015000 
#    y 0.000000 1.839440 0.000000 
#    z -0.015000 0.000000 1.737370 
# 
# From -- ./inp_files/238778.got.cif
#   From: 2010.05.17/outbox.cif.g08.bks.cpg/sg12_120_cif.got.tgz:238778.got - 2010.06.03 13:09:07.
