data_PCOD9200424
_publ_section_title
;
Structure prediction by ZEFSAII (Michael W. Deem and Ramdas Pophale) SiO2 
 PCOD9200424
Probable space group: C 2/M
;
_chemical_formula_sum "Si O2"
_cell_formula_units_Z 64
_cell_length_a 30.574450
_cell_length_b 10.152631
_cell_length_c 21.958082
_cell_angle_alpha 90.000000
_cell_angle_beta 150.959745
_cell_angle_gamma 90.000000
_cell_volume 3308.665752
_symmetry_space_group_name_H-M "C 2/M"
_symmetry_group_IT_number 12
_symmetry_cell_setting 'monoclinic'
loop_
_space_group_symop_operation_xyz
x,y,z
-x,y,-z
-x,-y,-z
x,-y,z
1/2+x,1/2+y,z
1/2-x,1/2+y,-z
1/2-x,1/2-y,-z
1/2+x,1/2-y,z
loop_
_atom_site_type_symbol
_atom_site_label
_atom_site_fract_x
_atom_site_fract_y
_atom_site_fract_z
Si Si1 0.854154 0.647256 0.982019
Si Si2 0.774092 0.848170 0.974813
Si Si3 0.910623 0.154390 0.624407
Si Si4 0.789571 0.222721 0.293639
Si Si5 0.978231 0.145981 0.573857
Si Si6 0.108565 0.360148 0.680983
Si Si7 0.716763 0.155538 0.327024
Si Si8 0.442399 0.846703 0.775809
O O1 0.847045 0.500000 0.001713
O O2 0.954167 0.658493 0.076489
O O3 0.842782 0.765801 0.016143
O O4 0.776083 0.659084 0.836426
O O5 0.684081 0.857050 0.824900
O O6 0.801175 0.000000 0.023069
O O7 0.750000 0.750000 0.000000
O O8 0.967039 0.183638 0.631336
O O9 0.805877 0.168250 0.477166
O O10 0.931690 0.252019 0.704853
O O11 0.925897 0.000000 0.658260
O O12 0.877397 0.143819 0.423700
O O13 0.836987 0.341902 0.315501
O O14 0.732346 0.240593 0.285292
O O15 0.039999 0.244659 0.612092
O O16 0.017419 0.000000 0.618013
O O17 0.061279 0.500000 0.626474
O O18 0.629065 0.189442 0.259186
O O19 0.710882 0.000000 0.301757
O O20 0.423810 0.000000 0.736231
#
# Coordination Sequence:
#
# PCOD9200424 Si02
#       8
#     8   8   8   8   8   8   8   8
#     4  10  21  36  56  83 114 149 186 229 281 332
#     4  10  22  39  58  80 111 150 188 228 276 332
#     4   9  19  36  56  81 113 147 187 232 280 337
#     4  10  20  37  58  79 113 152 190 234 278 332
#     4  10  21  35  57  86 111 146 193 234 275 332
#     4  10  23  39  56  83 116 147 182 231 286 337
#     4   9  18  35  58  83 111 145 188 237 282 328
#     4  10  21  35  55  85 116 146 185 234 284 334
#
# _framework density 19.343143999999999
#
# number of rings (size 3 to 8) (size 9 to 14) (size 15 to 20)
#    0.000    2.250    0.000    3.000    1.750    6.500 
#    0.000    4.375    0.000    0.000    0.000    4.375 
#    0.000    0.000    0.000    0.000    0.000    0.000 
#
# Total GULP energy -178431.077333 kJ/mol
# GULP energy per Si atom -5575.971167 kJ/mol
# Density = 1.929912 g / cm^3
# Si number density = 19.343144 Si / 1000 Ang^3
#
#
#
# Elastic Constant Matrix: (Units=GPa)
#
#
# Indices 1 2 3 4 5 6 
#
# 1 129.4172 77.3388 41.6185 0.0000 11.2321 0.0000
# 2 77.3388 110.9706 29.4799 0.0000 9.8962 0.0000
# 3 41.6185 29.4799 41.0582 0.0000 14.1665 0.0000
# 4 0.0000 0.0000 0.0000 13.5595 0.0000 4.2681
# 5 11.2321 9.8962 14.1665 0.0000 28.0213 0.0000
# 6 0.0000 0.0000 0.0000 4.2681 0.0000 15.8135
#
#
#
# Elastic Compliance Matrix: (Units=1/GPa)
#
#
# Indices 1 2 3 4 5 6 
#
# 1 0.016190 -0.008549 -0.010993 0.000000 0.002087 0.000000
# 2 -0.008549 0.015650 -0.002237 0.000000 -0.000970 0.000000
# 3 -0.010993 -0.002237 0.042772 0.000000 -0.016428 0.000000
# 4 0.000000 0.000000 0.000000 0.080596 0.000000 -0.021753
# 5 0.002087 -0.000970 -0.016428 0.000000 0.043498 0.000000
# 6 0.000000 0.000000 0.000000 -0.021753 0.000000 0.069108
#
#
# Mechanical properties :
#
#
# Convention : Reuss Voigt Hill
#
# Bulk Modulus (GPa) = 32.20014 64.25781 48.22897
# Shear Modulus (GPa) = 15.54133 20.34612 17.94373
#
# Velocity S-wave (km/s) = 2.83760 3.24675 3.04904
# Velocity P-wave (km/s) = 5.23631 6.88093 6.11417
#
# Compressibility (1/GPa) = 0.03105577
#
# Stress axis : x y z
#
# Youngs Moduli (GPa) = 61.76797 63.89751 23.37961
#
# Poissons Ratio (x) = 0.54626 0.25700
# Poissons Ratio (y) = 0.52805 0.05229
# Poissons Ratio (z) = 0.67899 0.14292
#
# Static dielectric constant tensor:
#      x y z
#    x 1.673390 0.000000 -0.004110 
#    y 0.000000 1.686080 0.000000 
#    z -0.004110 0.000000 1.686850 
# 
# From -- ./inp_files/353520.got.cif
#   From: 2010.05.17/outbox.cif.g08.bks.cpg/sg12_177_cif.got.tgz:353520.got - 2010.06.03 13:09:07.
