data_PCOD9200289
_publ_section_title
;
Structure prediction by ZEFSAII (Michael W. Deem and Ramdas Pophale) SiO2 
 PCOD9200289
Probable space group: C 2/M
;
_chemical_formula_sum "Si O2"
_cell_formula_units_Z 42
_cell_length_a 21.156552
_cell_length_b 14.455053
_cell_length_c 19.697203
_cell_angle_alpha 90.000000
_cell_angle_beta 21.403887
_cell_angle_gamma 90.000000
_cell_volume 2198.318141
_symmetry_space_group_name_H-M "C 2/M"
_symmetry_group_IT_number 12
_symmetry_cell_setting 'monoclinic'
loop_
_space_group_symop_operation_xyz
x,y,z
-x,y,-z
-x,-y,-z
x,-y,z
1/2+x,1/2+y,z
1/2-x,1/2+y,-z
1/2-x,1/2-y,-z
1/2+x,1/2-y,z
loop_
_atom_site_type_symbol
_atom_site_label
_atom_site_fract_x
_atom_site_fract_y
_atom_site_fract_z
Si Si1 0.500000 0.500000 0.000000
Si Si2 0.190488 0.653463 0.309508
Si Si3 0.203059 0.759824 0.659658
Si Si4 0.789658 0.393804 0.452375
Si Si5 0.296879 0.740198 0.065842
Si Si6 0.789746 0.393805 0.968203
O O1 0.347017 0.580602 0.152961
O O2 0.207071 0.715560 0.360281
O O3 0.207017 0.715608 0.225644
O O4 0.000000 0.609539 0.500000
O O5 0.267727 0.670769 0.552867
O O6 0.224739 0.845612 0.585995
O O7 0.999973 0.746447 0.876406
O O8 0.735131 0.500000 0.501620
O O9 0.999957 0.390842 0.243835
O O10 0.232291 0.829251 0.088287
O O11 0.275131 0.654398 0.035623
O O12 0.735212 0.500000 0.028004
#
# Coordination Sequence:
#
# PCOD9200289 Si02
#       6
#     2   8   8   8   8   8
#     4  12  26  44  60  94 114 160 198 238 300 366
#     4  12  25  41  62  87 124 156 194 244 300 354
#     4  10  20  37  56  83 121 157 195 248 298 351
#     4   9  19  35  58  84 113 155 205 247 295 351
#     4  10  20  37  56  83 121 157 195 248 298 351
#     4   9  19  35  58  84 113 155 205 247 295 351
#
# _framework density 19.105515
#
# number of rings (size 3 to 8) (size 9 to 14) (size 15 to 20)
#    0.000    1.905    1.905    1.429    2.667    2.286 
#    0.000    0.952    0.000    5.714    0.000    0.000 
#    0.000    0.000    0.000    0.000    0.000    0.000 
#
# Total GULP energy -117005.225753 kJ/mol
# GULP energy per Si atom -5571.677417 kJ/mol
# Density = 1.906203 g / cm^3
# Si number density = 19.105515 Si / 1000 Ang^3
#
#
#
# Elastic Constant Matrix: (Units=GPa)
#
#
# Indices 1 2 3 4 5 6 
#
# 1 123.2439 53.7470 41.4194 0.0058 22.6912 -0.0028
# 2 53.7470 135.8799 23.9667 0.0003 18.2005 -0.0004
# 3 41.4194 23.9667 90.0189 0.0041 -2.4817 -0.0025
# 4 0.0058 0.0003 0.0041 3.9428 0.0004 -4.4403
# 5 22.6912 18.2005 -2.4817 0.0004 37.7596 0.0001
# 6 -0.0028 -0.0004 -0.0025 -4.4403 0.0001 -3.3063
#
#
#
# Elastic Compliance Matrix: (Units=1/GPa)
#
#
# Indices 1 2 3 4 5 6 
#
# 1 0.012313 -0.003158 -0.004996 -0.000008 -0.006205 0.000004
# 2 -0.003158 0.009139 -0.001051 0.000003 -0.002576 -0.000002
# 3 -0.004996 -0.001051 0.013809 -0.000006 0.004416 0.000002
# 4 -0.000008 0.000003 -0.000006 0.100948 0.000002 -0.135571
# 5 -0.006205 -0.002576 0.004416 0.000002 0.031744 0.000000
# 6 0.000004 -0.000002 0.000002 -0.135571 0.000000 -0.120381
#
#
# Mechanical properties :
#
#
# Convention : Reuss Voigt Hill
#
# Bulk Modulus (GPa) = 59.34282 65.26766 62.30524
# Shear Modulus (GPa) = 69.83352 23.01319 46.42336
#
# Velocity S-wave (km/s) = 6.05234 3.47440 4.93469
# Velocity P-wave (km/s) = 8.94255 7.09444 8.07156
#
# Compressibility (1/GPa) = 0.01685124
#
# Stress axis : x y z
#
# Youngs Moduli (GPa) = 81.21796 109.42039 72.41684
#
# Poissons Ratio (x) = 0.34554 0.36176
# Poissons Ratio (y) = 0.25648 0.07613
# Poissons Ratio (z) = 0.40573 0.11502
#
# Static dielectric constant tensor:
#      x y z
#    x 1.648540 0.000000 -0.020100 
#    y 0.000000 1.645770 0.000000 
#    z -0.020100 0.000000 1.681430 
# 
# From -- ./inp_files/325496.got.cif
#   From: 2010.05.17/outbox.cif.g08.bks.cpg/sg12_163_cif.got.tgz:325496.got - 2010.06.03 13:09:07.
