data_PCOD9200771
_publ_section_title
;
Structure prediction by ZEFSAII (Michael W. Deem and Ramdas Pophale) SiO2 
 PCOD9200771
Probable space group: C 2/M
;
_chemical_formula_sum "Si O2"
_cell_formula_units_Z 32
_cell_length_a 10.476933
_cell_length_b 22.461190
_cell_length_c 11.271882
_cell_angle_alpha 90.000000
_cell_angle_beta 146.840964
_cell_angle_gamma 90.000000
_cell_volume 1450.850843
_symmetry_space_group_name_H-M "C 2/M"
_symmetry_group_IT_number 12
_symmetry_cell_setting 'monoclinic'
loop_
_space_group_symop_operation_xyz
x,y,z
-x,y,-z
-x,-y,-z
x,-y,z
1/2+x,1/2+y,z
1/2-x,1/2+y,-z
1/2-x,1/2-y,-z
1/2+x,1/2-y,z
loop_
_atom_site_type_symbol
_atom_site_label
_atom_site_fract_x
_atom_site_fract_y
_atom_site_fract_z
Si Si1 0.932181 0.720726 0.813538
Si Si2 0.431678 0.069939 0.311447
Si Si3 0.375394 0.618969 0.517756
Si Si4 0.874196 0.158266 0.058028
O O1 0.713441 0.684317 0.594792
O O2 0.925099 0.792451 0.809643
O O3 0.000000 0.702340 0.000000
O O4 0.142083 0.698126 0.893991
O O5 0.500000 0.084615 0.500000
O O6 0.649893 0.085316 0.394766
O O7 0.380953 0.000000 0.265578
O O8 0.212110 0.108679 0.099584
O O9 0.500000 0.590979 0.500000
O O10 0.554725 0.626977 0.764474
#
# Coordination Sequence:
#
# PCOD9200771 Si02
#       4
#     8   8   8   8
#     4  10  20  37  59  94 134 164 205 257 319 388
#     4  10  25  46  65  91 127 169 222 270 308 370
#     4  11  22  40  66  97 132 164 209 264 321 382
#     4  10  22  39  62  93 127 174 208 257 324 377
#
# _framework density 22.056021999999999
#
# number of rings (size 3 to 8) (size 9 to 14) (size 15 to 20)
#    0.000    1.750    2.500    0.750    3.500    1.500 
#    0.000    3.750    0.000    0.000    0.000    0.000 
#    0.000    0.000    0.000    0.000    0.000    0.000 
#
# Total GULP energy -89360.636583 kJ/mol
# GULP energy per Si atom -5585.039786 kJ/mol
# Density = 2.200582 g / cm^3
# Si number density = 22.056022 Si / 1000 Ang^3
#
#
#
# Elastic Constant Matrix: (Units=GPa)
#
#
# Indices 1 2 3 4 5 6 
#
# 1 122.6876 43.1600 39.7552 0.0000 -1.1449 0.0000
# 2 43.1600 110.6719 68.2649 0.0000 -21.7154 0.0000
# 3 39.7552 68.2649 123.6617 0.0000 -31.3388 0.0000
# 4 0.0000 0.0000 0.0000 23.3268 0.0000 -5.9225
# 5 -1.1449 -21.7154 -31.3388 0.0000 42.8254 0.0000
# 6 0.0000 0.0000 0.0000 -5.9225 0.0000 19.1826
#
#
#
# Elastic Compliance Matrix: (Units=1/GPa)
#
#
# Indices 1 2 3 4 5 6 
#
# 1 0.009928 -0.003063 -0.002243 0.000000 -0.002929 0.000000
# 2 -0.003063 0.014752 -0.006487 0.000000 0.002651 0.000000
# 3 -0.002243 -0.006487 0.014167 0.000000 0.007018 0.000000
# 4 0.000000 0.000000 0.000000 0.046515 0.000000 0.014361
# 5 -0.002929 0.002651 0.007018 0.000000 0.029752 0.000000
# 6 0.000000 0.000000 0.000000 0.014361 0.000000 0.056564
#
#
# Mechanical properties :
#
#
# Convention : Reuss Voigt Hill
#
# Bulk Modulus (GPa) = 65.52634 73.26461 69.39547
# Shear Modulus (GPa) = 24.95618 30.78970 27.87294
#
# Velocity S-wave (km/s) = 3.36741 3.74033 3.55876
# Velocity P-wave (km/s) = 6.70021 7.20715 6.95830
#
# Compressibility (1/GPa) = 0.01526104
#
# Stress axis : x y z
#
# Youngs Moduli (GPa) = 100.72766 67.78954 70.58583
#
# Poissons Ratio (x) = 0.20762 0.15834
# Poissons Ratio (y) = 0.30850 0.45787
# Poissons Ratio (z) = 0.22595 0.43974
#
# Static dielectric constant tensor:
#      x y z
#    x 1.880570 0.000000 0.007760 
#    y 0.000000 1.804650 0.000000 
#    z 0.007760 0.000000 1.770760 
# 
# From -- ./inp_files/6061.got.cif
#   From: 2010.05.17/outbox.cif.g08.bks.cpg/sg12_4_cif.got.tgz:6061.got - 2010.06.03 13:09:07.
