data_PCOD9200054
_publ_section_title
;
Structure prediction by ZEFSAII (Michael W. Deem and Ramdas Pophale) SiO2 
 PCOD9200054
Probable space group: C 2/M
;
_chemical_formula_sum "Si O2"
_cell_formula_units_Z 64
_cell_length_a 22.191542
_cell_length_b 13.195590
_cell_length_c 11.705726
_cell_angle_alpha 90.000000
_cell_angle_beta 102.573093
_cell_angle_gamma 90.000000
_cell_volume 3345.591897
_symmetry_space_group_name_H-M "C 2/M"
_symmetry_group_IT_number 12
_symmetry_cell_setting 'monoclinic'
loop_
_space_group_symop_operation_xyz
x,y,z
-x,y,-z
-x,-y,-z
x,-y,z
1/2+x,1/2+y,z
1/2-x,1/2+y,-z
1/2-x,1/2-y,-z
1/2+x,1/2-y,z
loop_
_atom_site_type_symbol
_atom_site_label
_atom_site_fract_x
_atom_site_fract_y
_atom_site_fract_z
Si Si1 0.259004 0.256516 0.141139
Si Si2 0.357529 0.111061 0.904503
Si Si3 0.381560 0.613953 0.173606
Si Si4 0.847416 0.259748 0.545251
Si Si5 0.447899 0.884499 0.724939
Si Si6 0.453343 0.779895 0.087368
Si Si7 0.747214 0.622922 0.352711
Si Si8 0.067492 0.884707 0.558030
O O1 0.198053 0.317207 0.152624
O O2 0.320936 0.321877 0.179374
O O3 0.260705 0.160203 0.227567
O O4 0.250000 0.250000 0.000000
O O5 0.406624 0.107655 0.822671
O O6 0.331715 0.000000 0.915088
O O7 0.396582 0.147938 0.029102
O O8 0.364605 0.500000 0.132578
O O9 0.421731 0.672644 0.097209
O O10 0.423341 0.610570 0.303394
O O11 0.903735 0.322983 0.622478
O O12 0.801829 0.336350 0.459188
O O13 0.810616 0.189112 0.621468
O O14 0.878240 0.181963 0.470383
O O15 0.509066 0.824403 0.789648
O O16 0.461508 0.000000 0.692976
O O17 0.500000 0.774541 0.000000
O O18 0.739955 0.500000 0.356128
O O19 0.000000 0.843795 0.500000
O O20 0.071307 0.000000 0.513741
#
# Coordination Sequence:
#
# PCOD9200054 Si02
#       8
#     8   8   8   8   8   8   8   8
#     4  12  23  43  61  85 124 164 210 264 313 373
#     4  10  20  37  60  87 119 160 204 251 308 364
#     4  11  23  40  61  88 121 159 207 256 308 370
#     4  11  21  41  67  93 129 163 204 261 309 384
#     4  10  20  36  63  92 119 156 200 250 305 365
#     4  10  21  39  61  89 126 160 206 260 306 368
#     4  11  25  42  64  95 129 167 209 265 323 374
#     4  10  21  38  62  89 120 163 203 244 303 369
#
# _framework density 19.129650000000002
#
# number of rings (size 3 to 8) (size 9 to 14) (size 15 to 20)
#    0.000    1.375    3.750    2.250    0.000    2.750 
#    0.000    0.625    0.000    1.500    0.000    0.000 
#    0.000    0.000    0.000    0.000    0.000    0.000 
#
# Total GULP energy -178398.601337 kJ/mol
# GULP energy per Si atom -5574.956292 kJ/mol
# Density = 1.908611 g / cm^3
# Si number density = 19.129650 Si / 1000 Ang^3
#
#
#
# Elastic Constant Matrix: (Units=GPa)
#
#
# Indices 1 2 3 4 5 6 
#
# 1 50.2462 27.8702 1.0222 0.0000 16.0753 0.0000
# 2 27.8702 122.1590 33.5038 0.0000 -2.0459 0.0000
# 3 1.0222 33.5038 71.2197 0.0000 11.1377 0.0000
# 4 0.0000 0.0000 0.0000 21.5676 0.0000 -10.8294
# 5 16.0753 -2.0459 11.1377 0.0000 30.9110 0.0000
# 6 0.0000 0.0000 0.0000 -10.8294 0.0000 3.8799
#
#
#
# Elastic Compliance Matrix: (Units=1/GPa)
#
#
# Indices 1 2 3 4 5 6 
#
# 1 0.031113 -0.009331 0.006962 0.000000 -0.019306 0.000000
# 2 -0.009331 0.012361 -0.006960 0.000000 0.008179 0.000000
# 3 0.006962 -0.006960 0.018920 0.000000 -0.010898 0.000000
# 4 0.000000 0.000000 0.000000 -0.115486 0.000000 -0.322340
# 5 -0.019306 0.008179 -0.010898 0.000000 0.046859 0.000000
# 6 0.000000 0.000000 0.000000 -0.322340 0.000000 -0.641964
#
#
# Mechanical properties :
#
#
# Convention : Reuss Voigt Hill
#
# Bulk Modulus (GPa) = 22.86467 40.93527 31.89997
# Shear Modulus (GPa) = -8.13060 23.35361 7.61151
#
# Velocity S-wave (km/s) = -2.06385 3.49780 1.99688
# Velocity P-wave (km/s) = 2.50980 6.14476 4.69346
#
# Compressibility (1/GPa) = 0.04373559
#
# Stress axis : x y z
#
# Youngs Moduli (GPa) = 32.14117 80.90120 52.85516
#
# Poissons Ratio (x) = 0.75490 -0.36799
# Poissons Ratio (y) = 0.29991 0.36787
# Poissons Ratio (z) = -0.22378 0.56307
#
# Static dielectric constant tensor:
#      x y z
#    x 1.656500 0.000000 -0.009450 
#    y 0.000000 1.681590 0.000000 
#    z -0.009450 0.000000 1.690150 
# 
# From -- ./inp_files/175262.got.cif
#   From: 2010.05.17/outbox.cif.g08.bks.cpg/sg12_88_cif.got.tgz:175262.got - 2010.06.03 13:09:07.
