data_PCOD9200696
_publ_section_title
;
Structure prediction by ZEFSAII (Michael W. Deem and Ramdas Pophale) SiO2 
 PCOD9200696
Probable space group: C 2/M
;
_chemical_formula_sum "Si O2"
_cell_formula_units_Z 42
_cell_length_a 24.402128
_cell_length_b 12.196269
_cell_length_c 19.469908
_cell_angle_alpha 90.000000
_cell_angle_beta 157.476387
_cell_angle_gamma 90.000000
_cell_volume 2219.678666
_symmetry_space_group_name_H-M "C 2/M"
_symmetry_group_IT_number 12
_symmetry_cell_setting 'monoclinic'
loop_
_space_group_symop_operation_xyz
x,y,z
-x,y,-z
-x,-y,-z
x,-y,z
1/2+x,1/2+y,z
1/2-x,1/2+y,-z
1/2-x,1/2-y,-z
1/2+x,1/2-y,z
loop_
_atom_site_type_symbol
_atom_site_label
_atom_site_fract_x
_atom_site_fract_y
_atom_site_fract_z
Si Si1 0.705671 0.374949 0.110874
Si Si2 0.695586 0.127386 0.358289
Si Si3 0.290784 0.307970 0.737090
Si Si4 0.026482 0.375711 0.676851
Si Si5 0.000000 0.000000 0.000000
Si Si6 0.984575 0.222642 0.749127
O O1 0.676163 0.500000 0.104791
O O2 0.703340 0.297332 0.173917
O O3 0.859595 0.372231 0.252866
O O4 0.591979 0.343394 0.921672
O O5 0.679665 0.198383 0.270744
O O6 0.857812 0.146935 0.572819
O O7 0.593568 0.184029 0.296232
O O8 0.666280 0.000000 0.315688
O O9 0.132684 0.350051 0.534057
O O10 0.403835 0.402441 0.850545
O O11 0.030652 0.500000 0.709543
O O12 0.059487 0.285817 0.772971
#
# Coordination Sequence:
#
# PCOD9200696 Si02
#       6
#     8   8   8   8   2   8
#     4  11  21  36  58  86 118 150 200 247 291 346
#     4  10  22  40  59  85 122 158 198 241 301 359
#     4  11  22  36  60  87 119 154 192 249 294 345
#     4  10  20  37  59  85 117 154 193 245 294 350
#     4  12  20  36  56  88 116 144 200 234 296 350
#     4  10  21  37  59  87 114 159 196 245 294 349
#
# _framework density 18.921657
#
# number of rings (size 3 to 8) (size 9 to 14) (size 15 to 20)
#    0.000    1.524    1.905    3.429    0.000    1.524 
#    5.143    5.238    0.000   11.429    0.000    0.000 
#    0.000    0.000    0.000    0.000    0.000    0.000 
#
# Total GULP energy -117123.662129 kJ/mol
# GULP energy per Si atom -5577.317244 kJ/mol
# Density = 1.887859 g / cm^3
# Si number density = 18.921657 Si / 1000 Ang^3
#
#
#
# Elastic Constant Matrix: (Units=GPa)
#
#
# Indices 1 2 3 4 5 6 
#
# 1 65.8797 22.0584 13.2297 0.0000 -12.0161 0.0000
# 2 22.0584 104.2564 28.1678 0.0000 -2.9969 0.0000
# 3 13.2297 28.1678 72.4711 0.0000 -8.5594 0.0000
# 4 0.0000 0.0000 0.0000 26.3634 -0.0001 -5.4086
# 5 -12.0161 -2.9969 -8.5594 -0.0001 30.1399 0.0000
# 6 0.0000 0.0000 0.0000 -5.4086 0.0000 26.4301
#
#
#
# Elastic Compliance Matrix: (Units=1/GPa)
#
#
# Indices 1 2 3 4 5 6 
#
# 1 0.017667 -0.003225 -0.001218 0.000000 0.006377 0.000000
# 2 -0.003225 0.011306 -0.003958 0.000000 -0.001286 0.000000
# 3 -0.001218 -0.003958 0.015992 0.000000 0.003662 0.000000
# 4 0.000000 0.000000 0.000000 0.039594 0.000000 0.008102
# 5 0.006377 -0.001286 0.003662 0.000000 0.036633 0.000000
# 6 0.000000 0.000000 0.000000 0.008102 0.000000 0.039494
#
#
# Mechanical properties :
#
#
# Convention : Reuss Voigt Hill
#
# Bulk Modulus (GPa) = 35.50833 41.05766 38.28300
# Shear Modulus (GPa) = 26.75574 28.53009 27.64291
#
# Velocity S-wave (km/s) = 3.76443 3.88725 3.82634
# Velocity P-wave (km/s) = 6.14014 6.47252 6.30852
#
# Compressibility (1/GPa) = 0.02816241
#
# Stress axis : x y z
#
# Youngs Moduli (GPa) = 56.60310 88.44490 62.53212
#
# Poissons Ratio (x) = 0.28528 0.07618
# Poissons Ratio (y) = 0.18257 0.24748
# Poissons Ratio (z) = 0.06896 0.35003
#
# Static dielectric constant tensor:
#      x y z
#    x 1.499720 0.000000 -0.093000 
#    y 0.000000 1.616720 0.000000 
#    z -0.093000 0.000000 1.592220 
# 
# From -- ./inp_files/320861.got.cif
#   From: 2010.05.17/outbox.cif.g08.bks.cpg/sg12_161_cif.got.tgz:320861.got - 2010.06.03 13:09:07.
