data_PCOD9200922
_publ_section_title
;
Structure prediction by ZEFSAII (Michael W. Deem and Ramdas Pophale) SiO2 
 PCOD9200922
Probable space group: C 2/M
;
_chemical_formula_sum "Si O2"
_cell_formula_units_Z 64
_cell_length_a 8.713518
_cell_length_b 29.942836
_cell_length_c 18.257011
_cell_angle_alpha 90.000000
_cell_angle_beta 135.717378
_cell_angle_gamma 90.000000
_cell_volume 3325.790242
_symmetry_space_group_name_H-M "C 2/M"
_symmetry_group_IT_number 12
_symmetry_cell_setting 'monoclinic'
loop_
_space_group_symop_operation_xyz
x,y,z
-x,y,-z
-x,-y,-z
x,-y,z
1/2+x,1/2+y,z
1/2-x,1/2+y,-z
1/2-x,1/2-y,-z
1/2+x,1/2-y,z
loop_
_atom_site_type_symbol
_atom_site_label
_atom_site_fract_x
_atom_site_fract_y
_atom_site_fract_z
Si Si1 0.484009 0.948686 0.279059
Si Si2 0.529665 0.699754 0.729827
Si Si3 0.340185 0.800246 0.270173
Si Si4 0.815569 0.300166 0.500000
Si Si5 0.353169 0.551314 0.279060
Si Si6 0.890755 0.626604 0.883434
Si Si7 0.240454 0.873395 0.116566
Si Si8 0.825743 0.445603 0.500000
O O1 0.674657 0.948735 0.283105
O O2 0.294916 0.916347 0.185472
O O3 0.592700 0.932650 0.391894
O O4 0.408458 0.000000 0.262968
O O5 0.605550 0.750000 0.737034
O O6 0.355151 0.700721 0.736768
O O7 0.400177 0.680869 0.613646
O O8 0.734433 0.669295 0.820334
O O9 0.559240 0.819131 0.386354
O O10 0.273433 0.830705 0.179667
O O11 0.750000 0.250000 0.500000
O O12 0.000000 0.298141 0.500000
O O13 0.380446 0.500000 0.262968
O O14 0.261501 0.583653 0.185472
O O15 0.582981 0.567350 0.391894
O O16 0.080782 0.627860 0.887188
O O17 0.000000 0.624869 0.000000
O O18 0.000000 0.875131 0.000000
O O19 0.825803 0.500000 0.500000
O O20 0.000000 0.429200 0.500000
#
# Coordination Sequence:
#
# PCOD9200922 Si02
#       8
#     8   8   8   8   8   8   8   8
#     4   9  19  37  59  82 112 149 185 225 277 334
#     4  10  20  37  60  86 116 148 182 224 275 329
#     4  10  20  37  60  86 116 148 182 224 275 329
#     4   8  16  31  54  83 112 141 173 214 266 324
#     4   9  19  37  59  82 112 149 185 225 277 334
#     4  11  24  40  57  80 109 145 191 236 278 328
#     4  11  24  40  57  80 109 145 191 236 278 328
#     4   9  17  30  53  86 117 144 180 226 275 328
#
# _framework density 19.243548000000001
#
# number of rings (size 3 to 8) (size 9 to 14) (size 15 to 20)
#    0.000    2.375    0.000    1.875    0.000    6.500 
#    0.000    5.000    0.000    0.000    0.000    0.000 
#    0.000    0.000    0.000    0.000    0.000    0.000 
#
# Total GULP energy -178591.443975 kJ/mol
# GULP energy per Si atom -5580.982624 kJ/mol
# Density = 1.919975 g / cm^3
# Si number density = 19.243548 Si / 1000 Ang^3
#
#
#
# Elastic Constant Matrix: (Units=GPa)
#
#
# Indices 1 2 3 4 5 6 
#
# 1 41.9513 32.9537 54.1161 0.0000 -0.6658 0.0000
# 2 32.9537 105.7815 90.1603 0.0000 -0.6682 0.0000
# 3 54.1161 90.1603 228.5910 0.0000 -1.5139 0.0000
# 4 0.0000 0.0000 0.0000 36.8478 0.0000 -0.2351
# 5 -0.6658 -0.6682 -1.5139 0.0000 22.4325 0.0000
# 6 0.0000 0.0000 0.0000 -0.2351 0.0000 16.7126
#
#
#
# Elastic Compliance Matrix: (Units=1/GPa)
#
#
# Indices 1 2 3 4 5 6 
#
# 1 0.036742 -0.006074 -0.006299 0.000000 0.000485 0.000000
# 2 -0.006074 0.015245 -0.004575 0.000000 -0.000035 0.000000
# 3 -0.006299 -0.004575 0.007672 0.000000 0.000195 0.000000
# 4 0.000000 0.000000 0.000000 0.027141 0.000000 0.000382
# 5 0.000485 -0.000035 0.000195 0.000000 0.044605 0.000000
# 6 0.000000 0.000000 0.000000 0.000382 0.000000 0.059841
#
#
# Mechanical properties :
#
#
# Convention : Reuss Voigt Hill
#
# Bulk Modulus (GPa) = 38.81717 81.19823 60.00770
# Shear Modulus (GPa) = 21.39226 28.47148 24.93187
#
# Velocity S-wave (km/s) = 3.33777 3.85064 3.60334
# Velocity P-wave (km/s) = 5.92196 7.87760 6.96872
#
# Compressibility (1/GPa) = 0.02576179
#
# Stress axis : x y z
#
# Youngs Moduli (GPa) = 27.21678 65.59544 130.34849
#
# Poissons Ratio (x) = 0.39842 0.82111
# Poissons Ratio (y) = 0.16531 0.59637
# Poissons Ratio (z) = 0.17145 0.30011
#
# Static dielectric constant tensor:
#      x y z
#    x 1.642240 0.000000 -0.000170 
#    y 0.000000 1.679140 0.000000 
#    z -0.000170 0.000000 1.656500 
# 
# From -- ./inp_files/260366.got.cif
#   From: 2010.05.17/outbox.cif.g08.bks.cpg/sg12_131_cif.got.tgz:260366.got - 2010.06.03 13:09:07.
