data_PCOD9200092
_publ_section_title
;
Structure prediction by ZEFSAII (Michael W. Deem and Ramdas Pophale) SiO2 
 PCOD9200092
Probable space group: C 2/M
;
_chemical_formula_sum "Si O2"
_cell_formula_units_Z 48
_cell_length_a 11.234940
_cell_length_b 19.623257
_cell_length_c 26.359368
_cell_angle_alpha 90.000000
_cell_angle_beta 158.122025
_cell_angle_gamma 90.000000
_cell_volume 2165.488718
_symmetry_space_group_name_H-M "C 2/M"
_symmetry_group_IT_number 12
_symmetry_cell_setting 'monoclinic'
loop_
_space_group_symop_operation_xyz
x,y,z
-x,y,-z
-x,-y,-z
x,-y,z
1/2+x,1/2+y,z
1/2-x,1/2+y,-z
1/2-x,1/2-y,-z
1/2+x,1/2-y,z
loop_
_atom_site_type_symbol
_atom_site_label
_atom_site_fract_x
_atom_site_fract_y
_atom_site_fract_z
Si Si1 0.748481 0.578810 0.490820
Si Si2 0.116323 0.827435 0.144841
Si Si3 0.004371 0.080881 0.192038
Si Si4 0.487798 0.801874 0.153919
Si Si5 0.672651 0.420025 0.766319
Si Si6 0.220742 0.174682 0.630236
O O1 0.679002 0.500000 0.475495
O O2 0.659311 0.587856 0.396198
O O3 0.523121 0.624840 0.437090
O O4 0.119210 0.590686 0.647724
O O5 0.939280 0.874838 0.116321
O O6 0.460804 0.858996 0.267993
O O7 0.163047 0.754404 0.189370
O O8 0.884107 0.807775 0.006746
O O9 0.835690 0.101191 0.178147
O O10 0.944917 0.000000 0.160082
O O11 0.603603 0.875500 0.180911
O O12 0.605940 0.783549 0.256769
O O13 0.753799 0.500000 0.797802
O O14 0.000000 0.208868 0.500000
#
# Coordination Sequence:
#
# PCOD9200092 Si02
#       6
#     8   8   8   8   8   8
#     4   9  18  36  61  91 128 163 197 251 318 369
#     4  11  24  42  61  90 127 168 206 247 320 372
#     4  10  20  36  63  96 127 160 206 258 311 369
#     4  10  25  43  62  86 127 170 204 255 310 376
#     4   9  19  38  63  92 123 163 210 259 310 362
#     4  11  22  41  63  91 117 157 211 259 298 363
#
# _framework density 22.165897000000001
#
# number of rings (size 3 to 8) (size 9 to 14) (size 15 to 20)
#    0.000    2.000    1.667    1.000    2.333    5.000 
#    0.000    1.667    0.000    5.000    0.000    0.000 
#    0.000    0.000    0.000    0.000    0.000    0.000 
#
# Total GULP energy -133791.388875 kJ/mol
# GULP energy per Si atom -5574.641203 kJ/mol
# Density = 2.211545 g / cm^3
# Si number density = 22.165897 Si / 1000 Ang^3
#
#
#
# Elastic Constant Matrix: (Units=GPa)
#
#
# Indices 1 2 3 4 5 6 
#
# 1 93.6536 12.5429 29.0564 -0.0073 -21.2848 -0.0026
# 2 12.5429 14.4738 1.3346 0.0203 -10.3646 -0.0206
# 3 29.0564 1.3346 99.1169 0.0362 -22.6555 0.0154
# 4 -0.0073 0.0203 0.0362 12.9828 0.0074 -12.1601
# 5 -21.2848 -10.3646 -22.6555 0.0074 45.6118 -0.0044
# 6 -0.0026 -0.0206 0.0154 -12.1601 -0.0044 12.1418
#
#
#
# Elastic Compliance Matrix: (Units=1/GPa)
#
#
# Indices 1 2 3 4 5 6 
#
# 1 0.013555 -0.009649 -0.003271 0.000363 0.002508 0.000355
# 2 -0.009649 0.090529 0.005959 -0.000533 0.019029 -0.000384
# 3 -0.003271 0.005959 0.012328 -0.000851 0.005952 -0.000857
# 4 0.000363 -0.000533 -0.000851 1.243187 -0.000455 1.245057
# 5 0.002508 0.019029 0.005952 -0.000455 0.030375 -0.000419
# 6 0.000355 -0.000384 -0.000857 1.245057 -0.000419 1.329290
#
#
# Mechanical properties :
#
#
# Convention : Reuss Voigt Hill
#
# Bulk Modulus (GPa) = 9.75680 32.56800 21.16240
# Shear Modulus (GPa) = 1.80678 25.10130 13.45404
#
# Velocity S-wave (km/s) = 0.90382 3.36881 2.46635
# Velocity P-wave (km/s) = 2.34531 5.46412 4.20458
#
# Compressibility (1/GPa) = 0.10249263
#
# Stress axis : x y z
#
# Youngs Moduli (GPa) = 73.77534 11.04616 81.11324
#
# Poissons Ratio (x) = 0.10658 0.26528
# Poissons Ratio (y) = 0.71183 -0.48338
# Poissons Ratio (z) = 0.24128 -0.06583
#
# Static dielectric constant tensor:
#      x y z
#    x 1.876100 0.000010 -0.017110 
#    y 0.000010 1.784380 -0.000010 
#    z -0.017110 -0.000010 1.887320 
# 
# From -- ./inp_files/359061.got.cif
#   From: 2010.05.17/outbox.cif.g08.bks.cpg/sg12_180_cif.got.tgz:359061.got - 2010.06.03 13:09:07.
