data_PCOD9200077
_publ_section_title
;
Structure prediction by ZEFSAII (Michael W. Deem and Ramdas Pophale) SiO2 
 PCOD9200077
Probable space group: C 2/M
;
_chemical_formula_sum "Si O2"
_cell_formula_units_Z 28
_cell_length_a 5.592312
_cell_length_b 18.230914
_cell_length_c 12.058040
_cell_angle_alpha 90.000000
_cell_angle_beta 54.830183
_cell_angle_gamma 90.000000
_cell_volume 1004.932584
_symmetry_space_group_name_H-M "C 2/M"
_symmetry_group_IT_number 12
_symmetry_cell_setting 'monoclinic'
loop_
_space_group_symop_operation_xyz
x,y,z
-x,y,-z
-x,-y,-z
x,-y,z
1/2+x,1/2+y,z
1/2-x,1/2+y,-z
1/2-x,1/2-y,-z
1/2+x,1/2-y,z
loop_
_atom_site_type_symbol
_atom_site_label
_atom_site_fract_x
_atom_site_fract_y
_atom_site_fract_z
Si Si1 0.058550 0.582864 0.332749
Si Si2 0.341066 0.729691 0.231833
Si Si3 0.500000 0.668079 0.500000
Si Si4 0.681380 0.084581 0.052648
O O1 0.133196 0.500000 0.344956
O O2 0.305009 0.644946 0.275492
O O3 0.765949 0.615304 0.465271
O O4 0.999841 0.581673 0.214975
O O5 0.667260 0.757146 0.164040
O O6 0.141941 0.778469 0.370306
O O7 0.745829 0.000000 0.000547
O O8 0.500000 0.117641 0.000000
O O9 0.000000 0.114838 0.000000
#
# Coordination Sequence:
#
# PCOD9200077 Si02
#       4
#     8   8   4   8
#     4  10  20  36  63  94 120 153 205 254 290 351
#     4  10  21  39  59  82 119 164 194 230 301 364
#     4  10  21  40  61  88 126 166 192 238 311 368
#     4   9  19  36  57  83 117 154 192 242 301 348
#
# _framework density 27.862565
#
# number of rings (size 3 to 8) (size 9 to 14) (size 15 to 20)
#    0.000    2.286    0.000    3.857    0.000    4.571 
#    0.000   17.857    0.000   20.571    0.000    0.000 
#    0.000    0.000    0.000    0.000    0.000    0.286 
#
# Total GULP energy -78394.832387 kJ/mol
# GULP energy per Si atom -5599.630885 kJ/mol
# Density = 2.779915 g / cm^3
# Si number density = 27.862565 Si / 1000 Ang^3
#
#
#
# Elastic Constant Matrix: (Units=GPa)
#
#
# Indices 1 2 3 4 5 6 
#
# 1 200.2552 58.9897 42.6960 0.0000 22.3210 0.0000
# 2 58.9897 251.9057 17.2090 0.0000 -18.2097 0.0000
# 3 42.6960 17.2090 100.1608 0.0000 6.8730 0.0000
# 4 0.0000 0.0000 0.0000 39.2878 0.0000 -6.5417
# 5 22.3210 -18.2097 6.8730 0.0000 40.0654 0.0000
# 6 0.0000 0.0000 0.0000 -6.5417 0.0000 33.4951
#
#
#
# Elastic Compliance Matrix: (Units=1/GPa)
#
#
# Indices 1 2 3 4 5 6 
#
# 1 0.006372 -0.001627 -0.002168 0.000000 -0.003918 0.000000
# 2 -0.001627 0.004592 -0.000304 0.000000 0.003046 0.000000
# 3 -0.002168 -0.000304 0.011017 0.000000 -0.000820 0.000000
# 4 0.000000 0.000000 0.000000 0.026309 0.000000 0.005138
# 5 -0.003918 0.003046 -0.000820 0.000000 0.028667 0.000000
# 6 0.000000 0.000000 0.000000 0.005138 0.000000 0.030859
#
#
# Mechanical properties :
#
#
# Convention : Reuss Voigt Hill
#
# Bulk Modulus (GPa) = 72.56022 87.79013 80.17517
# Shear Modulus (GPa) = 41.45712 51.46479 46.46096
#
# Velocity S-wave (km/s) = 3.86153 4.30245 4.08794
# Velocity P-wave (km/s) = 6.78090 7.50054 7.14978
#
# Compressibility (1/GPa) = 0.01378166
#
# Stress axis : x y z
#
# Youngs Moduli (GPa) = 156.94170 217.78230 90.77235
#
# Poissons Ratio (x) = 0.35438 0.19677
# Poissons Ratio (y) = 0.25538 0.02762
# Poissons Ratio (z) = 0.34021 0.06627
#
# Static dielectric constant tensor:
#      x y z
#    x 2.209070 0.000000 0.097110 
#    y 0.000000 2.158000 0.000000 
#    z 0.097110 0.000000 2.242950 
# 
# From -- ./inp_files/114490.got.cif
#   From: 2010.05.17/outbox.cif.g08.bks.cpg/sg12_58_cif.got.tgz:114490.got - 2010.06.03 13:09:07.
