data_PCOD9200447
_publ_section_title
;
Structure prediction by ZEFSAII (Michael W. Deem and Ramdas Pophale) SiO2 
 PCOD9200447
Probable space group: C 2/M
;
_chemical_formula_sum "Si O2"
_cell_formula_units_Z 56
_cell_length_a 12.643851
_cell_length_b 16.881345
_cell_length_c 16.929671
_cell_angle_alpha 90.000000
_cell_angle_beta 60.114279
_cell_angle_gamma 90.000000
_cell_volume 3133.029804
_symmetry_space_group_name_H-M "C 2/M"
_symmetry_group_IT_number 12
_symmetry_cell_setting 'monoclinic'
loop_
_space_group_symop_operation_xyz
x,y,z
-x,y,-z
-x,-y,-z
x,-y,z
1/2+x,1/2+y,z
1/2-x,1/2+y,-z
1/2-x,1/2-y,-z
1/2+x,1/2-y,z
loop_
_atom_site_type_symbol
_atom_site_label
_atom_site_fract_x
_atom_site_fract_y
_atom_site_fract_z
Si Si1 0.939928 0.904908 0.899316
Si Si2 0.806685 0.904688 0.108336
Si Si3 0.452107 0.351312 0.720332
Si Si4 0.120645 0.091580 0.414345
Si Si5 0.115289 0.328665 0.287549
Si Si6 0.855520 0.593277 0.412078
Si Si7 0.268402 0.405298 0.371681
O O1 0.913255 0.868379 0.824425
O O2 0.076272 0.884921 0.879762
O O3 0.937648 0.000000 0.892139
O O4 0.847428 0.883816 0.004266
O O5 0.687883 0.861178 0.184439
O O6 0.790559 0.000000 0.118458
O O7 0.394486 0.405547 0.673514
O O8 0.410183 0.264092 0.710893
O O9 0.597148 0.369472 0.664879
O O10 0.246611 0.127248 0.398267
O O11 0.000000 0.128020 0.500000
O O12 0.124301 0.000000 0.440695
O O13 0.198557 0.357895 0.329519
O O14 0.983345 0.366803 0.348461
O O15 0.871753 0.500000 0.389701
O O16 0.808920 0.600964 0.519148
O O17 0.279582 0.500000 0.347910
#
# Coordination Sequence:
#
# PCOD9200447 Si02
#       7
#     8   8   8   8   8   8   8
#     4   9  18  36  64  90 109 148 204 249 285 347
#     4   9  18  36  63  89 113 146 200 251 290 344
#     4  12  24  35  59  87 124 154 193 244 305 353
#     4  10  20  37  58  81 111 156 204 243 281 344
#     4  12  25  35  57  90 127 153 188 246 316 352
#     4  10  22  39  60  83 115 160 208 244 288 350
#     4  11  22  42  64  83 114 164 212 246 283 347
#
# _framework density 17.874072000000002
#
# number of rings (size 3 to 8) (size 9 to 14) (size 15 to 20)
#    0.000    1.571    2.857    3.857    2.000    3.429 
#    0.000    0.000    0.000    0.857    0.000    4.000 
#    0.000    0.000    0.000    0.000    0.000    0.000 
#
# Total GULP energy -156272.707454 kJ/mol
# GULP energy per Si atom -5581.168123 kJ/mol
# Density = 1.783339 g / cm^3
# Si number density = 17.874072 Si / 1000 Ang^3
#
#
#
# Elastic Constant Matrix: (Units=GPa)
#
#
# Indices 1 2 3 4 5 6 
#
# 1 95.4676 31.3859 46.9672 0.0000 0.9854 0.0000
# 2 31.3859 61.6757 29.7175 0.0000 -6.7266 0.0000
# 3 46.9672 29.7175 87.6549 0.0000 -0.2539 0.0000
# 4 0.0000 0.0000 0.0000 -75.2838 0.0000 -31.4993
# 5 0.9854 -6.7266 -0.2539 0.0000 32.5479 0.0000
# 6 0.0000 0.0000 0.0000 -31.4993 0.0000 19.6175
#
#
#
# Elastic Compliance Matrix: (Units=1/GPa)
#
#
# Indices 1 2 3 4 5 6 
#
# 1 0.015299 -0.004778 -0.006582 0.000000 -0.001502 0.000000
# 2 -0.004778 0.021394 -0.004680 0.000000 0.004530 0.000000
# 3 -0.006582 -0.004680 0.016520 0.000000 -0.000639 0.000000
# 4 0.000000 0.000000 0.000000 -0.007945 0.000000 -0.012757
# 5 -0.001502 0.004530 -0.000639 0.000000 0.031701 0.000000
# 6 0.000000 0.000000 0.000000 -0.012757 0.000000 0.030491
#
#
# Mechanical properties :
#
#
# Convention : Reuss Voigt Hill
#
# Bulk Modulus (GPa) = 47.31849 51.21547 49.26698
# Shear Modulus (GPa) = 34.11012 4.49149 19.30081
#
# Velocity S-wave (km/s) = 4.37321 1.58692 3.28963
# Velocity P-wave (km/s) = 7.21323 5.66334 6.48476
#
# Compressibility (1/GPa) = 0.02113339
#
# Stress axis : x y z
#
# Youngs Moduli (GPa) = 65.36270 46.74153 60.53251
#
# Poissons Ratio (x) = 0.22332 0.39843
# Poissons Ratio (y) = 0.31229 0.28330
# Poissons Ratio (z) = 0.43023 0.21875
#
# Static dielectric constant tensor:
#      x y z
#    x 1.618420 0.000000 0.006330 
#    y 0.000000 1.619040 0.000000 
#    z 0.006330 0.000000 1.618460 
# 
# From -- ./inp_files/263210.got.cif
#   From: 2010.05.17/outbox.cif.g08.bks.cpg/sg12_132_cif.got.tgz:263210.got - 2010.06.03 13:09:07.
