data_PCOD9200241
_publ_section_title
;
Structure prediction by ZEFSAII (Michael W. Deem and Ramdas Pophale) SiO2 
 PCOD9200241
Probable space group: C 2/M
;
_chemical_formula_sum "Si O2"
_cell_formula_units_Z 32
_cell_length_a 13.029871
_cell_length_b 15.062745
_cell_length_c 13.185772
_cell_angle_alpha 90.000000
_cell_angle_beta 149.173651
_cell_angle_gamma 90.000000
_cell_volume 1326.144909
_symmetry_space_group_name_H-M "C 2/M"
_symmetry_group_IT_number 12
_symmetry_cell_setting 'monoclinic'
loop_
_space_group_symop_operation_xyz
x,y,z
-x,y,-z
-x,-y,-z
x,-y,z
1/2+x,1/2+y,z
1/2-x,1/2+y,-z
1/2-x,1/2-y,-z
1/2+x,1/2-y,z
loop_
_atom_site_type_symbol
_atom_site_label
_atom_site_fract_x
_atom_site_fract_y
_atom_site_fract_z
Si Si1 0.575664 0.370648 0.677389
Si Si2 0.792904 0.350992 0.502829
Si Si3 0.997697 0.596979 0.139524
Si Si4 0.799808 0.777376 0.779541
O O1 0.500000 0.397776 0.500000
O O2 0.399998 0.394559 0.605968
O O3 0.780321 0.401914 0.904069
O O4 0.629685 0.264655 0.707736
O O5 0.750000 0.250000 0.500000
O O6 0.983967 0.390017 0.723818
O O7 0.777130 0.345909 0.369131
O O8 0.084869 0.500000 0.188630
O O9 0.115620 0.683583 0.197991
O O10 0.000000 0.814572 0.000000
#
# Coordination Sequence:
#
# PCOD9200241 Si02
#       4
#     8   8   8   8
#     4  11  20  35  52  84 108 142 179 217 270 319
#     4  10  20  37  55  80 111 141 180 226 264 316
#     4  10  22  35  51  79 116 147 175 215 268 327
#     4   9  20  37  56  82 109 138 181 225 269 316
#
# _framework density 24.130092000000001
#
# number of rings (size 3 to 8) (size 9 to 14) (size 15 to 20)
#    0.000    2.000    5.000    0.000    0.000   15.000 
#    0.000    0.000    0.000    0.750    0.000   22.750 
#    0.000    0.000    0.000    0.000    0.000    0.000 
#
# Total GULP energy -89119.766633 kJ/mol
# GULP energy per Si atom -5569.985415 kJ/mol
# Density = 2.407517 g / cm^3
# Si number density = 24.130092 Si / 1000 Ang^3
#
#
#
# Elastic Constant Matrix: (Units=GPa)
#
#
# Indices 1 2 3 4 5 6 
#
# 1 71.6225 20.6573 54.0307 -0.0005 -9.3634 -0.0006
# 2 20.6573 54.3349 48.1613 -0.0005 -11.2586 -0.0006
# 3 54.0307 48.1613 232.8687 -0.0002 -25.7923 -0.0005
# 4 -0.0005 -0.0005 -0.0002 11.5750 -0.0002 -2.0049
# 5 -9.3634 -11.2586 -25.7923 -0.0002 37.4021 -0.0004
# 6 -0.0006 -0.0006 -0.0005 -2.0049 -0.0004 0.5098
#
#
#
# Elastic Compliance Matrix: (Units=1/GPa)
#
#
# Indices 1 2 3 4 5 6 
#
# 1 0.017566 -0.003607 -0.003208 0.000009 0.001100 0.000048
# 2 -0.003607 0.023804 -0.003673 0.000016 0.003729 0.000088
# 3 -0.003208 -0.003673 0.006049 -0.000001 0.002262 -0.000004
# 4 0.000009 0.000016 -0.000001 0.271032 0.000020 1.065968
# 5 0.001100 0.003729 0.002262 0.000020 0.029695 0.000108
# 6 0.000048 0.000088 -0.000004 1.065968 0.000108 6.154116
#
#
# Mechanical properties :
#
#
# Convention : Reuss Voigt Hill
#
# Bulk Modulus (GPa) = 37.81721 67.16942 52.49332
# Shear Modulus (GPa) = 0.76546 25.62914 13.19730
#
# Velocity S-wave (km/s) = 0.56383 3.26256 2.34118
# Velocity P-wave (km/s) = 4.01623 6.48762 5.39534
#
# Compressibility (1/GPa) = 0.02644299
#
# Stress axis : x y z
#
# Youngs Moduli (GPa) = 56.92743 42.00916 165.32083
#
# Poissons Ratio (x) = 0.15153 0.53034
# Poissons Ratio (y) = 0.20534 0.60725
# Poissons Ratio (z) = 0.18262 0.15431
#
# Static dielectric constant tensor:
#      x y z
#    x 2.143350 0.000000 0.003190 
#    y 0.000000 1.929100 0.000000 
#    z 0.003190 0.000000 1.991900 
# 
# From -- ./inp_files/213893.got.cif
#   From: 2010.05.17/outbox.cif.g08.bks.cpg/sg12_107_cif.got.tgz:213893.got - 2010.06.03 13:09:07.
