data_PCOD9200207
_publ_section_title
;
Structure prediction by ZEFSAII (Michael W. Deem and Ramdas Pophale) SiO2 
 PCOD9200207
Probable space group: C 2/M
;
_chemical_formula_sum "Si O2"
_cell_formula_units_Z 52
_cell_length_a 10.429064
_cell_length_b 14.000604
_cell_length_c 34.270337
_cell_angle_alpha 90.000000
_cell_angle_beta 146.780191
_cell_angle_gamma 90.000000
_cell_volume 2741.410787
_symmetry_space_group_name_H-M "C 2/M"
_symmetry_group_IT_number 12
_symmetry_cell_setting 'monoclinic'
loop_
_space_group_symop_operation_xyz
x,y,z
-x,y,-z
-x,-y,-z
x,-y,z
1/2+x,1/2+y,z
1/2-x,1/2+y,-z
1/2-x,1/2-y,-z
1/2+x,1/2-y,z
loop_
_atom_site_type_symbol
_atom_site_label
_atom_site_fract_x
_atom_site_fract_y
_atom_site_fract_z
Si Si1 0.295730 0.110004 0.388522
Si Si2 0.444048 0.110746 0.625835
Si Si3 0.160710 0.738040 0.827275
Si Si4 0.155245 0.766628 0.733388
Si Si5 0.500000 0.743771 0.500000
Si Si6 0.958777 0.386909 0.944189
Si Si7 0.045900 0.885759 0.966761
O O1 0.373153 0.111731 0.363227
O O2 0.460766 0.183741 0.453971
O O3 0.034883 0.152060 0.325199
O O4 0.313339 0.000000 0.406762
O O5 0.555706 0.167551 0.690346
O O6 0.222406 0.173627 0.555686
O O7 0.383703 0.000000 0.618802
O O8 0.174561 0.756388 0.784783
O O9 0.239782 0.832761 0.870535
O O10 0.352167 0.661270 0.889973
O O11 0.902076 0.711647 0.775873
O O12 0.926969 0.500000 0.932849
O O13 0.000000 0.364088 0.000000
O O14 0.192645 0.359409 0.980022
O O15 0.028452 0.000000 0.959454
O O16 0.000000 0.858600 0.000000
#
# Coordination Sequence:
#
# PCOD9200207 Si02
#       7
#     8   8   8   8   4   8   8
#     4  10  21  40  62  88 126 162 196 242 297 352
#     4  10  21  40  62  88 126 162 196 243 297 349
#     4  12  22  37  60  84 116 159 198 252 297 358
#     4  11  24  38  58  88 122 159 210 240 293 360
#     4  10  20  36  68  98 116 150 206 250 286 344
#     4  10  21  37  58  85 113 149 200 252 305 365
#     4  10  21  37  56  81 113 147 193 253 308 354
#
# _framework density 18.968336000000001
#
# number of rings (size 3 to 8) (size 9 to 14) (size 15 to 20)
#    0.000    1.538    1.538    3.692    0.000    2.462 
#    0.000    0.000    0.000    0.000    0.000    0.000 
#    0.000    0.000    0.000    0.000    0.000    0.000 
#
# Total GULP energy -145217.846566 kJ/mol
# GULP energy per Si atom -5585.301791 kJ/mol
# Density = 1.892516 g / cm^3
# Si number density = 18.968336 Si / 1000 Ang^3
#
#
#
# Elastic Constant Matrix: (Units=GPa)
#
#
# Indices 1 2 3 4 5 6 
#
# 1 58.1993 -2.9281 -3.2394 0.0000 -1.2629 0.0000
# 2 -2.9281 119.5907 17.2906 0.0001 1.5503 -0.0001
# 3 -3.2394 17.2906 64.2090 0.0007 -1.9244 -0.0003
# 4 0.0000 0.0001 0.0007 124.8788 0.0002 -47.6897
# 5 -1.2629 1.5503 -1.9244 0.0002 35.1003 -0.0001
# 6 0.0000 -0.0001 -0.0003 -47.6897 -0.0001 23.8322
#
#
#
# Elastic Compliance Matrix: (Units=1/GPa)
#
#
# Indices 1 2 3 4 5 6 
#
# 1 0.017257 0.000297 0.000810 0.000000 0.000652 0.000000
# 2 0.000297 0.008715 -0.002347 0.000000 -0.000503 0.000000
# 3 0.000810 -0.002347 0.016278 0.000000 0.001025 0.000000
# 4 0.000000 0.000000 0.000000 0.033957 0.000000 0.067951
# 5 0.000652 -0.000503 0.001025 0.000000 0.028592 0.000000
# 6 0.000000 0.000000 0.000000 0.067951 0.000000 0.177934
#
#
# Mechanical properties :
#
#
# Convention : Reuss Voigt Hill
#
# Bulk Modulus (GPa) = 25.14482 29.36059 27.25271
# Shear Modulus (GPa) = 16.75222 52.15399 34.45310
#
# Velocity S-wave (km/s) = 2.97504 5.24928 4.26649
# Velocity P-wave (km/s) = 5.00860 7.22858 6.21846
#
# Compressibility (1/GPa) = 0.03976962
#
# Stress axis : x y z
#
# Youngs Moduli (GPa) = 57.94913 114.74519 61.43359
#
# Poissons Ratio (x) = -0.03407 -0.04977
# Poissons Ratio (y) = -0.01721 0.14418
# Poissons Ratio (z) = -0.04695 0.26930
#
# Static dielectric constant tensor:
#      x y z
#    x 1.644850 0.000000 0.002490 
#    y 0.000000 1.662380 0.000000 
#    z 0.002490 0.000000 1.633820 
# 
# From -- ./inp_files/372649.got.cif
#   From: 2010.05.17/outbox.cif.g08.bks.cpg/sg12_187_cif.got.tgz:372649.got - 2010.06.03 13:09:07.
