data_PCOD9200794
_publ_section_title
;
Structure prediction by ZEFSAII (Michael W. Deem and Ramdas Pophale) SiO2 
 PCOD9200794
Probable space group: C 2/M
;
_chemical_formula_sum "Si O2"
_cell_formula_units_Z 56
_cell_length_a 16.952992
_cell_length_b 7.843480
_cell_length_c 25.366843
_cell_angle_alpha 90.000000
_cell_angle_beta 42.896624
_cell_angle_gamma 90.000000
_cell_volume 2295.953549
_symmetry_space_group_name_H-M "C 2/M"
_symmetry_group_IT_number 12
_symmetry_cell_setting 'monoclinic'
loop_
_space_group_symop_operation_xyz
x,y,z
-x,y,-z
-x,-y,-z
x,-y,z
1/2+x,1/2+y,z
1/2-x,1/2+y,-z
1/2-x,1/2-y,-z
1/2+x,1/2-y,z
loop_
_atom_site_type_symbol
_atom_site_label
_atom_site_fract_x
_atom_site_fract_y
_atom_site_fract_z
Si Si1 0.223964 0.794276 0.329262
Si Si2 0.427337 0.801051 0.380069
Si Si3 0.524195 0.209082 0.817824
Si Si4 0.225107 0.302302 0.099293
Si Si5 0.831818 0.195578 0.760711
Si Si6 0.471935 0.802242 0.957242
Si Si7 0.323538 0.201189 0.536272
O O1 0.358765 0.740455 0.268972
O O2 0.188307 0.735527 0.288402
O O3 0.151915 0.731521 0.414575
O O4 0.217976 0.000000 0.332675
O O5 0.529569 0.705053 0.300653
O O6 0.412073 0.736970 0.447938
O O7 0.301057 0.782500 0.416164
O O8 0.459449 0.000000 0.363382
O O9 0.401036 0.265358 0.855446
O O10 0.528998 0.266890 0.876361
O O11 0.522460 0.000000 0.817708
O O12 0.233516 0.500000 0.080102
O O13 0.228665 0.286385 0.160931
O O14 0.333014 0.207464 0.020584
O O15 0.792022 0.000000 0.781124
O O16 0.508213 0.000000 0.942096
O O17 0.500000 0.720621 0.000000
O O18 0.312396 0.000000 0.532488
#
# Coordination Sequence:
#
# PCOD9200794 Si02
#       7
#     8   8   8   8   8   8   8
#     4  10  21  38  59  82 112 150 191 237 288 340
#     4  10  21  38  59  83 115 152 189 235 287 336
#     4   9  19  36  57  81 109 145 187 229 280 338
#     4  11  22  36  57  84 114 147 185 234 289 341
#     4  11  23  38  58  84 113 150 196 238 282 341
#     4  10  20  37  60  82 110 148 187 229 279 339
#     4  10  21  37  59  86 114 148 191 235 283 343
#
# _framework density 24.390739
#
# number of rings (size 3 to 8) (size 9 to 14) (size 15 to 20)
#    0.000    1.857    0.000    3.857    0.000    7.143 
#    0.000    5.000    0.000    0.000    0.000    0.000 
#    0.000    0.000    0.000    0.000    0.000    0.000 
#
# Total GULP energy -156631.847302 kJ/mol
# GULP energy per Si atom -5593.994546 kJ/mol
# Density = 2.433522 g / cm^3
# Si number density = 24.390739 Si / 1000 Ang^3
#
#
#
# Elastic Constant Matrix: (Units=GPa)
#
#
# Indices 1 2 3 4 5 6 
#
# 1 58.6752 -4.9853 -0.7368 0.0000 15.0444 0.0009
# 2 -4.9853 42.9680 2.1016 0.0002 0.0451 0.0023
# 3 -0.7368 2.1016 115.2426 0.0000 15.6501 0.0001
# 4 0.0000 0.0002 0.0000 16.8749 -0.0001 6.1801
# 5 15.0444 0.0451 15.6501 -0.0001 46.2397 0.0000
# 6 0.0009 0.0023 0.0001 6.1801 0.0000 13.7028
#
#
#
# Elastic Compliance Matrix: (Units=1/GPa)
#
#
# Indices 1 2 3 4 5 6 
#
# 1 0.018898 0.002152 0.000961 0.000001 -0.006476 -0.000002
# 2 0.002152 0.023540 -0.000333 0.000001 -0.000611 -0.000005
# 3 0.000961 -0.000333 0.009153 0.000000 -0.003410 0.000000
# 4 0.000001 0.000001 0.000000 0.070985 0.000000 -0.032015
# 5 -0.006476 -0.000611 -0.003410 0.000000 0.024888 0.000001
# 6 -0.000002 -0.000005 0.000000 -0.032015 0.000001 0.087417
#
#
# Mechanical properties :
#
#
# Convention : Reuss Voigt Hill
#
# Bulk Modulus (GPa) = 17.49699 23.29385 20.39542
# Shear Modulus (GPa) = 20.13129 30.06390 25.09760
#
# Velocity S-wave (km/s) = 2.87604 3.51464 3.21125
# Velocity P-wave (km/s) = 4.26825 5.10307 4.70421
#
# Compressibility (1/GPa) = 0.05715270
#
# Stress axis : x y z
#
# Youngs Moduli (GPa) = 52.91452 42.48128 109.25796
#
# Poissons Ratio (x) = -0.09144 -0.10500
# Poissons Ratio (y) = -0.11390 0.03634
# Poissons Ratio (z) = -0.05085 0.01413
#
# Static dielectric constant tensor:
#      x y z
#    x 2.015560 0.000000 0.012290 
#    y 0.000000 1.900540 0.000000 
#    z 0.012290 0.000000 1.881650 
# 
# From -- ./inp_files/362962.got.cif
#   From: 2010.05.17/outbox.cif.g08.bks.cpg/sg12_182_cif.got.tgz:362962.got - 2010.06.03 13:09:07.
