data_PCOD9200916
_publ_section_title
;
Structure prediction by ZEFSAII (Michael W. Deem and Ramdas Pophale) SiO2 
 PCOD9200916
Probable space group: C 2/M
;
_chemical_formula_sum "Si O2"
_cell_formula_units_Z 48
_cell_length_a 8.245877
_cell_length_b 12.783544
_cell_length_c 21.059041
_cell_angle_alpha 90.000000
_cell_angle_beta 106.662108
_cell_angle_gamma 90.000000
_cell_volume 2126.658768
_symmetry_space_group_name_H-M "C 2/M"
_symmetry_group_IT_number 12
_symmetry_cell_setting 'monoclinic'
loop_
_space_group_symop_operation_xyz
x,y,z
-x,y,-z
-x,-y,-z
x,-y,z
1/2+x,1/2+y,z
1/2-x,1/2+y,-z
1/2-x,1/2-y,-z
1/2+x,1/2-y,z
loop_
_atom_site_type_symbol
_atom_site_label
_atom_site_fract_x
_atom_site_fract_y
_atom_site_fract_z
Si Si1 0.824516 0.325796 0.281319
Si Si2 0.473122 0.123025 0.072156
Si Si3 0.792769 0.885368 0.544314
Si Si4 0.952641 0.119013 0.256960
Si Si5 0.790867 0.254871 0.145016
Si Si6 0.452690 0.833427 0.585461
O O1 0.652177 0.366916 0.292446
O O2 0.813757 0.339797 0.204375
O O3 0.840620 0.198971 0.285662
O O4 0.990842 0.362116 0.337092
O O5 0.622212 0.186275 0.123891
O O6 0.312549 0.184524 0.081851
O O7 0.471295 0.000000 0.087472
O O8 0.500000 0.131953 0.000000
O O9 0.620645 0.865989 0.565317
O O10 0.715895 0.881215 0.464200
O O11 0.918174 0.790189 0.571578
O O12 0.862952 0.000000 0.565524
O O13 0.925971 0.166677 0.183022
O O14 0.902760 0.000000 0.256096
#
# Coordination Sequence:
#
# PCOD9200916 Si02
#       6
#     8   8   8   8   8   8
#     4  10  21  36  59  90 115 149 196 242 290 347
#     4  11  23  40  63  88 119 159 196 235 287 343
#     4  10  22  40  60  81 116 159 192 237 295 345
#     4  10  21  38  59  83 118 154 184 235 295 346
#     4  10  20  42  59  86 123 150 193 244 288 339
#     4  10  20  37  60  86 115 149 198 243 284 349
#
# _framework density 22.570616000000001
#
# number of rings (size 3 to 8) (size 9 to 14) (size 15 to 20)
#    1.000    0.833    1.667    3.000    0.000    4.000 
#    0.000    8.333    0.000   13.500    0.000    0.000 
#    0.000    0.000    0.000    0.000    0.000    0.000 
#
# Total GULP energy -133712.956981 kJ/mol
# GULP energy per Si atom -5571.373208 kJ/mol
# Density = 2.251924 g / cm^3
# Si number density = 22.570616 Si / 1000 Ang^3
#
#
#
# Elastic Constant Matrix: (Units=GPa)
#
#
# Indices 1 2 3 4 5 6 
#
# 1 19.2399 9.5570 -13.5210 0.0000 1.5914 0.0000
# 2 9.5570 113.7607 4.1747 0.0000 -3.7328 0.0000
# 3 -13.5210 4.1747 54.4061 0.0000 8.9347 0.0000
# 4 0.0000 0.0000 0.0000 0.2507 0.0000 5.6948
# 5 1.5914 -3.7328 8.9347 0.0000 18.3459 0.0000
# 6 0.0000 0.0000 0.0000 5.6948 0.0000 -14.8008
#
#
#
# Elastic Compliance Matrix: (Units=1/GPa)
#
#
# Indices 1 2 3 4 5 6 
#
# 1 0.072348 -0.007469 0.021558 0.000000 -0.018295 0.000000
# 2 -0.007469 0.009677 -0.003292 0.000000 0.004220 0.000000
# 3 0.021558 -0.003292 0.026529 0.000000 -0.015460 0.000000
# 4 0.000000 0.000000 0.000000 0.409528 0.000000 0.157572
# 5 -0.018295 0.004220 -0.015460 0.000000 0.064483 0.000000
# 6 0.000000 0.000000 0.000000 0.157572 0.000000 -0.006936
#
#
# Mechanical properties :
#
#
# Convention : Reuss Voigt Hill
#
# Bulk Modulus (GPa) = 7.68359 20.86980 14.27670
# Shear Modulus (GPa) = 8.36932 13.23887 10.80409
#
# Velocity S-wave (km/s) = 1.92772 2.42451 2.19025
# Velocity P-wave (km/s) = 2.89248 4.13572 3.56866
#
# Compressibility (1/GPa) = 0.13014742
#
# Stress axis : x y z
#
# Youngs Moduli (GPa) = 13.82199 103.33607 37.69426
#
# Poissons Ratio (x) = 0.77186 -0.81260
# Poissons Ratio (y) = 0.10324 0.12409
# Poissons Ratio (z) = -0.29797 0.34017
#
# Static dielectric constant tensor:
#      x y z
#    x 1.866100 0.000000 -0.041890 
#    y 0.000000 1.807650 0.000000 
#    z -0.041890 0.000000 1.953580 
# 
# From -- ./inp_files/332418.got.cif
#   From: 2010.05.17/outbox.cif.g08.bks.cpg/sg12_167_cif.got.tgz:332418.got - 2010.06.03 13:09:07.
