data_PCOD9200488
_publ_section_title
;
Structure prediction by ZEFSAII (Michael W. Deem and Ramdas Pophale) SiO2 
 PCOD9200488
Probable space group: C 2/M
;
_chemical_formula_sum "Si O2"
_cell_formula_units_Z 64
_cell_length_a 28.526716
_cell_length_b 7.808793
_cell_length_c 17.000196
_cell_angle_alpha 90.000000
_cell_angle_beta 51.748757
_cell_angle_gamma 90.000000
_cell_volume 2973.905406
_symmetry_space_group_name_H-M "C 2/M"
_symmetry_group_IT_number 12
_symmetry_cell_setting 'monoclinic'
loop_
_space_group_symop_operation_xyz
x,y,z
-x,y,-z
-x,-y,-z
x,-y,z
1/2+x,1/2+y,z
1/2-x,1/2+y,-z
1/2-x,1/2-y,-z
1/2+x,1/2-y,z
loop_
_atom_site_type_symbol
_atom_site_label
_atom_site_fract_x
_atom_site_fract_y
_atom_site_fract_z
Si Si1 0.849700 0.201260 0.997266
Si Si2 0.368221 0.801144 0.271513
Si Si3 0.873742 0.206659 0.795793
Si Si4 0.110636 0.710796 0.579829
Si Si5 0.999677 0.294198 0.410876
Si Si6 0.231125 0.800118 0.209795
Si Si7 0.762640 0.302480 0.618633
Si Si8 0.567766 0.792644 0.950018
O O1 0.792980 0.285788 0.098320
O O2 0.906388 0.225008 0.995157
O O3 0.836005 0.000000 0.005860
O O4 0.861840 0.268467 0.896944
O O5 0.394809 0.729182 0.324491
O O6 0.296805 0.790383 0.348501
O O7 0.391453 0.728430 0.164924
O O8 0.386144 0.000000 0.250981
O O9 0.938494 0.254816 0.696513
O O10 0.822398 0.266954 0.789234
O O11 0.870211 0.000000 0.801448
O O12 0.110560 0.500000 0.579882
O O13 0.174994 0.764511 0.479858
O O14 0.056771 0.769080 0.580592
O O15 0.993831 0.500000 0.421137
O O16 0.000000 0.227907 0.500000
O O17 0.235225 0.708552 0.289117
O O18 0.220141 0.000000 0.238640
O O19 0.756550 0.500000 0.600851
O O20 0.571444 0.000000 0.951292
O O21 0.500000 0.746691 0.000000
#
# Coordination Sequence:
#
# PCOD9200488 Si02
#       8
#     8   8   8   8   8   8   8   8
#     4  11  23  40  61  88 120 151 193 246 294 341
#     4  10  20  37  58  83 118 154 196 241 283 346
#     4  10  24  41  59  87 120 154 192 240 294 348
#     4   9  20  36  57  85 118 156 196 241 287 343
#     4  10  21  39  63  90 118 153 198 241 285 341
#     4  11  22  39  61  85 117 155 195 236 290 355
#     4  11  21  36  59  87 119 152 193 243 297 343
#     4  10  22  38  60  88 119 158 197 233 287 353
#
# _framework density 21.520523000000001
#
# number of rings (size 3 to 8) (size 9 to 14) (size 15 to 20)
#    0.000    1.750    1.250    2.625    1.750    3.500 
#    0.000    2.500    0.000    0.000    0.000    0.000 
#    0.000    0.000    0.000    0.000    0.000    0.000 
#
# Total GULP energy -178892.692187 kJ/mol
# GULP energy per Si atom -5590.396631 kJ/mol
# Density = 2.147154 g / cm^3
# Si number density = 21.520523 Si / 1000 Ang^3
#
#
#
# Elastic Constant Matrix: (Units=GPa)
#
#
# Indices 1 2 3 4 5 6 
#
# 1 116.9788 -8.4415 16.9977 0.0003 17.4920 -0.0002
# 2 -8.4415 28.8476 -6.4473 0.0015 3.7254 -0.0013
# 3 16.9977 -6.4473 58.4526 0.0002 16.2287 -0.0001
# 4 0.0003 0.0015 0.0002 15.3190 -0.0001 -14.1832
# 5 17.4920 3.7254 16.2287 -0.0001 40.9608 0.0000
# 6 -0.0002 -0.0013 -0.0001 -14.1832 0.0000 17.2896
#
#
#
# Elastic Compliance Matrix: (Units=1/GPa)
#
#
# Indices 1 2 3 4 5 6 
#
# 1 0.009532 0.002967 -0.001393 -0.000001 -0.003788 0.000000
# 2 0.002967 0.037551 0.005145 -0.000005 -0.006721 -0.000001
# 3 -0.001393 0.005145 0.020275 -0.000002 -0.007906 -0.000001
# 4 -0.000001 -0.000005 -0.000002 0.271443 0.000002 0.222674
# 5 -0.003788 -0.006721 -0.007906 0.000002 0.029775 0.000001
# 6 0.000000 -0.000001 -0.000001 0.222674 0.000001 0.240505
#
#
# Mechanical properties :
#
#
# Convention : Reuss Voigt Hill
#
# Bulk Modulus (GPa) = 12.37667 23.16630 17.77148
# Shear Modulus (GPa) = 8.03116 28.19189 18.11152
#
# Velocity S-wave (km/s) = 1.93390 3.62332 2.90417
# Velocity P-wave (km/s) = 3.27875 5.31909 4.41831
#
# Compressibility (1/GPa) = 0.08079720
#
# Stress axis : x y z
#
# Youngs Moduli (GPa) = 104.91500 26.63042 49.32067
#
# Poissons Ratio (x) = -0.07902 0.06868
# Poissons Ratio (y) = -0.31130 -0.25376
# Poissons Ratio (z) = 0.14611 -0.13701
#
# Static dielectric constant tensor:
#      x y z
#    x 1.749030 0.000000 0.018140 
#    y 0.000000 1.800890 0.000000 
#    z 0.018140 0.000000 1.757120 
# 
# From -- ./inp_files/249675.got.cif
#   From: 2010.05.17/outbox.cif.g08.bks.cpg/sg12_125_cif.got.tgz:249675.got - 2010.06.03 13:09:07.
