data_PCOD9200429
_publ_section_title
;
Structure prediction by ZEFSAII (Michael W. Deem and Ramdas Pophale) SiO2 
 PCOD9200429
Probable space group: C 2/M
;
_chemical_formula_sum "Si O2"
_cell_formula_units_Z 48
_cell_length_a 19.160228
_cell_length_b 8.966895
_cell_length_c 26.248026
_cell_angle_alpha 90.000000
_cell_angle_beta 35.214807
_cell_angle_gamma 90.000000
_cell_volume 2600.439683
_symmetry_space_group_name_H-M "C 2/M"
_symmetry_group_IT_number 12
_symmetry_cell_setting 'monoclinic'
loop_
_space_group_symop_operation_xyz
x,y,z
-x,y,-z
-x,-y,-z
x,-y,z
1/2+x,1/2+y,z
1/2-x,1/2+y,-z
1/2-x,1/2-y,-z
1/2+x,1/2-y,z
loop_
_atom_site_type_symbol
_atom_site_label
_atom_site_fract_x
_atom_site_fract_y
_atom_site_fract_z
Si Si1 0.382692 0.680444 0.420567
Si Si2 0.523837 0.330250 0.045590
Si Si3 0.678623 0.320066 0.750978
Si Si4 0.979504 0.818944 0.252716
Si Si5 0.555656 0.319844 0.411757
Si Si6 0.240406 0.822989 0.060494
O O1 0.374014 0.500000 0.426657
O O2 0.250000 0.750000 0.500000
O O3 0.440515 0.727265 0.332214
O O4 0.465283 0.724629 0.419680
O O5 0.554386 0.500000 0.044682
O O6 0.409867 0.283479 0.148595
O O7 0.500000 0.335031 0.000000
O O8 0.638327 0.225389 0.984057
O O9 0.691752 0.500000 0.742256
O O10 0.609726 0.272431 0.739961
O O11 0.810865 0.247898 0.675102
O O12 0.116084 0.769598 0.160171
O O13 0.978170 0.000000 0.252750
O O14 0.500000 0.276462 0.500000
O O15 0.565249 0.500000 0.405276
O O16 0.233819 0.000000 0.060154
O O17 0.250000 0.750000 0.000000
#
# Coordination Sequence:
#
# PCOD9200429 Si02
#       6
#     8   8   8   8   8   8
#     4  10  21  38  59  82 110 143 181 229 278 330
#     4  10  22  39  57  82 120 156 191 240 287 333
#     4  10  20  37  58  80 110 148 188 228 277 335
#     4   9  19  36  57  80 110 146 185 232 278 326
#     4  10  22  38  56  82 116 145 177 229 285 333
#     4  11  21  37  60  85 116 154 196 237 284 340
#
# _framework density 18.458416
#
# number of rings (size 3 to 8) (size 9 to 14) (size 15 to 20)
#    0.000    2.000    1.667    1.500    2.333    2.000 
#    0.000    1.667    0.000    0.000    0.000    0.000 
#    0.000    0.000    0.000    0.000    0.000    0.000 
#
# Total GULP energy -133924.454768 kJ/mol
# GULP energy per Si atom -5580.185615 kJ/mol
# Density = 1.841640 g / cm^3
# Si number density = 18.458416 Si / 1000 Ang^3
#
#
#
# Elastic Constant Matrix: (Units=GPa)
#
#
# Indices 1 2 3 4 5 6 
#
# 1 158.7180 37.5316 115.0938 0.0000 -0.9540 0.0000
# 2 37.5316 23.4072 39.6824 0.0000 -6.1715 0.0001
# 3 115.0938 39.6824 207.3675 0.0000 -4.5997 0.0000
# 4 0.0000 0.0000 0.0000 27.4619 0.0000 -15.4125
# 5 -0.9540 -6.1715 -4.5997 0.0000 37.7205 0.0000
# 6 0.0000 0.0001 0.0000 -15.4125 0.0000 17.7453
#
#
#
# Elastic Compliance Matrix: (Units=1/GPa)
#
#
# Indices 1 2 3 4 5 6 
#
# 1 0.012764 -0.013325 -0.004588 0.000000 -0.002417 0.000000
# 2 -0.013325 0.080271 -0.007702 -0.000001 0.011857 -0.000001
# 3 -0.004588 -0.007702 0.008836 0.000000 -0.000299 0.000000
# 4 0.000000 -0.000001 0.000000 0.071045 0.000000 0.061706
# 5 -0.002417 0.011857 -0.000299 0.000000 0.028353 0.000000
# 6 0.000000 -0.000001 0.000000 0.061706 0.000000 0.109947
#
#
# Mechanical properties :
#
#
# Convention : Reuss Voigt Hill
#
# Bulk Modulus (GPa) = 19.74694 86.01202 52.87948
# Shear Modulus (GPa) = 13.18123 29.73120 21.45621
#
# Velocity S-wave (km/s) = 2.67517 4.01772 3.41311
# Velocity P-wave (km/s) = 4.50148 8.25964 6.65150
#
# Compressibility (1/GPa) = 0.05064077
#
# Stress axis : x y z
#
# Youngs Moduli (GPa) = 78.34677 12.45778 113.17303
#
# Poissons Ratio (x) = 0.16600 0.51923
# Poissons Ratio (y) = 1.04397 0.87168
# Poissons Ratio (z) = 0.35945 0.09595
#
# Static dielectric constant tensor:
#      x y z
#    x 1.553130 0.000000 0.129460 
#    y 0.000000 1.633710 0.000000 
#    z 0.129460 0.000000 1.466820 
# 
# From -- ./inp_files/365384.got.cif
#   From: 2010.05.17/outbox.cif.g08.bks.cpg/sg12_183_cif.got.tgz:365384.got - 2010.06.03 13:09:07.
