data_PCOD9200846
_publ_section_title
;
Structure prediction by ZEFSAII (Michael W. Deem and Ramdas Pophale) SiO2 
 PCOD9200846
Probable space group: C 2/M
;
_chemical_formula_sum "Si O2"
_cell_formula_units_Z 56
_cell_length_a 25.348450
_cell_length_b 7.898349
_cell_length_c 12.818238
_cell_angle_alpha 90.000000
_cell_angle_beta 67.499274
_cell_angle_gamma 90.000000
_cell_volume 2370.986742
_symmetry_space_group_name_H-M "C 2/M"
_symmetry_group_IT_number 12
_symmetry_cell_setting 'monoclinic'
loop_
_space_group_symop_operation_xyz
x,y,z
-x,y,-z
-x,-y,-z
x,-y,z
1/2+x,1/2+y,z
1/2-x,1/2+y,-z
1/2-x,1/2-y,-z
1/2+x,1/2-y,z
loop_
_atom_site_type_symbol
_atom_site_label
_atom_site_fract_x
_atom_site_fract_y
_atom_site_fract_z
Si Si1 0.456578 0.202696 0.384354
Si Si2 0.899505 0.293912 0.217420
Si Si3 0.224229 0.189509 0.912331
Si Si4 0.270062 0.808682 0.315632
Si Si5 0.351583 0.294999 0.611036
Si Si6 0.077290 0.802530 0.254236
Si Si7 0.900986 0.698610 0.986138
O O1 0.437586 0.264559 0.283863
O O2 0.404424 0.249033 0.498176
O O3 0.518366 0.278445 0.361264
O O4 0.463089 0.000000 0.379705
O O5 0.897206 0.500000 0.224598
O O6 0.833494 0.232646 0.282055
O O7 0.923843 0.252853 0.083823
O O8 0.236486 0.308566 0.805203
O O9 0.156662 0.195977 0.979841
O O10 0.242930 0.000000 0.871920
O O11 0.250000 0.250000 0.000000
O O12 0.208669 0.730016 0.391172
O O13 0.272313 0.000000 0.355739
O O14 0.346855 0.500000 0.618927
O O15 0.370755 0.235606 0.712835
O O16 0.087560 0.000000 0.229362
O O17 0.068445 0.720096 0.147434
O O18 0.886288 0.500000 0.005720
#
# Coordination Sequence:
#
# PCOD9200846 Si02
#       7
#     8   8   8   8   8   8   8
#     4  11  23  39  59  82 112 152 196 237 279 338
#     4   8  18  37  59  85 116 149 185 229 285 345
#     4  11  20  31  50  80 116 151 189 232 281 337
#     4   9  18  36  59  81 110 148 186 230 289 347
#     4  10  22  39  59  83 113 148 187 237 293 339
#     4  11  23  39  58  84 117 150 190 239 290 339
#     4  10  20  37  60  84 113 148 187 233 288 345
#
# _framework density 23.618856999999998
#
# number of rings (size 3 to 8) (size 9 to 14) (size 15 to 20)
#    0.000    2.000    0.000    4.714    0.000    5.714 
#    0.000   10.000    0.000    0.000    0.000    0.000 
#    0.000    0.000    0.000    0.000    0.000    0.000 
#
# Total GULP energy -156289.899841 kJ/mol
# GULP energy per Si atom -5581.782137 kJ/mol
# Density = 2.356510 g / cm^3
# Si number density = 23.618857 Si / 1000 Ang^3
#
#
#
# Elastic Constant Matrix: (Units=GPa)
#
#
# Indices 1 2 3 4 5 6 
#
# 1 71.7988 -1.5401 -2.0690 0.0000 -2.2505 0.0000
# 2 -1.5401 57.5309 0.6626 0.0000 5.2951 0.0000
# 3 -2.0690 0.6626 59.7178 0.0000 -3.1813 0.0000
# 4 0.0000 0.0000 0.0000 24.7203 0.0000 -5.9272
# 5 -2.2505 5.2951 -3.1813 0.0000 38.4115 0.0000
# 6 0.0000 0.0000 0.0000 -5.9272 0.0000 13.2947
#
#
#
# Elastic Compliance Matrix: (Units=1/GPa)
#
#
# Indices 1 2 3 4 5 6 
#
# 1 0.013975 0.000292 0.000525 0.000000 0.000822 0.000000
# 2 0.000292 0.017618 -0.000315 0.000000 -0.002438 0.000000
# 3 0.000525 -0.000315 0.016845 0.000000 0.001469 0.000000
# 4 0.000000 0.000000 0.000000 0.045294 0.000000 0.020194
# 5 0.000822 -0.002438 0.001469 0.000000 0.026540 0.000000
# 6 0.000000 0.000000 0.000000 0.020194 0.000000 0.084221
#
#
# Mechanical properties :
#
#
# Convention : Reuss Voigt Hill
#
# Bulk Modulus (GPa) = 20.22572 20.35050 20.28811
# Shear Modulus (GPa) = 22.73035 28.08488 25.40762
#
# Velocity S-wave (km/s) = 3.10559 3.45206 3.28340
# Velocity P-wave (km/s) = 4.63051 4.95215 4.79403
#
# Compressibility (1/GPa) = 0.04944199
#
# Stress axis : x y z
#
# Youngs Moduli (GPa) = 71.55650 56.76087 59.36344
#
# Poissons Ratio (x) = -0.01660 -0.03115
# Poissons Ratio (y) = -0.02092 0.01871
# Poissons Ratio (z) = -0.03755 0.01789
#
# Static dielectric constant tensor:
#      x y z
#    x 1.922980 0.000000 -0.001980 
#    y 0.000000 1.877100 0.000000 
#    z -0.001980 0.000000 1.974770 
# 
# From -- ./inp_files/180760.got.cif
#   From: 2010.05.17/outbox.cif.g08.bks.cpg/sg12_91_cif.got.tgz:180760.got - 2010.06.03 13:09:07.
