data_PCOD9200714
_publ_section_title
;
Structure prediction by ZEFSAII (Michael W. Deem and Ramdas Pophale) SiO2 
 PCOD9200714
Probable space group: C 2/M
;
_chemical_formula_sum "Si O2"
_cell_formula_units_Z 52
_cell_length_a 16.571010
_cell_length_b 14.172584
_cell_length_c 16.488221
_cell_angle_alpha 90.000000
_cell_angle_beta 138.401857
_cell_angle_gamma 90.000000
_cell_volume 2570.844330
_symmetry_space_group_name_H-M "C 2/M"
_symmetry_group_IT_number 12
_symmetry_cell_setting 'monoclinic'
loop_
_space_group_symop_operation_xyz
x,y,z
-x,y,-z
-x,-y,-z
x,-y,z
1/2+x,1/2+y,z
1/2-x,1/2+y,-z
1/2-x,1/2-y,-z
1/2+x,1/2-y,z
loop_
_atom_site_type_symbol
_atom_site_label
_atom_site_fract_x
_atom_site_fract_y
_atom_site_fract_z
Si Si1 0.587473 0.111426 0.798487
Si Si2 0.812791 0.392732 0.951625
Si Si3 0.612596 0.776839 0.418083
Si Si4 0.276610 0.753857 0.230524
Si Si5 0.915822 0.108987 0.859088
Si Si6 0.500000 0.253124 0.500000
Si Si7 0.974984 0.104663 0.234031
O O1 0.447257 0.137110 0.676216
O O2 0.665306 0.176867 0.795064
O O3 0.613283 0.000000 0.806226
O O4 0.619538 0.136223 0.915268
O O5 0.848691 0.500000 0.957632
O O6 0.814836 0.319698 0.879891
O O7 0.669338 0.392619 0.865150
O O8 0.750000 0.750000 0.500000
O O9 0.574829 0.796715 0.483177
O O10 0.538798 0.684408 0.333887
O O11 0.197478 0.821652 0.227243
O O12 0.385845 0.704233 0.363237
O O13 0.992544 0.118850 0.835252
O O14 0.875002 0.000000 0.834737
O O15 0.000000 0.128235 0.000000
O O16 0.017631 0.000000 0.290251
#
# Coordination Sequence:
#
# PCOD9200714 Si02
#       7
#     8   8   8   8   8   4   8
#     4  10  21  36  60  91 121 153 201 256 315 376
#     4  10  20  37  63  91 117 155 206 254 305 369
#     4  11  23  40  61  86 124 165 211 252 311 369
#     4  11  20  37  60  86 122 163 195 249 314 366
#     4  10  21  34  56  92 123 150 196 255 316 373
#     4  10  22  40  56  90 120 158 218 250 294 376
#     4  10  20  37  59  86 118 157 206 255 304 364
#
# _framework density 20.226818000000002
#
# number of rings (size 3 to 8) (size 9 to 14) (size 15 to 20)
#    0.000    1.692    3.077    2.769    2.154    3.077 
#    0.000   12.692    0.000    3.231    0.000    0.000 
#    0.000    0.000    0.000    0.000    0.000    0.000 
#
# Total GULP energy -144932.343551 kJ/mol
# GULP energy per Si atom -5574.320906 kJ/mol
# Density = 2.018078 g / cm^3
# Si number density = 20.226818 Si / 1000 Ang^3
#
#
#
# Elastic Constant Matrix: (Units=GPa)
#
#
# Indices 1 2 3 4 5 6 
#
# 1 38.0701 7.1856 4.4094 0.0000 2.7746 0.0000
# 2 7.1856 60.0459 20.6335 0.0000 -13.9022 0.0000
# 3 4.4094 20.6335 94.7435 0.0000 -14.6887 0.0000
# 4 0.0000 0.0000 0.0000 -78.3860 0.0000 -8.1563
# 5 2.7746 -13.9022 -14.6887 0.0000 19.7426 0.0000
# 6 0.0000 0.0000 0.0000 -8.1563 0.0000 18.3940
#
#
#
# Elastic Compliance Matrix: (Units=1/GPa)
#
#
# Indices 1 2 3 4 5 6 
#
# 1 0.027965 -0.004763 -0.001575 0.000000 -0.008456 0.000000
# 2 -0.004763 0.021222 -0.002238 0.000000 0.013949 0.000000
# 3 -0.001575 -0.002238 0.012327 0.000000 0.007818 0.000000
# 4 0.000000 0.000000 0.000000 -0.012195 0.000000 -0.005407
# 5 -0.008456 0.013949 0.007818 0.000000 0.067479 0.000000
# 6 0.000000 0.000000 0.000000 -0.005407 0.000000 0.051968
#
#
# Mechanical properties :
#
#
# Convention : Reuss Voigt Hill
#
# Bulk Modulus (GPa) = 22.54127 28.59071 25.56599
# Shear Modulus (GPa) = 24.91199 2.65885 13.78542
#
# Velocity S-wave (km/s) = 3.51327 1.14777 2.61347
# Velocity P-wave (km/s) = 5.25603 3.99027 4.66627
#
# Compressibility (1/GPa) = 0.04436307
#
# Stress axis : x y z
#
# Youngs Moduli (GPa) = 35.75881 47.12017 81.11984
#
# Poissons Ratio (x) = 0.22444 0.12778
# Poissons Ratio (y) = 0.17032 0.18151
# Poissons Ratio (z) = 0.05633 0.10544
#
# Static dielectric constant tensor:
#      x y z
#    x 1.733870 0.000000 0.001230 
#    y 0.000000 1.743160 0.000000 
#    z 0.001230 0.000000 1.729430 
# 
# From -- ./inp_files/225786.got.cif
#   From: 2010.05.17/outbox.cif.g08.bks.cpg/sg12_113_cif.got.tgz:225786.got - 2010.06.03 13:09:07.
