data_PCOD9200605
_publ_section_title
;
Structure prediction by ZEFSAII (Michael W. Deem and Ramdas Pophale) SiO2 
 PCOD9200605
Probable space group: C 2/M
;
_chemical_formula_sum "Si O2"
_cell_formula_units_Z 56
_cell_length_a 21.148646
_cell_length_b 8.027140
_cell_length_c 18.348478
_cell_angle_alpha 90.000000
_cell_angle_beta 63.179236
_cell_angle_gamma 90.000000
_cell_volume 2779.802203
_symmetry_space_group_name_H-M "C 2/M"
_symmetry_group_IT_number 12
_symmetry_cell_setting 'monoclinic'
loop_
_space_group_symop_operation_xyz
x,y,z
-x,y,-z
-x,-y,-z
x,-y,z
1/2+x,1/2+y,z
1/2-x,1/2+y,-z
1/2-x,1/2-y,-z
1/2+x,1/2-y,z
loop_
_atom_site_type_symbol
_atom_site_label
_atom_site_fract_x
_atom_site_fract_y
_atom_site_fract_z
Si Si1 0.648925 0.798609 0.779438
Si Si2 0.060268 0.298474 0.686584
Si Si3 0.897532 0.200709 0.755901
Si Si4 0.830356 0.798711 0.941918
Si Si5 0.080273 0.799438 0.966519
Si Si6 0.826646 0.698603 0.490760
Si Si7 0.308833 0.299279 0.663947
O O1 0.594003 0.741407 0.745792
O O2 0.624535 0.744228 0.871728
O O3 0.728174 0.740069 0.718844
O O4 0.649830 0.000000 0.777496
O O5 0.061904 0.500000 0.685933
O O6 0.111681 0.238184 0.594944
O O7 0.979887 0.244490 0.717771
O O8 0.857366 0.261945 0.849339
O O9 0.859622 0.262626 0.702119
O O10 0.891888 0.000000 0.758491
O O11 0.833998 0.000000 0.939224
O O12 0.750000 0.750000 0.000000
O O13 0.881037 0.737470 0.980725
O O14 0.076858 0.000000 0.973556
O O15 0.000000 0.735874 0.000000
O O16 0.829480 0.500000 0.487294
O O17 0.750000 0.750000 0.500000
O O18 0.833775 0.754019 0.570289
O O19 0.306955 0.500000 0.668798
#
# Coordination Sequence:
#
# PCOD9200605 Si02
#       7
#     8   8   8   8   8   8   8
#     4  10  20  37  59  82 111 149 192 236 285 340
#     4  10  22  39  59  84 117 152 188 238 289 341
#     4  10  22  39  60  85 116 156 194 235 287 343
#     4  10  21  38  59  83 114 153 193 235 286 339
#     4  10  21  36  55  82 114 145 187 241 287 335
#     4  11  22  39  62  88 117 151 191 236 288 342
#     4  10  21  39  60  85 117 149 191 239 282 339
#
# _framework density 20.145318
#
# number of rings (size 3 to 8) (size 9 to 14) (size 15 to 20)
#    0.000    1.857    1.429    2.143    0.000    7.143 
#    0.000    2.857    0.000    0.000    0.000    0.000 
#    0.000    0.000    0.000    0.000    0.000    0.000 
#
# Total GULP energy -156471.461818 kJ/mol
# GULP energy per Si atom -5588.266494 kJ/mol
# Density = 2.009947 g / cm^3
# Si number density = 20.145318 Si / 1000 Ang^3
#
#
#
# Elastic Constant Matrix: (Units=GPa)
#
#
# Indices 1 2 3 4 5 6 
#
# 1 171.7258 12.3354 78.7366 0.0001 22.1038 0.0001
# 2 12.3354 11.6589 6.4473 0.0001 4.5829 0.0009
# 3 78.7366 6.4473 158.7383 0.0001 21.3858 -0.0001
# 4 0.0001 0.0001 0.0001 31.8600 0.0000 -2.0378
# 5 22.1038 4.5829 21.3858 0.0000 42.5295 0.0001
# 6 0.0001 0.0009 -0.0001 -2.0378 0.0001 26.7123
#
#
#
# Elastic Compliance Matrix: (Units=1/GPa)
#
#
# Indices 1 2 3 4 5 6 
#
# 1 0.008100 -0.005909 -0.003536 0.000000 -0.001795 0.000000
# 2 -0.005909 0.094816 0.000046 -0.000001 -0.007169 -0.000003
# 3 -0.003536 0.000046 0.008372 0.000000 -0.002377 0.000000
# 4 0.000000 -0.000001 0.000000 0.031541 0.000000 0.002406
# 5 -0.001795 -0.007169 -0.002377 0.000000 0.026414 0.000000
# 6 0.000000 -0.000003 0.000000 0.002406 0.000000 0.037619
#
#
# Mechanical properties :
#
#
# Convention : Reuss Voigt Hill
#
# Bulk Modulus (GPa) = 10.81202 59.68461 35.24831
# Shear Modulus (GPa) = 19.49389 36.52727 28.01058
#
# Velocity S-wave (km/s) = 3.11410 4.26278 3.73289
# Velocity P-wave (km/s) = 4.27888 7.34300 6.00952
#
# Compressibility (1/GPa) = 0.09248968
#
# Stress axis : x y z
#
# Youngs Moduli (GPa) = 123.45775 10.54673 119.44721
#
# Poissons Ratio (x) = 0.06232 0.42235
# Poissons Ratio (y) = 0.72952 -0.00547
# Poissons Ratio (z) = 0.43653 -0.00048
#
# Static dielectric constant tensor:
#      x y z
#    x 1.687790 0.000000 0.010190 
#    y 0.000000 1.733360 0.000000 
#    z 0.010190 0.000000 1.685770 
# 
# From -- ./inp_files/275582.got.cif
#   From: 2010.05.17/outbox.cif.g08.bks.cpg/sg12_138_cif.got.tgz:275582.got - 2010.06.03 13:09:07.
