data_PCOD9200316
_publ_section_title
;
Structure prediction by ZEFSAII (Michael W. Deem and Ramdas Pophale) SiO2 
 PCOD9200316
Probable space group: C 2/M
;
_chemical_formula_sum "Si O2"
_cell_formula_units_Z 64
_cell_length_a 19.559716
_cell_length_b 9.398209
_cell_length_c 25.773059
_cell_angle_alpha 90.000000
_cell_angle_beta 131.990190
_cell_angle_gamma 90.000000
_cell_volume 3521.389061
_symmetry_space_group_name_H-M "C 2/M"
_symmetry_group_IT_number 12
_symmetry_cell_setting 'monoclinic'
loop_
_space_group_symop_operation_xyz
x,y,z
-x,y,-z
-x,-y,-z
x,-y,z
1/2+x,1/2+y,z
1/2-x,1/2+y,-z
1/2-x,1/2-y,-z
1/2+x,1/2-y,z
loop_
_atom_site_type_symbol
_atom_site_label
_atom_site_fract_x
_atom_site_fract_y
_atom_site_fract_z
Si Si1 0.049969 0.830743 0.925056
Si Si2 0.278168 0.833624 0.679113
Si Si3 0.390498 0.663477 0.586346
Si Si4 0.828402 0.834915 0.916199
Si Si5 0.807133 0.336356 0.453923
Si Si6 0.472745 0.165881 0.718265
Si Si7 0.141791 0.329547 0.172166
Si Si8 0.637848 0.165914 0.880274
O O1 0.122730 0.768377 0.921087
O O2 0.955573 0.747430 0.867668
O O3 0.038825 0.000000 0.912692
O O4 0.087482 0.805248 0.002091
O O5 0.211344 0.738706 0.610348
O O6 0.380370 0.819110 0.705942
O O7 0.290202 0.795815 0.745487
O O8 0.252796 0.000000 0.661563
O O9 0.414185 0.500000 0.588489
O O10 0.291639 0.665793 0.566110
O O11 0.375331 0.749716 0.525756
O O12 0.460299 0.738283 0.661313
O O13 0.824945 0.731558 0.865663
O O14 0.736517 0.822429 0.903693
O O15 0.836584 0.000000 0.902724
O O16 0.834735 0.500000 0.462380
O O17 0.559880 0.200454 0.798003
O O18 0.478700 0.000000 0.706004
O O19 0.129642 0.500000 0.165208
O O20 0.624155 0.000000 0.888938
#
# Coordination Sequence:
#
# PCOD9200316 Si02
#       8
#     8   8   8   8   8   8   8   8
#     4  11  22  36  56  80 106 135 174 222 269 316
#     4   9  17  30  47  69  97 130 169 211 254 302
#     4   9  16  25  39  64  98 132 164 203 249 298
#     4  10  23  39  54  77 108 139 173 220 270 316
#     4   9  16  25  40  65  96 131 166 202 249 301
#     4   9  16  29  48  69  96 131 169 210 252 304
#     4  11  22  37  56  78 104 140 180 218 264 318
#     4  10  20  37  57  77 105 140 177 216 266 318
#
# _framework density 18.174645999999999
#
# number of rings (size 3 to 8) (size 9 to 14) (size 15 to 20)
#    0.000    2.250    1.250    2.250    0.000    7.500 
#    0.000    0.000    0.000    0.000    0.000    0.875 
#    0.000    7.000    0.000    0.000    0.000    0.000 
#
# Total GULP energy -178580.713400 kJ/mol
# GULP energy per Si atom -5580.647294 kJ/mol
# Density = 1.813328 g / cm^3
# Si number density = 18.174646 Si / 1000 Ang^3
#
#
#
# Elastic Constant Matrix: (Units=GPa)
#
#
# Indices 1 2 3 4 5 6 
#
# 1 24.3474 26.8930 19.5347 0.0000 -14.9059 0.0000
# 2 26.8930 107.4652 87.5566 0.0000 -28.7979 0.0000
# 3 19.5347 87.5566 123.1850 0.0000 -32.9650 0.0000
# 4 0.0000 0.0000 0.0000 33.5686 0.0000 -7.2635
# 5 -14.9059 -28.7979 -32.9650 0.0000 20.4584 0.0000
# 6 0.0000 0.0000 0.0000 -7.2635 0.0000 21.2655
#
#
#
# Elastic Compliance Matrix: (Units=1/GPa)
#
#
# Indices 1 2 3 4 5 6 
#
# 1 0.087012 -0.017388 0.015780 0.000000 0.064348 0.000000
# 2 -0.017388 0.026863 -0.016890 0.000000 -0.002072 0.000000
# 3 0.015780 -0.016890 0.025202 0.000000 0.028331 0.000000
# 4 0.000000 0.000000 0.000000 0.032167 0.000000 0.010987
# 5 0.064348 -0.002072 0.028331 0.000000 0.138496 0.000000
# 6 0.000000 0.000000 0.000000 0.010987 0.000000 0.050777
#
#
# Mechanical properties :
#
#
# Convention : Reuss Voigt Hill
#
# Bulk Modulus (GPa) = 9.79616 58.10735 33.95175
# Shear Modulus (GPa) = 11.58638 23.12605 17.35622
#
# Velocity S-wave (km/s) = 2.52762 3.57099 3.09361
# Velocity P-wave (km/s) = 3.73098 7.00312 5.61088
#
# Compressibility (1/GPa) = 0.10208085
#
# Stress axis : x y z
#
# Youngs Moduli (GPa) = 11.49267 37.22607 39.67922
#
# Poissons Ratio (x) = 0.64729 -0.62615
# Poissons Ratio (y) = 0.19984 0.67020
# Poissons Ratio (z) = -0.18136 0.62876
#
# Static dielectric constant tensor:
#      x y z
#    x 1.618530 0.000000 -0.006970 
#    y 0.000000 1.608070 0.000000 
#    z -0.006970 0.000000 1.610070 
# 
# From -- ./inp_files/346189.got.cif
#   From: 2010.05.17/outbox.cif.g08.bks.cpg/sg12_174_cif.got.tgz:346189.got - 2010.06.03 13:09:07.
