data_PCOD9200468
_publ_section_title
;
Structure prediction by ZEFSAII (Michael W. Deem and Ramdas Pophale) SiO2 
 PCOD9200468
Probable space group: C 2/M
;
_chemical_formula_sum "Si O2"
_cell_formula_units_Z 58
_cell_length_a 13.184938
_cell_length_b 27.157322
_cell_length_c 9.067945
_cell_angle_alpha 90.000000
_cell_angle_beta 106.333919
_cell_angle_gamma 90.000000
_cell_volume 3115.887627
_symmetry_space_group_name_H-M "C 2/M"
_symmetry_group_IT_number 12
_symmetry_cell_setting 'monoclinic'
loop_
_space_group_symop_operation_xyz
x,y,z
-x,y,-z
-x,-y,-z
x,-y,z
1/2+x,1/2+y,z
1/2-x,1/2+y,-z
1/2-x,1/2-y,-z
1/2+x,1/2-y,z
loop_
_atom_site_type_symbol
_atom_site_label
_atom_site_fract_x
_atom_site_fract_y
_atom_site_fract_z
Si Si1 0.001950 0.174067 0.325815
Si Si2 0.681406 0.670238 0.975332
Si Si3 0.117951 0.642986 0.111846
Si Si4 0.103074 0.247686 0.149661
Si Si5 0.500000 0.500000 0.000000
Si Si6 0.931714 0.557336 0.699575
Si Si7 0.155636 0.442617 0.668929
Si Si8 0.386678 0.405266 0.815363
O O1 0.887654 0.179528 0.199897
O O2 0.000000 0.177167 0.500000
O O3 0.073763 0.216416 0.280767
O O4 0.052692 0.122776 0.290587
O O5 0.792808 0.647184 0.976166
O O6 0.687487 0.717886 0.084547
O O7 0.615997 0.631123 0.045194
O O8 0.129143 0.696085 0.195921
O O9 0.127195 0.595313 0.218442
O O10 0.000000 0.640858 0.000000
O O11 0.000000 0.247672 0.000000
O O12 0.560598 0.456455 0.120122
O O13 0.926545 0.500000 0.746314
O O14 0.883332 0.559730 0.515990
O O15 0.055350 0.571797 0.729360
O O16 0.176554 0.500000 0.711897
O O17 0.263162 0.413224 0.729237
#
# Coordination Sequence:
#
# PCOD9200468 Si02
#       8
#     8   8   8   8   2   8   8   8
#     4  10  21  38  58  84 117 148 181 232 299 339
#     4  10  20  37  58  82 114 154 184 231 287 338
#     4  11  21  35  58  85 111 146 193 240 274 329
#     4   8  18  38  60  80 109 149 192 228 281 347
#     4  12  20  36  58  94 110 140 212 234 250 344
#     4   9  20  37  52  83 118 148 189 225 283 337
#     4   9  18  35  59  75 110 161 183 224 278 338
#     4  11  20  37  61  83 114 150 192 233 277 334
#
# _framework density 18.614279
#
# number of rings (size 3 to 8) (size 9 to 14) (size 15 to 20)
#    0.000    2.207    2.069    2.897    1.931    0.276 
#    3.724    1.034    0.000    0.000    0.000    0.000 
#    0.000    0.000    0.000    0.000    0.000    0.000 
#
# Total GULP energy -161436.174010 kJ/mol
# GULP energy per Si atom -5566.764621 kJ/mol
# Density = 1.857191 g / cm^3
# Si number density = 18.614279 Si / 1000 Ang^3
#
#
#
# Elastic Constant Matrix: (Units=GPa)
#
#
# Indices 1 2 3 4 5 6 
#
# 1 93.7521 27.3858 37.9754 0.0000 -12.7691 0.0000
# 2 27.3858 128.5575 45.2442 0.0000 -18.4534 0.0000
# 3 37.9754 45.2442 98.1849 0.0000 -16.9609 0.0000
# 4 0.0000 0.0000 0.0000 7.8121 0.0000 -9.1649
# 5 -12.7691 -18.4534 -16.9609 0.0000 29.5973 0.0000
# 6 0.0000 0.0000 0.0000 -9.1649 0.0000 20.9608
#
#
#
# Elastic Compliance Matrix: (Units=1/GPa)
#
#
# Indices 1 2 3 4 5 6 
#
# 1 0.012972 -0.000929 -0.004131 0.000000 0.002650 0.000000
# 2 -0.000929 0.009732 -0.003492 0.000000 0.003666 0.000000
# 3 -0.004131 -0.003492 0.014104 0.000000 0.004123 0.000000
# 4 0.000000 0.000000 0.000000 0.262823 0.000000 0.114916
# 5 0.002650 0.003666 0.004123 0.000000 0.039578 0.000000
# 6 0.000000 0.000000 0.000000 0.114916 0.000000 0.097954
#
#
# Mechanical properties :
#
#
# Convention : Reuss Voigt Hill
#
# Bulk Modulus (GPa) = 50.75310 60.18946 55.47128
# Shear Modulus (GPa) = 10.84986 25.66665 18.25825
#
# Velocity S-wave (km/s) = 2.41691 3.71734 3.13529
# Velocity P-wave (km/s) = 5.92566 7.12953 6.55529
#
# Compressibility (1/GPa) = 0.01970323
#
# Stress axis : x y z
#
# Youngs Moduli (GPa) = 77.08787 102.75801 70.90148
#
# Poissons Ratio (x) = 0.09546 0.29293
# Poissons Ratio (y) = 0.07162 0.24758
# Poissons Ratio (z) = 0.31849 0.35881
#
# Static dielectric constant tensor:
#      x y z
#    x 1.666600 0.000000 0.004740 
#    y 0.000000 1.661660 0.000000 
#    z 0.004740 0.000000 1.625580 
# 
# From -- ./inp_files/53230.got.cif
#   From: 2010.05.17/outbox.cif.g08.bks.cpg/sg12_27_cif.got.tgz:53230.got - 2010.06.03 13:09:07.
