data_PCOD9200224
_publ_section_title
;
Structure prediction by ZEFSAII (Michael W. Deem and Ramdas Pophale) SiO2 
 PCOD9200224
Probable space group: C 2/M
;
_chemical_formula_sum "Si O2"
_cell_formula_units_Z 52
_cell_length_a 14.418897
_cell_length_b 9.690842
_cell_length_c 20.568519
_cell_angle_alpha 90.000000
_cell_angle_beta 103.264677
_cell_angle_gamma 90.000000
_cell_volume 2797.386350
_symmetry_space_group_name_H-M "C 2/M"
_symmetry_group_IT_number 12
_symmetry_cell_setting 'monoclinic'
loop_
_space_group_symop_operation_xyz
x,y,z
-x,y,-z
-x,-y,-z
x,-y,z
1/2+x,1/2+y,z
1/2-x,1/2+y,-z
1/2-x,1/2-y,-z
1/2+x,1/2-y,z
loop_
_atom_site_type_symbol
_atom_site_label
_atom_site_fract_x
_atom_site_fract_y
_atom_site_fract_z
Si Si1 0.360927 0.338356 0.652832
Si Si2 0.932335 0.287729 0.112927
Si Si3 0.846818 0.836181 0.507938
Si Si4 0.933507 0.500000 0.924765
Si Si5 0.058103 0.164857 0.750005
Si Si6 0.800691 0.500000 0.016793
Si Si7 0.419709 0.500000 0.040829
Si Si8 0.330872 0.334764 0.363702
O O1 0.332856 0.500000 0.650982
O O2 0.398873 0.312312 0.584967
O O3 0.446329 0.317803 0.716556
O O4 0.269950 0.243438 0.650761
O O5 0.849383 0.371094 0.061850
O O6 0.935077 0.136412 0.084575
O O7 0.030221 0.369224 0.110912
O O8 0.915332 0.264327 0.186316
O O9 0.750000 0.750000 0.500000
O O10 0.883429 0.803055 0.441277
O O11 0.826883 0.000000 0.503541
O O12 0.831928 0.500000 0.944858
O O13 0.000000 0.500000 0.000000
O O14 0.113142 0.200736 0.692597
O O15 0.074741 0.000000 0.766071
O O16 0.687793 0.500000 0.003396
O O17 0.500000 0.500000 0.000000
O O18 0.316226 0.500000 0.359750
#
# Coordination Sequence:
#
# PCOD9200224 Si02
#       8
#     8   8   8   4   8   4   4   8
#     4   9  18  34  53  77 108 144 187 229 275 313
#     4  10  20  39  58  83 112 143 177 218 273 317
#     4   8  14  27  51  75  99 139 186 232 266 311
#     4   8  18  40  62  78 110 140 175 221 259 314
#     4  10  20  37  53  79 118 145 176 225 269 331
#     4  10  22  42  62  86 110 140 180 219 264 320
#     4  12  22  38  64  90 112 137 177 221 263 310
#     4   9  18  34  53  76 109 145 187 226 272 322
#
# _framework density 18.58878
#
# number of rings (size 3 to 8) (size 9 to 14) (size 15 to 20)
#    0.000    2.769    0.769    1.846    0.000    0.615 
#   11.077    3.077    0.000    0.000    0.000   10.769 
#    0.000    0.000    0.000    0.000    0.000    0.000 
#
# Total GULP energy -144739.946569 kJ/mol
# GULP energy per Si atom -5566.921022 kJ/mol
# Density = 1.854647 g / cm^3
# Si number density = 18.588780 Si / 1000 Ang^3
#
#
#
# Elastic Constant Matrix: (Units=GPa)
#
#
# Indices 1 2 3 4 5 6 
#
# 1 66.3726 15.1929 27.0534 0.0000 -12.5713 0.0000
# 2 15.1929 67.2446 38.2379 0.0000 -3.2923 0.0000
# 3 27.0534 38.2379 105.8298 0.0000 -22.8041 0.0000
# 4 0.0000 0.0000 0.0000 24.8562 0.0000 -12.3138
# 5 -12.5713 -3.2923 -22.8041 0.0000 14.8798 0.0000
# 6 0.0000 0.0000 0.0000 -12.3138 0.0000 7.2720
#
#
#
# Elastic Compliance Matrix: (Units=1/GPa)
#
#
# Indices 1 2 3 4 5 6 
#
# 1 0.018730 -0.003221 -0.000550 0.000000 0.014270 0.000000
# 2 -0.003221 0.020172 -0.009092 0.000000 -0.012192 0.000000
# 3 -0.000550 -0.009092 0.018426 0.000000 0.025763 0.000000
# 4 0.000000 0.000000 0.000000 0.249673 0.000000 0.422772
# 5 0.014270 -0.012192 0.025763 0.000000 0.116047 0.000000
# 6 0.000000 0.000000 0.000000 0.422772 0.000000 0.853397
#
#
# Mechanical properties :
#
#
# Convention : Reuss Voigt Hill
#
# Bulk Modulus (GPa) = 31.64207 44.49059 38.06633
# Shear Modulus (GPa) = 3.80893 19.99912 11.90403
#
# Velocity S-wave (km/s) = 1.43300 3.28361 2.53333
# Velocity P-wave (km/s) = 4.44939 6.19372 5.39255
#
# Compressibility (1/GPa) = 0.03160350
#
# Stress axis : x y z
#
# Youngs Moduli (GPa) = 53.38899 49.57345 54.27035
#
# Poissons Ratio (x) = 0.15966 0.02982
# Poissons Ratio (y) = 0.17195 0.49345
# Poissons Ratio (z) = 0.02934 0.45074
#
# Static dielectric constant tensor:
#      x y z
#    x 1.666280 0.000000 -0.011670 
#    y 0.000000 1.647010 0.000000 
#    z -0.011670 0.000000 1.696070 
# 
# From -- ./inp_files/308492.got.cif
#   From: 2010.05.17/outbox.cif.g08.bks.cpg/sg12_155_cif.got.tgz:308492.got - 2010.06.03 13:09:07.
