data_PCOD9200141
_publ_section_title
;
Structure prediction by ZEFSAII (Michael W. Deem and Ramdas Pophale) SiO2 
 PCOD9200141
Probable space group: C 2/M
;
_chemical_formula_sum "Si O2"
_cell_formula_units_Z 48
_cell_length_a 17.230923
_cell_length_b 14.102990
_cell_length_c 15.864087
_cell_angle_alpha 90.000000
_cell_angle_beta 148.794624
_cell_angle_gamma 90.000000
_cell_volume 1997.351521
_symmetry_space_group_name_H-M "C 2/M"
_symmetry_group_IT_number 12
_symmetry_cell_setting 'monoclinic'
loop_
_space_group_symop_operation_xyz
x,y,z
-x,y,-z
-x,-y,-z
x,-y,z
1/2+x,1/2+y,z
1/2-x,1/2+y,-z
1/2-x,1/2-y,-z
1/2+x,1/2-y,z
loop_
_atom_site_type_symbol
_atom_site_label
_atom_site_fract_x
_atom_site_fract_y
_atom_site_fract_z
Si Si1 0.044430 0.109622 0.378341
Si Si2 0.734973 0.888347 0.550858
Si Si3 0.585073 0.806316 0.706249
Si Si4 0.828683 0.601646 0.865155
Si Si5 0.831786 0.201532 0.805930
Si Si6 0.243191 0.391526 0.007601
O O1 0.976561 0.198666 0.366606
O O2 0.202481 0.137520 0.483436
O O3 0.051796 0.000000 0.417310
O O4 0.921587 0.107080 0.188043
O O5 0.564013 0.864562 0.412465
O O6 0.828685 0.837104 0.710063
O O7 0.758422 0.000000 0.579224
O O8 0.697524 0.842479 0.738017
O O9 0.682076 0.819929 0.881505
O O10 0.751559 0.500000 0.781659
O O11 0.783322 0.688488 0.765462
O O12 0.819606 0.625732 0.955980
O O13 0.000000 0.590689 0.000000
O O14 0.000000 0.192053 0.000000
O O15 0.198262 0.500000 0.942648
#
# Coordination Sequence:
#
# PCOD9200141 Si02
#       6
#     8   8   8   8   8   8
#     4  10  22  41  63  91 127 163 207 256 304 363
#     4  11  26  45  62  89 128 167 208 258 312 371
#     4  12  23  39  66  94 126 164 206 255 314 370
#     4   9  19  36  59  91 126 157 201 256 304 361
#     4  11  24  40  66  92 125 166 209 251 310 366
#     4  10  20  36  64  95 122 160 206 256 308 362
#
# _framework density 24.031824
#
# number of rings (size 3 to 8) (size 9 to 14) (size 15 to 20)
#    0.000    1.500    1.667    3.000    4.667    2.333 
#    0.000    0.833    0.000    2.000    0.000    0.000 
#    0.000    0.000    0.000    0.000    0.000    0.000 
#
# Total GULP energy -133979.669493 kJ/mol
# GULP energy per Si atom -5582.486229 kJ/mol
# Density = 2.397713 g / cm^3
# Si number density = 24.031824 Si / 1000 Ang^3
#
#
#
# Elastic Constant Matrix: (Units=GPa)
#
#
# Indices 1 2 3 4 5 6 
#
# 1 130.4283 13.9764 19.7465 0.0000 40.4724 0.0000
# 2 13.9764 47.5861 -6.4733 0.0001 8.8171 0.0001
# 3 19.7465 -6.4733 57.2259 0.0001 10.9031 0.0001
# 4 0.0000 0.0001 0.0001 18.9527 0.0001 14.8650
# 5 40.4724 8.8171 10.9031 0.0001 41.9082 0.0001
# 6 0.0000 0.0001 0.0001 14.8650 0.0001 15.7004
#
#
#
# Elastic Compliance Matrix: (Units=1/GPa)
#
#
# Indices 1 2 3 4 5 6 
#
# 1 0.011275 -0.001767 -0.002196 0.000000 -0.009946 0.000000
# 2 -0.001767 0.022841 0.003981 0.000000 -0.004135 0.000000
# 3 -0.002196 0.003981 0.019400 0.000000 -0.003764 0.000000
# 4 0.000000 0.000000 0.000000 0.204976 0.000000 -0.194070
# 5 -0.009946 -0.004135 -0.003764 0.000000 0.035316 0.000000
# 6 0.000000 0.000000 0.000000 -0.194070 0.000000 0.247437
#
#
# Mechanical properties :
#
#
# Convention : Reuss Voigt Hill
#
# Bulk Modulus (GPa) = 18.67313 32.19327 25.43320
# Shear Modulus (GPa) = 8.94359 29.17831 19.06095
#
# Velocity S-wave (km/s) = 1.93123 3.48825 2.81936
# Velocity P-wave (km/s) = 3.57210 5.44509 4.60483
#
# Compressibility (1/GPa) = 0.05355287
#
# Stress axis : x y z
#
# Youngs Moduli (GPa) = 88.69163 43.78028 51.54689
#
# Poissons Ratio (x) = 0.07738 0.11318
# Poissons Ratio (y) = 0.15676 -0.20523
# Poissons Ratio (z) = 0.19473 -0.17431
#
# Static dielectric constant tensor:
#      x y z
#    x 1.922450 0.000000 0.029230 
#    y 0.000000 1.994880 0.000000 
#    z 0.029230 0.000000 1.954270 
# 
# From -- ./inp_files/278238.got.cif
#   From: 2010.05.17/outbox.cif.g08.bks.cpg/sg12_140_cif.got.tgz:278238.got - 2010.06.03 13:09:07.
