data_PCOD9200618
_publ_section_title
;
Structure prediction by ZEFSAII (Michael W. Deem and Ramdas Pophale) SiO2 
 PCOD9200618
Probable space group: C 2/M
;
_chemical_formula_sum "Si O2"
_cell_formula_units_Z 30
_cell_length_a 6.966213
_cell_length_b 27.579407
_cell_length_c 6.963171
_cell_angle_alpha 90.000000
_cell_angle_beta 118.613513
_cell_angle_gamma 90.000000
_cell_volume 1174.407911
_symmetry_space_group_name_H-M "C 2/M"
_symmetry_group_IT_number 12
_symmetry_cell_setting 'monoclinic'
loop_
_space_group_symop_operation_xyz
x,y,z
-x,y,-z
-x,-y,-z
x,-y,z
1/2+x,1/2+y,z
1/2-x,1/2+y,-z
1/2-x,1/2-y,-z
1/2+x,1/2-y,z
loop_
_atom_site_type_symbol
_atom_site_label
_atom_site_fract_x
_atom_site_fract_y
_atom_site_fract_z
Si Si1 0.703391 0.811269 0.739669
Si Si2 0.500000 0.000000 0.500000
Si Si3 0.775343 0.942737 0.283302
Si Si4 0.500000 0.232260 0.000000
Si Si5 0.808647 0.583811 0.180999
O O1 0.500000 0.807115 0.500000
O O2 0.643168 0.801300 0.933524
O O3 0.780705 0.866540 0.775303
O O4 0.875299 0.768203 0.793144
O O5 0.326769 0.041996 0.344163
O O6 0.567927 0.910284 0.245850
O O7 0.000000 0.933844 0.500000
O O8 0.702367 0.000000 0.286194
O O9 0.800242 0.934729 0.067509
#
# Coordination Sequence:
#
# PCOD9200618 Si02
#       5
#     8   2   8   4   8
#     4  11  23  42  68  92 127 164 208 261 325 369
#     4  12  20  38  58  88 136 160 192 252 302 374
#     4  10  20  37  59  82 117 166 212 251 295 361
#     4  10  24  44  64  96 122 160 216 270 306 378
#     4  11  21  39  61  89 124 165 199 250 313 373
#
# _framework density 25.544786999999999
#
# number of rings (size 3 to 8) (size 9 to 14) (size 15 to 20)
#    0.000    1.333    4.000    3.200    0.000    2.133 
#    0.000    8.000    0.000    0.000    0.000    0.000 
#    0.000    0.000    0.000    0.000    0.000    0.000 
#
# Total GULP energy -83763.631015 kJ/mol
# GULP energy per Si atom -5584.242068 kJ/mol
# Density = 2.548665 g / cm^3
# Si number density = 25.544787 Si / 1000 Ang^3
#
#
#
# Elastic Constant Matrix: (Units=GPa)
#
#
# Indices 1 2 3 4 5 6 
#
# 1 45.1357 -3.5333 7.3978 0.0000 5.6507 0.0000
# 2 -3.5333 143.8022 28.6045 0.0000 -2.5830 0.0000
# 3 7.3978 28.6045 193.4552 0.0000 30.5647 0.0000
# 4 0.0000 0.0000 0.0000 20.2990 0.0000 5.1484
# 5 5.6507 -2.5830 30.5647 0.0000 40.6652 0.0000
# 6 0.0000 0.0000 0.0000 5.1484 0.0000 18.3158
#
#
#
# Elastic Compliance Matrix: (Units=1/GPa)
#
#
# Indices 1 2 3 4 5 6 
#
# 1 0.022629 0.000612 -0.000528 0.000000 -0.002709 0.000000
# 2 0.000612 0.007254 -0.001311 0.000000 0.001361 0.000000
# 3 -0.000528 -0.001311 0.006110 0.000000 -0.004603 0.000000
# 4 0.000000 0.000000 0.000000 0.053045 0.000000 -0.014910
# 5 -0.002709 0.001361 -0.004603 0.000000 0.028513 0.000000
# 6 0.000000 0.000000 0.000000 -0.014910 0.000000 0.058789
#
#
# Mechanical properties :
#
#
# Convention : Reuss Voigt Hill
#
# Bulk Modulus (GPa) = 29.81483 49.70346 39.75914
# Shear Modulus (GPa) = 26.31936 39.18429 32.75182
#
# Velocity S-wave (km/s) = 3.21335 3.92081 3.58457
# Velocity P-wave (km/s) = 5.04622 6.32429 5.72106
#
# Compressibility (1/GPa) = 0.03354036
#
# Stress axis : x y z
#
# Youngs Moduli (GPa) = 44.19111 137.84955 163.65591
#
# Poissons Ratio (x) = -0.08442 0.08640
# Poissons Ratio (y) = -0.02706 0.21457
# Poissons Ratio (z) = 0.02333 0.18073
#
# Static dielectric constant tensor:
#      x y z
#    x 1.891470 0.000000 0.131100 
#    y 0.000000 1.934830 0.000000 
#    z 0.131100 0.000000 1.935580 
# 
# From -- ./inp_files/40727.got.cif
#   From: 2010.05.17/outbox.cif.g08.bks.cpg/sg12_21_cif.got.tgz:40727.got - 2010.06.03 13:09:07.
