data_PCOD9200130
_publ_section_title
;
Structure prediction by ZEFSAII (Michael W. Deem and Ramdas Pophale) SiO2 
 PCOD9200130
Probable space group: C 2/M
;
_chemical_formula_sum "Si O2"
_cell_formula_units_Z 56
_cell_length_a 31.292741
_cell_length_b 14.076372
_cell_length_c 12.180318
_cell_angle_alpha 90.000000
_cell_angle_beta 33.170959
_cell_angle_gamma 90.000000
_cell_volume 2935.557991
_symmetry_space_group_name_H-M "C 2/M"
_symmetry_group_IT_number 12
_symmetry_cell_setting 'monoclinic'
loop_
_space_group_symop_operation_xyz
x,y,z
-x,y,-z
-x,-y,-z
x,-y,z
1/2+x,1/2+y,z
1/2-x,1/2+y,-z
1/2-x,1/2-y,-z
1/2+x,1/2-y,z
loop_
_atom_site_type_symbol
_atom_site_label
_atom_site_fract_x
_atom_site_fract_y
_atom_site_fract_z
Si Si1 0.459568 0.750486 0.340832
Si Si2 0.550841 0.605483 0.001394
Si Si3 0.694367 0.734551 0.014229
Si Si4 0.584210 0.605824 0.374846
Si Si5 0.727352 0.608297 0.536967
Si Si6 0.442017 0.889205 0.729407
Si Si7 0.202361 0.726024 0.425281
O O1 0.522306 0.684635 0.145368
O O2 0.421976 0.685640 0.518066
O O3 0.505699 0.840559 0.288514
O O4 0.387748 0.774072 0.416071
O O5 0.537712 0.500000 0.077399
O O6 0.500000 0.612105 0.000000
O O7 0.640346 0.614464 0.774704
O O8 0.643494 0.642771 0.155459
O O9 0.633851 0.822596 0.127986
O O10 0.750000 0.750000 0.000000
O O11 0.744871 0.716979 0.796716
O O12 0.500000 0.602466 0.500000
O O13 0.604502 0.500000 0.372149
O O14 0.744174 0.500000 0.471823
O O15 0.782393 0.647346 0.514674
O O16 0.726819 0.676174 0.432910
O O17 0.500000 0.884929 0.500000
O O18 0.422279 0.000000 0.791590
#
# Coordination Sequence:
#
# PCOD9200130 Si02
#       7
#     8   8   8   8   8   8   8
#     4  12  20  41  64  90 126 160 208 260 311 372
#     4  10  20  36  64  93 116 152 201 256 317 370
#     4  12  22  42  63  92 132 165 204 255 315 375
#     4  11  23  39  63  95 126 158 200 254 314 377
#     4  10  23  43  61  89 126 163 212 265 313 368
#     4  11  23  41  62  85 119 168 213 247 294 367
#     4  11  24  38  65  90 123 170 205 254 320 374
#
# _framework density 19.076440999999999
#
# number of rings (size 3 to 8) (size 9 to 14) (size 15 to 20)
#    0.000    1.000    5.714    1.286    0.000    2.857 
#    0.000    0.000    0.000    0.429    0.000    0.000 
#    0.000    0.000    0.000    0.000    0.000    0.000 
#
# Total GULP energy -156432.734959 kJ/mol
# GULP energy per Si atom -5586.883391 kJ/mol
# Density = 1.903302 g / cm^3
# Si number density = 19.076441 Si / 1000 Ang^3
#
#
#
# Elastic Constant Matrix: (Units=GPa)
#
#
# Indices 1 2 3 4 5 6 
#
# 1 107.1476 24.5313 8.7702 0.0000 -13.6749 0.0000
# 2 24.5313 68.3131 5.9648 0.0000 -6.6004 0.0000
# 3 8.7702 5.9648 37.6391 0.0000 4.3266 0.0000
# 4 0.0000 0.0000 0.0000 24.8154 0.0000 -1.6339
# 5 -13.6749 -6.6004 4.3266 0.0000 28.1074 0.0000
# 6 0.0000 0.0000 0.0000 -1.6339 0.0000 9.2210
#
#
#
# Elastic Compliance Matrix: (Units=1/GPa)
#
#
# Indices 1 2 3 4 5 6 
#
# 1 0.010914 -0.003213 -0.002604 0.000000 0.004956 0.000000
# 2 -0.003213 0.016226 -0.002118 0.000000 0.002573 0.000000
# 3 -0.002604 -0.002118 0.028212 0.000000 -0.006107 0.000000
# 4 0.000000 0.000000 0.000000 0.040773 0.000000 0.007225
# 5 0.004956 0.002573 -0.006107 0.000000 0.039533 0.000000
# 6 0.000000 0.000000 0.000000 0.007225 0.000000 0.109728
#
#
# Mechanical properties :
#
#
# Convention : Reuss Voigt Hill
#
# Bulk Modulus (GPa) = 25.32786 32.40360 28.86573
# Shear Modulus (GPa) = 18.22034 24.01768 21.11901
#
# Velocity S-wave (km/s) = 3.09386 3.55212 3.33088
# Velocity P-wave (km/s) = 5.10573 5.81777 5.47334
#
# Compressibility (1/GPa) = 0.03948221
#
# Stress axis : x y z
#
# Youngs Moduli (GPa) = 91.62366 61.62992 35.44531
#
# Poissons Ratio (x) = 0.19802 0.09229
# Poissons Ratio (y) = 0.29439 0.07509
# Poissons Ratio (z) = 0.23855 0.13056
#
# Static dielectric constant tensor:
#      x y z
#    x 1.688470 0.000000 0.011980 
#    y 0.000000 1.669370 0.000000 
#    z 0.011980 0.000000 1.663440 
# 
# From -- ./inp_files/189611.got.cif
#   From: 2010.05.17/outbox.cif.g08.bks.cpg/sg12_95_cif.got.tgz:189611.got - 2010.06.03 13:09:07.
