data_PCOD9200045
_publ_section_title
;
Structure prediction by ZEFSAII (Michael W. Deem and Ramdas Pophale) SiO2 
 PCOD9200045
Probable space group: C 2/M
;
_chemical_formula_sum "Si O2"
_cell_formula_units_Z 64
_cell_length_a 20.906313
_cell_length_b 8.775730
_cell_length_c 22.700681
_cell_angle_alpha 90.000000
_cell_angle_beta 123.646415
_cell_angle_gamma 90.000000
_cell_volume 3467.125566
_symmetry_space_group_name_H-M "C 2/M"
_symmetry_group_IT_number 12
_symmetry_cell_setting 'monoclinic'
loop_
_space_group_symop_operation_xyz
x,y,z
-x,y,-z
-x,-y,-z
x,-y,z
1/2+x,1/2+y,z
1/2-x,1/2+y,-z
1/2-x,1/2-y,-z
1/2+x,1/2-y,z
loop_
_atom_site_type_symbol
_atom_site_label
_atom_site_fract_x
_atom_site_fract_y
_atom_site_fract_z
Si Si1 0.613286 0.683370 0.698611
Si Si2 0.250205 0.183811 0.678322
Si Si3 0.167361 0.316223 0.849129
Si Si4 0.569460 0.183944 0.912154
Si Si5 0.297821 0.818619 0.470418
Si Si6 0.654858 0.682684 0.067763
Si Si7 0.532952 0.683624 0.451968
Si Si8 0.393459 0.816414 0.831320
O O1 0.615009 0.500000 0.704594
O O2 0.680934 0.725854 0.687376
O O3 0.630182 0.754500 0.770379
O O4 0.531778 0.726803 0.628615
O O5 0.237275 0.260584 0.609112
O O6 0.330039 0.226246 0.750443
O O7 0.247887 0.000000 0.669687
O O8 0.165343 0.500000 0.846510
O O9 0.120755 0.265405 0.882958
O O10 0.256581 0.269055 0.897238
O O11 0.480242 0.225539 0.858717
O O12 0.573884 0.000000 0.918096
O O13 0.602406 0.252150 0.989070
O O14 0.250000 0.750000 0.500000
O O15 0.385683 0.761162 0.517162
O O16 0.295550 0.000000 0.471852
O O17 0.651441 0.500000 0.065550
O O18 0.628080 0.743634 0.117257
O O19 0.500000 0.721247 0.500000
O O20 0.543051 0.500000 0.455541
O O21 0.389850 0.000000 0.835892
#
# Coordination Sequence:
#
# PCOD9200045 Si02
#       8
#     8   8   8   8   8   8   8   8
#     4  10  20  36  63  91 118 155 196 242 295 353
#     4  10  20  39  63  88 119 157 198 242 298 358
#     4  10  22  38  56  83 119 153 195 247 296 348
#     4  10  22  39  57  81 114 153 195 243 294 349
#     4  12  26  42  63  92 126 162 201 246 299 357
#     4  11  22  36  57  85 116 153 194 244 296 348
#     4  10  20  39  64  90 122 158 198 245 296 354
#     4  10  21  38  62  86 113 153 198 238 290 356
#
# _framework density 18.459095000000001
#
# number of rings (size 3 to 8) (size 9 to 14) (size 15 to 20)
#    0.000    1.625    2.500    2.250    0.000    5.750 
#    0.000    1.250    0.000    0.000    0.000    0.000 
#    0.000    0.000    0.000    0.000    0.000    0.000 
#
# Total GULP energy -178839.587525 kJ/mol
# GULP energy per Si atom -5588.737110 kJ/mol
# Density = 1.841708 g / cm^3
# Si number density = 18.459095 Si / 1000 Ang^3
#
#
#
# Elastic Constant Matrix: (Units=GPa)
#
#
# Indices 1 2 3 4 5 6 
#
# 1 102.1134 24.6418 32.7547 0.0000 13.3230 0.0000
# 2 24.6418 21.1747 23.5136 0.0000 7.6588 0.0000
# 3 32.7547 23.5136 111.3616 0.0000 24.0241 0.0000
# 4 0.0000 0.0000 0.0000 34.3572 0.0000 -3.7783
# 5 13.3230 7.6588 24.0241 0.0000 23.7850 0.0000
# 6 0.0000 0.0000 0.0000 -3.7783 0.0000 26.6994
#
#
#
# Elastic Compliance Matrix: (Units=1/GPa)
#
#
# Indices 1 2 3 4 5 6 
#
# 1 0.013803 -0.014678 -0.000399 0.000000 -0.002602 0.000000
# 2 -0.014678 0.078700 -0.011005 0.000000 -0.006005 0.000000
# 3 -0.000399 -0.011005 0.013564 0.000000 -0.009933 0.000000
# 4 0.000000 0.000000 0.000000 0.029566 0.000000 0.004184
# 5 -0.002602 -0.006005 -0.009933 0.000000 0.055467 0.000000
# 6 0.000000 0.000000 0.000000 0.004184 0.000000 0.038046
#
#
# Mechanical properties :
#
#
# Convention : Reuss Voigt Hill
#
# Bulk Modulus (GPa) = 18.55221 44.05220 31.30221
# Shear Modulus (GPa) = 16.70697 27.21764 21.96231
#
# Velocity S-wave (km/s) = 3.01172 3.84407 3.45306
# Velocity P-wave (km/s) = 4.70810 6.60447 5.73521
#
# Compressibility (1/GPa) = 0.05390193
#
# Stress axis : x y z
#
# Youngs Moduli (GPa) = 72.44965 12.70651 73.72708
#
# Poissons Ratio (x) = 0.18651 0.02943
# Poissons Ratio (y) = 1.06344 0.81133
# Poissons Ratio (z) = 0.02892 0.13983
#
# Static dielectric constant tensor:
#      x y z
#    x 1.620240 0.000000 0.016290 
#    y 0.000000 1.622950 0.000000 
#    z 0.016290 0.000000 1.599860 
# 
# From -- ./inp_files/320024.got.cif
#   From: 2010.05.17/outbox.cif.g08.bks.cpg/sg12_161_cif.got.tgz:320024.got - 2010.06.03 13:09:07.
