data_PCOD9200345
_publ_section_title
;
Structure prediction by ZEFSAII (Michael W. Deem and Ramdas Pophale) SiO2 
 PCOD9200345
Probable space group: C 2/M
;
_chemical_formula_sum "Si O2"
_cell_formula_units_Z 48
_cell_length_a 17.153846
_cell_length_b 29.242386
_cell_length_c 9.138988
_cell_angle_alpha 90.000000
_cell_angle_beta 30.689179
_cell_angle_gamma 90.000000
_cell_volume 2339.734105
_symmetry_space_group_name_H-M "C 2/M"
_symmetry_group_IT_number 12
_symmetry_cell_setting 'monoclinic'
loop_
_space_group_symop_operation_xyz
x,y,z
-x,y,-z
-x,-y,-z
x,-y,z
1/2+x,1/2+y,z
1/2-x,1/2+y,-z
1/2-x,1/2-y,-z
1/2+x,1/2-y,z
loop_
_atom_site_type_symbol
_atom_site_label
_atom_site_fract_x
_atom_site_fract_y
_atom_site_fract_z
Si Si1 0.340306 0.552171 0.668282
Si Si2 0.295446 0.800127 0.992457
Si Si3 0.354504 0.312406 0.446951
Si Si4 0.178771 0.394645 0.178527
Si Si5 0.585588 0.793685 0.707239
Si Si6 0.526516 0.599480 0.123745
O O1 0.500000 0.551868 0.500000
O O2 0.289171 0.500000 0.732240
O O3 0.392854 0.575695 0.434367
O O4 0.221874 0.581369 0.954725
O O5 0.280387 0.841046 0.903536
O O6 0.471035 0.805265 0.762513
O O7 0.250000 0.750000 0.000000
O O8 0.202289 0.812149 0.292194
O O9 0.382887 0.259311 0.372903
O O10 0.233432 0.323285 0.510793
O O11 0.492529 0.346671 0.203147
O O12 0.000000 0.401249 0.500000
O O13 0.304822 0.413069 0.090129
O O14 0.500000 0.795415 0.000000
O O15 0.500000 0.587459 0.000000
#
# Coordination Sequence:
#
# PCOD9200345 Si02
#       6
#     8   8   8   8   8   8
#     4   9  20  44  72  97 128 165 209 266 330 393
#     4  11  23  35  56  86 124 171 215 267 310 373
#     4  10  20  37  57  81 122 167 214 262 316 373
#     4  11  25  41  63  98 129 165 217 264 325 381
#     4   9  20  34  52  82 116 165 210 260 315 365
#     4  11  23  40  66  96 127 169 210 266 316 393
#
# _framework density 20.515152
#
# number of rings (size 3 to 8) (size 9 to 14) (size 15 to 20)
#    0.000    1.833    1.667    1.500    4.667    3.333 
#    0.000    0.833    0.000    1.000    0.000    0.000 
#    0.000    0.000    0.000    0.000    0.000    0.000 
#
# Total GULP energy -133802.820879 kJ/mol
# GULP energy per Si atom -5575.117537 kJ/mol
# Density = 2.046846 g / cm^3
# Si number density = 20.515152 Si / 1000 Ang^3
#
#
#
# Elastic Constant Matrix: (Units=GPa)
#
#
# Indices 1 2 3 4 5 6 
#
# 1 129.2097 30.7927 50.4724 0.0000 -1.8395 0.0000
# 2 30.7927 96.2079 9.3543 0.0000 -7.0832 0.0000
# 3 50.4724 9.3543 176.2358 0.0000 20.3122 0.0001
# 4 0.0000 0.0000 0.0000 9.2961 0.0000 -15.9667
# 5 -1.8395 -7.0832 20.3122 0.0000 39.6500 0.0000
# 6 0.0000 0.0000 0.0001 -15.9667 0.0000 -21.4499
#
#
#
# Elastic Compliance Matrix: (Units=1/GPa)
#
#
# Indices 1 2 3 4 5 6 
#
# 1 0.009457 -0.002662 -0.002724 0.000000 0.001359 0.000000
# 2 -0.002662 0.011396 -0.000067 0.000000 0.001947 0.000000
# 3 -0.002724 -0.000067 0.006880 0.000000 -0.003663 0.000000
# 4 0.000000 0.000000 0.000000 0.047212 0.000000 -0.035143
# 5 0.001359 0.001947 -0.003663 0.000000 0.027508 0.000000
# 6 0.000000 0.000000 0.000000 -0.035143 0.000000 -0.020461
#
#
# Mechanical properties :
#
#
# Convention : Reuss Voigt Hill
#
# Bulk Modulus (GPa) = 59.42524 64.76581 62.09552
# Shear Modulus (GPa) = 50.75841 26.23485 38.49663
#
# Velocity S-wave (km/s) = 4.97952 3.57992 4.33656
# Velocity P-wave (km/s) = 7.87974 6.98040 7.44366
#
# Compressibility (1/GPa) = 0.01682787
#
# Stress axis : x y z
#
# Youngs Moduli (GPa) = 105.74137 87.75017 145.34951
#
# Poissons Ratio (x) = 0.23359 0.39589
# Poissons Ratio (y) = 0.28149 0.00972
# Poissons Ratio (z) = 0.28801 0.00587
#
# Static dielectric constant tensor:
#      x y z
#    x 1.836200 0.000000 -0.039280 
#    y 0.000000 1.739610 0.000000 
#    z -0.039280 0.000000 1.780300 
# 
# From -- ./inp_files/80568.got.cif
#   From: 2010.05.17/outbox.cif.g08.bks.cpg/sg12_41_cif.got.tgz:80568.got - 2010.06.03 13:09:07.
