data_PCOD9200555
_publ_section_title
;
Structure prediction by ZEFSAII (Michael W. Deem and Ramdas Pophale) SiO2 
 PCOD9200555
Probable space group: C 2/M
;
_chemical_formula_sum "Si O2"
_cell_formula_units_Z 48
_cell_length_a 12.002602
_cell_length_b 27.643300
_cell_length_c 14.360220
_cell_angle_alpha 90.000000
_cell_angle_beta 29.924303
_cell_angle_gamma 90.000000
_cell_volume 2376.846127
_symmetry_space_group_name_H-M "C 2/M"
_symmetry_group_IT_number 12
_symmetry_cell_setting 'monoclinic'
loop_
_space_group_symop_operation_xyz
x,y,z
-x,y,-z
-x,-y,-z
x,-y,z
1/2+x,1/2+y,z
1/2-x,1/2+y,-z
1/2-x,1/2-y,-z
1/2+x,1/2-y,z
loop_
_atom_site_type_symbol
_atom_site_label
_atom_site_fract_x
_atom_site_fract_y
_atom_site_fract_z
Si Si1 0.236329 0.053623 0.275556
Si Si2 0.242131 0.445239 0.373460
Si Si3 0.500576 0.945052 0.272004
Si Si4 0.592666 0.375016 0.026798
Si Si5 0.215243 0.163886 0.275899
Si Si6 0.798287 0.300075 0.017634
O O1 0.421806 0.056298 0.222694
O O2 0.243942 0.106940 0.224026
O O3 0.000000 0.051987 0.500000
O O4 0.256859 0.000000 0.213013
O O5 0.328389 0.500000 0.303090
O O6 0.404857 0.408855 0.206389
O O7 0.000000 0.443367 0.500000
O O8 0.203806 0.434099 0.510251
O O9 0.569329 0.000000 0.244885
O O10 0.698078 0.908826 0.148964
O O11 0.500000 0.351261 0.000000
O O12 0.672480 0.338476 0.045739
O O13 0.441249 0.183226 0.162484
O O14 0.000000 0.166671 0.500000
O O15 0.200892 0.195823 0.192830
O O16 0.750000 0.250000 0.000000
#
# Coordination Sequence:
#
# PCOD9200555 Si02
#       6
#     8   8   8   8   8   8
#     4   9  18  35  63  97 134 170 209 260 319 390
#     4  10  21  36  56  87 129 173 211 252 310 377
#     4  10  20  37  58  89 133 172 210 261 315 383
#     4  12  24  38  62  92 125 174 220 266 321 388
#     4  10  23  47  75 100 133 173 216 270 334 398
#     4  11  27  47  69  96 131 166 219 284 334 379
#
# _framework density 20.194828999999999
#
# number of rings (size 3 to 8) (size 9 to 14) (size 15 to 20)
#    0.000    1.667    3.333    0.500    7.000    1.333 
#    0.000    3.333    0.000    0.000    0.000    0.000 
#    0.000    0.000    0.000    0.000    0.000    0.000 
#
# Total GULP energy -133978.673662 kJ/mol
# GULP energy per Si atom -5582.444736 kJ/mol
# Density = 2.014886 g / cm^3
# Si number density = 20.194829 Si / 1000 Ang^3
#
#
#
# Elastic Constant Matrix: (Units=GPa)
#
#
# Indices 1 2 3 4 5 6 
#
# 1 97.7102 46.1912 32.4620 -0.0001 -4.3162 0.0000
# 2 46.1912 110.8089 46.9605 0.0000 2.1121 0.0000
# 3 32.4620 46.9605 92.8787 -0.0001 3.3951 0.0000
# 4 -0.0001 0.0000 -0.0001 18.6686 0.0001 3.9154
# 5 -4.3162 2.1121 3.3951 0.0001 25.5231 0.0000
# 6 0.0000 0.0000 0.0000 3.9154 0.0000 33.9873
#
#
#
# Elastic Compliance Matrix: (Units=1/GPa)
#
#
# Indices 1 2 3 4 5 6 
#
# 1 0.013346 -0.004578 -0.002458 0.000000 0.002963 0.000000
# 2 -0.004578 0.013057 -0.004958 0.000000 -0.001195 0.000000
# 3 -0.002458 -0.004958 0.014202 0.000000 -0.001895 0.000000
# 4 0.000000 0.000000 0.000000 0.054892 0.000000 -0.006324
# 5 0.002963 -0.001195 -0.001895 0.000000 0.040032 0.000000
# 6 0.000000 0.000000 0.000000 -0.006324 0.000000 0.030151
#
#
# Mechanical properties :
#
#
# Convention : Reuss Voigt Hill
#
# Bulk Modulus (GPa) = 60.18095 61.40278 60.79187
# Shear Modulus (GPa) = 25.61375 27.35475 26.48425
#
# Velocity S-wave (km/s) = 3.56523 3.68440 3.62531
# Velocity P-wave (km/s) = 6.84198 6.96929 6.90593
#
# Compressibility (1/GPa) = 0.01661655
#
# Stress axis : x y z
#
# Youngs Moduli (GPa) = 74.92805 76.58796 70.41310
#
# Poissons Ratio (x) = 0.35063 0.17309
# Poissons Ratio (y) = 0.34303 0.34910
# Poissons Ratio (z) = 0.18418 0.37972
#
# Static dielectric constant tensor:
#      x y z
#    x 1.745920 0.000000 0.023580 
#    y 0.000000 1.737990 0.000000 
#    z 0.023580 0.000000 1.727930 
# 
# From -- ./inp_files/209320.got.cif
#   From: 2010.05.17/outbox.cif.g08.bks.cpg/sg12_105_cif.got.tgz:209320.got - 2010.06.03 13:09:07.
