data_PCOD9200311
_publ_section_title
;
Structure prediction by ZEFSAII (Michael W. Deem and Ramdas Pophale) SiO2 
 PCOD9200311
Probable space group: C 2/M
;
_chemical_formula_sum "Si O2"
_cell_formula_units_Z 46
_cell_length_a 22.900388
_cell_length_b 11.958000
_cell_length_c 6.710250
_cell_angle_alpha 90.000000
_cell_angle_beta 113.160816
_cell_angle_gamma 90.000000
_cell_volume 1689.455407
_symmetry_space_group_name_H-M "C 2/M"
_symmetry_group_IT_number 12
_symmetry_cell_setting 'monoclinic'
loop_
_space_group_symop_operation_xyz
x,y,z
-x,y,-z
-x,-y,-z
x,-y,z
1/2+x,1/2+y,z
1/2-x,1/2+y,-z
1/2-x,1/2-y,-z
1/2+x,1/2-y,z
loop_
_atom_site_type_symbol
_atom_site_label
_atom_site_fract_x
_atom_site_fract_y
_atom_site_fract_z
Si Si1 0.719412 0.373871 0.652257
Si Si2 0.385501 0.649037 0.007554
Si Si3 0.934529 0.382356 0.036177
Si Si4 0.500000 0.500000 0.000000
Si Si5 0.739223 0.877113 0.725820
Si Si6 0.578545 0.619975 0.476982
Si Si7 0.500000 0.186176 0.500000
O O1 0.728335 0.500000 0.757137
O O2 0.720060 0.251327 0.760330
O O3 0.764130 0.371158 0.519485
O O4 0.647074 0.377825 0.473047
O O5 0.313180 0.614215 0.883863
O O6 0.388568 0.779018 0.957349
O O7 0.443860 0.595401 0.966941
O O8 0.404385 0.623783 0.263508
O O9 0.904459 0.500000 0.939748
O O10 0.954321 0.380718 0.295907
O O11 0.000000 0.373346 0.000000
O O12 0.709652 0.000000 0.743352
O O13 0.544899 0.500000 0.382629
O O14 0.537150 0.729417 0.402247
#
# Coordination Sequence:
#
# PCOD9200311 Si02
#       7
#     8   8   8   2   8   8   4
#     4   9  21  38  58  82 120 155 204 250 307 363
#     4  11  22  36  61  87 121 153 201 250 311 368
#     4  10  22  39  56  82 119 161 203 241 297 372
#     4  12  20  36  58  94 124 152 190 264 308 382
#     4  10  20  38  60  85 113 157 201 255 302 365
#     4  10  20  37  56  90 121 155 197 256 305 368
#     4  10  22  36  60  86 124 161 199 252 308 370
#
# _framework density 27.227709000000001
#
# number of rings (size 3 to 8) (size 9 to 14) (size 15 to 20)
#    0.000    1.913    2.609    0.522    2.435    1.391 
#    6.261    4.348    0.000    0.000    0.000    0.000 
#    0.000    0.000    0.000    0.000    0.000    0.000 
#
# Total GULP energy -128313.977975 kJ/mol
# GULP energy per Si atom -5578.868608 kJ/mol
# Density = 2.716574 g / cm^3
# Si number density = 27.227709 Si / 1000 Ang^3
#
#
#
# Elastic Constant Matrix: (Units=GPa)
#
#
# Indices 1 2 3 4 5 6 
#
# 1 56.1857 28.3698 5.7950 0.0000 2.2366 0.0000
# 2 28.3698 298.6688 19.9140 0.0000 8.6362 0.0000
# 3 5.7950 19.9140 56.8193 0.0000 0.8811 0.0000
# 4 0.0000 0.0000 0.0000 -117.9820 0.0000 126.6065
# 5 2.2366 8.6362 0.8811 0.0000 43.6243 0.0000
# 6 0.0000 0.0000 0.0000 126.6065 0.0000 -107.3193
#
#
#
# Elastic Compliance Matrix: (Units=1/GPa)
#
#
# Indices 1 2 3 4 5 6 
#
# 1 0.018807 -0.001681 -0.001320 0.000000 -0.000605 0.000000
# 2 -0.001681 0.003597 -0.001080 0.000000 -0.000604 0.000000
# 3 -0.001320 -0.001080 0.018114 0.000000 -0.000084 0.000000
# 4 0.000000 0.000000 0.000000 0.031869 0.000000 0.037597
# 5 -0.000605 -0.000604 -0.000084 0.000000 0.023075 0.000000
# 6 0.000000 0.000000 0.000000 0.037597 0.000000 0.035036
#
#
# Mechanical properties :
#
#
# Convention : Reuss Voigt Hill
#
# Bulk Modulus (GPa) = 30.90485 57.75902 44.33194
# Shear Modulus (GPa) = 33.45688 -12.49573 10.48058
#
# Velocity S-wave (km/s) = 3.50920 -2.14460 1.96407
# Velocity P-wave (km/s) = 5.27205 3.88934 4.63257
#
# Compressibility (1/GPa) = 0.03235738
#
# Stress axis : x y z
#
# Youngs Moduli (GPa) = 53.17147 277.98325 55.20577
#
# Poissons Ratio (x) = 0.46728 0.07285
# Poissons Ratio (y) = 0.08938 0.05962
# Poissons Ratio (z) = 0.07016 0.30022
#
# Static dielectric constant tensor:
#      x y z
#    x 2.071540 0.000000 -0.095690 
#    y 0.000000 2.171240 0.000000 
#    z -0.095690 0.000000 2.018800 
# 
# From -- ./inp_files/102841.got.cif
#   From: 2010.05.17/outbox.cif.g08.bks.cpg/sg12_52_cif.got.tgz:102841.got - 2010.06.03 13:09:07.
