data_PCOD9200134
_publ_section_title
;
Structure prediction by ZEFSAII (Michael W. Deem and Ramdas Pophale) SiO2 
 PCOD9200134
Probable space group: C 2/M
;
_chemical_formula_sum "Si O2"
_cell_formula_units_Z 40
_cell_length_a 9.787993
_cell_length_b 26.022525
_cell_length_c 15.998945
_cell_angle_alpha 90.000000
_cell_angle_beta 31.556869
_cell_angle_gamma 90.000000
_cell_volume 2132.662705
_symmetry_space_group_name_H-M "C 2/M"
_symmetry_group_IT_number 12
_symmetry_cell_setting 'monoclinic'
loop_
_space_group_symop_operation_xyz
x,y,z
-x,y,-z
-x,-y,-z
x,-y,z
1/2+x,1/2+y,z
1/2-x,1/2+y,-z
1/2-x,1/2-y,-z
1/2+x,1/2-y,z
loop_
_atom_site_type_symbol
_atom_site_label
_atom_site_fract_x
_atom_site_fract_y
_atom_site_fract_z
Si Si1 0.214904 0.590654 0.188480
Si Si2 0.737628 0.000000 0.311309
Si Si3 0.491555 0.813154 0.602698
Si Si4 0.242664 0.908363 0.308330
Si Si5 0.572400 0.299568 0.365334
Si Si6 0.716967 0.500000 0.189933
O O1 0.217844 0.548212 0.259528
O O2 0.133291 0.643232 0.275856
O O3 0.000870 0.579840 0.227777
O O4 0.500000 0.593198 0.000000
O O5 0.500000 0.000000 0.500000
O O6 0.998554 0.000000 0.231576
O O7 0.500000 0.824835 0.500000
O O8 0.349165 0.758713 0.697101
O O9 0.797479 0.809361 0.464550
O O10 0.250056 0.850302 0.266431
O O11 0.195407 0.950124 0.261057
O O12 0.000000 0.909677 0.500000
O O13 0.500000 0.295217 0.500000
O O14 0.000000 0.500000 0.000000
#
# Coordination Sequence:
#
# PCOD9200134 Si02
#       6
#     8   4   8   8   8   4
#     4  12  24  41  61  91 128 161 193 249 315 361
#     4  12  26  42  64  94 118 154 212 256 294 354
#     4  10  20  36  64  93 120 155 205 253 290 345
#     4  11  21  42  65  85 114 167 207 233 292 375
#     4   9  18  37  64  90 116 156 209 245 286 353
#     4  12  26  42  60  90 124 154 194 258 310 346
#
# _framework density 18.755894999999999
#
# number of rings (size 3 to 8) (size 9 to 14) (size 15 to 20)
#    0.000    1.200    4.000    4.200    2.800    0.000 
#    0.000    2.000    0.000    0.000    0.000    0.000 
#    0.000    0.000    0.000    0.000    0.000    0.000 
#
# Total GULP energy -111615.204905 kJ/mol
# GULP energy per Si atom -5580.760245 kJ/mol
# Density = 1.871321 g / cm^3
# Si number density = 18.755895 Si / 1000 Ang^3
#
#
#
# Elastic Constant Matrix: (Units=GPa)
#
#
# Indices 1 2 3 4 5 6 
#
# 1 138.0709 23.9900 -6.4334 0.0003 -19.3563 0.0002
# 2 23.9900 133.5247 -9.7954 0.0000 12.9374 0.0000
# 3 -6.4334 -9.7954 42.1754 0.0003 -5.9982 0.0003
# 4 0.0003 0.0000 0.0003 -49.1241 -0.0002 -44.0655
# 5 -19.3563 12.9374 -5.9982 -0.0002 30.0051 -0.0002
# 6 0.0002 0.0000 0.0003 -44.0655 -0.0002 1.0075
#
#
#
# Elastic Compliance Matrix: (Units=1/GPa)
#
#
# Indices 1 2 3 4 5 6 
#
# 1 0.008648 -0.002084 0.001808 0.000000 0.006838 0.000000
# 2 -0.002084 0.008396 0.000953 0.000000 -0.004774 0.000000
# 3 0.001808 0.000953 0.025027 0.000000 0.005758 0.000000
# 4 0.000000 0.000000 0.000000 -0.000506 0.000000 -0.022129
# 5 0.006838 -0.004774 0.005758 0.000000 0.040949 0.000000
# 6 0.000000 0.000000 0.000000 -0.022129 0.000000 0.024670
#
#
# Mechanical properties :
#
#
# Convention : Reuss Voigt Hill
#
# Bulk Modulus (GPa) = 23.02825 36.58815 29.80820
# Shear Modulus (GPa) = 41.56170 16.77834 29.17002
#
# Velocity S-wave (km/s) = 4.71247 2.99417 3.94794
# Velocity P-wave (km/s) = 6.47413 5.61278 6.05878
#
# Compressibility (1/GPa) = 0.04342493
#
# Stress axis : x y z
#
# Youngs Moduli (GPa) = 115.63892 119.10317 39.95750
#
# Poissons Ratio (x) = 0.24817 -0.07223
# Poissons Ratio (y) = 0.24095 -0.03809
# Poissons Ratio (z) = -0.20904 -0.11354
#
# Static dielectric constant tensor:
#      x y z
#    x 1.615610 0.000000 -0.014950 
#    y 0.000000 1.717040 0.000000 
#    z -0.014950 0.000000 1.596070 
# 
# From -- ./inp_files/201136.got.cif
#   From: 2010.05.17/outbox.cif.g08.bks.cpg/sg12_101_cif.got.tgz:201136.got - 2010.06.03 13:09:07.
