data_PCOD9200773
_publ_section_title
;
Structure prediction by ZEFSAII (Michael W. Deem and Ramdas Pophale) SiO2 
 PCOD9200773
Probable space group: C 2/M
;
_chemical_formula_sum "Si O2"
_cell_formula_units_Z 56
_cell_length_a 18.869942
_cell_length_b 8.680197
_cell_length_c 23.367313
_cell_angle_alpha 90.000000
_cell_angle_beta 52.672989
_cell_angle_gamma 90.000000
_cell_volume 3043.536977
_symmetry_space_group_name_H-M "C 2/M"
_symmetry_group_IT_number 12
_symmetry_cell_setting 'monoclinic'
loop_
_space_group_symop_operation_xyz
x,y,z
-x,y,-z
-x,-y,-z
x,-y,z
1/2+x,1/2+y,z
1/2-x,1/2+y,-z
1/2-x,1/2-y,-z
1/2+x,1/2-y,z
loop_
_atom_site_type_symbol
_atom_site_label
_atom_site_fract_x
_atom_site_fract_y
_atom_site_fract_z
Si Si1 0.753047 0.315608 0.935177
Si Si2 0.121043 0.685303 0.226753
Si Si3 0.563119 0.684458 0.638440
Si Si4 0.080219 0.313543 0.502629
Si Si5 0.773303 0.187709 0.361594
Si Si6 0.098033 0.684610 0.931675
Si Si7 0.708703 0.685897 0.778430
O O1 0.749634 0.500000 0.938396
O O2 0.839593 0.272569 0.854801
O O3 0.669383 0.253096 0.940726
O O4 0.750000 0.250000 0.000000
O O5 0.110291 0.500000 0.234460
O O6 0.198716 0.726337 0.234518
O O7 0.028572 0.763532 0.287278
O O8 0.566067 0.500000 0.633794
O O9 0.567278 0.752265 0.572771
O O10 0.647854 0.737559 0.634658
O O11 0.079356 0.500000 0.504825
O O12 0.176138 0.263368 0.431224
O O13 0.000000 0.264814 0.500000
O O14 0.789258 0.236568 0.288334
O O15 0.773096 0.000000 0.361322
O O16 0.102912 0.500000 0.929893
O O17 0.128404 0.744449 0.854713
O O18 0.000000 0.731774 0.000000
O O19 0.701889 0.500000 0.783761
#
# Coordination Sequence:
#
# PCOD9200773 Si02
#       7
#     8   8   8   8   8   8   8
#     4  10  21  37  58  82 109 143 184 230 277 327
#     4   9  19  36  56  77 103 140 182 218 258 316
#     4  11  22  34  52  81 113 139 168 216 270 316
#     4  10  20  37  60  78  99 139 182 216 257 313
#     4   9  19  35  54  79 108 136 172 218 267 319
#     4  10  21  36  54  80 114 147 182 226 273 325
#     4   9  18  36  59  78 100 137 186 229 264 314
#
# _framework density 18.399645
#
# number of rings (size 3 to 8) (size 9 to 14) (size 15 to 20)
#    0.000    2.286    0.000    3.429    0.000    7.714 
#    0.000    5.714    0.000    0.000    0.000    0.000 
#    0.000    0.000    0.000    0.000    0.000    0.000 
#
# Total GULP energy -156313.027675 kJ/mol
# GULP energy per Si atom -5582.608131 kJ/mol
# Density = 1.835777 g / cm^3
# Si number density = 18.399645 Si / 1000 Ang^3
#
#
#
# Elastic Constant Matrix: (Units=GPa)
#
#
# Indices 1 2 3 4 5 6 
#
# 1 135.8579 32.7711 120.6924 0.0000 3.7707 0.0002
# 2 32.7711 22.3440 43.6547 0.0000 -1.9426 0.0005
# 3 120.6924 43.6547 209.7829 0.0000 -0.6263 0.0000
# 4 0.0000 0.0000 0.0000 32.4463 0.0000 -2.2824
# 5 3.7707 -1.9426 -0.6263 0.0000 38.6524 0.0000
# 6 0.0002 0.0005 0.0000 -2.2824 0.0000 18.8705
#
#
#
# Elastic Compliance Matrix: (Units=1/GPa)
#
#
# Indices 1 2 3 4 5 6 
#
# 1 0.016312 -0.009719 -0.007369 0.000000 -0.002199 0.000000
# 2 -0.009719 0.081693 -0.011394 0.000000 0.004869 -0.000002
# 3 -0.007369 -0.011394 0.011378 0.000000 0.000331 0.000000
# 4 0.000000 0.000000 0.000000 0.031085 0.000000 0.003760
# 5 -0.002199 0.004869 0.000331 0.000000 0.026336 0.000000
# 6 0.000000 -0.000002 0.000000 0.003760 0.000000 0.053448
#
#
# Mechanical properties :
#
#
# Convention : Reuss Voigt Hill
#
# Bulk Modulus (GPa) = 19.07648 84.69124 51.88386
# Shear Modulus (GPa) = 16.96701 29.38494 23.17597
#
# Velocity S-wave (km/s) = 3.03997 4.00063 3.55292
# Velocity P-wave (km/s) = 4.76573 8.21394 6.71494
#
# Compressibility (1/GPa) = 0.05242058
#
# Stress axis : x y z
#
# Youngs Moduli (GPa) = 61.30299 12.24091 87.88588
#
# Poissons Ratio (x) = 0.11897 0.64763
# Poissons Ratio (y) = 0.59579 1.00137
# Poissons Ratio (z) = 0.45174 0.13947
#
# Static dielectric constant tensor:
#      x y z
#    x 1.613930 0.000000 0.001530 
#    y 0.000000 1.622900 0.000000 
#    z 0.001530 0.000000 1.622300 
# 
# From -- ./inp_files/342332.got.cif
#   From: 2010.05.17/outbox.cif.g08.bks.cpg/sg12_172_cif.got.tgz:342332.got - 2010.06.03 13:09:07.
