data_PCOD9200084
_publ_section_title
;
Structure prediction by ZEFSAII (Michael W. Deem and Ramdas Pophale) SiO2 
 PCOD9200084
Probable space group: C 2/M
;
_chemical_formula_sum "Si O2"
_cell_formula_units_Z 64
_cell_length_a 21.046193
_cell_length_b 30.585040
_cell_length_c 14.969106
_cell_angle_alpha 90.000000
_cell_angle_beta 161.261725
_cell_angle_gamma 90.000000
_cell_volume 3095.392742
_symmetry_space_group_name_H-M "C 2/M"
_symmetry_group_IT_number 12
_symmetry_cell_setting 'monoclinic'
loop_
_space_group_symop_operation_xyz
x,y,z
-x,y,-z
-x,-y,-z
x,-y,z
1/2+x,1/2+y,z
1/2-x,1/2+y,-z
1/2-x,1/2-y,-z
1/2+x,1/2-y,z
loop_
_atom_site_type_symbol
_atom_site_label
_atom_site_fract_x
_atom_site_fract_y
_atom_site_fract_z
Si Si1 0.832243 0.591317 0.059595
Si Si2 0.692040 0.787182 0.697305
Si Si3 0.421571 0.368047 0.533587
Si Si4 0.137291 0.663019 0.449124
Si Si5 0.531345 0.634570 0.883573
Si Si6 0.106524 0.303538 0.046402
Si Si7 0.785955 0.048387 0.265656
Si Si8 0.227792 0.449760 0.832708
O O1 0.773623 0.560063 0.063002
O O2 0.014912 0.622124 0.325099
O O3 0.643248 0.622971 0.794253
O O4 0.862078 0.564175 0.008981
O O5 0.500000 0.777210 0.500000
O O6 0.640760 0.798434 0.526335
O O7 0.794082 0.830739 0.870931
O O8 0.840993 0.746763 0.900637
O O9 0.307806 0.330797 0.328878
O O10 0.304124 0.413492 0.361883
O O11 0.442854 0.359179 0.666529
O O12 0.356678 0.646582 0.718592
O O13 0.025206 0.677754 0.209578
O O14 0.626056 0.586247 0.014710
O O15 0.000000 0.307920 0.000000
O O16 0.000000 0.046691 0.500000
O O17 0.742825 0.000000 0.242227
O O18 0.283567 0.500000 0.888999
O O19 0.000000 0.443416 0.500000
#
# Coordination Sequence:
#
# PCOD9200084 Si02
#       8
#     8   8   8   8   8   8   8   8
#     4  10  20  36  63  94 133 176 225 270 330 393
#     4  12  29  46  69  99 129 173 228 285 331 406
#     4  10  21  38  63  92 131 175 218 274 323 394
#     4  12  25  43  71  96 138 184 213 277 347 402
#     4  11  23  44  68  94 138 174 218 268 343 400
#     4  12  26  44  68  98 139 171 228 268 343 404
#     4   9  17  31  55  90 126 165 215 268 325 382
#     4  10  21  40  69  98 132 178 229 280 328 391
#
# _framework density 20.675889999999999
#
# number of rings (size 3 to 8) (size 9 to 14) (size 15 to 20)
#    0.000    1.250    2.500    4.125    3.500    4.500 
#    0.000    1.250    0.000    4.125    0.000    0.000 
#    0.000    0.000    0.000    0.000    0.000    0.000 
#
# Total GULP energy -178884.912793 kJ/mol
# GULP energy per Si atom -5590.153525 kJ/mol
# Density = 2.062883 g / cm^3
# Si number density = 20.675890 Si / 1000 Ang^3
#
#
#
# Elastic Constant Matrix: (Units=GPa)
#
#
# Indices 1 2 3 4 5 6 
#
# 1 72.1640 11.6226 18.9284 0.0000 -10.2418 0.0003
# 2 11.6226 85.1065 15.6450 0.0000 -11.1553 0.0002
# 3 18.9284 15.6450 62.0311 -0.0001 -14.9147 0.0005
# 4 0.0000 0.0000 -0.0001 27.8686 0.0000 -7.2030
# 5 -10.2418 -11.1553 -14.9147 0.0000 27.9086 0.0003
# 6 0.0003 0.0002 0.0005 -7.2030 0.0003 11.8896
#
#
#
# Elastic Compliance Matrix: (Units=1/GPa)
#
#
# Indices 1 2 3 4 5 6 
#
# 1 0.015450 -0.001002 -0.003666 0.000000 0.003310 0.000000
# 2 -0.001002 0.012737 -0.002032 0.000000 0.003637 0.000000
# 3 -0.003666 -0.002032 0.019774 0.000000 0.008410 -0.000001
# 4 0.000000 0.000000 0.000000 0.042544 0.000000 0.025774
# 5 0.003310 0.003637 0.008410 0.000000 0.042994 -0.000002
# 6 0.000000 0.000000 -0.000001 0.025774 -0.000002 0.099722
#
#
# Mechanical properties :
#
#
# Convention : Reuss Voigt Hill
#
# Bulk Modulus (GPa) = 28.93416 34.63262 31.78339
# Shear Modulus (GPa) = 19.36914 25.07373 22.22143
#
# Velocity S-wave (km/s) = 3.06404 3.48617 3.28190
# Velocity P-wave (km/s) = 5.15192 5.74379 5.45589
#
# Compressibility (1/GPa) = 0.03456122
#
# Stress axis : x y z
#
# Youngs Moduli (GPa) = 64.72463 78.51035 50.57100
#
# Poissons Ratio (x) = 0.07868 0.18538
# Poissons Ratio (y) = 0.06487 0.10276
# Poissons Ratio (z) = 0.23727 0.15954
#
# Static dielectric constant tensor:
#      x y z
#    x 1.762380 0.000000 -0.016170 
#    y 0.000000 1.719760 0.000000 
#    z -0.016170 0.000000 1.761600 
# 
# From -- ./inp_files/236009.got.cif
#   From: 2010.05.17/outbox.cif.g08.bks.cpg/sg12_119_cif.got.tgz:236009.got - 2010.06.03 13:09:07.
