data_PCOD9200613
_publ_section_title
;
Structure prediction by ZEFSAII (Michael W. Deem and Ramdas Pophale) SiO2 
 PCOD9200613
Probable space group: C 2/M
;
_chemical_formula_sum "Si O2"
_cell_formula_units_Z 56
_cell_length_a 32.094110
_cell_length_b 8.743320
_cell_length_c 12.126792
_cell_angle_alpha 90.000000
_cell_angle_beta 58.906700
_cell_angle_gamma 90.000000
_cell_volume 2913.986398
_symmetry_space_group_name_H-M "C 2/M"
_symmetry_group_IT_number 12
_symmetry_cell_setting 'monoclinic'
loop_
_space_group_symop_operation_xyz
x,y,z
-x,y,-z
-x,-y,-z
x,-y,z
1/2+x,1/2+y,z
1/2-x,1/2+y,-z
1/2-x,1/2-y,-z
1/2+x,1/2-y,z
loop_
_atom_site_type_symbol
_atom_site_label
_atom_site_fract_x
_atom_site_fract_y
_atom_site_fract_z
Si Si1 0.603050 0.685167 0.121293
Si Si2 0.824297 0.316969 0.421562
Si Si3 0.215364 0.181703 0.954433
Si Si4 0.756686 0.318863 0.313000
Si Si5 0.443413 0.315850 0.581509
Si Si6 0.927031 0.683679 0.370721
Si Si7 0.017576 0.314881 0.098788
O O1 0.601318 0.500000 0.118685
O O2 0.581161 0.733243 0.270313
O O3 0.568741 0.750055 0.071647
O O4 0.659158 0.735338 0.037321
O O5 0.818835 0.500000 0.446025
O O6 0.801512 0.282491 0.333811
O O7 0.791473 0.230889 0.555824
O O8 0.880451 0.277152 0.359995
O O9 0.236917 0.228944 0.807765
O O10 0.214630 0.000000 0.967867
O O11 0.250000 0.250000 0.000000
O O12 0.755964 0.500000 0.293199
O O13 0.500000 0.268737 0.500000
O O14 0.441292 0.500000 0.580657
O O15 0.420378 0.251054 0.501435
O O16 0.929425 0.500000 0.376155
O O17 0.976414 0.735618 0.243256
O O18 0.979911 0.500000 0.903686
O O19 0.000000 0.269645 0.000000
#
# Coordination Sequence:
#
# PCOD9200613 Si02
#       7
#     8   8   8   8   8   8   8
#     4  10  23  42  61  85 118 156 198 244 295 353
#     4   9  20  38  60  87 120 154 193 244 296 352
#     4  11  25  43  62  87 120 157 203 251 300 360
#     4  10  21  39  63  87 116 154 198 246 300 355
#     4  10  20  37  59  82 113 149 187 235 288 339
#     4  10  21  36  57  88 118 150 193 238 287 345
#     4  10  22  38  60  89 123 159 198 240 288 350
#
# _framework density 19.217661
#
# number of rings (size 3 to 8) (size 9 to 14) (size 15 to 20)
#    0.000    2.000    1.429    0.857    4.000    3.429 
#    0.000    0.000    0.000    0.000    0.000    0.000 
#    0.000    0.000    0.000    0.000    0.000    0.000 
#
# Total GULP energy -156369.613173 kJ/mol
# GULP energy per Si atom -5584.629042 kJ/mol
# Density = 1.917392 g / cm^3
# Si number density = 19.217661 Si / 1000 Ang^3
#
#
#
# Elastic Constant Matrix: (Units=GPa)
#
#
# Indices 1 2 3 4 5 6 
#
# 1 143.9568 35.2276 46.1404 0.0000 1.4194 0.0000
# 2 35.2276 15.4973 20.6386 0.0000 2.2735 0.0000
# 3 46.1404 20.6386 62.4135 0.0000 23.6427 0.0000
# 4 0.0000 0.0000 0.0000 12.8236 0.0000 3.9338
# 5 1.4194 2.2735 23.6427 0.0000 22.9909 0.0000
# 6 0.0000 0.0000 0.0000 3.9338 0.0000 32.2393
#
#
#
# Elastic Compliance Matrix: (Units=1/GPa)
#
#
# Indices 1 2 3 4 5 6 
#
# 1 0.015916 -0.033456 -0.002595 0.000000 0.004994 0.000000
# 2 -0.033456 0.224593 -0.068644 0.000000 0.050446 0.000000
# 3 -0.002595 -0.068644 0.062261 0.000000 -0.057077 0.000000
# 4 0.000000 0.000000 0.000000 0.081014 0.000000 -0.009885
# 5 0.004994 0.050446 -0.057077 0.000000 0.096894 0.000000
# 6 0.000000 0.000000 0.000000 -0.009885 0.000000 0.032224
#
#
# Mechanical properties :
#
#
# Convention : Reuss Voigt Hill
#
# Bulk Modulus (GPa) = 10.70886 47.32008 29.01447
# Shear Modulus (GPa) = 6.63642 21.60150 14.11896
#
# Velocity S-wave (km/s) = 1.86032 3.35631 2.71345
# Velocity P-wave (km/s) = 3.19357 6.30051 4.99477
#
# Compressibility (1/GPa) = 0.09338065
#
# Stress axis : x y z
#
# Youngs Moduli (GPa) = 62.82970 4.45249 16.06154
#
# Poissons Ratio (x) = 0.14896 0.04168
# Poissons Ratio (y) = 2.10204 1.10252
# Poissons Ratio (z) = 0.16304 0.30563
#
# Static dielectric constant tensor:
#      x y z
#    x 1.668500 0.000000 -0.005470 
#    y 0.000000 1.648550 0.000000 
#    z -0.005470 0.000000 1.647040 
# 
# From -- ./inp_files/181095.got.cif
#   From: 2010.05.17/outbox.cif.g08.bks.cpg/sg12_91_cif.got.tgz:181095.got - 2010.06.03 13:09:07.
