data_PCOD9200063
_publ_section_title
;
Structure prediction by ZEFSAII (Michael W. Deem and Ramdas Pophale) SiO2 
 PCOD9200063
Probable space group: C 2/M
;
_chemical_formula_sum "Si O2"
_cell_formula_units_Z 52
_cell_length_a 15.680706
_cell_length_b 16.857268
_cell_length_c 9.499883
_cell_angle_alpha 90.000000
_cell_angle_beta 85.433229
_cell_angle_gamma 90.000000
_cell_volume 2503.168463
_symmetry_space_group_name_H-M "C 2/M"
_symmetry_group_IT_number 12
_symmetry_cell_setting 'monoclinic'
loop_
_space_group_symop_operation_xyz
x,y,z
-x,y,-z
-x,-y,-z
x,-y,z
1/2+x,1/2+y,z
1/2-x,1/2+y,-z
1/2-x,1/2-y,-z
1/2+x,1/2-y,z
loop_
_atom_site_type_symbol
_atom_site_label
_atom_site_fract_x
_atom_site_fract_y
_atom_site_fract_z
Si Si1 0.425983 0.909778 0.330518
Si Si2 0.773842 0.843256 0.148174
Si Si3 0.276752 0.089861 0.580763
Si Si4 0.862594 0.146471 0.617545
Si Si5 0.201541 0.670175 0.849118
Si Si6 0.879468 0.000000 0.095861
Si Si7 0.000000 0.276155 0.500000
Si Si8 0.939331 0.000000 0.773382
O O1 0.354397 0.907924 0.462400
O O2 0.371262 0.887588 0.199824
O O3 0.484774 0.836769 0.371045
O O4 0.461913 0.000000 0.319944
O O5 0.712361 0.852474 0.289753
O O6 0.825678 0.761931 0.157299
O O7 0.833674 0.919079 0.142650
O O8 0.724738 0.844026 0.007490
O O9 0.191426 0.113102 0.507260
O O10 0.271106 0.000000 0.632096
O O11 0.788101 0.164530 0.743200
O O12 0.921361 0.218279 0.553596
O O13 0.919156 0.077243 0.682011
O O14 0.967702 0.000000 0.169507
O O15 0.883098 0.000000 0.924269
#
# Coordination Sequence:
#
# PCOD9200063 Si02
#       8
#     8   8   8   8   8   4   4   4
#     4  10  23  42  65  85 119 159 203 249 303 361
#     4  11  21  37  62  92 122 150 203 248 295 356
#     4  10  20  36  63  93 115 150 197 250 292 349
#     4  11  23  40  62  87 127 159 199 243 300 364
#     4  10  23  40  63  90 117 158 205 251 295 349
#     4  11  24  37  62  91 130 162 195 242 303 371
#     4  12  25  37  60  94 120 158 200 257 303 350
#     4  11  24  40  57  90 133 167 191 235 310 372
#
# _framework density 20.773669999999999
#
# number of rings (size 3 to 8) (size 9 to 14) (size 15 to 20)
#    0.000    1.385    3.077    2.077    6.462    2.769 
#    0.000    0.000    0.000    2.769    0.000   11.846 
#    0.000    0.000    0.000    0.000    0.000    0.000 
#
# Total GULP energy -145159.539576 kJ/mol
# GULP energy per Si atom -5583.059214 kJ/mol
# Density = 2.072639 g / cm^3
# Si number density = 20.773670 Si / 1000 Ang^3
#
#
#
# Elastic Constant Matrix: (Units=GPa)
#
#
# Indices 1 2 3 4 5 6 
#
# 1 23.3408 13.6290 -13.9752 0.0000 6.5073 0.0000
# 2 13.6290 102.3282 1.1661 0.0000 6.6223 0.0000
# 3 -13.9752 1.1661 76.3068 0.0000 1.2839 0.0000
# 4 0.0000 0.0000 0.0000 26.6274 0.0000 9.9656
# 5 6.5073 6.6223 1.2839 0.0000 9.8130 0.0000
# 6 0.0000 0.0000 0.0000 9.9656 0.0000 23.4227
#
#
#
# Elastic Compliance Matrix: (Units=1/GPa)
#
#
# Indices 1 2 3 4 5 6 
#
# 1 0.065551 -0.006227 0.012789 0.000000 -0.040939 0.000000
# 2 -0.006227 0.010810 -0.001255 0.000000 -0.003002 0.000000
# 3 0.012789 -0.001255 0.015629 0.000000 -0.009679 0.000000
# 4 0.000000 0.000000 0.000000 0.044668 0.000000 -0.019005
# 5 -0.040939 -0.003002 -0.009679 0.000000 0.132346 0.000000
# 6 0.000000 0.000000 0.000000 -0.019005 0.000000 0.050780
#
#
# Mechanical properties :
#
#
# Convention : Reuss Voigt Hill
#
# Bulk Modulus (GPa) = 9.74615 22.62397 16.18506
# Shear Modulus (GPa) = 14.56150 25.38299 19.97224
#
# Velocity S-wave (km/s) = 2.65044 3.49934 3.10404
# Velocity P-wave (km/s) = 3.75076 5.21934 4.54476
#
# Compressibility (1/GPa) = 0.10260466
#
# Stress axis : x y z
#
# Youngs Moduli (GPa) = 15.25538 92.50340 63.98240
#
# Poissons Ratio (x) = 0.57601 -0.81829
# Poissons Ratio (y) = 0.09499 0.08031
# Poissons Ratio (z) = -0.19510 0.11610
#
# Static dielectric constant tensor:
#      x y z
#    x 1.757430 0.000000 -0.030140 
#    y 0.000000 1.752180 0.000000 
#    z -0.030140 0.000000 1.754970 
# 
# From -- ./inp_files/75344.got.cif
#   From: 2010.05.17/outbox.cif.g08.bks.cpg/sg12_38_cif.got.tgz:75344.got - 2010.06.03 13:09:07.
