data_PCOD9200736
_publ_section_title
;
Structure prediction by ZEFSAII (Michael W. Deem and Ramdas Pophale) SiO2 
 PCOD9200736
Probable space group: C 2/M
;
_chemical_formula_sum "Si O2"
_cell_formula_units_Z 48
_cell_length_a 21.895739
_cell_length_b 10.606550
_cell_length_c 20.979911
_cell_angle_alpha 90.000000
_cell_angle_beta 27.983660
_cell_angle_gamma 90.000000
_cell_volume 2286.197082
_symmetry_space_group_name_H-M "C 2/M"
_symmetry_group_IT_number 12
_symmetry_cell_setting 'monoclinic'
loop_
_space_group_symop_operation_xyz
x,y,z
-x,y,-z
-x,-y,-z
x,-y,z
1/2+x,1/2+y,z
1/2-x,1/2+y,-z
1/2-x,1/2-y,-z
1/2+x,1/2-y,z
loop_
_atom_site_type_symbol
_atom_site_label
_atom_site_fract_x
_atom_site_fract_y
_atom_site_fract_z
Si Si1 0.871174 0.500000 0.575066
Si Si2 0.966233 0.000000 0.334637
Si Si3 0.229385 0.259459 0.743425
Si Si4 0.787953 0.000000 0.390468
Si Si5 0.524748 0.718102 0.834186
Si Si6 0.386904 0.500000 0.553330
Si Si7 0.606483 0.758604 0.163105
Si Si8 0.746016 0.358165 0.859629
O O1 0.797781 0.628525 0.660740
O O2 0.852887 0.500000 0.513881
O O3 0.000000 0.500000 0.500000
O O4 0.046947 0.876897 0.237930
O O5 0.943740 0.000000 0.430250
O O6 0.823243 0.000000 0.432559
O O7 0.087669 0.267603 0.841440
O O8 0.305273 0.375288 0.643315
O O9 0.236484 0.247149 0.813299
O O10 0.868958 0.120313 0.290266
O O11 0.485755 0.805876 0.809844
O O12 0.390698 0.649948 0.976834
O O13 0.500000 0.500000 0.500000
O O14 0.635066 0.833678 0.201635
O O15 0.750000 0.750000 0.000000
O O16 0.756402 0.500000 0.823921
#
# Coordination Sequence:
#
# PCOD9200736 Si02
#       8
#     4   4   8   4   8   4   8   8
#     4  10  20  37  59  88 119 150 206 276 313 348
#     4  10  20  42  64  84 122 178 213 243 320 392
#     4  11  23  40  61  91 122 171 216 264 310 378
#     4   8  16  33  62  86 114 154 200 258 315 387
#     4   9  18  36  59  91 127 156 204 262 326 380
#     4  12  26  44  62  80 126 180 219 251 318 379
#     4   9  20  35  62  96 126 160 203 260 316 385
#     4  11  20  35  62  98 127 164 209 261 328 380
#
# _framework density 20.995564999999999
#
# number of rings (size 3 to 8) (size 9 to 14) (size 15 to 20)
#    0.000    2.000    1.667    2.000    3.500    0.667 
#    1.500   11.667    0.000    0.000    0.000    0.000 
#    0.000    0.000    0.000    0.000    0.000    0.000 
#
# Total GULP energy -133610.745171 kJ/mol
# GULP energy per Si atom -5567.114382 kJ/mol
# Density = 2.094778 g / cm^3
# Si number density = 20.995565 Si / 1000 Ang^3
#
#
#
# Elastic Constant Matrix: (Units=GPa)
#
#
# Indices 1 2 3 4 5 6 
#
# 1 208.7303 21.6519 48.8085 0.0000 -12.7224 0.0000
# 2 21.6519 77.9540 30.7822 0.0000 -0.2753 0.0000
# 3 48.8085 30.7822 49.3005 0.0000 -3.6821 0.0000
# 4 0.0000 0.0000 0.0000 27.7237 0.0000 4.9734
# 5 -12.7224 -0.2753 -3.6821 0.0000 42.9477 0.0000
# 6 0.0000 0.0000 0.0000 4.9734 0.0000 30.4892
#
#
#
# Elastic Compliance Matrix: (Units=1/GPa)
#
#
# Indices 1 2 3 4 5 6 
#
# 1 0.006358 0.000910 -0.006765 0.000000 0.001309 0.000000
# 2 0.000910 0.017184 -0.011677 0.000000 -0.000621 0.000000
# 3 -0.006765 -0.011677 0.034337 0.000000 0.000865 0.000000
# 4 0.000000 0.000000 0.000000 0.037158 0.000000 -0.006061
# 5 0.001309 -0.000621 0.000865 0.000000 0.023742 0.000000
# 6 0.000000 0.000000 0.000000 -0.006061 0.000000 0.033787
#
#
# Mechanical properties :
#
#
# Convention : Reuss Voigt Hill
#
# Bulk Modulus (GPa) = 43.83033 59.83000 51.83017
# Shear Modulus (GPa) = 25.61023 35.88160 30.74591
#
# Velocity S-wave (km/s) = 3.49634 4.13850 3.83090
# Velocity P-wave (km/s) = 6.10086 7.16900 6.65639
#
# Compressibility (1/GPa) = 0.02281525
#
# Stress axis : x y z
#
# Youngs Moduli (GPa) = 157.27685 58.19382 29.12336
#
# Poissons Ratio (x) = -0.05296 0.19702
# Poissons Ratio (y) = -0.14313 0.34006
# Poissons Ratio (z) = 1.06401 0.67951
#
# Static dielectric constant tensor:
#      x y z
#    x 1.879930 0.000000 0.006060 
#    y 0.000000 1.691890 0.000000 
#    z 0.006060 0.000000 1.816170 
# 
# From -- ./inp_files/321223.got.cif
#   From: 2010.05.17/outbox.cif.g08.bks.cpg/sg12_161_cif.got.tgz:321223.got - 2010.06.03 13:09:07.
