data_PCOD9200534
_publ_section_title
;
Structure prediction by ZEFSAII (Michael W. Deem and Ramdas Pophale) SiO2 
 PCOD9200534
Probable space group: C 2/M
;
_chemical_formula_sum "Si O2"
_cell_formula_units_Z 60
_cell_length_a 14.551911
_cell_length_b 8.901678
_cell_length_c 21.284595
_cell_angle_alpha 90.000000
_cell_angle_beta 72.420502
_cell_angle_gamma 90.000000
_cell_volume 2628.369077
_symmetry_space_group_name_H-M "C 2/M"
_symmetry_group_IT_number 12
_symmetry_cell_setting 'monoclinic'
loop_
_space_group_symop_operation_xyz
x,y,z
-x,y,-z
-x,-y,-z
x,-y,z
1/2+x,1/2+y,z
1/2-x,1/2+y,-z
1/2-x,1/2-y,-z
1/2+x,1/2-y,z
loop_
_atom_site_type_symbol
_atom_site_label
_atom_site_fract_x
_atom_site_fract_y
_atom_site_fract_z
Si Si1 0.455281 0.321106 0.246356
Si Si2 0.756614 0.000000 0.531215
Si Si3 0.258388 0.826740 0.294487
Si Si4 0.907083 0.741286 0.476630
Si Si5 0.557344 0.678041 0.342243
Si Si6 0.458619 0.319620 0.098223
Si Si7 0.157739 0.321045 0.053638
Si Si8 0.254843 0.173778 0.143063
O O1 0.460063 0.500000 0.248909
O O2 0.351711 0.266858 0.290782
O O3 0.532211 0.257929 0.278928
O O4 0.466206 0.284984 0.171364
O O5 0.842046 0.870243 0.521474
O O6 0.672270 0.873586 0.532704
O O7 0.160245 0.759497 0.342081
O O8 0.249147 0.823483 0.220042
O O9 0.274086 0.000000 0.312484
O O10 0.000000 0.689712 0.500000
O O11 0.966051 0.804044 0.404626
O O12 0.577389 0.500000 0.331326
O O13 0.450566 0.500000 0.090406
O O14 0.558626 0.255852 0.051320
O O15 0.360204 0.234793 0.101452
O O16 0.153501 0.500000 0.047274
O O17 0.178378 0.274590 0.121878
O O18 0.250000 0.250000 0.000000
O O19 0.241397 0.000000 0.126739
#
# Coordination Sequence:
#
# PCOD9200534 Si02
#       8
#     8   4   8   8   8   8   8   8
#     4   9  19  37  58  85 119 153 193 240 301 365
#     4  10  24  42  66  90 118 166 210 264 316 382
#     4   9  19  36  59  87 116 154 193 242 302 364
#     4  11  23  44  65  91 125 165 219 264 324 383
#     4  10  20  37  58  86 119 156 199 245 304 363
#     4  10  20  38  63  87 118 159 198 247 307 366
#     4  12  25  40  59  87 119 158 207 254 304 358
#     4  10  20  38  62  88 120 156 200 246 306 370
#
# _framework density 22.827845
#
# number of rings (size 3 to 8) (size 9 to 14) (size 15 to 20)
#    0.000    1.867    0.667    3.200    0.000    5.867 
#    4.800    2.667    0.000    0.000    0.000    0.000 
#    0.000    0.000    0.000    0.000    0.000    0.000 
#
# Total GULP energy -167024.678492 kJ/mol
# GULP energy per Si atom -5567.489283 kJ/mol
# Density = 2.277589 g / cm^3
# Si number density = 22.827845 Si / 1000 Ang^3
#
#
#
# Elastic Constant Matrix: (Units=GPa)
#
#
# Indices 1 2 3 4 5 6 
#
# 1 137.9169 11.2321 33.0242 0.0000 -38.0538 0.0000
# 2 11.2321 42.0893 8.1075 0.0001 -12.1914 0.0001
# 3 33.0242 8.1075 34.1406 0.0000 -9.2742 0.0000
# 4 0.0000 0.0001 0.0000 -166.2918 0.0000 -199.6939
# 5 -38.0538 -12.1914 -9.2742 0.0000 32.3740 0.0000
# 6 0.0000 0.0001 0.0000 -199.6939 0.0000 -157.8083
#
#
#
# Elastic Compliance Matrix: (Units=1/GPa)
#
#
# Indices 1 2 3 4 5 6 
#
# 1 0.013063 0.002250 -0.009509 0.000000 0.013478 0.000000
# 2 0.002250 0.027545 -0.005618 0.000000 0.011408 0.000000
# 3 -0.009509 -0.005618 0.039268 0.000000 -0.002044 0.000000
# 4 0.000000 0.000000 0.000000 0.011573 0.000000 -0.014645
# 5 0.013478 0.011408 -0.002044 0.000000 0.050442 0.000000
# 6 0.000000 0.000000 0.000000 -0.014645 0.000000 0.012196
#
#
# Mechanical properties :
#
#
# Convention : Reuss Voigt Hill
#
# Bulk Modulus (GPa) = 18.47722 35.43048 26.95385
# Shear Modulus (GPa) = 25.26734 -47.55969 -11.14617
#
# Velocity S-wave (km/s) = 3.33057 -4.56939 -2.21208
# Velocity P-wave (km/s) = 4.78560 3.50495 2.30405
#
# Compressibility (1/GPa) = 0.05412069
#
# Stress axis : x y z
#
# Youngs Moduli (GPa) = 76.54970 36.30388 25.46619
#
# Poissons Ratio (x) = -0.08167 0.24216
# Poissons Ratio (y) = -0.17221 0.14308
# Poissons Ratio (z) = 0.72792 0.20397
#
# Static dielectric constant tensor:
#      x y z
#    x 1.951640 0.000000 0.097030 
#    y 0.000000 1.777290 0.000000 
#    z 0.097030 0.000000 1.991380 
# 
# From -- ./inp_files/338647.got.cif
#   From: 2010.05.17/outbox.cif.g08.bks.cpg/sg12_170_cif.got.tgz:338647.got - 2010.06.03 13:09:07.
