data_PCOD9200114
_publ_section_title
;
Structure prediction by ZEFSAII (Michael W. Deem and Ramdas Pophale) SiO2 
 PCOD9200114
Probable space group: C 2/M
;
_chemical_formula_sum "Si O2"
_cell_formula_units_Z 30
_cell_length_a 14.225605
_cell_length_b 13.390324
_cell_length_c 13.231869
_cell_angle_alpha 90.000000
_cell_angle_beta 146.703636
_cell_angle_gamma 90.000000
_cell_volume 1383.666603
_symmetry_space_group_name_H-M "C 2/M"
_symmetry_group_IT_number 12
_symmetry_cell_setting 'monoclinic'
loop_
_space_group_symop_operation_xyz
x,y,z
-x,y,-z
-x,-y,-z
x,-y,z
1/2+x,1/2+y,z
1/2-x,1/2+y,-z
1/2-x,1/2-y,-z
1/2+x,1/2-y,z
loop_
_atom_site_type_symbol
_atom_site_label
_atom_site_fract_x
_atom_site_fract_y
_atom_site_fract_z
Si Si1 0.999625 0.698898 0.705392
Si Si2 0.000000 0.188877 0.000000
Si Si3 0.269411 0.691253 0.354342
Si Si4 0.349065 0.607346 0.060803
Si Si5 0.500000 0.500000 0.500000
O O1 0.153514 0.620853 0.849721
O O2 0.864366 0.675500 0.672951
O O3 0.897333 0.723169 0.512022
O O4 0.092153 0.804253 0.814113
O O5 0.160615 0.260839 0.165840
O O6 0.035956 0.122358 0.934959
O O7 0.362976 0.589693 0.409862
O O8 0.375698 0.500000 0.134200
#
# Coordination Sequence:
#
# PCOD9200114 Si02
#       5
#     8   4   8   8   2
#     4   9  21  41  58  85 127 163 196 249 304 360
#     4  10  21  41  58  86 126 154 197 260 307 338
#     4  10  22  40  58  85 125 160 199 253 305 363
#     4  10  20  36  64  88 116 160 204 244 297 370
#     4  12  24  34  64  92 114 160 212 250 308 358
#
# _framework density 21.681522999999999
#
# number of rings (size 3 to 8) (size 9 to 14) (size 15 to 20)
#    0.000    2.133    0.000    2.000    3.733    0.533 
#    0.000    4.000    0.000    0.000    0.000    0.000 
#    0.000    0.000    0.000    0.000    0.000    0.000 
#
# Total GULP energy -83562.234273 kJ/mol
# GULP energy per Si atom -5570.815618 kJ/mol
# Density = 2.163218 g / cm^3
# Si number density = 21.681523 Si / 1000 Ang^3
#
#
#
# Elastic Constant Matrix: (Units=GPa)
#
#
# Indices 1 2 3 4 5 6 
#
# 1 54.8213 16.8951 6.1827 0.0001 23.9713 0.0001
# 2 16.8951 127.1829 24.9121 0.0002 19.1683 0.0001
# 3 6.1827 24.9121 103.9150 0.0003 9.8162 0.0002
# 4 0.0001 0.0002 0.0003 5.4733 0.0002 1.9684
# 5 23.9713 19.1683 9.8162 0.0002 35.6110 0.0001
# 6 0.0001 0.0001 0.0002 1.9684 0.0001 11.5845
#
#
#
# Elastic Compliance Matrix: (Units=1/GPa)
#
#
# Indices 1 2 3 4 5 6 
#
# 1 0.025949 -0.000935 0.000290 0.000000 -0.017044 0.000000
# 2 -0.000935 0.008879 -0.001726 0.000000 -0.003674 0.000000
# 3 0.000290 -0.001726 0.010216 0.000000 -0.002083 0.000000
# 4 0.000000 0.000000 0.000000 0.194596 -0.000001 -0.033066
# 5 -0.017044 -0.003674 -0.002083 -0.000001 0.042106 0.000000
# 6 0.000000 0.000000 0.000000 -0.033066 0.000000 0.091941
#
#
# Mechanical properties :
#
#
# Convention : Reuss Voigt Hill
#
# Bulk Modulus (GPa) = 24.81199 42.43322 33.62261
# Shear Modulus (GPa) = 12.75957 26.39573 19.57765
#
# Velocity S-wave (km/s) = 2.42853 3.49295 3.00820
# Velocity P-wave (km/s) = 4.39686 5.99010 5.25422
#
# Compressibility (1/GPa) = 0.04030309
#
# Stress axis : x y z
#
# Youngs Moduli (GPa) = 38.53662 112.62928 97.88133
#
# Poissons Ratio (x) = 0.10533 -0.02842
# Poissons Ratio (y) = 0.03604 0.16893
# Poissons Ratio (z) = -0.01119 0.19438
#
# Static dielectric constant tensor:
#      x y z
#    x 1.828700 0.000000 0.002140 
#    y 0.000000 1.747330 0.000000 
#    z 0.002140 0.000000 1.838060 
# 
# From -- ./inp_files/58021.got.cif
#   From: 2010.05.17/outbox.cif.g08.bks.cpg/sg12_30_cif.got.tgz:58021.got - 2010.06.03 13:09:07.
