data_PCOD9200481
_publ_section_title
;
Structure prediction by ZEFSAII (Michael W. Deem and Ramdas Pophale) SiO2 
 PCOD9200481
Probable space group: C 2/M
;
_chemical_formula_sum "Si O2"
_cell_formula_units_Z 24
_cell_length_a 17.249901
_cell_length_b 13.796897
_cell_length_c 5.029822
_cell_angle_alpha 90.000000
_cell_angle_beta 123.068800
_cell_angle_gamma 90.000000
_cell_volume 1003.166312
_symmetry_space_group_name_H-M "C 2/M"
_symmetry_group_IT_number 12
_symmetry_cell_setting 'monoclinic'
loop_
_space_group_symop_operation_xyz
x,y,z
-x,y,-z
-x,-y,-z
x,-y,z
1/2+x,1/2+y,z
1/2-x,1/2+y,-z
1/2-x,1/2-y,-z
1/2+x,1/2-y,z
loop_
_atom_site_type_symbol
_atom_site_label
_atom_site_fract_x
_atom_site_fract_y
_atom_site_fract_z
Si Si1 0.216908 0.142735 0.996702
Si Si2 0.088601 0.394810 0.473784
Si Si3 0.601098 0.324626 0.292931
O O1 0.136768 0.125940 0.630960
O O2 0.250000 0.250000 0.000000
O O3 0.316874 0.094884 0.182235
O O4 0.173338 0.142035 0.205907
O O5 0.080036 0.500000 0.316798
O O6 0.098922 0.293868 0.328282
O O7 0.000000 0.382037 0.500000
O O8 0.500000 0.351849 0.000000
#
# Coordination Sequence:
#
# PCOD9200481 Si02
#       3
#     8   8   8
#     4  10  20  37  58  83 115 153 195 233 279 343
#     4  10  21  37  59  90 124 152 185 238 301 352
#     4  11  21  38  61  85 113 151 198 239 280 338
#
# _framework density 23.924251000000002
#
# number of rings (size 3 to 8) (size 9 to 14) (size 15 to 20)
#    0.000    1.667    0.000    9.000    0.000    0.667 
#    0.000   18.333    0.000    6.000    0.000    0.000 
#    0.000    1.333    0.000    0.000    0.000    0.000 
#
# Total GULP energy -66920.148319 kJ/mol
# GULP energy per Si atom -5576.679027 kJ/mol
# Density = 2.386980 g / cm^3
# Si number density = 23.924251 Si / 1000 Ang^3
#
#
#
# Elastic Constant Matrix: (Units=GPa)
#
#
# Indices 1 2 3 4 5 6 
#
# 1 131.3929 29.2440 41.3985 0.0000 22.3625 0.0000
# 2 29.2440 76.1438 36.2420 0.0000 10.8536 0.0000
# 3 41.3985 36.2420 167.4967 0.0000 35.8474 0.0000
# 4 0.0000 0.0000 0.0000 5.8022 0.0000 49.9870
# 5 22.3625 10.8536 35.8474 0.0000 58.6557 0.0000
# 6 0.0000 0.0000 0.0000 49.9870 0.0000 403.4435
#
#
#
# Elastic Compliance Matrix: (Units=1/GPa)
#
#
# Indices 1 2 3 4 5 6 
#
# 1 0.008927 -0.002551 -0.001182 0.000000 -0.002209 0.000000
# 2 -0.002551 0.015410 -0.002648 0.000000 -0.000261 0.000000
# 3 -0.001182 -0.002648 0.007632 0.000000 -0.003724 0.000000
# 4 0.000000 0.000000 0.000000 -2.556178 0.000000 0.316712
# 5 -0.002209 -0.000261 -0.003724 0.000000 0.020215 0.000000
# 6 0.000000 0.000000 0.000000 0.316712 0.000000 -0.036762
#
#
# Mechanical properties :
#
#
# Convention : Reuss Voigt Hill
#
# Bulk Modulus (GPa) = 52.06204 65.42249 58.74226
# Shear Modulus (GPa) = -1.98287 111.45689 54.73701
#
# Velocity S-wave (km/s) = -0.91138 6.83290 4.78842
# Velocity P-wave (km/s) = 4.54983 9.46871 7.42824
#
# Compressibility (1/GPa) = 0.01920785
#
# Stress axis : x y z
#
# Youngs Moduli (GPa) = 112.02163 64.89125 131.02243
#
# Poissons Ratio (x) = 0.16555 0.15481
# Poissons Ratio (y) = 0.28579 0.34696
# Poissons Ratio (z) = 0.13236 0.17184
#
# Static dielectric constant tensor:
#      x y z
#    x 1.824620 0.000000 0.040480 
#    y 0.000000 1.891000 0.000000 
#    z 0.040480 0.000000 1.952970 
# 
# From -- ./inp_files/9286.got.cif
#   From: 2010.05.17/outbox.cif.g08.bks.cpg/sg12_5_cif.got.tgz:9286.got - 2010.06.03 13:09:07.
