data_PCOD9200416
_publ_section_title
;
Structure prediction by ZEFSAII (Michael W. Deem and Ramdas Pophale) SiO2 
 PCOD9200416
Probable space group: C 2/M
;
_chemical_formula_sum "Si O2"
_cell_formula_units_Z 56
_cell_length_a 9.723330
_cell_length_b 26.887269
_cell_length_c 14.123255
_cell_angle_alpha 90.000000
_cell_angle_beta 62.694958
_cell_angle_gamma 90.000000
_cell_volume 3280.888880
_symmetry_space_group_name_H-M "C 2/M"
_symmetry_group_IT_number 12
_symmetry_cell_setting 'monoclinic'
loop_
_space_group_symop_operation_xyz
x,y,z
-x,y,-z
-x,-y,-z
x,-y,z
1/2+x,1/2+y,z
1/2-x,1/2+y,-z
1/2-x,1/2-y,-z
1/2+x,1/2-y,z
loop_
_atom_site_type_symbol
_atom_site_label
_atom_site_fract_x
_atom_site_fract_y
_atom_site_fract_z
Si Si1 0.314259 0.443383 0.281768
Si Si2 0.498664 0.641301 0.111449
Si Si3 0.987105 0.604903 0.394195
Si Si4 0.160183 0.330204 0.985515
Si Si5 0.958386 0.691850 0.770993
Si Si6 0.675625 0.747393 0.826061
Si Si7 0.348128 0.558283 0.493984
O O1 0.347582 0.500000 0.239813
O O2 0.399519 0.400198 0.196598
O O3 0.365957 0.438406 0.374899
O O4 0.129035 0.433796 0.337605
O O5 0.677609 0.643856 0.087764
O O6 0.424363 0.696601 0.144880
O O7 0.500000 0.629529 0.000000
O O8 0.816288 0.583260 0.431788
O O9 0.000000 0.621967 0.500000
O O10 0.014248 0.648006 0.309977
O O11 0.164000 0.277167 0.929227
O O12 0.140174 0.324076 0.104427
O O13 0.000000 0.354790 0.000000
O O14 0.852238 0.732949 0.755207
O O15 0.110372 0.715841 0.767541
O O16 0.500000 0.578230 0.500000
O O17 0.334391 0.500000 0.523050
#
# Coordination Sequence:
#
# PCOD9200416 Si02
#       7
#     8   8   8   8   8   8   8
#     4  10  21  36  58  82 105 139 179 219 270 320
#     4  12  20  33  53  78 112 143 175 223 262 313
#     4  10  20  37  58  79 108 139 179 220 266 317
#     4  10  21  31  52  80 109 141 182 218 261 310
#     4  11  20  34  52  80 107 144 179 219 261 309
#     4  11  20  32  54  78 109 141 179 217 258 309
#     4   9  19  37  60  82 104 132 176 230 273 315
#
# _framework density 17.068546000000001
#
# number of rings (size 3 to 8) (size 9 to 14) (size 15 to 20)
#    0.000    1.571    4.286    2.143    0.000    4.286 
#    0.000    0.714    0.000    0.429    0.000    0.000 
#    0.000    0.000    0.000    0.000    0.000    0.000 
#
# Total GULP energy -156093.253508 kJ/mol
# GULP energy per Si atom -5574.759054 kJ/mol
# Density = 1.702970 g / cm^3
# Si number density = 17.068546 Si / 1000 Ang^3
#
#
#
# Elastic Constant Matrix: (Units=GPa)
#
#
# Indices 1 2 3 4 5 6 
#
# 1 135.9723 36.5304 38.1854 0.0000 -1.3623 0.0000
# 2 36.5304 80.2579 56.0476 0.0000 2.5681 0.0000
# 3 38.1854 56.0476 56.0612 0.0000 0.9817 0.0000
# 4 0.0000 0.0000 0.0000 28.4649 0.0000 -2.7746
# 5 -1.3623 2.5681 0.9817 0.0000 15.0216 0.0000
# 6 0.0000 0.0000 0.0000 -2.7746 0.0000 19.5204
#
#
#
# Elastic Compliance Matrix: (Units=1/GPa)
#
#
# Indices 1 2 3 4 5 6 
#
# 1 0.009124 0.000543 -0.006778 0.000000 0.001178 0.000000
# 2 0.000543 0.041602 -0.041886 0.000000 -0.004326 0.000000
# 3 -0.006778 -0.041886 0.064289 0.000000 0.002344 0.000000
# 4 0.000000 0.000000 0.000000 0.035625 0.000000 0.005064
# 5 0.001178 -0.004326 0.002344 0.000000 0.067264 0.000000
# 6 0.000000 0.000000 0.000000 0.005064 0.000000 0.051948
#
#
# Mechanical properties :
#
#
# Convention : Reuss Voigt Hill
#
# Bulk Modulus (GPa) = 53.26828 59.31314 56.29071
# Shear Modulus (GPa) = 13.42823 22.03658 17.73240
#
# Velocity S-wave (km/s) = 2.80790 3.59704 3.22668
# Velocity P-wave (km/s) = 6.46441 7.21644 6.85075
#
# Compressibility (1/GPa) = 0.01877290
#
# Stress axis : x y z
#
# Youngs Moduli (GPa) = 109.60280 24.03742 15.55483
#
# Poissons Ratio (x) = -0.01305 0.10543
# Poissons Ratio (y) = -0.05949 0.65152
# Poissons Ratio (z) = 0.74287 1.00682
#
# Static dielectric constant tensor:
#      x y z
#    x 1.630570 0.000000 -0.002630 
#    y 0.000000 1.566010 0.000000 
#    z -0.002630 0.000000 1.566770 
# 
# From -- ./inp_files/198366.got.cif
#   From: 2010.05.17/outbox.cif.g08.bks.cpg/sg12_100_cif.got.tgz:198366.got - 2010.06.03 13:09:07.
