data_PCOD9200129
_publ_section_title
;
Structure prediction by ZEFSAII (Michael W. Deem and Ramdas Pophale) SiO2 
 PCOD9200129
Probable space group: C 2/M
;
_chemical_formula_sum "Si O2"
_cell_formula_units_Z 32
_cell_length_a 26.972268
_cell_length_b 7.855508
_cell_length_c 21.941839
_cell_angle_alpha 90.000000
_cell_angle_beta 161.849076
_cell_angle_gamma 90.000000
_cell_volume 1448.279079
_symmetry_space_group_name_H-M "C 2/M"
_symmetry_group_IT_number 12
_symmetry_cell_setting 'monoclinic'
loop_
_space_group_symop_operation_xyz
x,y,z
-x,y,-z
-x,-y,-z
x,-y,z
1/2+x,1/2+y,z
1/2-x,1/2+y,-z
1/2-x,1/2-y,-z
1/2+x,1/2-y,z
loop_
_atom_site_type_symbol
_atom_site_label
_atom_site_fract_x
_atom_site_fract_y
_atom_site_fract_z
Si Si1 0.728459 0.297305 0.544457
Si Si2 0.607301 0.705125 0.786828
Si Si3 0.323446 0.500000 0.825358
Si Si4 0.479149 0.000000 0.401960
Si Si5 0.041568 0.312589 0.977407
O O1 0.735549 0.500000 0.559569
O O2 0.750000 0.250000 0.500000
O O3 0.557347 0.250338 0.370554
O O4 0.884606 0.237626 0.762567
O O5 0.610145 0.500000 0.776702
O O6 0.602027 0.832292 0.722699
O O7 0.750000 0.750000 0.000000
O O8 0.167229 0.500000 0.602113
O O9 0.500000 0.500000 0.000000
O O10 0.323824 0.670917 0.865793
O O11 0.500000 0.000000 0.500000
O O12 0.083048 0.500000 0.000955
O O13 0.000000 0.335926 0.000000
#
# Coordination Sequence:
#
# PCOD9200129 Si02
#       5
#     8   8   4   4   8
#     4  10  23  38  64 101 134 175 227 282 347 419
#     4  11  24  47  72  97 141 193 237 292 354 421
#     4  10  20  36  64  92 124 167 207 272 336 397
#     4  12  28  46  70 106 141 183 246 294 353 425
#     4   9  18  35  57  87 126 163 206 263 334 398
#
# _framework density 22.095189999999999
#
# number of rings (size 3 to 8) (size 9 to 14) (size 15 to 20)
#    0.000    1.750    1.250    3.000    3.500    5.500 
#    0.000    2.500    0.000    0.000    0.000    0.000 
#    0.000    0.000    0.000    0.000    0.000    0.000 
#
# Total GULP energy -89220.780578 kJ/mol
# GULP energy per Si atom -5576.298786 kJ/mol
# Density = 2.204490 g / cm^3
# Si number density = 22.095190 Si / 1000 Ang^3
#
#
#
# Elastic Constant Matrix: (Units=GPa)
#
#
# Indices 1 2 3 4 5 6 
#
# 1 100.6982 31.1191 31.3723 0.0000 -25.3687 0.0000
# 2 31.1191 157.2229 66.4578 0.0000 -9.4373 0.0000
# 3 31.3723 66.4578 161.0489 0.0000 -40.0053 0.0000
# 4 0.0000 0.0000 0.0000 49.5192 0.0000 -31.0797
# 5 -25.3687 -9.4373 -40.0053 0.0000 35.4241 0.0000
# 6 0.0000 0.0000 0.0000 -31.0797 0.0000 76.1299
#
#
#
# Elastic Compliance Matrix: (Units=1/GPa)
#
#
# Indices 1 2 3 4 5 6 
#
# 1 0.012770 -0.002302 0.000809 0.000000 0.009445 0.000000
# 2 -0.002302 0.008238 -0.003913 0.000000 -0.003873 0.000000
# 3 0.000809 -0.003913 0.010496 0.000000 0.011390 0.000000
# 4 0.000000 0.000000 0.000000 0.027151 0.000000 0.011084
# 5 0.009445 -0.003873 0.011390 0.000000 0.046824 0.000000
# 6 0.000000 0.000000 0.000000 0.011084 0.000000 0.017661
#
#
# Mechanical properties :
#
#
# Convention : Reuss Voigt Hill
#
# Bulk Modulus (GPa) = 48.33310 75.20760 61.77035
# Shear Modulus (GPa) = 35.49913 51.54935 43.52424
#
# Velocity S-wave (km/s) = 4.01265 4.83541 4.44312
# Velocity P-wave (km/s) = 6.58717 8.08003 7.37149
#
# Compressibility (1/GPa) = 0.02068976
#
# Stress axis : x y z
#
# Youngs Moduli (GPa) = 78.31062 121.39441 95.27680
#
# Poissons Ratio (x) = 0.27950 -0.07705
# Poissons Ratio (y) = 0.18030 0.37281
# Poissons Ratio (z) = -0.06333 0.47501
#
# Static dielectric constant tensor:
#      x y z
#    x 1.820500 0.000000 0.053920 
#    y 0.000000 1.891900 0.000000 
#    z 0.053920 0.000000 1.790580 
# 
# From -- ./inp_files/327395.got.cif
#   From: 2010.05.17/outbox.cif.g08.bks.cpg/sg12_164_cif.got.tgz:327395.got - 2010.06.03 13:09:07.
