data_PCOD9200977
_publ_section_title
;
Structure prediction by ZEFSAII (Michael W. Deem and Ramdas Pophale) SiO2 
 PCOD9200977
Probable space group: C 2/M
;
_chemical_formula_sum "Si O2"
_cell_formula_units_Z 64
_cell_length_a 27.768676
_cell_length_b 17.706419
_cell_length_c 21.211213
_cell_angle_alpha 90.000000
_cell_angle_beta 18.307260
_cell_angle_gamma 90.000000
_cell_volume 3275.947919
_symmetry_space_group_name_H-M "C 2/M"
_symmetry_group_IT_number 12
_symmetry_cell_setting 'monoclinic'
loop_
_space_group_symop_operation_xyz
x,y,z
-x,y,-z
-x,-y,-z
x,-y,z
1/2+x,1/2+y,z
1/2-x,1/2+y,-z
1/2-x,1/2-y,-z
1/2+x,1/2-y,z
loop_
_atom_site_type_symbol
_atom_site_label
_atom_site_fract_x
_atom_site_fract_y
_atom_site_fract_z
Si Si1 0.826714 0.263999 0.302950
Si Si2 0.647026 0.212024 0.944662
Si Si3 0.364431 0.230758 0.574447
Si Si4 0.563064 0.085226 0.146153
Si Si5 0.271707 0.629241 0.460381
Si Si6 0.340534 0.415015 0.160730
Si Si7 0.895973 0.124682 0.947616
Si Si8 0.666328 0.179217 0.137738
O O1 0.714053 0.276027 0.385138
O O2 0.774272 0.315426 0.425953
O O3 0.806963 0.178970 0.354128
O O4 0.005648 0.282937 0.070495
O O5 0.635581 0.136604 0.000025
O O6 0.603888 0.283690 0.042356
O O7 0.804501 0.230217 0.712921
O O8 0.282558 0.149071 0.672822
O O9 0.541330 0.215769 0.340468
O O10 0.379896 0.082274 0.363215
O O11 0.589097 0.131166 0.178105
O O12 0.623880 0.000000 0.072201
O O13 0.434401 0.595083 0.277571
O O14 0.294252 0.500000 0.236029
O O15 0.500000 0.399360 0.000000
O O16 0.357729 0.409717 0.063398
O O17 0.774409 0.121704 0.042634
O O18 0.750000 0.250000 0.000000
#
# Coordination Sequence:
#
# PCOD9200977 Si02
#       8
#     8   8   8   8   8   8   8   8
#     4   9  15  29  56  88 117 145 207 258 301 347
#     4   9  19  35  58  87 121 164 205 260 303 363
#     4  11  20  35  61  88 121 163 209 255 307 369
#     4  11  23  40  62  93 128 163 206 256 322 385
#     4   9  17  33  59  87 119 156 197 257 304 361
#     4  10  22  37  56  89 129 165 199 244 308 381
#     4  10  20  37  60  87 126 160 211 255 297 362
#     4  12  24  40  62  95 124 158 210 269 311 365
#
# _framework density 19.53633
#
# number of rings (size 3 to 8) (size 9 to 14) (size 15 to 20)
#    0.000    1.875    2.500    4.125    0.000    3.500 
#    0.000    0.625    0.000    7.500    0.000    0.000 
#    0.000    0.000    0.000    0.000    0.000    0.000 
#
# Total GULP energy -178422.469253 kJ/mol
# GULP energy per Si atom -5575.702164 kJ/mol
# Density = 1.949186 g / cm^3
# Si number density = 19.536330 Si / 1000 Ang^3
#
#
#
# Elastic Constant Matrix: (Units=GPa)
#
#
# Indices 1 2 3 4 5 6 
#
# 1 96.3860 21.9863 39.8380 -0.0002 -8.3771 0.0003
# 2 21.9863 78.3059 25.6211 -0.0021 10.3804 0.0011
# 3 39.8380 25.6211 116.4779 -0.0044 3.5353 0.0049
# 4 -0.0002 -0.0021 -0.0044 6.4549 0.0026 -4.4658
# 5 -8.3771 10.3804 3.5353 0.0026 24.8026 -0.0028
# 6 0.0003 0.0011 0.0049 -4.4658 -0.0028 5.1790
#
#
#
# Elastic Compliance Matrix: (Units=1/GPa)
#
#
# Indices 1 2 3 4 5 6 
#
# 1 0.013356 -0.003284 -0.004042 -0.000003 0.006462 0.000005
# 2 -0.003284 0.015314 -0.002026 0.000008 -0.007230 0.000002
# 3 -0.004042 -0.002026 0.010474 0.000000 -0.002010 -0.000010
# 4 -0.000003 0.000008 0.000000 0.384014 -0.000008 0.331134
# 5 0.006462 -0.007230 -0.002010 -0.000008 0.045813 0.000021
# 6 0.000005 0.000002 -0.000010 0.331134 0.000021 0.478622
#
#
# Mechanical properties :
#
#
# Convention : Reuss Voigt Hill
#
# Bulk Modulus (GPa) = 48.92213 51.78452 50.35333
# Shear Modulus (GPa) = 5.13816 20.86894 13.00355
#
# Velocity S-wave (km/s) = 1.62350 3.27190 2.58274
# Velocity P-wave (km/s) = 5.34886 6.39047 5.89272
#
# Compressibility (1/GPa) = 0.02044065
#
# Stress axis : x y z
#
# Youngs Moduli (GPa) = 74.87117 65.30079 95.47147
#
# Poissons Ratio (x) = 0.21446 0.38588
# Poissons Ratio (y) = 0.24589 0.19340
# Poissons Ratio (z) = 0.30262 0.13229
#
# Static dielectric constant tensor:
#      x y z
#    x 1.730750 0.000000 -0.032040 
#    y 0.000000 1.672470 0.000000 
#    z -0.032040 0.000000 1.737120 
# 
# From -- ./inp_files/328616.got.cif
#   From: 2010.05.17/outbox.cif.g08.bks.cpg/sg12_165_cif.got.tgz:328616.got - 2010.06.03 13:09:07.
