data_PCOD9200948
_publ_section_title
;
Structure prediction by ZEFSAII (Michael W. Deem and Ramdas Pophale) SiO2 
 PCOD9200948
Probable space group: C 2/M
;
_chemical_formula_sum "Si O2"
_cell_formula_units_Z 64
_cell_length_a 10.034183
_cell_length_b 18.030525
_cell_length_c 16.706032
_cell_angle_alpha 90.000000
_cell_angle_beta 99.076973
_cell_angle_gamma 90.000000
_cell_volume 2984.632167
_symmetry_space_group_name_H-M "C 2/M"
_symmetry_group_IT_number 12
_symmetry_cell_setting 'monoclinic'
loop_
_space_group_symop_operation_xyz
x,y,z
-x,y,-z
-x,-y,-z
x,-y,z
1/2+x,1/2+y,z
1/2-x,1/2+y,-z
1/2-x,1/2-y,-z
1/2+x,1/2-y,z
loop_
_atom_site_type_symbol
_atom_site_label
_atom_site_fract_x
_atom_site_fract_y
_atom_site_fract_z
Si Si1 0.306182 0.411704 0.071747
Si Si2 0.983949 0.198452 0.195346
Si Si3 0.686070 0.581430 0.272781
Si Si4 0.258039 0.828371 0.422772
Si Si5 0.800136 0.417901 0.105491
Si Si6 0.147926 0.915271 0.556575
Si Si7 0.050169 0.783918 0.639106
Si Si8 0.047005 0.681741 0.088932
O O1 0.328195 0.500000 0.093084
O O2 0.397406 0.351018 0.125650
O O3 0.157402 0.381370 0.082223
O O4 0.310002 0.404844 0.975085
O O5 0.919249 0.240437 0.265915
O O6 0.065973 0.137846 0.251604
O O7 0.079410 0.253508 0.154105
O O8 0.636577 0.500000 0.288982
O O9 0.774338 0.611352 0.353500
O O10 0.748956 0.580106 0.190601
O O11 0.246976 0.872670 0.504725
O O12 0.375054 0.769885 0.416714
O O13 0.109891 0.789432 0.396333
O O14 0.856109 0.500000 0.091098
O O15 0.913813 0.356966 0.109684
O O16 0.121903 0.863413 0.630243
O O17 0.000000 0.917400 0.500000
O O18 0.188337 0.000000 0.576631
O O19 0.000000 0.715475 0.000000
#
# Coordination Sequence:
#
# PCOD9200948 Si02
#       8
#     8   8   8   8   8   8   8   8
#     4  10  22  38  56  77 109 152 193 234 287 345
#     4  11  24  34  55  83 113 145 187 236 285 335
#     4  10  21  36  56  80 111 144 184 233 282 333
#     4  10  20  37  60  87 113 150 186 231 278 339
#     4   9  19  36  56  77 107 146 188 234 283 338
#     4   9  18  35  61  89 114 147 190 228 273 336
#     4  10  22  36  58  84 119 148 185 231 286 331
#     4  10  22  35  56  78 109 145 192 236 285 340
#
# _framework density 21.443179000000001
#
# number of rings (size 3 to 8) (size 9 to 14) (size 15 to 20)
#    0.000    2.125    0.000    2.250    7.000    6.000 
#    0.000    1.875    0.000    2.250    0.000    0.000 
#    0.000    0.000    0.000    0.000    0.000    0.000 
#
# Total GULP energy -178386.574532 kJ/mol
# GULP energy per Si atom -5574.580454 kJ/mol
# Density = 2.139437 g / cm^3
# Si number density = 21.443179 Si / 1000 Ang^3
#
#
#
# Elastic Constant Matrix: (Units=GPa)
#
#
# Indices 1 2 3 4 5 6 
#
# 1 25.3100 3.8616 -0.5180 0.0000 -13.0032 0.0000
# 2 3.8616 71.2292 20.3464 0.0000 -16.4809 0.0000
# 3 -0.5180 20.3464 89.3612 0.0000 -26.1794 0.0000
# 4 0.0000 0.0000 0.0000 16.0442 0.0000 10.3695
# 5 -13.0032 -16.4809 -26.1794 0.0000 23.8260 0.0000
# 6 0.0000 0.0000 0.0000 10.3695 0.0000 13.9306
#
#
#
# Elastic Compliance Matrix: (Units=1/GPa)
#
#
# Indices 1 2 3 4 5 6 
#
# 1 0.070206 0.005389 0.016955 0.000000 0.060673 0.000000
# 2 0.005389 0.017151 0.000683 0.000000 0.015556 0.000000
# 3 0.016955 0.000683 0.020620 0.000000 0.032383 0.000000
# 4 0.000000 0.000000 0.000000 0.120114 0.000000 -0.089410
# 5 0.060673 0.015556 0.032383 0.000000 0.121426 0.000000
# 6 0.000000 0.000000 0.000000 -0.089410 0.000000 0.138339
#
#
# Mechanical properties :
#
#
# Convention : Reuss Voigt Hill
#
# Bulk Modulus (GPa) = 6.49216 25.92005 16.20611
# Shear Modulus (GPa) = 10.13900 21.57417 15.85658
#
# Velocity S-wave (km/s) = 2.17683 3.17536 2.72227
# Velocity P-wave (km/s) = 3.05815 5.05548 4.17793
#
# Compressibility (1/GPa) = 0.15403187
#
# Stress axis : x y z
#
# Youngs Moduli (GPa) = 14.24380 58.30524 48.49631
#
# Poissons Ratio (x) = -0.31422 -0.82224
# Poissons Ratio (y) = -0.07676 -0.03314
# Poissons Ratio (z) = -0.24150 -0.03985
#
# Static dielectric constant tensor:
#      x y z
#    x 1.787140 0.000000 -0.013610 
#    y 0.000000 1.900140 0.000000 
#    z -0.013610 0.000000 1.859850 
# 
# From -- ./inp_files/206670.got.cif
#   From: 2010.05.17/outbox.cif.g08.bks.cpg/sg12_104_cif.got.tgz:206670.got - 2010.06.03 13:09:07.
