data_PCOD9200711
_publ_section_title
;
Structure prediction by ZEFSAII (Michael W. Deem and Ramdas Pophale) SiO2 
 PCOD9200711
Probable space group: C 2/M
;
_chemical_formula_sum "Si O2"
_cell_formula_units_Z 56
_cell_length_a 28.218295
_cell_length_b 25.348897
_cell_length_c 7.090882
_cell_angle_alpha 90.000000
_cell_angle_beta 141.767308
_cell_angle_gamma 90.000000
_cell_volume 3138.919554
_symmetry_space_group_name_H-M "C 2/M"
_symmetry_group_IT_number 12
_symmetry_cell_setting 'monoclinic'
loop_
_space_group_symop_operation_xyz
x,y,z
-x,y,-z
-x,-y,-z
x,-y,z
1/2+x,1/2+y,z
1/2-x,1/2+y,-z
1/2-x,1/2-y,-z
1/2+x,1/2-y,z
loop_
_atom_site_type_symbol
_atom_site_label
_atom_site_fract_x
_atom_site_fract_y
_atom_site_fract_z
Si Si1 0.797196 0.899368 0.130344
Si Si2 0.190778 0.439990 0.468978
Si Si3 0.802575 0.299821 0.111634
Si Si4 0.915528 0.261723 0.144922
Si Si5 0.413052 0.159949 0.788980
Si Si6 0.912271 0.138889 0.166216
Si Si7 0.165751 0.940098 0.353855
O O1 0.860407 0.876566 0.184126
O O2 0.829635 0.931379 0.408215
O O3 0.739717 0.931725 0.814765
O O4 0.751931 0.850227 0.079178
O O5 0.160894 0.500000 0.369303
O O6 0.128126 0.393804 0.271519
O O7 0.250872 0.433180 0.484703
O O8 0.851982 0.285439 0.084638
O O9 0.862201 0.315956 0.461523
O O10 0.750000 0.250000 0.000000
O O11 0.898766 0.199703 0.067674
O O12 0.000000 0.265768 0.500000
O O13 0.914610 0.295683 0.953927
O O14 0.500000 0.148985 0.000000
O O15 0.000000 0.132761 0.500000
O O16 0.888869 0.101192 0.921341
O O17 0.141610 0.000000 0.236250
#
# Coordination Sequence:
#
# PCOD9200711 Si02
#       7
#     8   8   8   8   8   8   8
#     4  10  20  37  59  86 114 150 197 244 291 356
#     4   9  20  39  60  86 118 151 196 246 290 346
#     4  11  22  37  59  90 117 153 202 240 291 352
#     4  11  22  39  59  84 125 158 189 243 295 350
#     4  11  23  38  61  89 121 160 195 240 297 348
#     4  10  23  38  55  84 118 154 193 242 301 350
#     4  10  21  39  62  85 112 153 199 246 297 347
#
# _framework density 17.840534000000002
#
# number of rings (size 3 to 8) (size 9 to 14) (size 15 to 20)
#    0.000    1.714    2.857    1.286    2.000    2.286 
#    0.000    0.714    0.000    0.429    0.000    0.000 
#    0.000    0.000    0.000    0.000    0.000    0.000 
#
# Total GULP energy -156328.050095 kJ/mol
# GULP energy per Si atom -5583.144646 kJ/mol
# Density = 1.779993 g / cm^3
# Si number density = 17.840534 Si / 1000 Ang^3
#
#
#
# Elastic Constant Matrix: (Units=GPa)
#
#
# Indices 1 2 3 4 5 6 
#
# 1 63.6873 38.0520 22.0309 0.0000 -1.1742 0.0000
# 2 38.0520 121.3274 46.2503 0.0000 -1.2124 0.0000
# 3 22.0309 46.2503 59.8878 0.0000 -3.3661 0.0000
# 4 0.0000 0.0000 0.0000 405.5211 0.0000 433.6074
# 5 -1.1742 -1.2124 -3.3661 0.0000 26.8620 0.0000
# 6 0.0000 0.0000 0.0000 433.6074 0.0000 518.9902
#
#
#
# Elastic Compliance Matrix: (Units=1/GPa)
#
#
# Indices 1 2 3 4 5 6 
#
# 1 0.019837 -0.004878 -0.003519 0.000000 0.000206 0.000000
# 2 -0.004878 0.012890 -0.008198 0.000000 -0.000659 0.000000
# 3 -0.003519 -0.008198 0.024466 0.000000 0.002542 0.000000
# 4 0.000000 0.000000 0.000000 0.023122 0.000000 -0.019318
# 5 0.000206 -0.000659 0.002542 0.000000 0.037525 0.000000
# 6 0.000000 0.000000 0.000000 -0.019318 0.000000 0.018066
#
#
# Mechanical properties :
#
#
# Convention : Reuss Voigt Hill
#
# Bulk Modulus (GPa) = 41.65794 50.84097 46.24946
# Shear Modulus (GPa) = 28.23306 199.51263 113.87284
#
# Velocity S-wave (km/s) = 3.98241 10.58649 7.99792
# Velocity P-wave (km/s) = 6.67435 13.34133 10.54841
#
# Compressibility (1/GPa) = 0.02400502
#
# Stress axis : x y z
#
# Youngs Moduli (GPa) = 50.41000 77.57671 40.87309
#
# Poissons Ratio (x) = 0.37844 0.14382
# Poissons Ratio (y) = 0.24591 0.33506
# Poissons Ratio (z) = 0.17737 0.63594
#
# Static dielectric constant tensor:
#      x y z
#    x 1.590730 0.000000 -0.002540 
#    y 0.000000 1.596640 0.000000 
#    z -0.002540 0.000000 1.604230 
# 
# From -- ./inp_files/17634.got.cif
#   From: 2010.05.17/outbox.cif.g08.bks.cpg/sg12_9_cif.got.tgz:17634.got - 2010.06.03 13:09:07.
