data_PCOD9200515
_publ_section_title
;
Structure prediction by ZEFSAII (Michael W. Deem and Ramdas Pophale) SiO2 
 PCOD9200515
Probable space group: C 2/M
;
_chemical_formula_sum "Si O2"
_cell_formula_units_Z 56
_cell_length_a 19.634946
_cell_length_b 22.334320
_cell_length_c 10.282350
_cell_angle_alpha 90.000000
_cell_angle_beta 42.392688
_cell_angle_gamma 90.000000
_cell_volume 3040.106660
_symmetry_space_group_name_H-M "C 2/M"
_symmetry_group_IT_number 12
_symmetry_cell_setting 'monoclinic'
loop_
_space_group_symop_operation_xyz
x,y,z
-x,y,-z
-x,-y,-z
x,-y,z
1/2+x,1/2+y,z
1/2-x,1/2+y,-z
1/2-x,1/2-y,-z
1/2+x,1/2-y,z
loop_
_atom_site_type_symbol
_atom_site_label
_atom_site_fract_x
_atom_site_fract_y
_atom_site_fract_z
Si Si1 0.681488 0.169585 0.498851
Si Si2 0.120710 0.264847 0.323469
Si Si3 0.769632 0.659599 0.055232
Si Si4 0.415979 0.931953 0.511188
Si Si5 0.892180 0.157123 0.090504
Si Si6 0.887076 0.296586 0.126760
Si Si7 0.796008 0.932777 0.033802
O O1 0.660586 0.214630 0.408498
O O2 0.603214 0.115452 0.576806
O O3 0.796775 0.147644 0.320608
O O4 0.667051 0.199768 0.657906
O O5 0.173344 0.202668 0.211499
O O6 0.000000 0.262423 0.500000
O O7 0.163608 0.311813 0.156399
O O8 0.833998 0.663069 0.094774
O O9 0.734434 0.594505 0.061430
O O10 0.500000 0.913614 0.500000
O O11 0.308126 0.933761 0.736716
O O12 0.440906 0.000000 0.434105
O O13 0.891625 0.228626 0.064251
O O14 0.868165 0.115525 0.001493
O O15 0.000000 0.142699 0.000000
O O16 0.000000 0.315484 0.000000
O O17 0.836493 0.000000 0.973126
#
# Coordination Sequence:
#
# PCOD9200515 Si02
#       7
#     8   8   8   8   8   8   8
#     4  11  20  36  54  86 118 151 188 232 291 354
#     4  11  21  35  61  86 116 156 193 234 294 353
#     4  11  21  39  55  88 120 149 197 244 281 349
#     4   9  18  33  56  83 109 148 200 243 277 335
#     4  10  20  37  58  85 115 147 193 242 285 342
#     4  11  23  35  56  87 126 152 180 235 301 355
#     4  10  21  38  60  82 111 154 204 247 282 334
#
# _framework density 18.420407000000001
#
# number of rings (size 3 to 8) (size 9 to 14) (size 15 to 20)
#    0.000    1.571    4.286    2.571    2.000    1.429 
#    0.000    0.714    0.000    1.286    0.000    0.000 
#    0.000    0.000    0.000    0.000    0.000    0.000 
#
# Total GULP energy -156265.108773 kJ/mol
# GULP energy per Si atom -5580.896742 kJ/mol
# Density = 1.837848 g / cm^3
# Si number density = 18.420407 Si / 1000 Ang^3
#
#
#
# Elastic Constant Matrix: (Units=GPa)
#
#
# Indices 1 2 3 4 5 6 
#
# 1 140.6209 43.9577 44.8363 0.0000 -2.7401 0.0000
# 2 43.9577 90.8845 21.5816 0.0000 12.5364 0.0000
# 3 44.8363 21.5816 70.4758 0.0000 4.2807 0.0000
# 4 0.0000 0.0000 0.0000 -1.7597 0.0000 13.6908
# 5 -2.7401 12.5364 4.2807 0.0000 40.7786 0.0000
# 6 0.0000 0.0000 0.0000 13.6908 0.0000 7.7140
#
#
#
# Elastic Compliance Matrix: (Units=1/GPa)
#
#
# Indices 1 2 3 4 5 6 
#
# 1 0.010106 -0.003952 -0.005369 0.000000 0.002458 0.000000
# 2 -0.003952 0.013866 -0.001466 0.000000 -0.004374 0.000000
# 3 -0.005369 -0.001466 0.018164 0.000000 -0.001817 0.000000
# 4 0.000000 0.000000 0.000000 -0.038376 0.000000 0.068109
# 5 0.002458 -0.004374 -0.001817 0.000000 0.026223 0.000000
# 6 0.000000 0.000000 0.000000 0.068109 0.000000 0.008754
#
#
# Mechanical properties :
#
#
# Convention : Reuss Voigt Hill
#
# Bulk Modulus (GPa) = 48.63186 58.08136 53.35661
# Shear Modulus (GPa) = 74.44138 22.12028 48.28083
#
# Velocity S-wave (km/s) = 6.36398 3.46910 5.12517
# Velocity P-wave (km/s) = 8.96987 6.90258 8.00326
#
# Compressibility (1/GPa) = 0.02056265
#
# Stress axis : x y z
#
# Youngs Moduli (GPa) = 98.94670 72.11828 55.05382
#
# Poissons Ratio (x) = 0.28503 0.29556
# Poissons Ratio (y) = 0.39107 0.08071
# Poissons Ratio (z) = 0.53121 0.10573
#
# Static dielectric constant tensor:
#      x y z
#    x 1.650070 0.000000 -0.009250 
#    y 0.000000 1.672570 0.000000 
#    z -0.009250 0.000000 1.659750 
# 
# From -- ./inp_files/79050.got.cif
#   From: 2010.05.17/outbox.cif.g08.bks.cpg/sg12_40_cif.got.tgz:79050.got - 2010.06.03 13:09:07.
