data_PCOD9200151
_publ_section_title
;
Structure prediction by ZEFSAII (Michael W. Deem and Ramdas Pophale) SiO2 
 PCOD9200151
Probable space group: C 2/M
;
_chemical_formula_sum "Si O2"
_cell_formula_units_Z 48
_cell_length_a 23.763473
_cell_length_b 20.210853
_cell_length_c 6.165382
_cell_angle_alpha 90.000000
_cell_angle_beta 133.241895
_cell_angle_gamma 90.000000
_cell_volume 2157.073572
_symmetry_space_group_name_H-M "C 2/M"
_symmetry_group_IT_number 12
_symmetry_cell_setting 'monoclinic'
loop_
_space_group_symop_operation_xyz
x,y,z
-x,y,-z
-x,-y,-z
x,-y,z
1/2+x,1/2+y,z
1/2-x,1/2+y,-z
1/2-x,1/2-y,-z
1/2+x,1/2-y,z
loop_
_atom_site_type_symbol
_atom_site_label
_atom_site_fract_x
_atom_site_fract_y
_atom_site_fract_z
Si Si1 0.562612 0.269344 0.987329
Si Si2 0.500000 0.158066 0.500000
Si Si3 0.871729 0.575687 0.414075
Si Si4 0.807233 0.677775 0.560210
Si Si5 0.268785 0.609290 0.262633
Si Si6 0.152229 0.136036 0.929593
Si Si7 0.824294 0.000000 0.762696
O O1 0.639699 0.241833 0.308204
O O2 0.584222 0.326076 0.873112
O O3 0.500000 0.289057 0.000000
O O4 0.532904 0.206230 0.772363
O O5 0.435515 0.112364 0.439916
O O6 0.891561 0.500000 0.513566
O O7 0.856575 0.616387 0.594123
O O8 0.792115 0.577933 0.067085
O O9 0.779766 0.663216 0.731235
O O10 0.729802 0.674957 0.212948
O O11 0.297858 0.557502 0.516218
O O12 0.340031 0.636132 0.309083
O O13 0.153977 0.059872 0.009376
#
# Coordination Sequence:
#
# PCOD9200151 Si02
#       7
#     8   4   8   8   8   8   4
#     4  12  25  46  63  87 132 177 221 262 314 378
#     4  12  25  42  60  89 138 184 220 252 298 387
#     4  11  22  38  60  97 133 173 211 249 313 381
#     4  10  22  40  65  94 129 166 213 270 312 374
#     4  10  20  36  64  96 130 156 201 271 322 375
#     4  10  24  40  68  98 123 165 214 269 329 383
#     4  10  20  40  67  99 124 156 204 275 330 379
#
# _framework density 22.252371
#
# number of rings (size 3 to 8) (size 9 to 14) (size 15 to 20)
#    0.000    1.333    4.167    1.250    9.333    3.333 
#    0.000    1.250    0.000    1.500    0.000    0.000 
#    0.000    0.000    0.000    0.000    0.000    0.000 
#
# Total GULP energy -133693.848048 kJ/mol
# GULP energy per Si atom -5570.577002 kJ/mol
# Density = 2.220172 g / cm^3
# Si number density = 22.252371 Si / 1000 Ang^3
#
#
#
# Elastic Constant Matrix: (Units=GPa)
#
#
# Indices 1 2 3 4 5 6 
#
# 1 197.3380 89.4504 14.7718 0.0000 -24.8625 0.0000
# 2 89.4504 123.2770 29.6787 0.0000 -11.0970 0.0000
# 3 14.7718 29.6787 31.9267 0.0000 -7.4804 0.0000
# 4 0.0000 0.0000 0.0000 31.8595 0.0000 -8.8458
# 5 -24.8625 -11.0970 -7.4804 0.0000 21.8815 0.0000
# 6 0.0000 0.0000 0.0000 -8.8458 0.0000 7.1968
#
#
#
# Elastic Compliance Matrix: (Units=1/GPa)
#
#
# Indices 1 2 3 4 5 6 
#
# 1 0.008762 -0.006589 0.003936 0.000000 0.007960 0.000000
# 2 -0.006589 0.015499 -0.012253 0.000000 -0.003815 0.000000
# 3 0.003936 -0.012253 0.044008 0.000000 0.013303 0.000000
# 4 0.000000 0.000000 0.000000 0.047649 0.000000 0.058566
# 5 0.007960 -0.003815 0.013303 0.000000 0.057358 0.000000
# 6 0.000000 0.000000 0.000000 0.058566 0.000000 0.210936
#
#
# Mechanical properties :
#
#
# Convention : Reuss Voigt Hill
#
# Bulk Modulus (GPa) = 26.00309 68.92705 47.46507
# Shear Modulus (GPa) = 11.71385 26.76360 19.23873
#
# Velocity S-wave (km/s) = 2.29685 3.47180 2.94355
# Velocity P-wave (km/s) = 4.32954 6.86394 5.73840
#
# Compressibility (1/GPa) = 0.03845697
#
# Stress axis : x y z
#
# Youngs Moduli (GPa) = 114.12324 64.51848 22.72313
#
# Poissons Ratio (x) = 0.42512 -0.08944
# Poissons Ratio (y) = 0.75197 0.27843
# Poissons Ratio (z) = -0.44919 0.79057
#
# Static dielectric constant tensor:
#      x y z
#    x 1.853280 0.000000 0.028500 
#    y 0.000000 1.825690 0.000000 
#    z 0.028500 0.000000 1.851050 
# 
# From -- ./inp_files/21746.got.cif
#   From: 2010.05.17/outbox.cif.g08.bks.cpg/sg12_11_cif.got.tgz:21746.got - 2010.06.03 13:09:07.
