data_PCOD9200404
_publ_section_title
;
Structure prediction by ZEFSAII (Michael W. Deem and Ramdas Pophale) SiO2 
 PCOD9200404
Probable space group: C 2/M
;
_chemical_formula_sum "Si O2"
_cell_formula_units_Z 56
_cell_length_a 17.421849
_cell_length_b 24.065694
_cell_length_c 9.319210
_cell_angle_alpha 90.000000
_cell_angle_beta 133.700729
_cell_angle_gamma 90.000000
_cell_volume 2824.782507
_symmetry_space_group_name_H-M "C 2/M"
_symmetry_group_IT_number 12
_symmetry_cell_setting 'monoclinic'
loop_
_space_group_symop_operation_xyz
x,y,z
-x,y,-z
-x,-y,-z
x,-y,z
1/2+x,1/2+y,z
1/2-x,1/2+y,-z
1/2-x,1/2-y,-z
1/2+x,1/2-y,z
loop_
_atom_site_type_symbol
_atom_site_label
_atom_site_fract_x
_atom_site_fract_y
_atom_site_fract_z
Si Si1 0.377695 0.933643 0.860317
Si Si2 0.517750 0.325894 0.183393
Si Si3 0.147989 0.217832 0.801113
Si Si4 0.881887 0.937271 0.975187
Si Si5 0.743011 0.109954 0.027520
Si Si6 0.760431 0.875480 0.561790
Si Si7 0.882323 0.326064 0.384154
O O1 0.298938 0.906711 0.642405
O O2 0.373933 0.000000 0.839763
O O3 0.500000 0.915512 0.000000
O O4 0.336827 0.916083 0.963781
O O5 0.445745 0.292010 0.203331
O O6 0.643139 0.335749 0.365476
O O7 0.500000 0.301959 0.000000
O O8 0.467181 0.388317 0.111077
O O9 0.117389 0.259865 0.636586
O O10 0.250000 0.250000 0.000000
O O11 0.183334 0.156299 0.800952
O O12 0.810943 0.934265 0.027154
O O13 0.813941 0.917487 0.748323
O O14 0.920679 0.000000 0.008595
O O15 0.687410 0.144805 0.829097
O O16 0.670907 0.842369 0.535541
O O17 0.000000 0.346318 0.500000
#
# Coordination Sequence:
#
# PCOD9200404 Si02
#       7
#     8   8   8   8   8   8   8
#     4  11  23  38  55  78 111 148 186 235 291 336
#     4   9  18  33  55  84 117 144 178 230 279 328
#     4   9  18  35  56  79 109 146 180 217 274 334
#     4   9  17  32  57  83 108 144 182 218 269 334
#     4   9  19  36  55  77 109 144 180 224 273 332
#     4  10  21  36  55  83 113 141 184 235 278 327
#     4  10  20  37  58  78 104 143 190 230 269 326
#
# _framework density 19.824534
#
# number of rings (size 3 to 8) (size 9 to 14) (size 15 to 20)
#    0.000    2.429    0.000    4.286    0.000    4.286 
#    0.000   13.571    0.000   11.143    0.000    0.000 
#    0.000    0.000    0.000    0.000    0.000    0.000 
#
# Total GULP energy -156083.246227 kJ/mol
# GULP energy per Si atom -5574.401651 kJ/mol
# Density = 1.977941 g / cm^3
# Si number density = 19.824534 Si / 1000 Ang^3
#
#
#
# Elastic Constant Matrix: (Units=GPa)
#
#
# Indices 1 2 3 4 5 6 
#
# 1 161.8101 31.9688 19.7426 0.0000 2.6818 0.0000
# 2 31.9688 70.0808 11.5175 0.0000 -3.9270 0.0000
# 3 19.7426 11.5175 41.5038 0.0000 2.8747 0.0000
# 4 0.0000 0.0000 0.0000 8.3494 0.0000 10.7547
# 5 2.6818 -3.9270 2.8747 0.0000 26.4284 0.0000
# 6 0.0000 0.0000 0.0000 10.7547 0.0000 9.2308
#
#
#
# Elastic Compliance Matrix: (Units=1/GPa)
#
#
# Indices 1 2 3 4 5 6 
#
# 1 0.007065 -0.002860 -0.002507 0.000000 -0.000869 0.000000
# 2 -0.002860 0.016301 -0.003377 0.000000 0.003080 0.000000
# 3 -0.002507 -0.003377 0.026440 0.000000 -0.003123 0.000000
# 4 0.000000 0.000000 0.000000 -0.239192 0.000000 0.278679
# 5 -0.000869 0.003080 -0.003123 0.000000 0.038724 0.000000
# 6 0.000000 0.000000 0.000000 0.278679 0.000000 -0.216351
#
#
# Mechanical properties :
#
#
# Convention : Reuss Voigt Hill
#
# Bulk Modulus (GPa) = 30.94077 44.42808 37.68442
# Shear Modulus (GPa) = -14.76004 22.81276 4.02636
#
# Velocity S-wave (km/s) = -2.73158 3.39593 1.42668
# Velocity P-wave (km/s) = 2.38590 6.15108 4.66520
#
# Compressibility (1/GPa) = 0.03231982
#
# Stress axis : x y z
#
# Youngs Moduli (GPa) = 141.53534 61.34494 37.82129
#
# Poissons Ratio (x) = 0.17543 0.09482
# Poissons Ratio (y) = 0.40475 0.12771
# Poissons Ratio (z) = 0.35484 0.20714
#
# Static dielectric constant tensor:
#      x y z
#    x 1.652470 0.000000 -0.052590 
#    y 0.000000 1.697370 0.000000 
#    z -0.052590 0.000000 1.620190 
# 
# From -- ./inp_files/79168.got.cif
#   From: 2010.05.17/outbox.cif.g08.bks.cpg/sg12_40_cif.got.tgz:79168.got - 2010.06.03 13:09:07.
