data_PCOD9200978
_publ_section_title
;
Structure prediction by ZEFSAII (Michael W. Deem and Ramdas Pophale) SiO2 
 PCOD9200978
Probable space group: C 2/M
;
_chemical_formula_sum "Si O2"
_cell_formula_units_Z 38
_cell_length_a 15.203034
_cell_length_b 14.264886
_cell_length_c 7.049640
_cell_angle_alpha 90.000000
_cell_angle_beta 92.946466
_cell_angle_gamma 90.000000
_cell_volume 1526.831088
_symmetry_space_group_name_H-M "C 2/M"
_symmetry_group_IT_number 12
_symmetry_cell_setting 'monoclinic'
loop_
_space_group_symop_operation_xyz
x,y,z
-x,y,-z
-x,-y,-z
x,-y,z
1/2+x,1/2+y,z
1/2-x,1/2+y,-z
1/2-x,1/2-y,-z
1/2+x,1/2-y,z
loop_
_atom_site_type_symbol
_atom_site_label
_atom_site_fract_x
_atom_site_fract_y
_atom_site_fract_z
Si Si1 0.708804 0.500000 0.450649
Si Si2 0.518093 0.708585 0.712288
Si Si3 0.500000 0.000000 0.000000
Si Si4 0.787990 0.808257 0.323303
Si Si5 0.885649 0.343969 0.879052
Si Si6 0.035054 0.000000 0.216162
Si Si7 0.599606 0.000000 0.445595
O O1 0.692584 0.409070 0.579313
O O2 0.639802 0.500000 0.270911
O O3 0.813417 0.500000 0.416262
O O4 0.500000 0.745488 0.500000
O O5 0.621046 0.729477 0.754643
O O6 0.445721 0.754686 0.839620
O O7 0.501724 0.597474 0.708986
O O8 0.426964 0.084643 0.036276
O O9 0.750000 0.750000 0.500000
O O10 0.716033 0.818064 0.150172
O O11 0.894642 0.411792 0.694509
O O12 0.000000 0.000000 0.000000
O O13 0.500000 0.000000 0.500000
#
# Coordination Sequence:
#
# PCOD9200978 Si02
#       7
#     4   8   2   8   8   4   4
#     4  10  20  37  60  87 133 163 210 280 331 378
#     4  12  22  41  72  96 130 176 229 280 334 394
#     4  10  24  46  64  88 148 184 196 272 362 410
#     4  11  21  38  69 103 122 169 233 286 319 386
#     4  10  22  40  66  93 132 173 219 268 339 400
#     4  12  26  42  62  98 139 181 217 278 354 419
#     4   9  19  34  60  95 118 155 223 275 311 378
#
# _framework density 24.888148000000001
#
# number of rings (size 3 to 8) (size 9 to 14) (size 15 to 20)
#    0.000    1.263    4.211    2.211    4.421    0.000 
#    0.000    5.263    0.000    0.000    0.000    0.000 
#    0.000    0.000    0.000    0.000    0.000    0.000 
#
# Total GULP energy -105958.418283 kJ/mol
# GULP energy per Si atom -5576.758857 kJ/mol
# Density = 2.483150 g / cm^3
# Si number density = 24.888148 Si / 1000 Ang^3
#
#
#
# Elastic Constant Matrix: (Units=GPa)
#
#
# Indices 1 2 3 4 5 6 
#
# 1 201.4856 26.8020 42.1429 0.0000 45.2060 0.0000
# 2 26.8020 152.5841 0.1745 0.0000 -1.9870 0.0000
# 3 42.1429 0.1745 81.2474 0.0000 32.4341 0.0000
# 4 0.0000 0.0000 0.0000 27.4995 0.0000 -3.2653
# 5 45.2060 -1.9870 32.4341 0.0000 50.8263 0.0000
# 6 0.0000 0.0000 0.0000 -3.2653 0.0000 42.0905
#
#
#
# Elastic Compliance Matrix: (Units=1/GPa)
#
#
# Indices 1 2 3 4 5 6 
#
# 1 0.006531 -0.001210 -0.001405 0.000000 -0.004959 0.000000
# 2 -0.001210 0.006783 0.000104 0.000000 0.001275 0.000000
# 3 -0.001405 0.000104 0.016821 0.000000 -0.009480 0.000000
# 4 0.000000 0.000000 0.000000 0.036702 0.000000 0.002847
# 5 -0.004959 0.001275 -0.009480 0.000000 0.030185 0.000000
# 6 0.000000 0.000000 0.000000 0.002847 0.000000 0.023979
#
#
# Mechanical properties :
#
#
# Convention : Reuss Voigt Hill
#
# Bulk Modulus (GPa) = 39.82075 63.72843 51.77459
# Shear Modulus (GPa) = 37.20381 48.49643 42.85012
#
# Velocity S-wave (km/s) = 3.87051 4.41906 4.15385
# Velocity P-wave (km/s) = 6.00076 7.19020 6.62224
#
# Compressibility (1/GPa) = 0.02511254
#
# Stress axis : x y z
#
# Youngs Moduli (GPa) = 153.12401 147.43155 59.44834
#
# Poissons Ratio (x) = 0.17841 0.08353
# Poissons Ratio (y) = 0.18530 -0.00619
# Poissons Ratio (z) = 0.21516 -0.01535
#
# Static dielectric constant tensor:
#      x y z
#    x 2.039990 0.000000 0.112230 
#    y 0.000000 1.983470 0.000000 
#    z 0.112230 0.000000 2.225150 
# 
# From -- ./inp_files/59045.got.cif
#   From: 2010.05.17/outbox.cif.g08.bks.cpg/sg12_30_cif.got.tgz:59045.got - 2010.06.03 13:09:07.
