data_PCOD9200530
_publ_section_title
;
Structure prediction by ZEFSAII (Michael W. Deem and Ramdas Pophale) SiO2 
 PCOD9200530
Probable space group: C 2/M
;
_chemical_formula_sum "Si O2"
_cell_formula_units_Z 40
_cell_length_a 9.019856
_cell_length_b 17.299200
_cell_length_c 21.269406
_cell_angle_alpha 90.000000
_cell_angle_beta 139.383240
_cell_angle_gamma 90.000000
_cell_volume 2160.526006
_symmetry_space_group_name_H-M "C 2/M"
_symmetry_group_IT_number 12
_symmetry_cell_setting 'monoclinic'
loop_
_space_group_symop_operation_xyz
x,y,z
-x,y,-z
-x,-y,-z
x,-y,z
1/2+x,1/2+y,z
1/2-x,1/2+y,-z
1/2-x,1/2-y,-z
1/2+x,1/2-y,z
loop_
_atom_site_type_symbol
_atom_site_label
_atom_site_fract_x
_atom_site_fract_y
_atom_site_fract_z
Si Si1 0.474964 0.833062 0.190704
Si Si2 0.886591 0.000000 0.055795
Si Si3 0.681764 0.857144 0.609301
Si Si4 0.500000 0.363907 0.000000
Si Si5 0.934769 0.500000 0.834182
Si Si6 0.040919 0.000000 0.248821
Si Si7 0.570159 0.757479 0.690546
O O1 0.230754 0.815864 0.080440
O O2 0.521383 0.922875 0.191566
O O3 0.455349 0.813390 0.257798
O O4 0.682723 0.783714 0.229462
O O5 0.950686 0.000000 0.148718
O O6 0.985726 0.076787 0.054202
O O7 0.619923 0.000000 0.950537
O O8 0.500000 0.885880 0.500000
O O9 0.559894 0.803308 0.621949
O O10 0.873686 0.806116 0.635946
O O11 0.809494 0.925182 0.687047
O O12 0.681394 0.500000 0.778866
#
# Coordination Sequence:
#
# PCOD9200530 Si02
#       7
#     8   4   8   4   4   4   8
#     4  10  20  37  58  86 115 158 188 237 280 340
#     4   9  19  33  57  87 115 156 188 227 286 344
#     4  11  23  40  62  86 114 150 194 242 291 343
#     4   9  18  34  56  86 120 151 194 224 278 345
#     4  10  20  38  60  83 117 154 196 230 275 345
#     4  12  21  37  61  88 116 144 196 248 282 326
#     4  10  22  39  60  83 118 154 188 231 300 342
#
# _framework density 18.514009000000001
#
# number of rings (size 3 to 8) (size 9 to 14) (size 15 to 20)
#    0.000    1.800    2.000    3.000    0.000    1.600 
#    0.000    2.000    0.000    1.200    0.000    0.000 
#    0.000    0.000    0.000    0.000    0.000    0.000 
#
# Total GULP energy -111678.197397 kJ/mol
# GULP energy per Si atom -5583.909870 kJ/mol
# Density = 1.847187 g / cm^3
# Si number density = 18.514009 Si / 1000 Ang^3
#
#
#
# Elastic Constant Matrix: (Units=GPa)
#
#
# Indices 1 2 3 4 5 6 
#
# 1 89.8619 18.5291 28.2187 0.0000 -0.6458 0.0000
# 2 18.5291 59.5210 27.8767 0.0000 -10.3662 0.0000
# 3 28.2187 27.8767 89.1994 -0.0002 -1.5965 -0.0001
# 4 0.0000 0.0000 -0.0002 -4.8857 -0.0002 -10.4926
# 5 -0.6458 -10.3662 -1.5965 -0.0002 15.7215 -0.0002
# 6 0.0000 0.0000 -0.0001 -10.4926 -0.0002 7.6463
#
#
#
# Elastic Compliance Matrix: (Units=1/GPa)
#
#
# Indices 1 2 3 4 5 6 
#
# 1 0.012681 -0.002735 -0.003186 0.000000 -0.001606 0.000000
# 2 -0.002735 0.023009 -0.006067 0.000000 0.014443 0.000000
# 3 -0.003186 -0.006067 0.014066 0.000000 -0.002703 0.000000
# 4 0.000000 0.000000 0.000000 -0.051857 -0.000002 -0.071160
# 5 -0.001606 0.014443 -0.002703 -0.000002 0.072790 -0.000001
# 6 0.000000 0.000000 0.000000 -0.071160 -0.000001 0.033134
#
#
# Mechanical properties :
#
#
# Convention : Reuss Voigt Hill
#
# Bulk Modulus (GPa) = 38.78894 43.09238 40.94066
# Shear Modulus (GPa) = 36.65868 14.62696 25.64282
#
# Velocity S-wave (km/s) = 4.45460 2.81383 3.72566
# Velocity P-wave (km/s) = 6.88873 5.82090 6.37721
#
# Compressibility (1/GPa) = 0.02578055
#
# Stress axis : x y z
#
# Youngs Moduli (GPa) = 78.85803 43.46083 71.09186
#
# Poissons Ratio (x) = 0.11888 0.22647
# Poissons Ratio (y) = 0.21571 0.43131
# Poissons Ratio (z) = 0.25121 0.26368
#
# Static dielectric constant tensor:
#      x y z
#    x 1.632370 0.000000 0.019850 
#    y 0.000000 1.621010 0.000000 
#    z 0.019850 0.000000 1.622680 
# 
# From -- ./inp_files/120371.got.cif
#   From: 2010.05.17/outbox.cif.g08.bks.cpg/sg12_61_cif.got.tgz:120371.got - 2010.06.03 13:09:07.
