data_PCOD9200563
_publ_section_title
;
Structure prediction by ZEFSAII (Michael W. Deem and Ramdas Pophale) SiO2 
 PCOD9200563
Probable space group: C 2/M
;
_chemical_formula_sum "Si O2"
_cell_formula_units_Z 52
_cell_length_a 18.861189
_cell_length_b 12.017063
_cell_length_c 19.336503
_cell_angle_alpha 90.000000
_cell_angle_beta 42.329955
_cell_angle_gamma 90.000000
_cell_volume 2951.330719
_symmetry_space_group_name_H-M "C 2/M"
_symmetry_group_IT_number 12
_symmetry_cell_setting 'monoclinic'
loop_
_space_group_symop_operation_xyz
x,y,z
-x,y,-z
-x,-y,-z
x,-y,z
1/2+x,1/2+y,z
1/2-x,1/2+y,-z
1/2-x,1/2-y,-z
1/2+x,1/2-y,z
loop_
_atom_site_type_symbol
_atom_site_label
_atom_site_fract_x
_atom_site_fract_y
_atom_site_fract_z
Si Si1 0.924612 0.211109 0.989844
Si Si2 0.898438 0.000000 0.917317
Si Si3 0.717941 0.276870 0.600326
Si Si4 0.763097 0.800297 0.783621
Si Si5 0.125538 0.366514 0.398807
Si Si6 0.593093 0.129808 0.793477
Si Si7 0.622435 0.500000 0.225211
Si Si8 0.088555 0.000000 0.690091
O O1 0.995657 0.297744 0.894089
O O2 0.884864 0.110112 0.971526
O O3 0.821127 0.262861 0.098470
O O4 0.000000 0.174731 0.000000
O O5 0.843893 0.000000 0.880872
O O6 0.021728 0.000000 0.808561
O O7 0.750000 0.250000 0.500000
O O8 0.815591 0.305246 0.580131
O O9 0.641335 0.184883 0.689725
O O10 0.654851 0.390574 0.641739
O O11 0.827564 0.698718 0.701886
O O12 0.688989 0.856344 0.778742
O O13 0.837749 0.891567 0.764105
O O14 0.149466 0.500000 0.379343
O O15 0.000000 0.355099 0.500000
O O16 0.565902 0.000000 0.805610
O O17 0.496687 0.500000 0.309449
#
# Coordination Sequence:
#
# PCOD9200563 Si02
#       8
#     8   4   8   8   8   8   4   4
#     4  10  21  35  63  88 117 152 199 253 288 347
#     4  10  21  38  58  85 118 156 195 242 295 346
#     4  11  23  39  64  88 118 158 200 249 299 355
#     4  10  22  37  61  88 117 161 196 241 295 356
#     4  10  23  42  63  88 120 154 200 252 299 355
#     4  10  20  37  58  92 119 151 203 243 295 351
#     4  10  22  39  59  81 128 156 193 238 301 356
#     4  10  22  41  60  81 120 152 197 247 294 341
#
# _framework density 17.61917
#
# number of rings (size 3 to 8) (size 9 to 14) (size 15 to 20)
#    0.462    1.385    3.077    0.231    5.385    1.538 
#    0.000    0.385    0.000    0.000    0.000    0.000 
#    0.000    0.000    0.000    0.000    0.000    0.000 
#
# Total GULP energy -144882.779805 kJ/mol
# GULP energy per Si atom -5572.414608 kJ/mol
# Density = 1.757907 g / cm^3
# Si number density = 17.619170 Si / 1000 Ang^3
#
#
#
# Elastic Constant Matrix: (Units=GPa)
#
#
# Indices 1 2 3 4 5 6 
#
# 1 63.0712 33.0007 34.1297 0.0000 1.9822 0.0000
# 2 33.0007 109.6901 49.3870 0.0000 15.0806 0.0000
# 3 34.1297 49.3870 121.4237 0.0000 14.3110 0.0000
# 4 0.0000 0.0000 0.0000 53.4334 0.0000 -11.2082
# 5 1.9822 15.0806 14.3110 0.0000 29.8583 0.0000
# 6 0.0000 0.0000 0.0000 -11.2082 0.0000 55.9346
#
#
#
# Elastic Compliance Matrix: (Units=1/GPa)
#
#
# Indices 1 2 3 4 5 6 
#
# 1 0.020489 -0.004684 -0.004210 0.000000 0.003024 0.000000
# 2 -0.004684 0.012624 -0.003289 0.000000 -0.004489 0.000000
# 3 -0.004210 -0.003289 0.011158 0.000000 -0.003408 0.000000
# 4 0.000000 0.000000 0.000000 0.019536 0.000000 0.003915
# 5 0.003024 -0.004489 -0.003408 0.000000 0.037191 0.000000
# 6 0.000000 0.000000 0.000000 0.003915 0.000000 0.018662
#
#
# Mechanical properties :
#
#
# Convention : Reuss Voigt Hill
#
# Bulk Modulus (GPa) = 50.23953 58.57998 54.40975
# Shear Modulus (GPa) = 33.18673 39.68977 36.43825
#
# Velocity S-wave (km/s) = 4.34471 4.75135 4.55257
# Velocity P-wave (km/s) = 7.33108 7.96370 7.65393
#
# Compressibility (1/GPa) = 0.01990465
#
# Stress axis : x y z
#
# Youngs Moduli (GPa) = 48.80583 79.21566 89.61943
#
# Poissons Ratio (x) = 0.37108 0.37732
# Poissons Ratio (y) = 0.22863 0.29474
# Poissons Ratio (z) = 0.20548 0.26052
#
# Static dielectric constant tensor:
#      x y z
#    x 1.591180 0.000000 -0.012820 
#    y 0.000000 1.572210 0.000000 
#    z -0.012820 0.000000 1.538860 
# 
# From -- ./inp_files/283258.got.cif
#   From: 2010.05.17/outbox.cif.g08.bks.cpg/sg12_142_cif.got.tgz:283258.got - 2010.06.03 13:09:07.
