data_PCOD9200576
_publ_section_title
;
Structure prediction by ZEFSAII (Michael W. Deem and Ramdas Pophale) SiO2 
 PCOD9200576
Probable space group: C 2/M
;
_chemical_formula_sum "Si O2"
_cell_formula_units_Z 56
_cell_length_a 9.802333
_cell_length_b 18.669261
_cell_length_c 18.907743
_cell_angle_alpha 90.000000
_cell_angle_beta 70.590573
_cell_angle_gamma 90.000000
_cell_volume 3263.512832
_symmetry_space_group_name_H-M "C 2/M"
_symmetry_group_IT_number 12
_symmetry_cell_setting 'monoclinic'
loop_
_space_group_symop_operation_xyz
x,y,z
-x,y,-z
-x,-y,-z
x,-y,z
1/2+x,1/2+y,z
1/2-x,1/2+y,-z
1/2-x,1/2-y,-z
1/2+x,1/2-y,z
loop_
_atom_site_type_symbol
_atom_site_label
_atom_site_fract_x
_atom_site_fract_y
_atom_site_fract_z
Si Si1 0.717086 0.582796 0.158572
Si Si2 0.937444 0.676098 0.311731
Si Si3 0.380189 0.680395 0.700308
Si Si4 0.375980 0.084397 0.462843
Si Si5 0.067019 0.081475 0.566469
Si Si6 0.956771 0.582215 0.832344
Si Si7 0.346462 0.087165 0.994687
O O1 0.664828 0.500000 0.172890
O O2 0.635375 0.638376 0.222590
O O3 0.727515 0.605132 0.074232
O O4 0.883017 0.581160 0.159233
O O5 0.780553 0.692007 0.303822
O O6 0.910258 0.630897 0.387907
O O7 0.029000 0.747208 0.309605
O O8 0.027074 0.628917 0.239954
O O9 0.467395 0.628589 0.632960
O O10 0.500000 0.088614 0.500000
O O11 0.229018 0.109010 0.526491
O O12 0.356127 0.000000 0.446067
O O13 0.000000 0.079677 0.500000
O O14 0.073489 0.000000 0.592862
O O15 0.920911 0.500000 0.820749
O O16 0.847350 0.609180 0.912486
O O17 0.350941 0.000000 0.992734
O O18 0.500000 0.112168 0.000000
#
# Coordination Sequence:
#
# PCOD9200576 Si02
#       7
#     8   8   8   8   8   8   8
#     4   8  14  27  49  75 101 129 168 214 254 295
#     4  11  23  36  51  74 107 140 172 209 252 305
#     4  11  23  35  51  75 106 141 172 208 254 302
#     4  10  22  39  59  80 101 128 166 214 261 303
#     4  10  20  37  59  79  98 126 171 215 253 302
#     4   8  14  27  50  75  99 130 169 212 255 298
#     4   7  10  20  43  75 101 122 159 213 259 291
#
# _framework density 17.159424999999999
#
# number of rings (size 3 to 8) (size 9 to 14) (size 15 to 20)
#    0.000    2.714    1.429    2.571    2.000    2.286 
#    0.000    0.714    0.000    0.000    0.000    0.000 
#    0.000    3.429    0.000    0.000    0.000    0.000 
#
# Total GULP energy -155917.380872 kJ/mol
# GULP energy per Si atom -5568.477888 kJ/mol
# Density = 1.712037 g / cm^3
# Si number density = 17.159425 Si / 1000 Ang^3
#
#
#
# Elastic Constant Matrix: (Units=GPa)
#
#
# Indices 1 2 3 4 5 6 
#
# 1 45.6513 21.9999 33.0883 0.0000 -5.9995 0.0000
# 2 21.9999 80.0434 72.7015 0.0000 -0.2065 0.0000
# 3 33.0883 72.7015 146.5833 0.0000 -0.9741 0.0000
# 4 0.0000 0.0000 0.0000 6.6365 0.0000 -15.1349
# 5 -5.9995 -0.2065 -0.9741 0.0000 11.7257 0.0000
# 6 0.0000 0.0000 0.0000 -15.1349 0.0000 21.8230
#
#
#
# Elastic Compliance Matrix: (Units=1/GPa)
#
#
# Indices 1 2 3 4 5 6 
#
# 1 0.028913 -0.003764 -0.004564 0.000000 0.014348 0.000000
# 2 -0.003764 0.023228 -0.010687 0.000000 -0.002405 0.000000
# 3 -0.004564 -0.010687 0.013143 0.000000 -0.001432 0.000000
# 4 0.000000 0.000000 0.000000 -0.259066 0.000000 -0.179670
# 5 0.014348 -0.002405 -0.001432 0.000000 0.092463 0.000000
# 6 0.000000 0.000000 0.000000 -0.179670 0.000000 -0.078783
#
#
# Mechanical properties :
#
#
# Convention : Reuss Voigt Hill
#
# Bulk Modulus (GPa) = 36.69198 58.65080 47.67139
# Shear Modulus (GPa) = -37.59754 17.66959 -9.96397
#
# Velocity S-wave (km/s) = -4.68597 3.21242 -2.41233
# Velocity P-wave (km/s) = 2.80148 6.92919 4.48137
#
# Compressibility (1/GPa) = 0.02725392
#
# Stress axis : x y z
#
# Youngs Moduli (GPa) = 34.58662 43.05108 76.08449
#
# Poissons Ratio (x) = 0.16205 0.34727
# Poissons Ratio (y) = 0.13018 0.81311
# Poissons Ratio (z) = 0.15786 0.46008
#
# Static dielectric constant tensor:
#      x y z
#    x 1.604950 0.000000 -0.007370 
#    y 0.000000 1.574800 0.000000 
#    z -0.007370 0.000000 1.608880 
# 
# From -- ./inp_files/300658.got.cif
#   From: 2010.05.17/outbox.cif.g08.bks.cpg/sg12_151_cif.got.tgz:300658.got - 2010.06.03 13:09:07.
