data_PCOD9200188
_publ_section_title
;
Structure prediction by ZEFSAII (Michael W. Deem and Ramdas Pophale) SiO2 
 PCOD9200188
Probable space group: C 2/M
;
_chemical_formula_sum "Si O2"
_cell_formula_units_Z 60
_cell_length_a 18.999957
_cell_length_b 9.169369
_cell_length_c 18.697769
_cell_angle_alpha 90.000000
_cell_angle_beta 111.526486
_cell_angle_gamma 90.000000
_cell_volume 3030.265108
_symmetry_space_group_name_H-M "C 2/M"
_symmetry_group_IT_number 12
_symmetry_cell_setting 'monoclinic'
loop_
_space_group_symop_operation_xyz
x,y,z
-x,y,-z
-x,-y,-z
x,-y,z
1/2+x,1/2+y,z
1/2-x,1/2+y,-z
1/2-x,1/2-y,-z
1/2+x,1/2-y,z
loop_
_atom_site_type_symbol
_atom_site_label
_atom_site_fract_x
_atom_site_fract_y
_atom_site_fract_z
Si Si1 0.720684 0.833175 0.206144
Si Si2 0.624160 0.672945 0.269540
Si Si3 0.045938 0.835555 0.740757
Si Si4 0.680695 0.175977 0.430709
Si Si5 0.913298 0.170490 0.492568
Si Si6 0.749365 0.000000 0.965825
Si Si7 0.312034 0.294374 0.104266
Si Si8 0.640634 0.173053 0.666119
O O1 0.645442 0.750746 0.203039
O O2 0.742271 0.837990 0.130842
O O3 0.786969 0.736340 0.265708
O O4 0.721822 0.000000 0.232860
O O5 0.641865 0.500000 0.274879
O O6 0.536278 0.688953 0.256927
O O7 0.672355 0.755586 0.348763
O O8 0.110920 0.831861 0.825489
O O9 0.070328 0.720698 0.689789
O O10 0.046993 0.000000 0.708653
O O11 0.750000 0.250000 0.500000
O O12 0.606925 0.233907 0.446025
O O13 0.686290 0.000000 0.431977
O O14 0.866299 0.240923 0.410479
O O15 0.000000 0.178671 0.500000
O O16 0.894352 0.000000 0.497928
O O17 0.696387 0.874579 0.910729
O O18 0.801202 0.875866 0.025997
O O19 0.644450 0.000000 0.657105
#
# Coordination Sequence:
#
# PCOD9200188 Si02
#       8
#     8   8   8   8   8   4   8   8
#     4  11  22  39  59  86 120 154 197 241 290 340
#     4  11  24  40  61  85 119 162 201 247 297 356
#     4  10  21  39  59  87 124 159 199 241 299 351
#     4  12  25  42  61  84 116 156 204 253 304 359
#     4  11  23  39  58  81 114 152 193 245 305 356
#     4  10  20  36  66  96 124 150 198 232 292 342
#     4  10  20  38  64  96 119 159 191 245 281 349
#     4  11  22  35  58  86 113 149 198 250 293 349
#
# _framework density 19.800248
#
# number of rings (size 3 to 8) (size 9 to 14) (size 15 to 20)
#    0.000    1.200    1.333    6.000    4.667    5.333 
#    0.000    0.000    0.000    4.800    0.000    0.000 
#    0.000    0.000    0.000    0.000    0.000    0.000 
#
# Total GULP energy -167084.771136 kJ/mol
# GULP energy per Si atom -5569.492371 kJ/mol
# Density = 1.975518 g / cm^3
# Si number density = 19.800248 Si / 1000 Ang^3
#
#
#
# Elastic Constant Matrix: (Units=GPa)
#
#
# Indices 1 2 3 4 5 6 
#
# 1 84.3412 36.7661 8.0613 0.0000 -4.0413 0.0000
# 2 36.7661 178.4375 12.2388 0.0000 0.6220 0.0000
# 3 8.0613 12.2388 32.2637 0.0000 7.4968 0.0000
# 4 0.0000 0.0000 0.0000 23.2922 0.0000 6.8097
# 5 -4.0413 0.6220 7.4968 0.0000 9.3493 0.0000
# 6 0.0000 0.0000 0.0000 6.8097 0.0000 18.9023
#
#
#
# Elastic Compliance Matrix: (Units=1/GPa)
#
#
# Indices 1 2 3 4 5 6 
#
# 1 0.013923 -0.002572 -0.004844 0.000000 0.010074 0.000000
# 2 -0.002572 0.006250 -0.001688 0.000000 -0.000174 0.000000
# 3 -0.004844 -0.001688 0.040932 0.000000 -0.034803 0.000000
# 4 0.000000 0.000000 0.000000 0.047987 0.000000 -0.017288
# 5 0.010074 -0.000174 -0.034803 0.000000 0.139233 0.000000
# 6 0.000000 0.000000 0.000000 -0.017288 0.000000 0.059132
#
#
# Mechanical properties :
#
#
# Convention : Reuss Voigt Hill
#
# Bulk Modulus (GPa) = 23.31091 45.46387 34.38739
# Shear Modulus (GPa) = 14.70740 26.17383 20.44061
#
# Velocity S-wave (km/s) = 2.72837 3.63973 3.21649
# Velocity P-wave (km/s) = 4.66090 6.37767 5.58563
#
# Compressibility (1/GPa) = 0.04289836
#
# Stress axis : x y z
#
# Youngs Moduli (GPa) = 71.82185 159.98776 24.43065
#
# Poissons Ratio (x) = 0.41144 0.11834
# Poissons Ratio (y) = 0.18470 0.04124
# Poissons Ratio (z) = 0.34791 0.27007
#
# Static dielectric constant tensor:
#      x y z
#    x 1.756900 0.000000 -0.027150 
#    y 0.000000 1.696540 0.000000 
#    z -0.027150 0.000000 1.737180 
# 
# From -- ./inp_files/319289.got.cif
#   From: 2010.05.17/outbox.cif.g08.bks.cpg/sg12_160_cif.got.tgz:319289.got - 2010.06.03 13:09:07.
