data_PCOD9200277
_publ_section_title
;
Structure prediction by ZEFSAII (Michael W. Deem and Ramdas Pophale) SiO2 
 PCOD9200277
Probable space group: C 2/M
;
_chemical_formula_sum "Si O2"
_cell_formula_units_Z 48
_cell_length_a 12.980551
_cell_length_b 18.329248
_cell_length_c 10.359886
_cell_angle_alpha 90.000000
_cell_angle_beta 110.931993
_cell_angle_gamma 90.000000
_cell_volume 2302.194512
_symmetry_space_group_name_H-M "C 2/M"
_symmetry_group_IT_number 12
_symmetry_cell_setting 'monoclinic'
loop_
_space_group_symop_operation_xyz
x,y,z
-x,y,-z
-x,-y,-z
x,-y,z
1/2+x,1/2+y,z
1/2-x,1/2+y,-z
1/2-x,1/2-y,-z
1/2+x,1/2-y,z
loop_
_atom_site_type_symbol
_atom_site_label
_atom_site_fract_x
_atom_site_fract_y
_atom_site_fract_z
Si Si1 0.590167 0.316123 0.705342
Si Si2 0.387817 0.586049 0.030428
Si Si3 0.841407 0.813274 0.542911
Si Si4 0.331687 0.084332 0.464067
Si Si5 0.976544 0.586079 0.267768
Si Si6 0.196872 0.311612 0.881601
O O1 0.605041 0.373095 0.828102
O O2 0.462068 0.292555 0.646846
O O3 0.631076 0.345215 0.586619
O O4 0.659582 0.241793 0.751383
O O5 0.365427 0.500000 0.035055
O O6 0.500000 0.594922 0.000000
O O7 0.290282 0.627594 0.912206
O O8 0.750000 0.750000 0.500000
O O9 0.782937 0.875308 0.598468
O O10 0.401537 0.089872 0.364149
O O11 0.404874 0.109672 0.620841
O O12 0.312516 0.000000 0.478588
O O13 0.980065 0.500000 0.229822
O O14 0.914961 0.640770 0.141329
O O15 0.250000 0.250000 0.000000
#
# Coordination Sequence:
#
# PCOD9200277 Si02
#       6
#     8   8   8   8   8   8
#     4  10  24  39  57  92 122 155 201 251 300 365
#     4  10  23  41  63  88 116 160 211 255 303 359
#     4  11  22  37  60  88 124 159 193 241 310 371
#     4   9  19  33  56  87 115 149 190 237 298 359
#     4   9  17  33  57  87 115 144 195 248 290 353
#     4  10  20  37  56  80 114 152 198 244 297 344
#
# _framework density 20.849672999999999
#
# number of rings (size 3 to 8) (size 9 to 14) (size 15 to 20)
#    0.000    2.167    0.000    3.500    4.667    4.000 
#    0.000    1.667    0.000    0.000    0.000    7.000 
#    0.000    0.000    0.000    0.000    0.000    0.000 
#
# Total GULP energy -133691.989073 kJ/mol
# GULP energy per Si atom -5570.499545 kJ/mol
# Density = 2.080222 g / cm^3
# Si number density = 20.849673 Si / 1000 Ang^3
#
#
#
# Elastic Constant Matrix: (Units=GPa)
#
#
# Indices 1 2 3 4 5 6 
#
# 1 81.6057 28.8225 32.9187 0.0000 10.0886 0.0000
# 2 28.8225 108.8136 39.3809 0.0000 1.8535 0.0000
# 3 32.9187 39.3809 77.2296 0.0000 13.6467 0.0000
# 4 0.0000 0.0000 0.0000 27.7390 0.0000 11.4899
# 5 10.0886 1.8535 13.6467 0.0000 23.6357 0.0000
# 6 0.0000 0.0000 0.0000 11.4899 0.0000 28.1480
#
#
#
# Elastic Compliance Matrix: (Units=1/GPa)
#
#
# Indices 1 2 3 4 5 6 
#
# 1 0.015441 -0.002305 -0.004759 0.000000 -0.003662 0.000000
# 2 -0.002305 0.011772 -0.005603 0.000000 0.003296 0.000000
# 3 -0.004759 -0.005603 0.019374 0.000000 -0.008715 0.000000
# 4 0.000000 0.000000 0.000000 0.043386 0.000000 -0.017710
# 5 -0.003662 0.003296 -0.008715 0.000000 0.048646 0.000000
# 6 0.000000 0.000000 0.000000 -0.017710 0.000000 0.042756
#
#
# Mechanical properties :
#
#
# Convention : Reuss Voigt Hill
#
# Bulk Modulus (GPa) = 47.05198 52.21038 49.63118
# Shear Modulus (GPa) = 23.38725 27.00633 25.19679
#
# Velocity S-wave (km/s) = 3.35283 3.60292 3.48012
# Velocity P-wave (km/s) = 6.13228 6.51181 6.32489
#
# Compressibility (1/GPa) = 0.02125309
#
# Stress axis : x y z
#
# Youngs Moduli (GPa) = 64.76407 84.94623 51.61628
#
# Poissons Ratio (x) = 0.19582 0.24564
# Poissons Ratio (y) = 0.14930 0.28919
# Poissons Ratio (z) = 0.30820 0.47592
#
# Static dielectric constant tensor:
#      x y z
#    x 1.725870 0.000000 0.032940 
#    y 0.000000 1.764150 0.000000 
#    z 0.032940 0.000000 1.831990 
# 
# From -- ./inp_files/131782.got.cif
#   From: 2010.05.17/outbox.cif.g08.bks.cpg/sg12_66_cif.got.tgz:131782.got - 2010.06.03 13:09:07.
