data_PCOD9200222
_publ_section_title
;
Structure prediction by ZEFSAII (Michael W. Deem and Ramdas Pophale) SiO2 
 PCOD9200222
Probable space group: C 2/M
;
_chemical_formula_sum "Si O2"
_cell_formula_units_Z 52
_cell_length_a 19.293495
_cell_length_b 28.880693
_cell_length_c 5.055998
_cell_angle_alpha 90.000000
_cell_angle_beta 97.832514
_cell_angle_gamma 90.000000
_cell_volume 2790.967079
_symmetry_space_group_name_H-M "C 2/M"
_symmetry_group_IT_number 12
_symmetry_cell_setting 'monoclinic'
loop_
_space_group_symop_operation_xyz
x,y,z
-x,y,-z
-x,-y,-z
x,-y,z
1/2+x,1/2+y,z
1/2-x,1/2+y,-z
1/2-x,1/2-y,-z
1/2+x,1/2-y,z
loop_
_atom_site_type_symbol
_atom_site_label
_atom_site_fract_x
_atom_site_fract_y
_atom_site_fract_z
Si Si1 0.922050 0.274204 0.391846
Si Si2 0.357280 0.446565 0.029828
Si Si3 0.500000 0.388542 0.000000
Si Si4 0.417565 0.666895 0.336630
Si Si5 0.312741 0.398093 0.517545
Si Si6 0.832647 0.716829 0.827735
Si Si7 0.785114 0.819772 0.880751
O O1 0.921479 0.218838 0.443375
O O2 0.866317 0.295584 0.566059
O O3 0.000000 0.290838 0.500000
O O4 0.894799 0.279891 0.078739
O O5 0.367459 0.500000 0.103159
O O6 0.433282 0.422144 0.023218
O O7 0.309287 0.421511 0.227804
O O8 0.319547 0.438882 0.731520
O O9 0.486242 0.351849 0.229751
O O10 0.385229 0.630101 0.520453
O O11 0.357111 0.669012 0.073683
O O12 0.269807 0.357574 0.646172
O O13 0.796269 0.767520 0.780608
O O14 0.775088 0.683791 0.929662
#
# Coordination Sequence:
#
# PCOD9200222 Si02
#       7
#     8   8   4   8   8   8   8
#     4  11  23  34  51  74 106 133 172 208 269 308
#     4  11  24  37  51  71 101 135 179 228 274 310
#     4  10  21  36  52  72  96 136 180 232 268 308
#     4  10  22  32  54  74  98 132 179 231 265 309
#     4  11  20  37  54  72  94 130 175 224 268 308
#     4  10  23  34  54  74 103 134 164 226 261 310
#     4  10  20  37  53  76 100 127 180 216 274 305
#
# _framework density 18.631533000000001
#
# number of rings (size 3 to 8) (size 9 to 14) (size 15 to 20)
#    0.000    1.538    4.615    1.154    8.615    3.692 
#    0.000    3.846    0.000    0.000    0.000    0.000 
#    0.000    0.000    0.000    0.000    0.000   53.846 
#
# Total GULP energy -144916.995880 kJ/mol
# GULP energy per Si atom -5573.730611 kJ/mol
# Density = 1.858913 g / cm^3
# Si number density = 18.631533 Si / 1000 Ang^3
#
#
#
# Elastic Constant Matrix: (Units=GPa)
#
#
# Indices 1 2 3 4 5 6 
#
# 1 43.0815 16.7173 16.1513 0.0000 -7.3389 0.0000
# 2 16.7173 59.5400 26.8196 0.0000 -16.1350 0.0000
# 3 16.1513 26.8196 97.1799 0.0000 -20.5987 0.0000
# 4 0.0000 0.0000 0.0000 23.3517 0.0000 -5.6880
# 5 -7.3389 -16.1350 -20.5987 0.0000 32.0025 0.0000
# 6 0.0000 0.0000 0.0000 -5.6880 0.0000 17.4966
#
#
#
# Elastic Compliance Matrix: (Units=1/GPa)
#
#
# Indices 1 2 3 4 5 6 
#
# 1 0.026716 -0.005976 -0.002468 0.000000 0.001525 0.000000
# 2 -0.005976 0.022089 -0.003512 0.000000 0.007506 0.000000
# 3 -0.002468 -0.003512 0.012940 0.000000 0.005992 0.000000
# 4 0.000000 0.000000 0.000000 0.046506 0.000000 0.015119
# 5 0.001525 0.007506 0.005992 0.000000 0.039239 0.000000
# 6 0.000000 0.000000 0.000000 0.015119 0.000000 0.062069
#
#
# Mechanical properties :
#
#
# Convention : Reuss Voigt Hill
#
# Bulk Modulus (GPa) = 26.43173 35.46420 30.94796
# Shear Modulus (GPa) = 20.31852 23.91106 22.11479
#
# Velocity S-wave (km/s) = 3.30592 3.58629 3.44896
# Velocity P-wave (km/s) = 5.36559 6.01868 5.70149
#
# Compressibility (1/GPa) = 0.03783332
#
# Stress axis : x y z
#
# Youngs Moduli (GPa) = 37.43112 45.27046 77.28185
#
# Poissons Ratio (x) = 0.27055 0.19070
# Poissons Ratio (y) = 0.22370 0.27141
# Poissons Ratio (z) = 0.09236 0.15899
#
# Static dielectric constant tensor:
#      x y z
#    x 1.701040 0.000000 0.048230 
#    y 0.000000 1.655120 0.000000 
#    z 0.048230 0.000000 1.759970 
# 
# From -- ./inp_files/17958.got.cif
#   From: 2010.05.17/outbox.cif.g08.bks.cpg/sg12_9_cif.got.tgz:17958.got - 2010.06.03 13:09:07.
