data_PCOD9200660
_publ_section_title
;
Structure prediction by ZEFSAII (Michael W. Deem and Ramdas Pophale) SiO2 
 PCOD9200660
Probable space group: C 2/M
;
_chemical_formula_sum "Si O2"
_cell_formula_units_Z 64
_cell_length_a 17.440578
_cell_length_b 13.049175
_cell_length_c 17.409047
_cell_angle_alpha 90.000000
_cell_angle_beta 130.438797
_cell_angle_gamma 90.000000
_cell_volume 3015.506239
_symmetry_space_group_name_H-M "C 2/M"
_symmetry_group_IT_number 12
_symmetry_cell_setting 'monoclinic'
loop_
_space_group_symop_operation_xyz
x,y,z
-x,y,-z
-x,-y,-z
x,-y,z
1/2+x,1/2+y,z
1/2-x,1/2+y,-z
1/2-x,1/2-y,-z
1/2+x,1/2-y,z
loop_
_atom_site_type_symbol
_atom_site_label
_atom_site_fract_x
_atom_site_fract_y
_atom_site_fract_z
Si Si1 0.217558 0.832827 0.632240
Si Si2 0.800158 0.883988 0.680172
Si Si3 0.910106 0.166874 0.595080
Si Si4 0.907916 0.613292 0.660362
Si Si5 0.859748 0.382751 0.180173
Si Si6 0.646215 0.676576 0.750382
Si Si7 0.307085 0.622058 0.050475
Si Si8 0.505831 0.375859 0.091602
O O1 0.222329 0.708714 0.633106
O O2 0.136775 0.866193 0.515942
O O3 0.325198 0.872191 0.672463
O O4 0.192077 0.863611 0.701729
O O5 0.851399 0.881014 0.628976
O O6 0.889365 0.854530 0.797861
O O7 0.765454 0.000000 0.673320
O O8 0.894942 0.289817 0.596178
O O9 0.028619 0.146378 0.677925
O O10 0.894889 0.500000 0.616613
O O11 0.022404 0.619667 0.764927
O O12 0.834281 0.500000 0.185298
O O13 0.847342 0.300703 0.239817
O O14 0.788291 0.348748 0.063692
O O15 0.697987 0.641882 0.862571
O O16 0.312365 0.500000 0.045938
O O17 0.411199 0.661873 0.080370
O O18 0.500003 0.500000 0.085025
O O19 0.500000 0.338508 0.000000
#
# Coordination Sequence:
#
# PCOD9200660 Si02
#       8
#     8   8   8   8   8   8   8   8
#     4  11  24  36  55  86 114 149 190 240 282 326
#     4  10  20  37  59  84 114 146 185 237 291 336
#     4  10  21  39  59  80 111 150 196 237 281 329
#     4   9  19  39  60  80 109 148 194 234 275 329
#     4   9  20  38  61  82 107 149 191 229 276 336
#     4  11  22  38  57  84 117 151 187 229 282 343
#     4  10  20  37  60  85 116 151 185 226 284 342
#     4   9  18  32  55  86 116 143 176 228 285 337
#
# _framework density 21.223635000000002
#
# number of rings (size 3 to 8) (size 9 to 14) (size 15 to 20)
#    0.000    2.125    1.250    2.250    1.750    3.000 
#    0.000    0.625    0.000    8.250    0.000    0.000 
#    0.000    0.000    0.000    0.000    0.000    0.000 
#
# Total GULP energy -178727.464841 kJ/mol
# GULP energy per Si atom -5585.233276 kJ/mol
# Density = 2.117533 g / cm^3
# Si number density = 21.223635 Si / 1000 Ang^3
#
#
#
# Elastic Constant Matrix: (Units=GPa)
#
#
# Indices 1 2 3 4 5 6 
#
# 1 47.5508 -15.2778 29.4843 0.0000 -13.3242 0.0000
# 2 -15.2778 47.4182 -1.7273 0.0000 9.0504 0.0000
# 3 29.4843 -1.7273 121.3950 0.0000 -20.2727 0.0000
# 4 0.0000 0.0000 0.0000 13.8799 0.0000 6.6035
# 5 -13.3242 9.0504 -20.2727 0.0000 25.9566 0.0000
# 6 0.0000 0.0000 0.0000 6.6035 0.0000 11.1866
#
#
#
# Elastic Compliance Matrix: (Units=1/GPa)
#
#
# Indices 1 2 3 4 5 6 
#
# 1 0.029235 0.007707 -0.005673 0.000000 0.007889 0.000000
# 2 0.007707 0.024763 -0.002646 0.000000 -0.006744 0.000000
# 3 -0.005673 -0.002646 0.010632 0.000000 0.006314 0.000000
# 4 0.000000 0.000000 0.000000 0.100182 0.000000 -0.059138
# 5 0.007889 -0.006744 0.006314 0.000000 0.049858 0.000000
# 6 0.000000 0.000000 0.000000 -0.059138 0.000000 0.124302
#
#
# Mechanical properties :
#
#
# Convention : Reuss Voigt Hill
#
# Bulk Modulus (GPa) = 15.77156 26.81359 21.29257
# Shear Modulus (GPa) = 13.83765 23.79695 18.81730
#
# Velocity S-wave (km/s) = 2.55618 3.35214 2.98085
# Velocity P-wave (km/s) = 4.01987 5.25773 4.67991
#
# Compressibility (1/GPa) = 0.06340527
#
# Stress axis : x y z
#
# Youngs Moduli (GPa) = 34.20599 40.38287 94.05250
#
# Poissons Ratio (x) = -0.31123 0.53360
# Poissons Ratio (y) = -0.26362 0.24884
# Poissons Ratio (z) = 0.19407 0.10685
#
# Static dielectric constant tensor:
#      x y z
#    x 1.739720 0.000000 0.013100 
#    y 0.000000 1.834540 0.000000 
#    z 0.013100 0.000000 1.750300 
# 
# From -- ./inp_files/225692.got.cif
#   From: 2010.05.17/outbox.cif.g08.bks.cpg/sg12_113_cif.got.tgz:225692.got - 2010.06.03 13:09:07.
