data_PCOD9200171
_publ_section_title
;
Structure prediction by ZEFSAII (Michael W. Deem and Ramdas Pophale) SiO2 
 PCOD9200171
Probable space group: C 2/M
;
_chemical_formula_sum "Si O2"
_cell_formula_units_Z 34
_cell_length_a 21.170160
_cell_length_b 7.495990
_cell_length_c 24.480629
_cell_angle_alpha 90.000000
_cell_angle_beta 155.827564
_cell_angle_gamma 90.000000
_cell_volume 1590.789957
_symmetry_space_group_name_H-M "C 2/M"
_symmetry_group_IT_number 12
_symmetry_cell_setting 'monoclinic'
loop_
_space_group_symop_operation_xyz
x,y,z
-x,y,-z
-x,-y,-z
x,-y,z
1/2+x,1/2+y,z
1/2-x,1/2+y,-z
1/2-x,1/2-y,-z
1/2+x,1/2-y,z
loop_
_atom_site_type_symbol
_atom_site_label
_atom_site_fract_x
_atom_site_fract_y
_atom_site_fract_z
Si Si1 0.126798 0.287524 0.355989
Si Si2 0.504016 0.717630 0.065887
Si Si3 0.000000 0.000000 0.500000
Si Si4 0.777407 0.704763 0.360951
Si Si5 0.716115 0.213275 0.909911
O O1 0.115684 0.500000 0.339261
O O2 0.250000 0.250000 0.500000
O O3 0.183276 0.209194 0.343228
O O4 0.956506 0.220675 0.237829
O O5 0.502545 0.500000 0.065343
O O6 0.659841 0.768044 0.220534
O O7 0.500000 0.775404 0.000000
O O8 0.354487 0.781892 0.981294
O O9 0.916490 0.157510 0.471049
O O10 0.823343 0.500000 0.386889
O O11 0.715333 0.000000 0.901471
O O12 0.750000 0.250000 0.000000
#
# Coordination Sequence:
#
# PCOD9200171 Si02
#       5
#     8   8   2   8   8
#     4  11  23  40  65  99 139 176 228 285 337 404
#     4   9  19  38  66  98 130 169 225 281 337 405
#     4  12  26  44  66  94 144 180 228 276 342 412
#     4  11  23  43  70  95 133 183 227 281 342 400
#     4  10  20  36  65  94 127 172 219 277 338 398
#
# _framework density 21.373028000000001
#
# number of rings (size 3 to 8) (size 9 to 14) (size 15 to 20)
#    0.000    1.647    3.529    1.059    0.000    2.824 
#    0.000    5.294    0.000    0.000    0.000    0.000 
#    0.000    0.000    0.000    0.000    0.000    0.000 
#
# Total GULP energy -94763.021448 kJ/mol
# GULP energy per Si atom -5574.295379 kJ/mol
# Density = 2.132438 g / cm^3
# Si number density = 21.373028 Si / 1000 Ang^3
#
#
#
# Elastic Constant Matrix: (Units=GPa)
#
#
# Indices 1 2 3 4 5 6 
#
# 1 109.3679 1.7012 5.4695 -0.0003 -5.3561 -0.0002
# 2 1.7012 107.2975 -2.6615 -0.0002 12.7027 0.0000
# 3 5.4695 -2.6615 56.6585 -0.0002 -16.0996 -0.0001
# 4 -0.0003 -0.0002 -0.0002 4.3136 0.0000 -7.1107
# 5 -5.3561 12.7027 -16.0996 0.0000 41.1475 0.0000
# 6 -0.0002 0.0000 -0.0001 -7.1107 0.0000 24.5722
#
#
#
# Elastic Compliance Matrix: (Units=1/GPa)
#
#
# Indices 1 2 3 4 5 6 
#
# 1 0.009230 -0.000286 -0.000605 0.000001 0.001053 0.000000
# 2 -0.000286 0.009692 -0.000425 0.000001 -0.003196 0.000000
# 3 -0.000605 -0.000425 0.019917 0.000002 0.007845 0.000001
# 4 0.000001 0.000001 0.000002 0.443275 0.000001 0.128275
# 5 0.001053 -0.003196 0.007845 0.000001 0.028496 0.000000
# 6 0.000000 0.000000 0.000001 0.128275 0.000000 0.077817
#
#
# Mechanical properties :
#
#
# Convention : Reuss Voigt Hill
#
# Bulk Modulus (GPa) = 27.61938 31.37138 29.49538
# Shear Modulus (GPa) = 8.29011 31.92765 20.10888
#
# Velocity S-wave (km/s) = 1.97160 3.86920 3.07066
# Velocity P-wave (km/s) = 4.25835 5.88820 5.13831
#
# Compressibility (1/GPa) = 0.03620646
#
# Stress axis : x y z
#
# Youngs Moduli (GPa) = 108.34555 103.17574 50.20746
#
# Poissons Ratio (x) = 0.02951 0.03039
# Poissons Ratio (y) = 0.03099 0.02135
# Poissons Ratio (z) = 0.06558 0.04387
#
# Static dielectric constant tensor:
#      x y z
#    x 1.736040 0.000000 0.031450 
#    y 0.000000 1.878960 0.000000 
#    z 0.031450 0.000000 1.784140 
# 
# From -- ./inp_files/82029.got.cif
#   From: 2010.05.17/outbox.cif.g08.bks.cpg/sg12_42_cif.got.tgz:82029.got - 2010.06.03 13:09:07.
