data_PCOD9200101
_publ_section_title
;
Structure prediction by ZEFSAII (Michael W. Deem and Ramdas Pophale) SiO2 
 PCOD9200101
Probable space group: C 2/M
;
_chemical_formula_sum "Si O2"
_cell_formula_units_Z 64
_cell_length_a 30.845677
_cell_length_b 23.561486
_cell_length_c 8.795691
_cell_angle_alpha 90.000000
_cell_angle_beta 27.013202
_cell_angle_gamma 90.000000
_cell_volume 2903.421270
_symmetry_space_group_name_H-M "C 2/M"
_symmetry_group_IT_number 12
_symmetry_cell_setting 'monoclinic'
loop_
_space_group_symop_operation_xyz
x,y,z
-x,y,-z
-x,-y,-z
x,-y,z
1/2+x,1/2+y,z
1/2-x,1/2+y,-z
1/2-x,1/2-y,-z
1/2+x,1/2-y,z
loop_
_atom_site_type_symbol
_atom_site_label
_atom_site_fract_x
_atom_site_fract_y
_atom_site_fract_z
Si Si1 0.910337 0.939518 0.171576
Si Si2 0.533861 0.936899 0.218316
Si Si3 0.010921 0.256943 0.145411
Si Si4 0.872674 0.839253 0.071518
Si Si5 0.876514 0.343802 0.695264
Si Si6 0.610932 0.562782 0.196044
Si Si7 0.224961 0.937046 0.133902
Si Si8 0.160450 0.661575 0.828983
O O1 0.910316 0.888472 0.061052
O O2 0.816406 0.936942 0.567961
O O3 0.914071 0.000000 0.080521
O O4 0.000000 0.936478 0.000000
O O5 0.500000 0.941916 0.500000
O O6 0.457463 0.890798 0.402158
O O7 0.533003 0.000000 0.155106
O O8 0.635407 0.905279 0.884780
O O9 0.911790 0.286488 0.505281
O O10 0.047913 0.208843 0.148371
O O11 0.093947 0.303470 0.920185
O O12 0.000000 0.240863 0.000000
O O13 0.769148 0.821545 0.458727
O O14 0.854503 0.876181 0.976708
O O15 0.784510 0.379420 0.932073
O O16 0.868890 0.330541 0.900922
O O17 0.500000 0.561699 0.500000
O O18 0.651829 0.500000 0.021058
O O19 0.637490 0.564239 0.290230
O O20 0.273491 0.000000 0.961918
#
# Coordination Sequence:
#
# PCOD9200101 Si02
#       8
#     8   8   8   8   8   8   8   8
#     4  10  20  36  63  97 133 164 204 265 326 388
#     4   8  15  29  56  90 122 158 195 244 315 386
#     4  11  26  44  65  87 126 175 221 274 329 374
#     4  12  23  41  65  92 125 167 228 267 321 388
#     4  10  20  41  65  91 131 170 215 272 325 385
#     4  10  23  41  63  95 138 176 208 256 330 404
#     4  10  20  37  66 103 135 170 211 261 326 401
#     4  10  22  41  64  92 127 163 214 276 325 381
#
# _framework density 22.042959
#
# number of rings (size 3 to 8) (size 9 to 14) (size 15 to 20)
#    0.000    1.875    1.250    3.375    1.750    4.500 
#    0.000    0.625    0.000    1.875    0.000    0.000 
#    0.000    0.000    0.000    0.000    0.000    0.000 
#
# Total GULP energy -178170.543406 kJ/mol
# GULP energy per Si atom -5567.829481 kJ/mol
# Density = 2.199279 g / cm^3
# Si number density = 22.042959 Si / 1000 Ang^3
#
#
#
# Elastic Constant Matrix: (Units=GPa)
#
#
# Indices 1 2 3 4 5 6 
#
# 1 62.4433 9.5891 6.0409 0.0000 -1.2695 0.0000
# 2 9.5891 92.9217 19.2719 0.0000 0.1708 0.0000
# 3 6.0409 19.2719 51.3793 0.0000 -8.7409 0.0000
# 4 0.0000 0.0000 0.0000 22.8378 0.0000 -13.6438
# 5 -1.2695 0.1708 -8.7409 0.0000 26.3526 0.0000
# 6 0.0000 0.0000 0.0000 -13.6438 0.0000 -61.9185
#
#
#
# Elastic Compliance Matrix: (Units=1/GPa)
#
#
# Indices 1 2 3 4 5 6 
#
# 1 0.016368 -0.001413 -0.001334 0.000000 0.000355 0.000000
# 2 -0.001413 0.011857 -0.004564 0.000000 -0.001659 0.000000
# 3 -0.001334 -0.004564 0.022601 0.000000 0.007462 0.000000
# 4 0.000000 0.000000 0.000000 0.038693 0.000000 -0.008526
# 5 0.000355 -0.001659 0.007462 0.000000 0.040450 0.000000
# 6 0.000000 0.000000 0.000000 -0.008526 0.000000 -0.014272
#
#
# Mechanical properties :
#
#
# Convention : Reuss Voigt Hill
#
# Bulk Modulus (GPa) = 27.62062 30.72758 29.17410
# Shear Modulus (GPa) = 35.11557 8.91056 22.01307
#
# Velocity S-wave (km/s) = 3.99564 2.01274 3.16356
# Velocity P-wave (km/s) = 5.81759 4.40132 5.15829
#
# Compressibility (1/GPa) = 0.03620484
#
# Stress axis : x y z
#
# Youngs Moduli (GPa) = 61.09560 84.33771 44.24564
#
# Poissons Ratio (x) = 0.11917 0.05902
# Poissons Ratio (y) = 0.08633 0.20192
# Poissons Ratio (z) = 0.08150 0.38488
#
# Static dielectric constant tensor:
#      x y z
#    x 1.836010 0.000000 0.018090 
#    y 0.000000 1.884580 0.000000 
#    z 0.018090 0.000000 1.881070 
# 
# From -- ./inp_files/113608.got.cif
#   From: 2010.05.17/outbox.cif.g08.bks.cpg/sg12_57_cif.got.tgz:113608.got - 2010.06.03 13:09:07.
