data_PCOD9200442
_publ_section_title
;
Structure prediction by ZEFSAII (Michael W. Deem and Ramdas Pophale) SiO2 
 PCOD9200442
Probable space group: C 2/M
;
_chemical_formula_sum "Si O2"
_cell_formula_units_Z 48
_cell_length_a 15.146732
_cell_length_b 33.187816
_cell_length_c 7.758639
_cell_angle_alpha 90.000000
_cell_angle_beta 29.521320
_cell_angle_gamma 90.000000
_cell_volume 1921.796914
_symmetry_space_group_name_H-M "C 2/M"
_symmetry_group_IT_number 12
_symmetry_cell_setting 'monoclinic'
loop_
_space_group_symop_operation_xyz
x,y,z
-x,y,-z
-x,-y,-z
x,-y,z
1/2+x,1/2+y,z
1/2-x,1/2+y,-z
1/2-x,1/2-y,-z
1/2+x,1/2-y,z
loop_
_atom_site_type_symbol
_atom_site_label
_atom_site_fract_x
_atom_site_fract_y
_atom_site_fract_z
Si Si1 0.665299 0.207107 0.347802
Si Si2 0.548991 0.712527 0.716175
Si Si3 0.545852 0.872722 0.721036
Si Si4 0.851127 0.869160 0.607246
Si Si5 0.382704 0.543734 0.521478
Si Si6 0.471257 0.957114 0.344328
O O1 0.500000 0.207159 0.500000
O O2 0.643557 0.246337 0.503771
O O3 0.653673 0.165132 0.469789
O O4 0.860208 0.210704 0.933776
O O5 0.651312 0.671846 0.496175
O O6 0.500000 0.712600 0.000000
O O7 0.626392 0.916636 0.547562
O O8 0.500000 0.869680 0.000000
O O9 0.346926 0.872958 0.972996
O O10 0.899595 0.910525 0.422523
O O11 0.000000 0.865530 0.500000
O O12 0.500000 0.544405 0.500000
O O13 0.427842 0.500000 0.362382
O O14 0.169911 0.542285 0.924605
O O15 0.500000 0.955656 0.500000
O O16 0.383130 0.000000 0.449829
#
# Coordination Sequence:
#
# PCOD9200442 Si02
#       6
#     8   8   8   8   8   8
#     4  12  24  40  61  84 111 146 189 230 276 334
#     4  12  24  40  60  84 114 145 182 231 286 334
#     4  11  22  37  56  83 117 149 184 229 283 332
#     4  10  20  37  58  81 110 147 190 228 269 332
#     4   8  15  29  52  79 106 140 182 227 268 313
#     4   9  18  33  54  81 112 147 188 230 272 323
#
# _framework density 24.976624000000001
#
# number of rings (size 3 to 8) (size 9 to 14) (size 15 to 20)
#    0.000    1.667    0.000    5.500    0.000    3.000 
#    0.000    0.000    0.000    0.500    0.000    0.000 
#    0.000    0.000    0.000    0.000    0.000    0.000 
#
# Total GULP energy -134226.007132 kJ/mol
# GULP energy per Si atom -5592.750297 kJ/mol
# Density = 2.491978 g / cm^3
# Si number density = 24.976624 Si / 1000 Ang^3
#
#
#
# Elastic Constant Matrix: (Units=GPa)
#
#
# Indices 1 2 3 4 5 6 
#
# 1 66.3447 14.5100 -4.5271 0.0000 -10.8467 0.0000
# 2 14.5100 310.6580 44.6813 0.0000 18.1157 0.0000
# 3 -4.5271 44.6813 39.1351 0.0000 -10.5728 0.0000
# 4 0.0000 0.0000 0.0000 20.6548 0.0000 5.1855
# 5 -10.8467 18.1157 -10.5728 0.0000 36.1787 0.0000
# 6 0.0000 0.0000 0.0000 5.1855 0.0000 -14.4364
#
#
#
# Elastic Compliance Matrix: (Units=1/GPa)
#
#
# Indices 1 2 3 4 5 6 
#
# 1 0.017417 -0.002295 0.006901 0.000000 0.008388 0.000000
# 2 -0.002295 0.004607 -0.006878 0.000000 -0.005005 0.000000
# 3 0.006901 -0.006878 0.038753 0.000000 0.016838 0.000000
# 4 0.000000 0.000000 0.000000 0.044410 0.000000 0.015952
# 5 0.008388 -0.005005 0.016838 0.000000 0.037582 0.000000
# 6 0.000000 0.000000 0.000000 0.015952 0.000000 -0.063539
#
#
# Mechanical properties :
#
#
# Convention : Reuss Voigt Hill
#
# Bulk Modulus (GPa) = 17.78302 58.38514 38.08408
# Shear Modulus (GPa) = 48.77195 32.57766 40.67480
#
# Velocity S-wave (km/s) = 4.42373 3.61546 4.03986
# Velocity P-wave (km/s) = 5.76436 6.39182 6.08619
#
# Compressibility (1/GPa) = 0.05623340
#
# Stress axis : x y z
#
# Youngs Moduli (GPa) = 57.41497 217.04734 25.80473
#
# Poissons Ratio (x) = 0.49818 -0.17809
# Poissons Ratio (y) = 0.13178 0.17748
# Poissons Ratio (z) = -0.39625 1.49284
#
# Static dielectric constant tensor:
#      x y z
#    x 2.031370 0.000000 -0.006940 
#    y 0.000000 2.043690 0.000000 
#    z -0.006940 0.000000 1.936770 
# 
# From -- ./inp_files/80576.got.cif
#   From: 2010.05.17/outbox.cif.g08.bks.cpg/sg12_41_cif.got.tgz:80576.got - 2010.06.03 13:09:07.
