data_PCOD9200041
_publ_section_title
;
Structure prediction by ZEFSAII (Michael W. Deem and Ramdas Pophale) SiO2 
 PCOD9200041
Probable space group: C 2/M
;
_chemical_formula_sum "Si O2"
_cell_formula_units_Z 52
_cell_length_a 8.362543
_cell_length_b 31.326563
_cell_length_c 15.547540
_cell_angle_alpha 90.000000
_cell_angle_beta 39.332524
_cell_angle_gamma 90.000000
_cell_volume 2581.539432
_symmetry_space_group_name_H-M "C 2/M"
_symmetry_group_IT_number 12
_symmetry_cell_setting 'monoclinic'
loop_
_space_group_symop_operation_xyz
x,y,z
-x,y,-z
-x,-y,-z
x,-y,z
1/2+x,1/2+y,z
1/2-x,1/2+y,-z
1/2-x,1/2-y,-z
1/2+x,1/2-y,z
loop_
_atom_site_type_symbol
_atom_site_label
_atom_site_fract_x
_atom_site_fract_y
_atom_site_fract_z
Si Si1 0.700588 0.450419 0.105848
Si Si2 0.234202 0.262693 0.605028
Si Si3 0.720073 0.418008 0.585890
Si Si4 0.571556 0.326195 0.711588
Si Si5 0.642698 0.631706 0.028636
Si Si6 0.500000 0.399979 0.500000
Si Si7 0.653592 0.165689 0.747936
O O1 0.668187 0.500000 0.098387
O O2 0.510067 0.438321 0.263231
O O3 0.627696 0.417775 0.061235
O O4 0.000000 0.443431 0.000000
O O5 0.500000 0.286867 0.500000
O O6 0.250000 0.250000 0.500000
O O7 0.225050 0.217503 0.657241
O O8 0.055969 0.296944 0.724545
O O9 0.708620 0.366857 0.611128
O O10 0.650321 0.424000 0.514276
O O11 0.000000 0.432600 0.500000
O O12 0.344587 0.315550 0.739948
O O13 0.470441 0.342183 0.844602
O O14 0.929420 0.644694 0.893896
O O15 0.500000 0.640064 0.000000
O O16 0.705065 0.370788 0.365256
#
# Coordination Sequence:
#
# PCOD9200041 Si02
#       7
#     8   8   8   8   8   4   8
#     4  10  22  45  69  91 126 165 200 250 320 390
#     4  12  22  37  59  88 123 162 207 255 306 363
#     4  10  21  38  65  96 127 169 212 260 318 376
#     4  10  22  40  57  86 125 167 207 260 307 372
#     4  11  25  39  65  93 117 158 209 256 306 371
#     4  10  20  36  63  90 128 166 208 266 305 386
#     4  11  22  40  59  87 123 167 209 252 316 367
#
# _framework density 20.14302
#
# number of rings (size 3 to 8) (size 9 to 14) (size 15 to 20)
#    0.000    1.385    2.308    4.615    6.462    1.231 
#    0.000    0.385    0.000    0.000    0.000    0.000 
#    0.000    0.000    0.000    0.000    0.000    0.000 
#
# Total GULP energy -144960.333557 kJ/mol
# GULP energy per Si atom -5575.397445 kJ/mol
# Density = 2.009717 g / cm^3
# Si number density = 20.143020 Si / 1000 Ang^3
#
#
#
# Elastic Constant Matrix: (Units=GPa)
#
#
# Indices 1 2 3 4 5 6 
#
# 1 105.5522 12.3504 56.0910 0.0000 16.8221 0.0000
# 2 12.3504 79.7965 35.2079 0.0000 5.7889 0.0000
# 3 56.0910 35.2079 98.0484 0.0000 8.0278 0.0000
# 4 0.0000 0.0000 0.0000 18.3042 0.0000 -4.3472
# 5 16.8221 5.7889 8.0278 0.0000 38.1530 0.0000
# 6 0.0000 0.0000 0.0000 -4.3472 0.0000 17.5331
#
#
#
# Elastic Compliance Matrix: (Units=1/GPa)
#
#
# Indices 1 2 3 4 5 6 
#
# 1 0.014634 0.001911 -0.008655 0.000000 -0.004921 0.000000
# 2 0.001911 0.015191 -0.006401 0.000000 -0.001801 0.000000
# 3 -0.008655 -0.006401 0.017356 0.000000 0.001135 0.000000
# 4 0.000000 0.000000 0.000000 0.058050 0.000000 0.014393
# 5 -0.004921 -0.001801 0.001135 0.000000 0.028414 0.000000
# 6 0.000000 0.000000 0.000000 0.014393 0.000000 0.060603
#
#
# Mechanical properties :
#
#
# Convention : Reuss Voigt Hill
#
# Bulk Modulus (GPa) = 47.86712 54.52174 51.19443
# Shear Modulus (GPa) = 21.97785 26.78126 24.37955
#
# Velocity S-wave (km/s) = 3.30675 3.65026 3.48274
# Velocity P-wave (km/s) = 6.19634 6.70015 6.45316
#
# Compressibility (1/GPa) = 0.02089117
#
# Stress axis : x y z
#
# Youngs Moduli (GPa) = 68.33406 65.82930 57.61802
#
# Poissons Ratio (x) = -0.12579 0.49868
# Poissons Ratio (y) = -0.13057 0.36878
# Poissons Ratio (z) = 0.59143 0.42134
#
# Static dielectric constant tensor:
#      x y z
#    x 1.841170 0.000000 -0.040110 
#    y 0.000000 1.694210 0.000000 
#    z -0.040110 0.000000 1.738900 
# 
# From -- ./inp_files/201186.got.cif
#   From: 2010.05.17/outbox.cif.g08.bks.cpg/sg12_101_cif.got.tgz:201186.got - 2010.06.03 13:09:07.
