data_PCOD9200920
_publ_section_title
;
Structure prediction by ZEFSAII (Michael W. Deem and Ramdas Pophale) SiO2 
 PCOD9200920
Probable space group: C 2/M
;
_chemical_formula_sum "Si O2"
_cell_formula_units_Z 64
_cell_length_a 25.316962
_cell_length_b 7.636787
_cell_length_c 32.463047
_cell_angle_alpha 90.000000
_cell_angle_beta 153.073772
_cell_angle_gamma 90.000000
_cell_volume 2842.229264
_symmetry_space_group_name_H-M "C 2/M"
_symmetry_group_IT_number 12
_symmetry_cell_setting 'monoclinic'
loop_
_space_group_symop_operation_xyz
x,y,z
-x,y,-z
-x,-y,-z
x,-y,z
1/2+x,1/2+y,z
1/2-x,1/2+y,-z
1/2-x,1/2-y,-z
1/2+x,1/2-y,z
loop_
_atom_site_type_symbol
_atom_site_label
_atom_site_fract_x
_atom_site_fract_y
_atom_site_fract_z
Si Si1 0.490843 0.201619 0.538623
Si Si2 0.084518 0.793157 0.350311
Si Si3 0.744144 0.705481 0.736019
Si Si4 0.346204 0.788150 0.512952
Si Si5 0.135563 0.788216 0.094645
Si Si6 0.681905 0.712798 0.035767
Si Si7 0.046934 0.706480 0.173764
Si Si8 0.082735 0.297412 0.837195
O O1 0.500000 0.284601 0.500000
O O2 0.619581 0.204121 0.647120
O O3 0.401993 0.279969 0.509766
O O4 0.452172 0.000000 0.505727
O O5 0.213655 0.727025 0.427507
O O6 0.077825 0.762458 0.394424
O O7 0.987147 0.708597 0.254181
O O8 0.079347 0.000000 0.338921
O O9 0.724860 0.500000 0.714621
O O10 0.801327 0.723493 0.820649
O O11 0.835789 0.777580 0.765788
O O12 0.344119 0.000000 0.510724
O O13 0.191774 0.732683 0.090302
O O14 0.137752 0.000000 0.097591
O O15 0.000000 0.733753 0.000000
O O16 0.683354 0.500000 0.036121
O O17 0.789448 0.778795 0.082826
O O18 0.558810 0.771475 0.931880
O O19 0.069392 0.500000 0.195584
O O20 0.997399 0.781387 0.182321
O O21 0.101645 0.500000 0.862217
#
# Coordination Sequence:
#
# PCOD9200920 Si02
#       8
#     8   8   8   8   8   8   8   8
#     4  10  23  42  65  89 116 154 198 243 290 346
#     4  10  21  37  60  89 113 145 191 237 285 340
#     4  11  24  39  58  88 121 156 194 240 299 355
#     4   9  20  40  61  83 115 149 186 234 288 341
#     4  10  20  37  60  86 115 153 199 244 289 345
#     4  10  21  37  59  84 112 150 197 241 284 334
#     4  10  22  39  57  81 118 156 191 234 291 348
#     4  10  22  38  57  83 116 153 192 236 286 341
#
# _framework density 22.517534999999999
#
# number of rings (size 3 to 8) (size 9 to 14) (size 15 to 20)
#    0.000    2.000    1.250    1.125    3.500    3.500 
#    0.000    0.000    0.000    0.000    0.000    0.000 
#    0.000    0.000    0.000    0.000    0.000    0.000 
#
# Total GULP energy -178826.079892 kJ/mol
# GULP energy per Si atom -5588.314997 kJ/mol
# Density = 2.246628 g / cm^3
# Si number density = 22.517535 Si / 1000 Ang^3
#
#
#
# Elastic Constant Matrix: (Units=GPa)
#
#
# Indices 1 2 3 4 5 6 
#
# 1 116.4575 4.7580 -12.5703 0.0097 -8.6870 0.0011
# 2 4.7580 49.4116 -14.2764 0.0212 2.1114 -0.0273
# 3 -12.5703 -14.2764 30.6021 0.0093 -7.5375 0.0040
# 4 0.0097 0.0212 0.0093 -55.7890 0.0008 -26.8125
# 5 -8.6870 2.1114 -7.5375 0.0008 23.2602 0.0018
# 6 0.0011 -0.0273 0.0040 -26.8125 0.0018 -18.7089
#
#
#
# Elastic Compliance Matrix: (Units=1/GPa)
#
#
# Indices 1 2 3 4 5 6 
#
# 1 0.009549 0.000421 0.005420 0.000007 0.005284 -0.000008
# 2 0.000421 0.023460 0.011554 0.000084 0.001772 -0.000152
# 3 0.005420 0.011554 0.044050 0.000050 0.015250 -0.000078
# 4 0.000007 0.000084 0.000050 -0.057593 0.000007 0.082539
# 5 0.005284 0.001772 0.015250 0.000007 0.049746 -0.000004
# 6 -0.000008 -0.000152 -0.000078 0.082539 -0.000004 -0.171740
#
#
# Mechanical properties :
#
#
# Convention : Reuss Voigt Hill
#
# Bulk Modulus (GPa) = 8.94068 16.92153 12.93110
# Shear Modulus (GPa) = -49.98260 4.32312 -22.82974
#
# Velocity S-wave (km/s) = -4.71650 1.38711 -3.18758
# Velocity P-wave (km/s) = 5.06768 3.17751 2.79149
#
# Compressibility (1/GPa) = 0.11184831
#
# Stress axis : x y z
#
# Youngs Moduli (GPa) = 104.72446 42.62568 22.70144
#
# Poissons Ratio (x) = -0.01793 -0.12305
# Poissons Ratio (y) = -0.04406 -0.26229
# Poissons Ratio (z) = -0.56763 -0.49248
#
# Static dielectric constant tensor:
#      x y z
#    x 1.865710 0.000000 0.009410 
#    y 0.000000 1.850980 0.000000 
#    z 0.009410 0.000000 1.774500 
# 
# From -- ./inp_files/353367.got.cif
#   From: 2010.05.17/outbox.cif.g08.bks.cpg/sg12_177_cif.got.tgz:353367.got - 2010.06.03 13:09:07.
