data_PCOD9200544
_publ_section_title
;
Structure prediction by ZEFSAII (Michael W. Deem and Ramdas Pophale) SiO2 
 PCOD9200544
Probable space group: C 2/M
;
_chemical_formula_sum "Si O2"
_cell_formula_units_Z 40
_cell_length_a 31.694522
_cell_length_b 11.931511
_cell_length_c 9.099328
_cell_angle_alpha 90.000000
_cell_angle_beta 145.707879
_cell_angle_gamma 90.000000
_cell_volume 1938.721412
_symmetry_space_group_name_H-M "C 2/M"
_symmetry_group_IT_number 12
_symmetry_cell_setting 'monoclinic'
loop_
_space_group_symop_operation_xyz
x,y,z
-x,y,-z
-x,-y,-z
x,-y,z
1/2+x,1/2+y,z
1/2-x,1/2+y,-z
1/2-x,1/2-y,-z
1/2+x,1/2-y,z
loop_
_atom_site_type_symbol
_atom_site_label
_atom_site_fract_x
_atom_site_fract_y
_atom_site_fract_z
Si Si1 0.142758 0.677366 0.608486
Si Si2 0.707269 0.370263 0.341031
Si Si3 0.924914 0.783342 0.869554
Si Si4 0.008742 0.624377 0.691188
Si Si5 0.812863 0.878387 0.060653
O O1 0.118977 0.707904 0.375355
O O2 0.224250 0.623550 0.841979
O O3 0.074268 0.613419 0.482497
O O4 0.149811 0.788002 0.728261
O O5 0.741133 0.500000 0.448822
O O6 0.750000 0.250000 0.500000
O O7 0.635230 0.369487 0.240277
O O8 0.682660 0.356924 0.100372
O O9 0.949390 0.706869 0.077812
O O10 0.000000 0.823594 0.000000
O O11 0.044078 0.500000 0.787179
O O12 0.000000 0.667067 0.500000
O O13 0.845098 0.000000 0.184913
#
# Coordination Sequence:
#
# PCOD9200544 Si02
#       5
#     8   8   8   8   8
#     4  10  20  37  58  87 123 158 213 260 317 377
#     4  11  23  42  64  93 130 169 217 265 321 382
#     4  10  22  39  62  92 126 164 209 265 318 383
#     4  10  21  37  60  88 123 166 213 263 322 386
#     4  10  21  37  60  86 123 165 209 263 318 375
#
# _framework density 20.632155000000001
#
# number of rings (size 3 to 8) (size 9 to 14) (size 15 to 20)
#    0.000    1.800    2.000    1.800    0.000    6.400 
#    0.000    4.000    0.000   10.800    0.000    0.000 
#    0.000    0.000    0.000    0.000    0.000    0.000 
#
# Total GULP energy -111443.037277 kJ/mol
# GULP energy per Si atom -5572.151864 kJ/mol
# Density = 2.058520 g / cm^3
# Si number density = 20.632155 Si / 1000 Ang^3
#
#
#
# Elastic Constant Matrix: (Units=GPa)
#
#
# Indices 1 2 3 4 5 6 
#
# 1 88.6258 43.0827 18.8803 0.0000 -24.4069 0.0000
# 2 43.0827 133.0512 53.1339 0.0000 -18.0996 0.0000
# 3 18.8803 53.1339 70.2915 0.0000 -18.7139 0.0000
# 4 0.0000 0.0000 0.0000 -23.0488 0.0000 15.5417
# 5 -24.4069 -18.0996 -18.7139 0.0000 39.8104 0.0000
# 6 0.0000 0.0000 0.0000 15.5417 0.0000 63.5779
#
#
#
# Elastic Compliance Matrix: (Units=1/GPa)
#
#
# Indices 1 2 3 4 5 6 
#
# 1 0.015359 -0.004421 0.001359 0.000000 0.008045 0.000000
# 2 -0.004421 0.012091 -0.008242 0.000000 -0.001088 0.000000
# 3 0.001359 -0.008242 0.022079 0.000000 0.007465 0.000000
# 4 0.000000 0.000000 0.000000 -0.037247 0.000000 0.009105
# 5 0.008045 -0.001088 0.007465 0.000000 0.033065 0.000000
# 6 0.000000 0.000000 0.000000 0.009105 0.000000 0.013503
#
#
# Mechanical properties :
#
#
# Convention : Reuss Voigt Hill
#
# Bulk Modulus (GPa) = 37.14786 58.01802 47.58294
# Shear Modulus (GPa) = 55.29008 27.85935 41.57471
#
# Velocity S-wave (km/s) = 5.18230 3.67861 4.49379
# Velocity P-wave (km/s) = 7.33840 6.79884 7.07377
#
# Compressibility (1/GPa) = 0.02691945
#
# Stress axis : x y z
#
# Youngs Moduli (GPa) = 65.10959 82.70682 45.29230
#
# Poissons Ratio (x) = 0.36568 -0.06153
# Poissons Ratio (y) = 0.28788 0.37328
# Poissons Ratio (z) = -0.08846 0.68164
#
# Static dielectric constant tensor:
#      x y z
#    x 1.753310 0.000000 0.031290 
#    y 0.000000 1.764250 0.000000 
#    z 0.031290 0.000000 1.705060 
# 
# From -- ./inp_files/71408.got.cif
#   From: 2010.05.17/outbox.cif.g08.bks.cpg/sg12_36_cif.got.tgz:71408.got - 2010.06.03 13:09:07.
