data_PCOD9200758
_publ_section_title
;
Structure prediction by ZEFSAII (Michael W. Deem and Ramdas Pophale) SiO2 
 PCOD9200758
Probable space group: C 2/M
;
_chemical_formula_sum "Si O2"
_cell_formula_units_Z 48
_cell_length_a 10.125864
_cell_length_b 18.910960
_cell_length_c 10.627808
_cell_angle_alpha 90.000000
_cell_angle_beta 72.269001
_cell_angle_gamma 90.000000
_cell_volume 1938.442459
_symmetry_space_group_name_H-M "C 2/M"
_symmetry_group_IT_number 12
_symmetry_cell_setting 'monoclinic'
loop_
_space_group_symop_operation_xyz
x,y,z
-x,y,-z
-x,-y,-z
x,-y,z
1/2+x,1/2+y,z
1/2-x,1/2+y,-z
1/2-x,1/2-y,-z
1/2+x,1/2-y,z
loop_
_atom_site_type_symbol
_atom_site_label
_atom_site_fract_x
_atom_site_fract_y
_atom_site_fract_z
Si Si1 0.419471 0.079883 0.155290
Si Si2 0.818767 0.805738 0.076197
Si Si3 0.710022 0.581064 0.709633
Si Si4 0.634187 0.665932 0.510640
Si Si5 0.115023 0.715993 0.710359
Si Si6 0.612328 0.423234 0.136052
O O1 0.451104 0.139999 0.247093
O O2 0.252794 0.082961 0.177114
O O3 0.453519 0.000000 0.184095
O O4 0.500000 0.093252 0.000000
O O5 0.749079 0.863399 0.192864
O O6 0.895367 0.755596 0.153825
O O7 0.750000 0.750000 0.000000
O O8 0.885825 0.859801 0.960190
O O9 0.758720 0.500000 0.708083
O O10 0.734562 0.618394 0.568099
O O11 0.540109 0.578128 0.760312
O O12 0.500000 0.625262 0.500000
O O13 0.726387 0.700141 0.375211
O O14 0.572168 0.729189 0.615331
O O15 0.626518 0.500000 0.066671
#
# Coordination Sequence:
#
# PCOD9200758 Si02
#       6
#     8   8   8   8   8   8
#     4  10  21  36  56  84 117 159 207 249 302 369
#     4  11  21  35  58  90 123 163 198 238 312 378
#     4  10  22  39  63  93 126 163 205 255 312 375
#     4  10  22  38  60  85 119 158 208 257 304 363
#     4  10  22  39  56  86 119 158 204 252 305 368
#     4  10  20  37  59  89 127 159 196 252 311 373
#
# _framework density 24.762149000000001
#
# number of rings (size 3 to 8) (size 9 to 14) (size 15 to 20)
#    0.000    1.833    1.667    2.000    0.000    6.333 
#    0.000    0.000    0.000    0.500    0.000    0.000 
#    0.000    0.000    0.000    0.000    0.000    0.000 
#
# Total GULP energy -133972.633890 kJ/mol
# GULP energy per Si atom -5582.193079 kJ/mol
# Density = 2.470579 g / cm^3
# Si number density = 24.762149 Si / 1000 Ang^3
#
#
#
# Elastic Constant Matrix: (Units=GPa)
#
#
# Indices 1 2 3 4 5 6 
#
# 1 91.4108 12.5855 12.9068 0.0000 -5.8255 0.0000
# 2 12.5855 203.0663 58.1441 0.0000 13.3066 0.0000
# 3 12.9068 58.1441 73.6720 0.0000 9.4690 0.0000
# 4 0.0000 0.0000 0.0000 22.4720 0.0000 -10.3852
# 5 -5.8255 13.3066 9.4690 0.0000 19.5984 0.0000
# 6 0.0000 0.0000 0.0000 -10.3852 0.0000 8.0756
#
#
#
# Elastic Compliance Matrix: (Units=1/GPa)
#
#
# Indices 1 2 3 4 5 6 
#
# 1 0.011634 -0.000358 -0.002379 0.000000 0.004850 0.000000
# 2 -0.000358 0.006449 -0.004745 0.000000 -0.002192 0.000000
# 3 -0.002379 -0.004745 0.018565 0.000000 -0.006455 0.000000
# 4 0.000000 0.000000 0.000000 0.109689 0.000000 0.141059
# 5 0.004850 -0.002192 -0.006455 0.000000 0.057074 0.000000
# 6 0.000000 0.000000 0.000000 0.141059 0.000000 0.305230
#
#
# Mechanical properties :
#
#
# Convention : Reuss Voigt Hill
#
# Bulk Modulus (GPa) = 46.11764 59.49133 52.80449
# Shear Modulus (GPa) = 9.41915 28.99671 19.20793
#
# Velocity S-wave (km/s) = 1.95246 3.42571 2.78816
# Velocity P-wave (km/s) = 4.87314 6.30275 5.63348
#
# Compressibility (1/GPa) = 0.02168368
#
# Stress axis : x y z
#
# Youngs Moduli (GPa) = 85.95548 155.06126 53.86363
#
# Poissons Ratio (x) = 0.05545 0.12816
# Poissons Ratio (y) = 0.03074 0.25560
# Poissons Ratio (z) = 0.20452 0.73582
#
# Static dielectric constant tensor:
#      x y z
#    x 2.649080 0.000000 0.165740 
#    y 0.000000 1.963770 0.000000 
#    z 0.165740 0.000000 2.011560 
# 
# From -- ./inp_files/131667.got.cif
#   From: 2010.05.17/outbox.cif.g08.bks.cpg/sg12_66_cif.got.tgz:131667.got - 2010.06.03 13:09:07.
