data_PCOD9200318
_publ_section_title
;
Structure prediction by ZEFSAII (Michael W. Deem and Ramdas Pophale) SiO2 
 PCOD9200318
Probable space group: C 2/M
;
_chemical_formula_sum "Si O2"
_cell_formula_units_Z 48
_cell_length_a 21.140972
_cell_length_b 13.822668
_cell_length_c 10.998277
_cell_angle_alpha 90.000000
_cell_angle_beta 133.030579
_cell_angle_gamma 90.000000
_cell_volume 2349.376860
_symmetry_space_group_name_H-M "C 2/M"
_symmetry_group_IT_number 12
_symmetry_cell_setting 'monoclinic'
loop_
_space_group_symop_operation_xyz
x,y,z
-x,y,-z
-x,-y,-z
x,-y,z
1/2+x,1/2+y,z
1/2-x,1/2+y,-z
1/2-x,1/2-y,-z
1/2+x,1/2-y,z
loop_
_atom_site_type_symbol
_atom_site_label
_atom_site_fract_x
_atom_site_fract_y
_atom_site_fract_z
Si Si1 0.066243 0.386595 0.856036
Si Si2 0.711076 0.615360 0.539239
Si Si3 0.345722 0.111632 0.273451
Si Si4 0.621463 0.115918 0.400202
Si Si5 0.401706 0.614735 0.829471
Si Si6 0.284912 0.244417 0.837568
O O1 0.074228 0.500000 0.901215
O O2 0.078439 0.381543 0.725894
O O3 0.971517 0.348507 0.767982
O O4 0.143420 0.325647 0.012864
O O5 0.716377 0.500000 0.570090
O O6 0.794326 0.644230 0.565209
O O7 0.625293 0.633074 0.346352
O O8 0.721729 0.677415 0.673893
O O9 0.370157 0.132792 0.445003
O O10 0.271318 0.188790 0.147064
O O11 0.314809 0.000000 0.227901
O O12 0.617101 0.000000 0.382290
O O13 0.383741 0.500000 0.825761
O O14 0.337106 0.679292 0.823179
O O15 0.500000 0.632624 0.000000
#
# Coordination Sequence:
#
# PCOD9200318 Si02
#       6
#     8   8   8   8   8   8
#     4  10  22  36  53  82 113 144 180 222 271 323
#     4  10  21  37  56  82 113 142 173 221 282 331
#     4  10  20  37  57  77 107 147 188 225 263 313
#     4   9  18  35  57  78 107 142 178 221 273 324
#     4  10  22  38  54  77 109 145 185 221 260 318
#     4  12  22  33  57  81 113 143 180 221 273 325
#
# _framework density 20.430949999999999
#
# number of rings (size 3 to 8) (size 9 to 14) (size 15 to 20)
#    0.000    1.833    1.667    2.500    2.333    2.000 
#    0.000    2.500    0.000    0.000    0.000    0.000 
#    0.000   18.667    0.000    0.000    0.000    0.000 
#
# Total GULP energy -134022.326914 kJ/mol
# GULP energy per Si atom -5584.263621 kJ/mol
# Density = 2.038445 g / cm^3
# Si number density = 20.430950 Si / 1000 Ang^3
#
#
#
# Elastic Constant Matrix: (Units=GPa)
#
#
# Indices 1 2 3 4 5 6 
#
# 1 23.9877 25.9789 16.6565 0.0000 10.2670 0.0000
# 2 25.9789 96.2984 51.5439 0.0000 13.9645 0.0000
# 3 16.6565 51.5439 104.0020 0.0000 18.3950 0.0000
# 4 0.0000 0.0000 0.0000 28.1546 0.0000 4.0538
# 5 10.2670 13.9645 18.3950 0.0000 25.7121 0.0000
# 6 0.0000 0.0000 0.0000 4.0538 0.0000 20.6344
#
#
#
# Elastic Compliance Matrix: (Units=1/GPa)
#
#
# Indices 1 2 3 4 5 6 
#
# 1 0.065811 -0.015241 0.000226 0.000000 -0.018163 0.000000
# 2 -0.015241 0.017876 -0.006615 0.000000 0.001110 0.000000
# 3 0.000226 -0.006615 0.014011 0.000000 -0.006521 0.000000
# 4 0.000000 0.000000 0.000000 0.036552 0.000000 -0.007181
# 5 -0.018163 0.001110 -0.006521 0.000000 0.050208 0.000000
# 6 0.000000 0.000000 0.000000 -0.007181 0.000000 0.049873
#
#
# Mechanical properties :
#
#
# Convention : Reuss Voigt Hill
#
# Bulk Modulus (GPa) = 18.36952 45.84964 32.10958
# Shear Modulus (GPa) = 16.90694 23.57415 20.24054
#
# Velocity S-wave (km/s) = 2.87978 3.40051 3.15092
# Velocity P-wave (km/s) = 4.47974 6.15695 5.38405
#
# Compressibility (1/GPa) = 0.05443801
#
# Stress axis : x y z
#
# Youngs Moduli (GPa) = 15.19493 55.94202 71.37449
#
# Poissons Ratio (x) = 0.85264 -0.01614
# Poissons Ratio (y) = 0.23159 0.47211
# Poissons Ratio (z) = -0.00344 0.37003
#
# Static dielectric constant tensor:
#      x y z
#    x 1.713800 0.000000 -0.001000 
#    y 0.000000 1.747300 0.000000 
#    z -0.001000 0.000000 1.767280 
# 
# From -- ./inp_files/105046.got.cif
#   From: 2010.05.17/outbox.cif.g08.bks.cpg/sg12_53_cif.got.tgz:105046.got - 2010.06.03 13:09:07.
