data_PCOD9200778
_publ_section_title
;
Structure prediction by ZEFSAII (Michael W. Deem and Ramdas Pophale) SiO2 
 PCOD9200778
Probable space group: C 2/M
;
_chemical_formula_sum "Si O2"
_cell_formula_units_Z 64
_cell_length_a 18.774858
_cell_length_b 7.571847
_cell_length_c 18.343545
_cell_angle_alpha 90.000000
_cell_angle_beta 87.647853
_cell_angle_gamma 90.000000
_cell_volume 2605.527695
_symmetry_space_group_name_H-M "C 2/M"
_symmetry_group_IT_number 12
_symmetry_cell_setting 'monoclinic'
loop_
_space_group_symop_operation_xyz
x,y,z
-x,y,-z
-x,-y,-z
x,-y,z
1/2+x,1/2+y,z
1/2-x,1/2+y,-z
1/2-x,1/2-y,-z
1/2+x,1/2-y,z
loop_
_atom_site_type_symbol
_atom_site_label
_atom_site_fract_x
_atom_site_fract_y
_atom_site_fract_z
Si Si1 0.560618 0.289746 0.839522
Si Si2 0.166591 0.291010 0.503441
Si Si3 0.626661 0.199071 0.985686
Si Si4 0.528741 0.703553 0.575426
Si Si5 0.705384 0.284627 0.757828
Si Si6 0.723813 0.215462 0.098046
Si Si7 0.181625 0.706451 0.347608
Si Si8 0.455629 0.285809 0.726388
O O1 0.561807 0.500000 0.830915
O O2 0.572898 0.262604 0.925295
O O3 0.629227 0.221862 0.790565
O O4 0.491125 0.223566 0.800264
O O5 0.155862 0.500000 0.510630
O O6 0.250000 0.250000 0.500000
O O7 0.114186 0.208305 0.564325
O O8 0.147261 0.221604 0.422999
O O9 0.704670 0.210275 0.943532
O O10 0.604842 0.000000 0.001571
O O11 0.651206 0.280597 0.062214
O O12 0.500000 0.785117 0.500000
O O13 0.505937 0.500000 0.576056
O O14 0.502144 0.775199 0.653944
O O15 0.700990 0.500000 0.753578
O O16 0.761555 0.240939 0.819377
O O17 0.742968 0.218481 0.682782
O O18 0.726675 0.000000 0.091200
O O19 0.194133 0.500000 0.362291
O O20 0.122978 0.721482 0.287752
O O21 0.454331 0.500000 0.727446
#
# Coordination Sequence:
#
# PCOD9200778 Si02
#       8
#     8   8   8   8   8   8   8   8
#     4   9  18  32  51  73  99 134 171 206 248 305
#     4  11  24  38  56  81 109 139 172 215 263 310
#     4   9  15  24  43  72 102 127 160 210 256 293
#     4  10  20  37  60  80 102 135 176 218 259 309
#     4   8  15  30  51  73  97 129 170 207 246 297
#     4   8  14  26  45  68  97 133 168 202 247 304
#     4  10  21  36  55  76 102 135 170 212 255 304
#     4  10  21  36  56  77 101 137 174 210 255 310
#
# _framework density 24.563162999999999
#
# number of rings (size 3 to 8) (size 9 to 14) (size 15 to 20)
#    0.000    2.625    1.250    1.500    1.750    2.250 
#    0.000    2.500    0.000    0.750    0.000    5.250 
#    0.000    0.000    0.000    0.000    0.000    0.000 
#
# Total GULP energy -178426.167473 kJ/mol
# GULP energy per Si atom -5575.817734 kJ/mol
# Density = 2.450726 g / cm^3
# Si number density = 24.563163 Si / 1000 Ang^3
#
#
#
# Elastic Constant Matrix: (Units=GPa)
#
#
# Indices 1 2 3 4 5 6 
#
# 1 53.5520 -13.7681 14.1116 0.0000 13.7911 0.0000
# 2 -13.7681 61.7931 -1.0423 0.0000 0.0199 0.0000
# 3 14.1116 -1.0423 23.8870 0.0000 17.9716 0.0000
# 4 0.0000 0.0000 0.0000 8.9598 0.0000 6.0760
# 5 13.7911 0.0199 17.9716 0.0000 43.8862 0.0000
# 6 0.0000 0.0000 0.0000 6.0760 0.0000 15.3709
#
#
#
# Elastic Compliance Matrix: (Units=1/GPa)
#
#
# Indices 1 2 3 4 5 6 
#
# 1 0.023784 0.005100 -0.011856 0.000000 -0.002621 0.000000
# 2 0.005100 0.017294 -0.001513 0.000000 -0.000991 0.000000
# 3 -0.011856 -0.001513 0.066481 0.000000 -0.023498 0.000000
# 4 0.000000 0.000000 0.000000 0.152486 0.000000 -0.060277
# 5 -0.002621 -0.000991 -0.023498 0.000000 0.033233 0.000000
# 6 0.000000 0.000000 0.000000 -0.060277 0.000000 0.088885
#
#
# Mechanical properties :
#
#
# Convention : Reuss Voigt Hill
#
# Bulk Modulus (GPa) = 10.98639 15.31493 13.15066
# Shear Modulus (GPa) = 11.65391 22.97211 17.31301
#
# Velocity S-wave (km/s) = 2.18054 3.06146 2.65776
# Velocity P-wave (km/s) = 3.28970 4.32957 3.84495
#
# Compressibility (1/GPa) = 0.09102171
#
# Stress axis : x y z
#
# Youngs Moduli (GPa) = 42.04526 57.82289 15.04196
#
# Poissons Ratio (x) = -0.29490 0.17834
# Poissons Ratio (y) = -0.21444 0.02275
# Poissons Ratio (z) = 0.49849 0.08747
#
# Static dielectric constant tensor:
#      x y z
#    x 1.973500 0.000000 0.052010 
#    y 0.000000 1.943020 0.000000 
#    z 0.052010 0.000000 2.059350 
# 
# From -- ./inp_files/313994.got.cif
#   From: 2010.05.17/outbox.cif.g08.bks.cpg/sg12_157_cif.got.tgz:313994.got - 2010.06.03 13:09:07.
