data_PCOD9200236
_publ_section_title
;
Structure prediction by ZEFSAII (Michael W. Deem and Ramdas Pophale) SiO2 
 PCOD9200236
Probable space group: C 2/M
;
_chemical_formula_sum "Si O2"
_cell_formula_units_Z 52
_cell_length_a 29.918765
_cell_length_b 7.968960
_cell_length_c 11.817162
_cell_angle_alpha 90.000000
_cell_angle_beta 44.843109
_cell_angle_gamma 90.000000
_cell_volume 1986.785700
_symmetry_space_group_name_H-M "C 2/M"
_symmetry_group_IT_number 12
_symmetry_cell_setting 'monoclinic'
loop_
_space_group_symop_operation_xyz
x,y,z
-x,y,-z
-x,-y,-z
x,-y,z
1/2+x,1/2+y,z
1/2-x,1/2+y,-z
1/2-x,1/2-y,-z
1/2+x,1/2-y,z
loop_
_atom_site_type_symbol
_atom_site_label
_atom_site_fract_x
_atom_site_fract_y
_atom_site_fract_z
Si Si1 0.430953 0.297851 0.072531
Si Si2 0.241798 0.689664 0.646096
Si Si3 0.866444 0.682280 0.402009
Si Si4 0.955434 0.187512 0.411936
Si Si5 0.095217 0.199186 0.137196
Si Si6 0.752157 0.000000 0.211296
Si Si7 0.648682 0.178985 0.251720
O O1 0.424517 0.500000 0.092436
O O2 0.381647 0.209774 0.244816
O O3 0.500000 0.256939 0.000000
O O4 0.418637 0.246157 0.966032
O O5 0.217089 0.500000 0.702869
O O6 0.250000 0.750000 0.500000
O O7 0.317471 0.685220 0.537259
O O8 0.217079 0.845910 0.764923
O O9 0.836180 0.500000 0.483622
O O10 0.930611 0.696342 0.356034
O O11 0.899341 0.192479 0.603520
O O12 0.026607 0.228112 0.320129
O O13 0.961040 0.000000 0.352239
O O14 0.148202 0.283676 0.119640
O O15 0.110279 0.000000 0.109628
O O16 0.714746 0.144028 0.196009
O O17 0.614114 0.000000 0.330471
#
# Coordination Sequence:
#
# PCOD9200236 Si02
#       7
#     8   8   8   8   8   4   8
#     4  10  20  37  55  76 111 159 208 252 296 343
#     4  12  22  39  66  92 127 150 184 241 304 370
#     4  12  22  35  53  85 121 153 197 243 302 361
#     4  11  19  32  52  74 107 152 200 242 291 340
#     4  10  21  34  51  75 106 155 212 246 281 346
#     4  10  22  40  53  94 118 152 191 231 299 361
#     4  10  21  34  49  73 115 146 189 238 282 344
#
# _framework density 26.172927999999999
#
# number of rings (size 3 to 8) (size 9 to 14) (size 15 to 20)
#    0.462    0.769    4.615    2.769    0.000    4.615 
#    0.000    0.000    0.000    0.000    0.000    1.077 
#    0.000    0.000    0.000    0.000    0.000    0.000 
#
# Total GULP energy -144807.819315 kJ/mol
# GULP energy per Si atom -5569.531512 kJ/mol
# Density = 2.611336 g / cm^3
# Si number density = 26.172928 Si / 1000 Ang^3
#
#
#
# Elastic Constant Matrix: (Units=GPa)
#
#
# Indices 1 2 3 4 5 6 
#
# 1 122.8607 30.1843 44.4727 0.0000 35.2115 0.0000
# 2 30.1843 123.9068 25.0251 0.0000 1.5203 0.0000
# 3 44.4727 25.0251 70.9595 0.0000 14.0492 0.0000
# 4 0.0000 0.0000 0.0000 19.5435 0.0000 7.2308
# 5 35.2115 1.5203 14.0492 0.0000 53.0533 0.0000
# 6 0.0000 0.0000 0.0000 7.2308 0.0000 41.3227
#
#
#
# Elastic Compliance Matrix: (Units=1/GPa)
#
#
# Indices 1 2 3 4 5 6 
#
# 1 0.012690 -0.001802 -0.005974 0.000000 -0.006789 0.000000
# 2 -0.001802 0.008963 -0.002340 0.000000 0.001559 0.000000
# 3 -0.005974 -0.002340 0.018852 0.000000 -0.000960 0.000000
# 4 0.000000 0.000000 0.000000 0.054710 0.000000 -0.009573
# 5 -0.006789 0.001559 -0.000960 0.000000 0.023564 0.000000
# 6 0.000000 0.000000 0.000000 -0.009573 0.000000 0.025875
#
#
# Mechanical properties :
#
#
# Convention : Reuss Voigt Hill
#
# Bulk Modulus (GPa) = 49.32556 57.45458 53.39007
# Shear Modulus (GPa) = 29.13019 37.32023 33.22521
#
# Velocity S-wave (km/s) = 3.33977 3.78022 3.56680
# Velocity P-wave (km/s) = 5.81025 6.40726 6.11604
#
# Compressibility (1/GPa) = 0.02027346
#
# Stress axis : x y z
#
# Youngs Moduli (GPa) = 78.80290 111.56952 53.04462
#
# Poissons Ratio (x) = 0.20100 0.31688
# Poissons Ratio (y) = 0.14197 0.12415
# Poissons Ratio (z) = 0.47075 0.26113
#
# Static dielectric constant tensor:
#      x y z
#    x 2.151170 0.000000 -0.103200 
#    y 0.000000 2.038550 0.000000 
#    z -0.103200 0.000000 2.477490 
# 
# From -- ./inp_files/186314.got.cif
#   From: 2010.05.17/outbox.cif.g08.bks.cpg/sg12_94_cif.got.tgz:186314.got - 2010.06.03 13:09:07.
