data_PCOD9200968
_publ_section_title
;
Structure prediction by ZEFSAII (Michael W. Deem and Ramdas Pophale) SiO2 
 PCOD9200968
Probable space group: C 2/M
;
_chemical_formula_sum "Si O2"
_cell_formula_units_Z 40
_cell_length_a 19.932964
_cell_length_b 13.827566
_cell_length_c 17.874176
_cell_angle_alpha 90.000000
_cell_angle_beta 22.617316
_cell_angle_gamma 90.000000
_cell_volume 1894.627915
_symmetry_space_group_name_H-M "C 2/M"
_symmetry_group_IT_number 12
_symmetry_cell_setting 'monoclinic'
loop_
_space_group_symop_operation_xyz
x,y,z
-x,y,-z
-x,-y,-z
x,-y,z
1/2+x,1/2+y,z
1/2-x,1/2+y,-z
1/2-x,1/2-y,-z
1/2+x,1/2-y,z
loop_
_atom_site_type_symbol
_atom_site_label
_atom_site_fract_x
_atom_site_fract_y
_atom_site_fract_z
Si Si1 0.077348 0.892082 0.503418
Si Si2 0.432478 0.267729 0.770891
Si Si3 0.691246 0.713331 0.769123
Si Si4 0.554214 0.392135 0.771120
Si Si5 0.841950 0.609829 0.756999
O O1 0.226645 0.811085 0.348017
O O2 0.000000 0.894023 0.500000
O O3 0.931185 0.853850 0.711331
O O4 0.135863 0.000000 0.462905
O O5 0.563215 0.308970 0.698923
O O6 0.459505 0.171859 0.693215
O O7 0.250000 0.250000 0.000000
O O8 0.660184 0.636775 0.735351
O O9 0.808902 0.667320 0.713785
O O10 0.500000 0.734159 0.000000
O O11 0.599566 0.500000 0.697448
O O12 0.351550 0.394670 0.006601
O O13 0.901601 0.500000 0.684349
#
# Coordination Sequence:
#
# PCOD9200968 Si02
#       5
#     8   8   8   8   8
#     4  11  23  40  63  89 122 168 212 250 306 375
#     4  10  20  37  60  87 120 159 206 254 303 366
#     4  10  20  37  61  90 124 159 205 258 309 367
#     4   9  18  33  58  86 118 159 198 247 312 368
#     4   9  17  33  57  86 117 157 203 248 305 365
#
# _framework density 21.112325999999999
#
# number of rings (size 3 to 8) (size 9 to 14) (size 15 to 20)
#    0.000    2.200    2.000    1.200    0.000    4.400 
#    0.000    4.000    0.000    0.000    0.000    0.000 
#    0.000    0.000    0.000    0.000    0.000    0.000 
#
# Total GULP energy -111610.975557 kJ/mol
# GULP energy per Si atom -5580.548778 kJ/mol
# Density = 2.106427 g / cm^3
# Si number density = 21.112326 Si / 1000 Ang^3
#
#
#
# Elastic Constant Matrix: (Units=GPa)
#
#
# Indices 1 2 3 4 5 6 
#
# 1 79.7663 48.5256 35.7227 -0.0002 28.7926 0.0003
# 2 48.5256 182.5166 46.8100 -0.0007 5.4767 0.0005
# 3 35.7227 46.8100 86.1847 -0.0006 0.8957 0.0003
# 4 -0.0002 -0.0007 -0.0006 10.6465 0.0003 -5.8607
# 5 28.7926 5.4767 0.8957 0.0003 24.8547 -0.0002
# 6 0.0003 0.0005 0.0003 -5.8607 -0.0002 27.2140
#
#
#
# Elastic Compliance Matrix: (Units=1/GPa)
#
#
# Indices 1 2 3 4 5 6 
#
# 1 0.034560 -0.005184 -0.011109 0.000001 -0.038493 0.000000
# 2 -0.005184 0.007184 -0.001800 0.000000 0.004487 0.000000
# 3 -0.011109 -0.001800 0.017054 0.000000 0.012651 0.000000
# 4 0.000001 0.000000 0.000000 0.106561 -0.000002 0.022949
# 5 -0.038493 0.004487 0.012651 -0.000002 0.083381 0.000000
# 6 0.000000 0.000000 0.000000 0.022949 0.000000 0.041688
#
#
# Mechanical properties :
#
#
# Convention : Reuss Voigt Hill
#
# Bulk Modulus (GPa) = 44.22486 67.84269 56.03378
# Shear Modulus (GPa) = 14.96330 27.03698 21.00014
#
# Velocity S-wave (km/s) = 2.66512 3.58246 3.15729
# Velocity P-wave (km/s) = 5.51936 7.02253 6.31583
#
# Compressibility (1/GPa) = 0.02261171
#
# Stress axis : x y z
#
# Youngs Moduli (GPa) = 28.93519 139.19347 58.63861
#
# Poissons Ratio (x) = 0.72162 0.65141
# Poissons Ratio (y) = 0.15001 0.10554
# Poissons Ratio (z) = 0.32144 0.25052
#
# Static dielectric constant tensor:
#      x y z
#    x 1.762090 0.000000 0.028880 
#    y 0.000000 1.744120 0.000000 
#    z 0.028880 0.000000 1.794610 
# 
# From -- ./inp_files/83381.got.cif
#   From: 2010.05.17/outbox.cif.g08.bks.cpg/sg12_42_cif.got.tgz:83381.got - 2010.06.03 13:09:07.
