data_PCOD9200644
_publ_section_title
;
Structure prediction by ZEFSAII (Michael W. Deem and Ramdas Pophale) SiO2 
 PCOD9200644
Probable space group: C 2/M
;
_chemical_formula_sum "Si O2"
_cell_formula_units_Z 56
_cell_length_a 19.631723
_cell_length_b 8.431741
_cell_length_c 27.645624
_cell_angle_alpha 90.000000
_cell_angle_beta 138.641520
_cell_angle_gamma 90.000000
_cell_volume 3023.786690
_symmetry_space_group_name_H-M "C 2/M"
_symmetry_group_IT_number 12
_symmetry_cell_setting 'monoclinic'
loop_
_space_group_symop_operation_xyz
x,y,z
-x,y,-z
-x,-y,-z
x,-y,z
1/2+x,1/2+y,z
1/2-x,1/2+y,-z
1/2-x,1/2-y,-z
1/2+x,1/2-y,z
loop_
_atom_site_type_symbol
_atom_site_label
_atom_site_fract_x
_atom_site_fract_y
_atom_site_fract_z
Si Si1 0.463547 0.192791 0.926011
Si Si2 0.170666 0.689100 0.307939
Si Si3 0.053377 0.179621 0.810961
Si Si4 0.937635 0.308791 0.286808
Si Si5 0.323774 0.811140 0.581063
Si Si6 0.638747 0.178763 0.947851
Si Si7 0.263975 0.689871 0.760197
O O1 0.555759 0.252342 0.940165
O O2 0.355889 0.255538 0.845865
O O3 0.456785 0.000000 0.920068
O O4 0.500000 0.234315 0.000000
O O5 0.145717 0.500000 0.294426
O O6 0.216490 0.724393 0.385760
O O7 0.225810 0.730221 0.287121
O O8 0.068627 0.795833 0.253837
O O9 0.092846 0.223129 0.779125
O O10 0.091058 0.305920 0.869642
O O11 0.081245 0.000000 0.839528
O O12 0.939175 0.500000 0.279987
O O13 0.848752 0.273961 0.277969
O O14 0.056108 0.258604 0.360677
O O15 0.250000 0.750000 0.500000
O O16 0.326449 0.000000 0.578566
O O17 0.651982 0.000000 0.971608
O O18 0.750000 0.250000 0.000000
O O19 0.273123 0.500000 0.759682
#
# Coordination Sequence:
#
# PCOD9200644 Si02
#       7
#     8   8   8   8   8   8   8
#     4  10  23  41  58  79 113 155 193 237 296 345
#     4  10  20  37  59  83 115 153 186 230 286 338
#     4  11  21  35  57  83 108 144 194 239 281 341
#     4   9  21  39  57  84 119 152 187 235 289 337
#     4   9  19  37  61  86 117 151 188 232 284 339
#     4  11  23  38  56  79 112 148 187 242 293 341
#     4  11  22  37  60  87 114 150 197 240 283 344
#
# _framework density 18.519825999999998
#
# number of rings (size 3 to 8) (size 9 to 14) (size 15 to 20)
#    0.000    1.857    1.429    3.429    2.000    4.857 
#    0.000    0.714    0.000    4.286    0.000    0.000 
#    0.000    0.000    0.000    0.000    0.000    0.000 
#
# Total GULP energy -156013.002231 kJ/mol
# GULP energy per Si atom -5571.892937 kJ/mol
# Density = 1.847767 g / cm^3
# Si number density = 18.519826 Si / 1000 Ang^3
#
#
#
# Elastic Constant Matrix: (Units=GPa)
#
#
# Indices 1 2 3 4 5 6 
#
# 1 140.8277 30.5638 64.4330 0.0000 -7.0005 0.0000
# 2 30.5638 29.9345 11.5104 0.0000 -0.3178 0.0000
# 3 64.4330 11.5104 108.3073 0.0000 -16.0014 0.0000
# 4 0.0000 0.0000 0.0000 30.7445 0.0000 -0.3688
# 5 -7.0005 -0.3178 -16.0014 0.0000 23.2301 0.0000
# 6 0.0000 0.0000 0.0000 -0.3688 0.0000 24.9526
#
#
#
# Elastic Compliance Matrix: (Units=1/GPa)
#
#
# Indices 1 2 3 4 5 6 
#
# 1 0.012075 -0.009936 -0.006246 0.000000 -0.000799 0.000000
# 2 -0.009936 0.043117 0.001084 0.000000 -0.001658 0.000000
# 3 -0.006246 0.001084 0.013980 0.000000 0.007763 0.000000
# 4 0.000000 0.000000 0.000000 0.032532 0.000000 0.000481
# 5 -0.000799 -0.001658 0.007763 0.000000 0.048131 0.000000
# 6 0.000000 0.000000 0.000000 0.000481 0.000000 0.040083
#
#
# Mechanical properties :
#
#
# Convention : Reuss Voigt Hill
#
# Bulk Modulus (GPa) = 25.65652 54.67599 40.16626
# Shear Modulus (GPa) = 21.44944 27.28959 24.36951
#
# Velocity S-wave (km/s) = 3.40691 3.84283 3.63141
# Velocity P-wave (km/s) = 5.41845 7.01974 6.27042
#
# Compressibility (1/GPa) = 0.03897645
#
# Stress axis : x y z
#
# Youngs Moduli (GPa) = 82.81475 23.19285 71.52908
#
# Poissons Ratio (x) = 0.23044 0.44675
# Poissons Ratio (y) = 0.82284 -0.07752
# Poissons Ratio (z) = 0.51724 -0.02513
#
# Static dielectric constant tensor:
#      x y z
#    x 1.660880 0.000000 -0.025810 
#    y 0.000000 1.650740 0.000000 
#    z -0.025810 0.000000 1.547980 
# 
# From -- ./inp_files/342530.got.cif
#   From: 2010.05.17/outbox.cif.g08.bks.cpg/sg12_172_cif.got.tgz:342530.got - 2010.06.03 13:09:07.
