data_PCOD9200812
_publ_section_title
;
Structure prediction by ZEFSAII (Michael W. Deem and Ramdas Pophale) SiO2 
 PCOD9200812
Probable space group: C 2/M
;
_chemical_formula_sum "Si O2"
_cell_formula_units_Z 56
_cell_length_a 21.811344
_cell_length_b 17.423157
_cell_length_c 9.398434
_cell_angle_alpha 90.000000
_cell_angle_beta 56.857691
_cell_angle_gamma 90.000000
_cell_volume 2990.568564
_symmetry_space_group_name_H-M "C 2/M"
_symmetry_group_IT_number 12
_symmetry_cell_setting 'monoclinic'
loop_
_space_group_symop_operation_xyz
x,y,z
-x,y,-z
-x,-y,-z
x,-y,z
1/2+x,1/2+y,z
1/2-x,1/2+y,-z
1/2-x,1/2-y,-z
1/2+x,1/2-y,z
loop_
_atom_site_type_symbol
_atom_site_label
_atom_site_fract_x
_atom_site_fract_y
_atom_site_fract_z
Si Si1 0.931941 0.409206 0.484401
Si Si2 0.948957 0.302063 0.192024
Si Si3 0.809565 0.794329 0.330432
Si Si4 0.768335 0.590530 0.787202
Si Si5 0.660905 0.410850 0.170727
Si Si6 0.515264 0.678379 0.321668
Si Si7 0.873877 0.912848 0.469472
O O1 0.937902 0.500000 0.447561
O O2 0.930775 0.363632 0.337378
O O3 0.854844 0.396031 0.662294
O O4 0.000000 0.388478 0.500000
O O5 0.875550 0.265066 0.217153
O O6 0.992070 0.236113 0.226799
O O7 0.000000 0.331144 0.000000
O O8 0.750000 0.750000 0.500000
O O9 0.772445 0.844259 0.253456
O O10 0.845492 0.857246 0.386509
O O11 0.754951 0.500000 0.760505
O O12 0.734300 0.598158 0.987360
O O13 0.636579 0.500000 0.183918
O O14 0.596958 0.353457 0.202749
O O15 0.668491 0.398359 0.329232
O O16 0.500000 0.711657 0.500000
O O17 0.458628 0.607230 0.388927
O O18 0.864627 0.000000 0.438970
#
# Coordination Sequence:
#
# PCOD9200812 Si02
#       7
#     8   8   8   8   8   8   8
#     4  10  22  42  62  78 102 144 192 236 282 324
#     4  11  22  37  58  83 113 143 182 228 272 326
#     4  11  21  37  55  79 114 147 177 219 275 335
#     4  10  20  37  60  83 112 146 180 225 278 328
#     4   9  17  32  55  87 116 140 179 223 262 322
#     4   9  17  31  55  82 117 151 177 209 265 326
#     4   9  18  32  53  80 112 149 182 214 262 322
#
# _framework density 18.725536000000002
#
# number of rings (size 3 to 8) (size 9 to 14) (size 15 to 20)
#    0.000    2.143    1.429    2.143    0.000    2.000 
#    2.571    0.714    0.000    6.857    0.000    0.000 
#    0.000    0.000    0.000    0.000    0.000    0.000 
#
# Total GULP energy -156121.970199 kJ/mol
# GULP energy per Si atom -5575.784650 kJ/mol
# Density = 1.868292 g / cm^3
# Si number density = 18.725536 Si / 1000 Ang^3
#
#
#
# Elastic Constant Matrix: (Units=GPa)
#
#
# Indices 1 2 3 4 5 6 
#
# 1 63.9743 17.3555 21.7859 0.0000 -15.3784 0.0000
# 2 17.3555 40.3380 21.6640 0.0000 -5.0832 0.0000
# 3 21.7859 21.6640 110.0640 0.0000 -24.3447 0.0000
# 4 0.0000 0.0000 0.0000 18.0794 0.0000 -4.6338
# 5 -15.3784 -5.0832 -24.3447 0.0000 18.3069 0.0000
# 6 0.0000 0.0000 0.0000 -4.6338 0.0000 9.7668
#
#
#
# Elastic Compliance Matrix: (Units=1/GPa)
#
#
# Indices 1 2 3 4 5 6 
#
# 1 0.021519 -0.007655 0.001099 0.000000 0.017413 0.000000
# 2 -0.007655 0.030449 -0.005710 0.000000 -0.005569 0.000000
# 3 0.001099 -0.005710 0.013948 0.000000 0.017886 0.000000
# 4 0.000000 0.000000 0.000000 0.062969 0.000000 0.029875
# 5 0.017413 -0.005569 0.017886 0.000000 0.091490 0.000000
# 6 0.000000 0.000000 0.000000 0.029875 0.000000 0.116562
#
#
# Mechanical properties :
#
#
# Convention : Reuss Voigt Hill
#
# Bulk Modulus (GPa) = 24.16352 37.33191 30.74772
# Shear Modulus (GPa) = 13.32397 19.46867 16.39632
#
# Velocity S-wave (km/s) = 2.67036 3.22791 2.96229
# Velocity P-wave (km/s) = 4.73707 5.81998 5.30623
#
# Compressibility (1/GPa) = 0.04138470
#
# Stress axis : x y z
#
# Youngs Moduli (GPa) = 46.46951 32.84210 71.69417
#
# Poissons Ratio (x) = 0.25139 -0.07876
# Poissons Ratio (y) = 0.35570 0.40936
# Poissons Ratio (z) = -0.05105 0.18752
#
# Static dielectric constant tensor:
#      x y z
#    x 1.649840 0.000000 -0.003160 
#    y 0.000000 1.661820 0.000000 
#    z -0.003160 0.000000 1.633090 
# 
# From -- ./inp_files/75841.got.cif
#   From: 2010.05.17/outbox.cif.g08.bks.cpg/sg12_38_cif.got.tgz:75841.got - 2010.06.03 13:09:07.
