data_PCOD9200864
_publ_section_title
;
Structure prediction by ZEFSAII (Michael W. Deem and Ramdas Pophale) SiO2 
 PCOD9200864
Probable space group: C 2/M
;
_chemical_formula_sum "Si O2"
_cell_formula_units_Z 48
_cell_length_a 25.258169
_cell_length_b 7.454721
_cell_length_c 11.390398
_cell_angle_alpha 90.000000
_cell_angle_beta 100.107351
_cell_angle_gamma 90.000000
_cell_volume 2111.442956
_symmetry_space_group_name_H-M "C 2/M"
_symmetry_group_IT_number 12
_symmetry_cell_setting 'monoclinic'
loop_
_space_group_symop_operation_xyz
x,y,z
-x,y,-z
-x,-y,-z
x,-y,z
1/2+x,1/2+y,z
1/2-x,1/2+y,-z
1/2-x,1/2-y,-z
1/2+x,1/2-y,z
loop_
_atom_site_type_symbol
_atom_site_label
_atom_site_fract_x
_atom_site_fract_y
_atom_site_fract_z
Si Si1 0.186227 0.713429 0.486395
Si Si2 0.016679 0.219793 0.639022
Si Si3 0.862828 0.202363 0.289032
Si Si4 0.851326 0.716991 0.779700
Si Si5 0.970907 0.791397 0.871333
Si Si6 0.743181 0.285734 0.862175
O O1 0.180050 0.500000 0.496759
O O2 0.250000 0.750000 0.500000
O O3 0.160460 0.803244 0.588899
O O4 0.154642 0.771561 0.357998
O O5 0.077972 0.280571 0.684451
O O6 0.000000 0.277656 0.500000
O O7 0.984749 0.278974 0.744698
O O8 0.014341 0.000000 0.634231
O O9 0.814059 0.290653 0.199955
O O10 0.870066 0.000000 0.244986
O O11 0.851664 0.500000 0.784381
O O12 0.906593 0.779271 0.858424
O O13 0.796315 0.781905 0.817941
O O14 0.987359 0.000000 0.873450
O O15 0.000000 0.715185 0.000000
O O16 0.741237 0.500000 0.837067
O O17 0.750000 0.250000 0.000000
#
# Coordination Sequence:
#
# PCOD9200864 Si02
#       6
#     8   8   8   8   8   8
#     4  11  21  36  58  86 118 149 189 235 286 348
#     4   9  18  34  57  84 114 148 187 233 289 343
#     4  10  20  37  60  84 117 152 185 239 297 340
#     4  10  22  40  58  82 118 153 187 235 292 350
#     4  10  22  38  60  89 113 146 201 248 282 341
#     4  10  22  38  56  82 115 153 194 235 288 346
#
# _framework density 22.733267999999999
#
# number of rings (size 3 to 8) (size 9 to 14) (size 15 to 20)
#    0.000    2.000    1.667    1.500    2.333    4.333 
#    0.000    0.833    0.000    3.000    0.000    0.000 
#    0.000    0.000    0.000    0.000    0.000    0.000 
#
# Total GULP energy -134011.164008 kJ/mol
# GULP energy per Si atom -5583.798500 kJ/mol
# Density = 2.268153 g / cm^3
# Si number density = 22.733268 Si / 1000 Ang^3
#
#
#
# Elastic Constant Matrix: (Units=GPa)
#
#
# Indices 1 2 3 4 5 6 
#
# 1 121.7599 -2.0382 54.3904 0.0000 33.1455 0.0000
# 2 -2.0382 73.0150 3.5596 0.0000 -0.3588 0.0000
# 3 54.3904 3.5596 171.0176 0.0000 29.3387 0.0000
# 4 0.0000 0.0000 0.0000 8.4160 0.0000 -1.9613
# 5 33.1455 -0.3588 29.3387 0.0000 40.5793 0.0000
# 6 0.0000 0.0000 0.0000 -1.9613 0.0000 7.2784
#
#
#
# Elastic Compliance Matrix: (Units=1/GPa)
#
#
# Indices 1 2 3 4 5 6 
#
# 1 0.011310 0.000391 -0.002307 0.000000 -0.007566 0.000000
# 2 0.000391 0.013728 -0.000429 0.000000 0.000112 0.000000
# 3 -0.002307 -0.000429 0.007155 0.000000 -0.003292 0.000000
# 4 0.000000 0.000000 0.000000 0.126784 0.000000 0.034165
# 5 -0.007566 0.000112 -0.003292 0.000000 0.033205 0.000000
# 6 0.000000 0.000000 0.000000 0.034165 0.000000 0.146600
#
#
# Mechanical properties :
#
#
# Convention : Reuss Voigt Hill
#
# Bulk Modulus (GPa) = 36.36108 53.06845 44.71476
# Shear Modulus (GPa) = 14.17878 31.91343 23.04611
#
# Velocity S-wave (km/s) = 2.50011 3.75082 3.18742
# Velocity P-wave (km/s) = 4.93594 6.49253 5.76699
#
# Compressibility (1/GPa) = 0.02750194
#
# Stress axis : x y z
#
# Youngs Moduli (GPa) = 88.41948 72.84271 139.76579
#
# Poissons Ratio (x) = -0.02848 0.32244
# Poissons Ratio (y) = -0.03457 0.06001
# Poissons Ratio (z) = 0.20399 0.03128
#
# Static dielectric constant tensor:
#      x y z
#    x 1.847880 0.000000 -0.023810 
#    y 0.000000 2.081240 0.000000 
#    z -0.023810 0.000000 1.874810 
# 
# From -- ./inp_files/172378.got.cif
#   From: 2010.05.17/outbox.cif.g08.bks.cpg/sg12_87_cif.got.tgz:172378.got - 2010.06.03 13:09:07.
