data_PCOD9200664
_publ_section_title
;
Structure prediction by ZEFSAII (Michael W. Deem and Ramdas Pophale) SiO2 
 PCOD9200664
Probable space group: C 2/M
;
_chemical_formula_sum "Si O2"
_cell_formula_units_Z 64
_cell_length_a 20.980504
_cell_length_b 8.525346
_cell_length_c 22.797693
_cell_angle_alpha 90.000000
_cell_angle_beta 123.783458
_cell_angle_gamma 90.000000
_cell_volume 3389.187931
_symmetry_space_group_name_H-M "C 2/M"
_symmetry_group_IT_number 12
_symmetry_cell_setting 'monoclinic'
loop_
_space_group_symop_operation_xyz
x,y,z
-x,y,-z
-x,-y,-z
x,-y,z
1/2+x,1/2+y,z
1/2-x,1/2+y,-z
1/2-x,1/2-y,-z
1/2+x,1/2-y,z
loop_
_atom_site_type_symbol
_atom_site_label
_atom_site_fract_x
_atom_site_fract_y
_atom_site_fract_z
Si Si1 0.349730 0.810531 0.170383
Si Si2 0.720515 0.811653 0.547586
Si Si3 0.499909 0.811629 0.682059
Si Si4 0.549073 0.311854 0.468711
Si Si5 0.901883 0.308677 0.067765
Si Si6 0.134788 0.812008 0.302584
Si Si7 0.681174 0.810476 0.092837
Si Si8 0.921050 0.310355 0.849603
O O1 0.418995 0.761687 0.248444
O O2 0.369760 0.757824 0.114304
O O3 0.267172 0.747609 0.146132
O O4 0.347633 0.000000 0.169240
O O5 0.750000 0.750000 0.500000
O O6 0.636325 0.746794 0.517079
O O7 0.783389 0.764508 0.628279
O O8 0.717391 0.000000 0.543651
O O9 0.486991 0.751668 0.609908
O O10 0.431740 0.749464 0.688426
O O11 0.496903 0.000000 0.681074
O O12 0.500000 0.261010 0.500000
O O13 0.549320 0.500000 0.466503
O O14 0.901725 0.500000 0.067762
O O15 0.990186 0.258853 0.105303
O O16 0.851044 0.256462 0.986717
O O17 0.119415 0.747537 0.230088
O O18 0.131672 0.000000 0.300039
O O19 0.624623 0.758790 0.115978
O O20 0.681023 0.000000 0.092345
O O21 0.921550 0.500000 0.849354
#
# Coordination Sequence:
#
# PCOD9200664 Si02
#       8
#     8   8   8   8   8   8   8   8
#     4  10  21  37  58  84 117 155 193 240 294 353
#     4  11  23  39  63  91 120 155 198 246 296 352
#     4  11  22  39  64  88 115 157 200 241 292 353
#     4  11  25  43  63  91 126 160 197 244 296 352
#     4   9  17  35  59  83 112 152 201 242 287 347
#     4  11  23  38  60  90 120 151 193 246 295 347
#     4  10  21  35  57  86 116 153 195 246 295 343
#     4  10  20  37  59  84 115 153 199 242 290 350
#
# _framework density 18.883579000000001
#
# number of rings (size 3 to 8) (size 9 to 14) (size 15 to 20)
#    0.000    1.625    2.500    2.250    0.000    6.500 
#    0.000    5.625    0.000    1.500    0.000    0.000 
#    0.000    0.000    0.000    0.000    0.000    0.000 
#
# Total GULP energy -178825.583228 kJ/mol
# GULP energy per Si atom -5588.299476 kJ/mol
# Density = 1.884060 g / cm^3
# Si number density = 18.883579 Si / 1000 Ang^3
#
#
#
# Elastic Constant Matrix: (Units=GPa)
#
#
# Indices 1 2 3 4 5 6 
#
# 1 85.0363 4.2137 8.8207 0.0000 9.3403 0.0000
# 2 4.2137 10.6875 4.9326 0.0000 1.5605 0.0000
# 3 8.8207 4.9326 90.5930 0.0000 16.4782 0.0000
# 4 0.0000 0.0000 0.0000 22.7385 0.0000 1.0324
# 5 9.3403 1.5605 16.4782 0.0000 25.3138 0.0000
# 6 0.0000 0.0000 0.0000 1.0324 0.0000 30.6203
#
#
#
# Elastic Compliance Matrix: (Units=1/GPa)
#
#
# Indices 1 2 3 4 5 6 
#
# 1 0.012451 -0.004195 -0.000222 0.000000 -0.004191 0.000000
# 2 -0.004195 0.097574 -0.004641 0.000000 -0.001446 0.000000
# 3 -0.000222 -0.004641 0.012756 0.000000 -0.007936 0.000000
# 4 0.000000 0.000000 0.000000 0.044046 0.000000 -0.001485
# 5 -0.004191 -0.001446 -0.007936 0.000000 0.046306 0.000000
# 6 0.000000 0.000000 0.000000 -0.001485 0.000000 0.032708
#
#
# Mechanical properties :
#
#
# Convention : Reuss Voigt Hill
#
# Bulk Modulus (GPa) = 9.55417 24.69453 17.12435
# Shear Modulus (GPa) = 16.73111 26.95784 21.84448
#
# Velocity S-wave (km/s) = 2.97983 3.78243 3.40486
# Velocity P-wave (km/s) = 4.11214 5.67286 4.95434
#
# Compressibility (1/GPa) = 0.10466631
#
# Stress axis : x y z
#
# Youngs Moduli (GPa) = 80.31558 10.24861 78.39370
#
# Poissons Ratio (x) = 0.04299 0.01737
# Poissons Ratio (y) = 0.33690 0.36384
# Poissons Ratio (z) = 0.01779 0.04757
#
# Static dielectric constant tensor:
#      x y z
#    x 1.621050 0.000000 0.001960 
#    y 0.000000 1.649280 0.000000 
#    z 0.001960 0.000000 1.623010 
# 
# From -- ./inp_files/320046.got.cif
#   From: 2010.05.17/outbox.cif.g08.bks.cpg/sg12_161_cif.got.tgz:320046.got - 2010.06.03 13:09:07.
