data_PCOD9200705
_publ_section_title
;
Structure prediction by ZEFSAII (Michael W. Deem and Ramdas Pophale) SiO2 
 PCOD9200705
Probable space group: C 2/M
;
_chemical_formula_sum "Si O2"
_cell_formula_units_Z 56
_cell_length_a 8.354654
_cell_length_b 11.904296
_cell_length_c 32.015052
_cell_angle_alpha 90.000000
_cell_angle_beta 55.548297
_cell_angle_gamma 90.000000
_cell_volume 2625.617683
_symmetry_space_group_name_H-M "C 2/M"
_symmetry_group_IT_number 12
_symmetry_cell_setting 'monoclinic'
loop_
_space_group_symop_operation_xyz
x,y,z
-x,y,-z
-x,-y,-z
x,-y,z
1/2+x,1/2+y,z
1/2-x,1/2+y,-z
1/2-x,1/2-y,-z
1/2+x,1/2-y,z
loop_
_atom_site_type_symbol
_atom_site_label
_atom_site_fract_x
_atom_site_fract_y
_atom_site_fract_z
Si Si1 0.592167 0.129246 0.182723
Si Si2 0.007974 0.684595 0.708415
Si Si3 0.021092 0.791284 0.118164
Si Si4 0.044901 0.869573 0.348120
Si Si5 0.500000 0.290156 0.500000
Si Si6 0.893740 0.500000 0.661395
Si Si7 0.551009 0.127274 0.944380
Si Si8 0.912086 0.319092 0.426321
O O1 0.539713 0.175803 0.236048
O O2 0.501877 0.206364 0.160048
O O3 0.824866 0.138130 0.143390
O O4 0.528432 0.000000 0.189149
O O5 0.980854 0.807327 0.692468
O O6 0.230975 0.643539 0.670507
O O7 0.880427 0.599009 0.699764
O O8 0.216851 0.861169 0.095165
O O9 0.041386 0.715661 0.073678
O O10 0.920720 0.797732 0.399121
O O11 0.994362 0.000000 0.352815
O O12 0.690275 0.360022 0.459883
O O13 0.539002 0.211319 0.533823
O O14 0.947045 0.402373 0.618520
O O15 0.488991 0.000000 0.943766
O O16 0.500000 0.150406 0.000000
#
# Coordination Sequence:
#
# PCOD9200705 Si02
#       8
#     8   8   8   8   4   4   8   8
#     4  11  21  38  60  86 123 159 199 251 305 361
#     4  11  22  41  64  91 118 161 206 244 304 363
#     4  10  22  36  57  89 121 160 203 252 305 362
#     4  11  23  43  64  89 122 157 197 250 299 354
#     4  10  22  42  58  90 124 148 204 236 302 364
#     4  10  20  38  64  86 118 158 193 244 298 344
#     4  10  20  37  59  85 119 162 208 254 303 358
#     4  10  22  41  61  90 118 157 196 244 295 365
#
# _framework density 21.328316000000001
#
# number of rings (size 3 to 8) (size 9 to 14) (size 15 to 20)
#    0.000    1.571    1.429    3.857    0.000    0.571 
#   16.714    3.571    0.000    6.857    0.000    0.000 
#    0.000    0.000    0.000    0.000    0.000    0.000 
#
# Total GULP energy -156048.552466 kJ/mol
# GULP energy per Si atom -5573.162588 kJ/mol
# Density = 2.127977 g / cm^3
# Si number density = 21.328316 Si / 1000 Ang^3
#
#
#
# Elastic Constant Matrix: (Units=GPa)
#
#
# Indices 1 2 3 4 5 6 
#
# 1 21.3599 0.2520 -13.1850 0.0000 -1.5396 0.0000
# 2 0.2520 139.0172 33.0750 0.0000 20.2745 0.0000
# 3 -13.1850 33.0750 87.7567 0.0000 26.6896 0.0000
# 4 0.0000 0.0000 0.0000 13.1073 0.0000 0.1501
# 5 -1.5396 20.2745 26.6896 0.0000 35.1920 0.0000
# 6 0.0000 0.0000 0.0000 0.1501 0.0000 0.3824
#
#
#
# Elastic Compliance Matrix: (Units=1/GPa)
#
#
# Indices 1 2 3 4 5 6 
#
# 1 0.052622 -0.001840 0.009849 0.000000 -0.004107 -0.000001
# 2 -0.001840 0.008214 -0.002481 0.000000 -0.002931 0.000000
# 3 0.009849 -0.002481 0.017215 0.000000 -0.011196 0.000000
# 4 0.000000 0.000000 0.000000 0.076638 0.000000 -0.030080
# 5 -0.004107 -0.002931 -0.011196 0.000000 0.038415 0.000001
# 6 -0.000001 0.000000 0.000000 -0.030080 0.000001 2.626759
#
#
# Mechanical properties :
#
#
# Convention : Reuss Voigt Hill
#
# Bulk Modulus (GPa) = 11.22245 32.04645 21.63445
# Shear Modulus (GPa) = 1.76149 24.93581 13.34865
#
# Velocity S-wave (km/s) = 0.90977 3.42298 2.50444
# Velocity P-wave (km/s) = 2.52523 5.53898 4.30448
#
# Compressibility (1/GPa) = 0.08910708
#
# Stress axis : x y z
#
# Youngs Moduli (GPa) = 19.00362 121.73660 58.08973
#
# Poissons Ratio (x) = 0.22394 -0.57210
# Poissons Ratio (y) = 0.03496 0.14411
# Poissons Ratio (z) = -0.18716 0.30201
#
# Static dielectric constant tensor:
#      x y z
#    x 1.836440 0.000000 -0.022790 
#    y 0.000000 1.722230 0.000000 
#    z -0.022790 0.000000 1.737960 
# 
# From -- ./inp_files/372113.got.cif
#   From: 2010.05.17/outbox.cif.g08.bks.cpg/sg12_187_cif.got.tgz:372113.got - 2010.06.03 13:09:07.
