data_PCOD9200267
_publ_section_title
;
Structure prediction by ZEFSAII (Michael W. Deem and Ramdas Pophale) SiO2 
 PCOD9200267
Probable space group: C 2/M
;
_chemical_formula_sum "Si O2"
_cell_formula_units_Z 64
_cell_length_a 30.021061
_cell_length_b 7.911997
_cell_length_c 12.168633
_cell_angle_alpha 90.000000
_cell_angle_beta 88.371631
_cell_angle_gamma 90.000000
_cell_volume 2889.206122
_symmetry_space_group_name_H-M "C 2/M"
_symmetry_group_IT_number 12
_symmetry_cell_setting 'monoclinic'
loop_
_space_group_symop_operation_xyz
x,y,z
-x,y,-z
-x,-y,-z
x,-y,z
1/2+x,1/2+y,z
1/2-x,1/2+y,-z
1/2-x,1/2-y,-z
1/2+x,1/2-y,z
loop_
_atom_site_type_symbol
_atom_site_label
_atom_site_fract_x
_atom_site_fract_y
_atom_site_fract_z
Si Si1 0.796574 0.699202 0.051760
Si Si2 0.394956 0.697686 0.032228
Si Si3 0.841610 0.697311 0.684191
Si Si4 0.003657 0.197134 0.376357
Si Si5 0.256583 0.797742 0.286542
Si Si6 0.087280 0.301367 0.721885
Si Si7 0.426492 0.696795 0.802715
Si Si8 0.669219 0.206422 0.564009
O O1 0.803058 0.500000 0.035136
O O2 0.842091 0.785615 0.011255
O O3 0.788761 0.732731 0.181179
O O4 0.750000 0.750000 0.000000
O O5 0.405442 0.500000 0.042635
O O6 0.404932 0.779576 0.148997
O O7 0.422133 0.769402 0.926011
O O8 0.854091 0.500000 0.684065
O O9 0.791072 0.715269 0.728429
O O10 0.877517 0.793217 0.753611
O O11 0.840718 0.761235 0.558673
O O12 0.956335 0.209559 0.319836
O O13 0.000000 0.271017 0.500000
O O14 0.039835 0.273458 0.289415
O O15 0.016628 0.000000 0.390606
O O16 0.283351 0.736098 0.391318
O O17 0.249490 0.000000 0.294033
O O18 0.081529 0.500000 0.699061
O O19 0.130129 0.242202 0.649584
O O20 0.439322 0.500000 0.815756
O O21 0.670763 0.000000 0.563616
#
# Coordination Sequence:
#
# PCOD9200267 Si02
#       8
#     8   8   8   8   8   8   8   8
#     4  11  22  37  58  83 117 161 205 252 299 351
#     4  11  23  40  61  86 118 159 204 247 297 356
#     4  11  22  35  57  88 118 150 198 250 293 349
#     4  10  22  42  67  94 122 155 200 246 293 360
#     4  10  20  37  56  77 115 160 196 235 298 359
#     4  11  22  40  65  91 122 159 199 248 306 358
#     4  10  23  42  61  84 120 159 193 238 301 358
#     4   9  19  37  57  82 118 156 192 239 298 356
#
# _framework density 22.151413000000002
#
# number of rings (size 3 to 8) (size 9 to 14) (size 15 to 20)
#    0.000    1.625    1.250    3.375    0.000    6.250 
#    0.000    5.000    0.000    0.000    0.000    0.000 
#    0.000    0.000    0.000    0.000    0.000    0.000 
#
# Total GULP energy -178851.453489 kJ/mol
# GULP energy per Si atom -5589.107922 kJ/mol
# Density = 2.210100 g / cm^3
# Si number density = 22.151413 Si / 1000 Ang^3
#
#
#
# Elastic Constant Matrix: (Units=GPa)
#
#
# Indices 1 2 3 4 5 6 
#
# 1 82.0107 -6.7974 8.9899 0.0000 -10.2070 0.0000
# 2 -6.7974 15.9823 21.9298 0.0000 -14.9111 0.0000
# 3 8.9899 21.9298 28.1267 0.0000 -4.9765 0.0000
# 4 0.0000 0.0000 0.0000 18.1879 0.0000 2.5579
# 5 -10.2070 -14.9111 -4.9765 0.0000 34.9143 0.0000
# 6 0.0000 0.0000 0.0000 2.5579 0.0000 20.8361
#
#
#
# Elastic Compliance Matrix: (Units=1/GPa)
#
#
# Indices 1 2 3 4 5 6 
#
# 1 0.007370 -0.026076 0.016810 0.000000 -0.006586 0.000000
# 2 -0.026076 -0.120892 0.094491 0.000000 -0.045785 0.000000
# 3 0.016810 0.094491 -0.036400 0.000000 0.040081 0.000000
# 4 0.000000 0.000000 0.000000 0.055948 0.000000 -0.006868
# 5 -0.006586 -0.045785 0.040081 0.000000 0.012875 0.000000
# 6 0.000000 0.000000 0.000000 -0.006868 0.000000 0.048837
#
#
# Mechanical properties :
#
#
# Convention : Reuss Voigt Hill
#
# Bulk Modulus (GPa) = 48.71683 19.37380 34.04531
# Shear Modulus (GPa) = -25.52711 21.58748 -1.96982
#
# Velocity S-wave (km/s) = -3.39837 3.12515 -0.94402
# Velocity P-wave (km/s) = 2.57717 4.66767 3.77021
#
# Compressibility (1/GPa) = 0.02052679
#
# Stress axis : x y z
#
# Youngs Moduli (GPa) = 135.68922 -8.27184 -27.47221
#
# Poissons Ratio (x) = -0.21570 0.46182
# Poissons Ratio (y) = 3.53829 2.59587
# Poissons Ratio (z) = -2.28099 0.78161
#
# Static dielectric constant tensor:
#      x y z
#    x 1.853280 0.000000 0.000320 
#    y 0.000000 1.830690 0.000000 
#    z 0.000320 0.000000 1.845960 
# 
# From -- ./inp_files/187628.got.cif
#   From: 2010.05.17/outbox.cif.g08.bks.cpg/sg12_94_cif.got.tgz:187628.got - 2010.06.03 13:09:07.
