data_PCOD9200532
_publ_section_title
;
Structure prediction by ZEFSAII (Michael W. Deem and Ramdas Pophale) SiO2 
 PCOD9200532
Probable space group: C 2/M
;
_chemical_formula_sum "Si O2"
_cell_formula_units_Z 42
_cell_length_a 14.275084
_cell_length_b 7.626327
_cell_length_c 21.598737
_cell_angle_alpha 90.000000
_cell_angle_beta 57.564908
_cell_angle_gamma 90.000000
_cell_volume 1984.562070
_symmetry_space_group_name_H-M "C 2/M"
_symmetry_group_IT_number 12
_symmetry_cell_setting 'monoclinic'
loop_
_space_group_symop_operation_xyz
x,y,z
-x,y,-z
-x,-y,-z
x,-y,z
1/2+x,1/2+y,z
1/2-x,1/2+y,-z
1/2-x,1/2-y,-z
1/2+x,1/2-y,z
loop_
_atom_site_type_symbol
_atom_site_label
_atom_site_fract_x
_atom_site_fract_y
_atom_site_fract_z
Si Si1 0.506997 0.797618 0.810830
Si Si2 0.813028 0.202014 0.790805
Si Si3 0.070230 0.201456 0.918504
Si Si4 0.153411 0.210068 0.485025
Si Si5 0.500000 0.000000 0.500000
Si Si6 0.755205 0.713099 0.317101
O O1 0.400075 0.786592 0.806075
O O2 0.500673 0.705877 0.879471
O O3 0.616555 0.731770 0.736005
O O4 0.528607 0.000000 0.818535
O O5 0.688330 0.212421 0.861673
O O6 0.806150 0.275508 0.723448
O O7 0.846508 0.000000 0.774141
O O8 0.095949 0.000000 0.925346
O O9 0.000000 0.278334 0.000000
O O10 0.250000 0.250000 0.500000
O O11 0.051138 0.342612 0.527745
O O12 0.201626 0.265920 0.400429
O O13 0.127790 0.000000 0.495027
O O14 0.752632 0.500000 0.317752
#
# Coordination Sequence:
#
# PCOD9200532 Si02
#       6
#     8   8   8   8   2   8
#     4  10  20  37  59  86 115 153 198 246 306 362
#     4  10  20  37  58  86 118 152 201 248 300 366
#     4  10  21  37  56  81 114 154 197 247 302 356
#     4  11  23  46  69  98 140 175 225 282 334 408
#     4  12  26  44  68 104 128 184 224 264 344 404
#     4   8  19  39  61  86 122 157 198 256 309 366
#
# _framework density 21.163359
#
# number of rings (size 3 to 8) (size 9 to 14) (size 15 to 20)
#    0.000    2.095    0.952    3.143    0.000    3.810 
#   13.714    1.905    0.000    0.000    0.000    0.000 
#    0.000    0.000    0.000    0.000    0.000    0.000 
#
# Total GULP energy -116947.753994 kJ/mol
# GULP energy per Si atom -5568.940666 kJ/mol
# Density = 2.111519 g / cm^3
# Si number density = 21.163359 Si / 1000 Ang^3
#
#
#
# Elastic Constant Matrix: (Units=GPa)
#
#
# Indices 1 2 3 4 5 6 
#
# 1 134.5612 7.8529 32.1895 0.0000 18.1276 0.0000
# 2 7.8529 96.2736 -5.2283 0.0001 -1.3810 0.0001
# 3 32.1895 -5.2283 120.0466 0.0000 12.0602 0.0000
# 4 0.0000 0.0001 0.0000 -3.0855 0.0000 26.1197
# 5 18.1276 -1.3810 12.0602 0.0000 10.7916 0.0000
# 6 0.0000 0.0001 0.0000 26.1197 0.0000 -8.3208
#
#
#
# Elastic Compliance Matrix: (Units=1/GPa)
#
#
# Indices 1 2 3 4 5 6 
#
# 1 0.009842 -0.001086 -0.001139 0.000000 -0.015398 0.000000
# 2 -0.001086 0.010540 0.000486 0.000000 0.002629 0.000000
# 3 -0.001139 0.000486 0.009528 0.000000 -0.008672 0.000000
# 4 0.000000 0.000000 0.000000 0.012673 0.000000 0.039782
# 5 -0.015398 0.002629 -0.008672 0.000000 0.128557 0.000000
# 6 0.000000 0.000000 0.000000 0.039782 0.000000 0.004700
#
#
# Mechanical properties :
#
#
# Convention : Reuss Voigt Hill
#
# Bulk Modulus (GPa) = 37.83351 46.72329 42.27840
# Shear Modulus (GPa) = 26.57773 20.94821 23.76297
#
# Velocity S-wave (km/s) = 3.54762 3.14958 3.35451
# Velocity P-wave (km/s) = 5.89038 5.94574 5.91812
#
# Compressibility (1/GPa) = 0.02643160
#
# Stress axis : x y z
#
# Youngs Moduli (GPa) = 101.60761 94.87921 104.95396
#
# Poissons Ratio (x) = 0.10300 0.11958
# Poissons Ratio (y) = 0.11030 -0.05100
# Poissons Ratio (z) = 0.11577 -0.04611
#
# Static dielectric constant tensor:
#      x y z
#    x 1.755080 0.000000 -0.022190 
#    y 0.000000 1.777280 0.000000 
#    z -0.022190 0.000000 1.800860 
# 
# From -- ./inp_files/267068.got.cif
#   From: 2010.05.17/outbox.cif.g08.bks.cpg/sg12_134_cif.got.tgz:267068.got - 2010.06.03 13:09:07.
