data_PCOD9200834
_publ_section_title
;
Structure prediction by ZEFSAII (Michael W. Deem and Ramdas Pophale) SiO2 
 PCOD9200834
Probable space group: C 2/M
;
_chemical_formula_sum "Si O2"
_cell_formula_units_Z 58
_cell_length_a 17.119013
_cell_length_b 10.159922
_cell_length_c 17.127436
_cell_angle_alpha 90.000000
_cell_angle_beta 94.123762
_cell_angle_gamma 90.000000
_cell_volume 2971.225558
_symmetry_space_group_name_H-M "C 2/M"
_symmetry_group_IT_number 12
_symmetry_cell_setting 'monoclinic'
loop_
_space_group_symop_operation_xyz
x,y,z
-x,y,-z
-x,-y,-z
x,-y,z
1/2+x,1/2+y,z
1/2-x,1/2+y,-z
1/2-x,1/2-y,-z
1/2+x,1/2-y,z
loop_
_atom_site_type_symbol
_atom_site_label
_atom_site_fract_x
_atom_site_fract_y
_atom_site_fract_z
Si Si1 0.185031 0.851765 0.022776
Si Si2 0.500000 0.000000 0.000000
Si Si3 0.380321 0.344530 0.536664
Si Si4 0.927410 0.729797 0.099680
Si Si5 0.945305 0.156205 0.379695
Si Si6 0.198052 0.160037 0.319041
Si Si7 0.910449 0.157151 0.828015
Si Si8 0.866065 0.344441 0.257598
O O1 0.114775 0.839808 0.955251
O O2 0.216123 0.000000 0.027175
O O3 0.250000 0.750000 0.000000
O O4 0.149555 0.819307 0.104950
O O5 0.449999 0.113836 0.042941
O O6 0.364622 0.500000 0.526094
O O7 0.465204 0.334014 0.584635
O O8 0.392175 0.295893 0.449450
O O9 0.318290 0.289671 0.594453
O O10 0.871749 0.682826 0.166005
O O11 0.007943 0.777356 0.144632
O O12 0.926629 0.249515 0.306341
O O13 0.931289 0.000000 0.362665
O O14 0.129934 0.203847 0.254732
O O15 0.281348 0.190691 0.287137
O O16 0.193471 0.000000 0.321556
O O17 0.922122 0.000000 0.823199
O O18 0.880807 0.500000 0.272300
#
# Coordination Sequence:
#
# PCOD9200834 Si02
#       8
#     8   2   8   8   8   8   8   8
#     4  11  24  38  59  87 118 150 189 238 291 351
#     4  12  24  40  62  80 108 158 196 246 300 354
#     4   8  15  32  57  83 108 144 190 227 270 328
#     4  12  23  40  60  81 110 150 199 240 291 348
#     4   9  18  34  59  85 110 143 187 234 273 327
#     4   9  18  33  54  81 111 147 181 224 278 339
#     4  10  20  37  60  84 106 139 190 243 283 330
#     4  11  23  36  54  82 116 147 184 228 288 345
#
# _framework density 19.520565000000001
#
# number of rings (size 3 to 8) (size 9 to 14) (size 15 to 20)
#    0.000    1.931    2.069    2.897    0.966    4.966 
#    0.000    1.379    1.517    0.828    0.000    0.000 
#    0.000    0.000    0.000    0.000    0.000    0.000 
#
# Total GULP energy -161562.953411 kJ/mol
# GULP energy per Si atom -5571.136325 kJ/mol
# Density = 1.947614 g / cm^3
# Si number density = 19.520565 Si / 1000 Ang^3
#
#
#
# Elastic Constant Matrix: (Units=GPa)
#
#
# Indices 1 2 3 4 5 6 
#
# 1 40.9449 13.1889 5.2387 0.0000 -21.8715 0.0000
# 2 13.1889 37.3837 21.5175 0.0000 -10.8001 0.0000
# 3 5.2387 21.5175 89.0963 0.0000 -27.8001 0.0000
# 4 0.0000 0.0000 0.0000 16.8873 0.0000 -8.8103
# 5 -21.8715 -10.8001 -27.8001 0.0000 41.6765 0.0000
# 6 0.0000 0.0000 0.0000 -8.8103 0.0000 2.5105
#
#
#
# Elastic Compliance Matrix: (Units=1/GPa)
#
#
# Indices 1 2 3 4 5 6 
#
# 1 0.039327 -0.011691 0.007584 0.000000 0.022668 0.000000
# 2 -0.011691 0.035040 -0.008658 0.000000 -0.002830 0.000000
# 3 0.007584 -0.008658 0.016936 0.000000 0.013033 0.000000
# 4 0.000000 0.000000 0.000000 -0.071269 0.000000 -0.250111
# 5 0.022668 -0.002830 0.013033 0.000000 0.043850 0.000000
# 6 0.000000 0.000000 0.000000 -0.250111 0.000000 -0.479405
#
#
# Mechanical properties :
#
#
# Convention : Reuss Voigt Hill
#
# Bulk Modulus (GPa) = 15.20403 27.47946 21.34175
# Shear Modulus (GPa) = -13.58446 20.71351 3.56452
#
# Velocity S-wave (km/s) = -2.64086 3.26101 1.35277
# Velocity P-wave (km/s) = 1.22198 5.31852 3.66015
#
# Compressibility (1/GPa) = 0.06577203
#
# Stress axis : x y z
#
# Youngs Moduli (GPa) = 25.42789 28.53881 59.04736
#
# Poissons Ratio (x) = 0.33365 -0.44781
# Poissons Ratio (y) = 0.29728 0.51124
# Poissons Ratio (z) = -0.19284 0.24710
#
# Static dielectric constant tensor:
#      x y z
#    x 1.709730 0.000000 -0.020380 
#    y 0.000000 1.643850 0.000000 
#    z -0.020380 0.000000 1.701180 
# 
# From -- ./inp_files/275386.got.cif
#   From: 2010.05.17/outbox.cif.g08.bks.cpg/sg12_138_cif.got.tgz:275386.got - 2010.06.03 13:09:07.
