data_PCOD9200775
_publ_section_title
;
Structure prediction by ZEFSAII (Michael W. Deem and Ramdas Pophale) SiO2 
 PCOD9200775
Probable space group: C 2/M
;
_chemical_formula_sum "Si O2"
_cell_formula_units_Z 56
_cell_length_a 10.048635
_cell_length_b 28.457625
_cell_length_c 12.521863
_cell_angle_alpha 90.000000
_cell_angle_beta 116.790971
_cell_angle_gamma 90.000000
_cell_volume 3196.385987
_symmetry_space_group_name_H-M "C 2/M"
_symmetry_group_IT_number 12
_symmetry_cell_setting 'monoclinic'
loop_
_space_group_symop_operation_xyz
x,y,z
-x,y,-z
-x,-y,-z
x,-y,z
1/2+x,1/2+y,z
1/2-x,1/2+y,-z
1/2-x,1/2-y,-z
1/2+x,1/2-y,z
loop_
_atom_site_type_symbol
_atom_site_label
_atom_site_fract_x
_atom_site_fract_y
_atom_site_fract_z
Si Si1 0.122800 0.103329 0.213311
Si Si2 0.641687 0.889102 0.894346
Si Si3 0.351037 0.779666 0.119436
Si Si4 0.675419 0.055241 0.539288
Si Si5 0.687111 0.554724 0.870880
Si Si6 0.649591 0.055242 0.284337
Si Si7 0.076991 0.793814 0.146439
O O1 0.226294 0.103074 0.144984
O O2 0.225381 0.086876 0.347920
O O3 0.062751 0.156580 0.199434
O O4 0.978679 0.070277 0.157602
O O5 0.623155 0.833330 0.906000
O O6 0.491686 0.912844 0.796602
O O7 0.695817 0.914501 0.020633
O O8 0.250085 0.783275 0.187903
O O9 0.499273 0.749155 0.177661
O O10 0.250000 0.750000 0.000000
O O11 0.500000 0.062229 0.500000
O O12 0.700598 0.064805 0.423352
O O13 0.708482 0.000000 0.572278
O O14 0.709668 0.500000 0.904258
O O15 0.723040 0.561502 0.758630
O O16 0.603374 0.000000 0.264371
O O17 0.000000 0.799288 0.000000
#
# Coordination Sequence:
#
# PCOD9200775 Si02
#       7
#     8   8   8   8   8   8   8
#     4  11  21  35  56  82 109 143 183 229 273 318
#     4  11  21  35  56  82 111 148 183 217 268 331
#     4   9  18  31  50  76 107 140 175 217 263 322
#     4  10  20  37  60  79 102 145 194 227 256 315
#     4  11  23  34  50  82 120 146 172 224 281 322
#     4  10  22  38  54  79 111 146 188 224 261 317
#     4   9  18  33  52  79 110 137 175 222 270 322
#
# _framework density 17.519787000000001
#
# number of rings (size 3 to 8) (size 9 to 14) (size 15 to 20)
#    0.000    1.857    1.429    4.286    0.000    8.571 
#    0.000    2.143    0.000    0.857    0.000    0.000 
#    0.000    0.000    0.000    0.000    0.000    0.000 
#
# Total GULP energy -156228.173675 kJ/mol
# GULP energy per Si atom -5579.577631 kJ/mol
# Density = 1.747991 g / cm^3
# Si number density = 17.519787 Si / 1000 Ang^3
#
#
#
# Elastic Constant Matrix: (Units=GPa)
#
#
# Indices 1 2 3 4 5 6 
#
# 1 42.5832 40.6704 9.2841 0.0000 -2.5336 0.0000
# 2 40.6704 117.9514 48.0996 0.0000 -2.1670 0.0000
# 3 9.2841 48.0996 76.6794 0.0000 -5.9807 0.0000
# 4 0.0000 0.0000 0.0000 9.3392 0.0000 7.6470
# 5 -2.5336 -2.1670 -5.9807 0.0000 20.2149 0.0000
# 6 0.0000 0.0000 0.0000 7.6470 0.0000 29.9949
#
#
#
# Elastic Compliance Matrix: (Units=1/GPa)
#
#
# Indices 1 2 3 4 5 6 
#
# 1 0.036598 -0.014610 0.005087 0.000000 0.004526 0.000000
# 2 -0.014610 0.017241 -0.009259 0.000000 -0.002722 0.000000
# 3 0.005087 -0.009259 0.018635 0.000000 0.005158 0.000000
# 4 0.000000 0.000000 0.000000 0.135324 0.000000 -0.034500
# 5 0.004526 -0.002722 0.005158 0.000000 0.051270 0.000000
# 6 0.000000 0.000000 0.000000 -0.034500 0.000000 0.042135
#
#
# Mechanical properties :
#
#
# Convention : Reuss Voigt Hill
#
# Bulk Modulus (GPa) = 28.64496 48.14689 38.39593
# Shear Modulus (GPa) = 14.26923 21.18714 17.72818
#
# Velocity S-wave (km/s) = 2.85698 3.48131 3.18448
# Velocity P-wave (km/s) = 5.22194 6.61063 5.95689
#
# Compressibility (1/GPa) = 0.03491015
#
# Stress axis : x y z
#
# Youngs Moduli (GPa) = 27.32416 58.00030 53.66110
#
# Poissons Ratio (x) = 0.84740 -0.27295
# Poissons Ratio (y) = 0.39921 0.49682
# Poissons Ratio (z) = -0.13899 0.53700
#
# Static dielectric constant tensor:
#      x y z
#    x 1.639370 0.000000 -0.000330 
#    y 0.000000 1.599730 0.000000 
#    z -0.000330 0.000000 1.581890 
# 
# From -- ./inp_files/135466.got.cif
#   From: 2010.05.17/outbox.cif.g08.bks.cpg/sg12_68_cif.got.tgz:135466.got - 2010.06.03 13:09:07.
