data_PCOD9200671
_publ_section_title
;
Structure prediction by ZEFSAII (Michael W. Deem and Ramdas Pophale) SiO2 
 PCOD9200671
Probable space group: C 2/M
;
_chemical_formula_sum "Si O2"
_cell_formula_units_Z 56
_cell_length_a 26.143778
_cell_length_b 9.550333
_cell_length_c 18.636331
_cell_angle_alpha 90.000000
_cell_angle_beta 37.487492
_cell_angle_gamma 90.000000
_cell_volume 2831.853743
_symmetry_space_group_name_H-M "C 2/M"
_symmetry_group_IT_number 12
_symmetry_cell_setting 'monoclinic'
loop_
_space_group_symop_operation_xyz
x,y,z
-x,y,-z
-x,-y,-z
x,-y,z
1/2+x,1/2+y,z
1/2-x,1/2+y,-z
1/2-x,1/2-y,-z
1/2+x,1/2-y,z
loop_
_atom_site_type_symbol
_atom_site_label
_atom_site_fract_x
_atom_site_fract_y
_atom_site_fract_z
Si Si1 0.208742 0.839009 0.110808
Si Si2 0.596471 0.332816 0.364961
Si Si3 0.879266 0.840239 0.152306
Si Si4 0.322993 0.664014 0.459506
Si Si5 0.876427 0.659367 0.013779
Si Si6 0.682350 0.837702 0.394498
Si Si7 0.482418 0.339902 0.179416
O O1 0.125073 0.798454 0.250505
O O2 0.197054 0.000000 0.099146
O O3 0.250000 0.750000 0.000000
O O4 0.282626 0.836346 0.088097
O O5 0.500000 0.313745 0.500000
O O6 0.614987 0.500000 0.352877
O O7 0.651112 0.235559 0.356716
O O8 0.783536 0.838805 0.285827
O O9 0.941310 0.804331 0.147964
O O10 0.897532 0.000000 0.109432
O O11 0.882468 0.737783 0.082253
O O12 0.298950 0.500000 0.496015
O O13 0.250000 0.750000 0.500000
O O14 0.344224 0.740610 0.509982
O O15 0.406271 0.668463 0.319070
O O16 0.902734 0.500000 0.992179
O O17 0.940552 0.739228 0.890333
O O18 0.654277 0.000000 0.430401
O O19 0.512115 0.500000 0.144576
#
# Coordination Sequence:
#
# PCOD9200671 Si02
#       7
#     8   8   8   8   8   8   8
#     4  10  23  42  64  91 122 157 202 255 313 374
#     4  10  22  43  68  93 122 158 206 261 317 379
#     4  10  20  37  59  84 117 159 201 240 289 355
#     4  11  22  38  59  85 121 163 206 250 299 356
#     4  11  23  38  58  89 121 152 198 252 302 353
#     4  11  22  38  62  91 121 157 201 247 302 362
#     4  10  22  39  57  84 122 163 204 241 290 358
#
# _framework density 19.775031999999999
#
# number of rings (size 3 to 8) (size 9 to 14) (size 15 to 20)
#    0.000    1.571    2.857    1.714    0.000    7.143 
#    0.000    4.286    0.000    0.000    0.000    0.000 
#    0.000    0.000    0.000    0.000    0.000    0.000 
#
# Total GULP energy -156257.296913 kJ/mol
# GULP energy per Si atom -5580.617747 kJ/mol
# Density = 1.973002 g / cm^3
# Si number density = 19.775032 Si / 1000 Ang^3
#
#
#
# Elastic Constant Matrix: (Units=GPa)
#
#
# Indices 1 2 3 4 5 6 
#
# 1 21.9730 27.5777 20.1870 0.0002 7.9332 -0.0002
# 2 27.5777 86.6845 47.1163 0.0002 13.8449 -0.0003
# 3 20.1870 47.1163 114.5563 -0.0008 12.1234 0.0002
# 4 0.0002 0.0002 -0.0008 32.3384 0.0000 1.6252
# 5 7.9332 13.8449 12.1234 0.0000 38.6704 0.0001
# 6 -0.0002 -0.0003 0.0002 1.6252 0.0001 28.1859
#
#
#
# Elastic Compliance Matrix: (Units=1/GPa)
#
#
# Indices 1 2 3 4 5 6 
#
# 1 0.079350 -0.021784 -0.004268 -0.000001 -0.007142 0.000000
# 2 -0.021784 0.021316 -0.004751 0.000000 -0.001673 0.000000
# 3 -0.004268 -0.004751 0.011546 0.000000 -0.001043 0.000000
# 4 -0.000001 0.000000 0.000000 0.031013 0.000000 -0.001788
# 5 -0.007142 -0.001673 -0.001043 0.000000 0.028251 0.000000
# 6 0.000000 0.000000 0.000000 -0.001788 0.000000 0.035582
#
#
# Mechanical properties :
#
#
# Convention : Reuss Voigt Hill
#
# Bulk Modulus (GPa) = 19.76044 45.88620 32.82332
# Shear Modulus (GPa) = 17.51113 28.39446 22.95280
#
# Velocity S-wave (km/s) = 2.97899 3.79340 3.41059
# Velocity P-wave (km/s) = 4.67406 6.51468 5.66956
#
# Compressibility (1/GPa) = 0.05060617
#
# Stress axis : x y z
#
# Youngs Moduli (GPa) = 12.60238 46.91248 86.61031
#
# Poissons Ratio (x) = 1.02195 0.36961
# Poissons Ratio (y) = 0.27453 0.41152
# Poissons Ratio (z) = 0.05378 0.22290
#
# Static dielectric constant tensor:
#      x y z
#    x 1.680810 0.000000 0.003430 
#    y 0.000000 1.686530 0.000000 
#    z 0.003430 0.000000 1.759010 
# 
# From -- ./inp_files/292385.got.cif
#   From: 2010.05.17/outbox.cif.g08.bks.cpg/sg12_147_cif.got.tgz:292385.got - 2010.06.03 13:09:07.
