data_PCOD9200372
_publ_section_title
;
Structure prediction by ZEFSAII (Michael W. Deem and Ramdas Pophale) SiO2 
 PCOD9200372
Probable space group: C 2/M
;
_chemical_formula_sum "Si O2"
_cell_formula_units_Z 58
_cell_length_a 29.628052
_cell_length_b 7.484509
_cell_length_c 22.652868
_cell_angle_alpha 90.000000
_cell_angle_beta 148.852633
_cell_angle_gamma 90.000000
_cell_volume 2598.259843
_symmetry_space_group_name_H-M "C 2/M"
_symmetry_group_IT_number 12
_symmetry_cell_setting 'monoclinic'
loop_
_space_group_symop_operation_xyz
x,y,z
-x,y,-z
-x,-y,-z
x,-y,z
1/2+x,1/2+y,z
1/2-x,1/2+y,-z
1/2-x,1/2-y,-z
1/2+x,1/2-y,z
loop_
_atom_site_type_symbol
_atom_site_label
_atom_site_fract_x
_atom_site_fract_y
_atom_site_fract_z
Si Si1 0.000000 0.500000 0.000000
Si Si2 0.767204 0.213024 0.756904
Si Si3 0.597091 0.707152 0.185145
Si Si4 0.521108 0.783054 0.218231
Si Si5 0.339519 0.791258 0.959916
Si Si6 0.929072 0.280562 0.468886
Si Si7 0.691493 0.287590 0.877162
Si Si8 0.991476 0.704799 0.664950
O O1 0.029244 0.343928 0.080522
O O2 0.811382 0.255354 0.743855
O O3 0.830362 0.278331 0.879600
O O4 0.669067 0.279702 0.654906
O O5 0.763884 0.000000 0.758360
O O6 0.577834 0.500000 0.148916
O O7 0.592506 0.727617 0.250284
O O8 0.531352 0.717121 0.296605
O O9 0.518599 0.000000 0.217253
O O10 0.427814 0.717676 0.087202
O O11 0.250513 0.718252 0.889088
O O12 0.340052 0.000000 0.976311
O O13 0.930176 0.500000 0.469996
O O14 0.000000 0.223673 0.500000
O O15 0.954589 0.217830 0.562999
O O16 0.677415 0.500000 0.855705
O O17 0.596470 0.204902 0.777043
O O18 0.750000 0.250000 0.000000
O O19 0.960272 0.500000 0.631267
#
# Coordination Sequence:
#
# PCOD9200372 Si02
#       8
#     2   8   8   8   8   8   8   8
#     4  12  22  40  64  90 130 172 208 260 312 380
#     4  10  22  38  58  89 119 152 207 258 306 370
#     4  11  24  39  60  91 128 168 213 262 315 373
#     4  10  20  37  57  84 121 161 206 251 309 377
#     4  10  21  34  53  80 115 156 193 238 300 371
#     4   9  18  36  63  91 119 156 203 259 314 375
#     4  11  21  35  52  80 118 151 191 242 300 368
#     4  10  20  37  62  86 116 159 205 252 312 373
#
# _framework density 22.322631999999999
#
# number of rings (size 3 to 8) (size 9 to 14) (size 15 to 20)
#    0.000    1.793    2.069    2.276    2.897    4.414 
#    0.000    1.379    0.000    2.483    0.000    0.000 
#    0.000    0.000    0.000    0.000    0.000    0.138 
#
# Total GULP energy -161795.796346 kJ/mol
# GULP energy per Si atom -5579.165391 kJ/mol
# Density = 2.227182 g / cm^3
# Si number density = 22.322632 Si / 1000 Ang^3
#
#
#
# Elastic Constant Matrix: (Units=GPa)
#
#
# Indices 1 2 3 4 5 6 
#
# 1 163.6340 18.9809 38.4059 0.0000 -4.2863 0.0000
# 2 18.9809 85.8807 8.9803 0.0000 1.4632 0.0000
# 3 38.4059 8.9803 80.5090 0.0000 -11.0140 0.0000
# 4 0.0000 0.0000 0.0000 0.6921 0.0000 1.9640
# 5 -4.2863 1.4632 -11.0140 0.0000 32.7910 0.0000
# 6 0.0000 0.0000 0.0000 1.9640 0.0000 13.1227
#
#
#
# Elastic Compliance Matrix: (Units=1/GPa)
#
#
# Indices 1 2 3 4 5 6 
#
# 1 0.007005 -0.001209 -0.003222 0.000000 -0.000113 0.000000
# 2 -0.001209 0.012022 -0.000901 0.000000 -0.000997 0.000000
# 3 -0.003222 -0.000901 0.014681 0.000000 0.004550 0.000000
# 4 0.000000 0.000000 0.000000 2.511249 0.000000 -0.375845
# 5 -0.000113 -0.000997 0.004550 0.000000 0.032054 0.000000
# 6 0.000000 0.000000 0.000000 -0.375845 0.000000 0.132454
#
#
# Mechanical properties :
#
#
# Convention : Reuss Voigt Hill
#
# Bulk Modulus (GPa) = 43.39457 51.41756 47.40607
# Shear Modulus (GPa) = 1.83297 26.89827 14.36562
#
# Velocity S-wave (km/s) = 0.90714 3.47504 2.53957
# Velocity P-wave (km/s) = 4.53642 6.25980 5.46645
#
# Compressibility (1/GPa) = 0.02304436
#
# Stress axis : x y z
#
# Youngs Moduli (GPa) = 142.75999 83.17747 68.11541
#
# Poissons Ratio (x) = 0.10059 0.21947
# Poissons Ratio (y) = 0.17264 0.06134
# Poissons Ratio (z) = 0.45998 0.07491
#
# Static dielectric constant tensor:
#      x y z
#    x 1.870520 0.000000 0.010700 
#    y 0.000000 1.917290 0.000000 
#    z 0.010700 0.000000 1.800330 
# 
# From -- ./inp_files/353104.got.cif
#   From: 2010.05.17/outbox.cif.g08.bks.cpg/sg12_177_cif.got.tgz:353104.got - 2010.06.03 13:09:07.
