data_PCOD9200440
_publ_section_title
;
Structure prediction by ZEFSAII (Michael W. Deem and Ramdas Pophale) SiO2 
 PCOD9200440
Probable space group: C 2/M
;
_chemical_formula_sum "Si O2"
_cell_formula_units_Z 48
_cell_length_a 25.873110
_cell_length_b 8.657260
_cell_length_c 12.132940
_cell_angle_alpha 90.000000
_cell_angle_beta 89.919985
_cell_angle_gamma 90.000000
_cell_volume 2717.657496
_symmetry_space_group_name_H-M "C 2/M"
_symmetry_group_IT_number 12
_symmetry_cell_setting 'monoclinic'
loop_
_space_group_symop_operation_xyz
x,y,z
-x,y,-z
-x,-y,-z
x,-y,z
1/2+x,1/2+y,z
1/2-x,1/2+y,-z
1/2-x,1/2-y,-z
1/2+x,1/2-y,z
loop_
_atom_site_type_symbol
_atom_site_label
_atom_site_fract_x
_atom_site_fract_y
_atom_site_fract_z
Si Si1 0.057277 0.316152 0.879878
Si Si2 0.056619 0.185697 0.120286
Si Si3 0.851556 0.186456 0.262734
Si Si4 0.250102 0.815124 0.877088
Si Si5 0.154358 0.813479 0.262739
Si Si6 0.808262 0.186588 0.498816
O O1 0.057127 0.500000 0.890928
O O2 0.097650 0.262181 0.788079
O O3 0.999389 0.257258 0.855640
O O4 0.072208 0.241775 0.997902
O O5 0.100209 0.232551 0.207723
O O6 0.052276 0.000000 0.119032
O O7 0.802459 0.227835 0.186667
O O8 0.837604 0.234009 0.387324
O O9 0.857315 0.000000 0.260127
O O10 0.298714 0.751534 0.809427
O O11 0.252818 0.000000 0.880588
O O12 0.250000 0.750000 0.000000
O O13 0.162922 0.765340 0.389210
O O14 0.156686 0.000000 0.258805
O O15 0.750000 0.250000 0.500000
O O16 0.805245 0.000000 0.497446
#
# Coordination Sequence:
#
# PCOD9200440 Si02
#       6
#     8   8   8   8   8   8
#     4  11  22  36  57  84 110 143 185 231 275 323
#     4  10  20  37  59  82 111 147 180 222 279 336
#     4  10  21  37  55  78 110 148 185 221 272 332
#     4  11  22  34  52  80 112 146 180 223 277 328
#     4  10  21  36  57  83 110 142 184 227 273 328
#     4  10  20  37  58  81 110 146 187 228 271 326
#
# _framework density 17.662269999999999
#
# number of rings (size 3 to 8) (size 9 to 14) (size 15 to 20)
#    0.000    1.667    1.667    4.500    0.000    7.333 
#    0.000    0.833    0.000    5.000    0.000    0.000 
#    0.000    0.000    0.000    0.000    0.000    0.000 
#
# Total GULP energy -134078.416478 kJ/mol
# GULP energy per Si atom -5586.600687 kJ/mol
# Density = 1.762207 g / cm^3
# Si number density = 17.662270 Si / 1000 Ang^3
#
#
#
# Elastic Constant Matrix: (Units=GPa)
#
#
# Indices 1 2 3 4 5 6 
#
# 1 110.6881 31.7134 95.5704 0.0000 -1.7412 0.0000
# 2 31.7134 32.8389 35.6685 0.0000 3.0872 0.0000
# 3 95.5704 35.6685 181.6926 0.0000 -1.9443 0.0000
# 4 0.0000 0.0000 0.0000 21.1160 0.0000 -7.2069
# 5 -1.7412 3.0872 -1.9443 0.0000 19.3850 0.0000
# 6 0.0000 0.0000 0.0000 -7.2069 0.0000 29.1643
#
#
#
# Elastic Compliance Matrix: (Units=1/GPa)
#
#
# Indices 1 2 3 4 5 6 
#
# 1 0.018655 -0.009677 -0.007887 0.000000 0.002426 0.000000
# 2 -0.009677 0.044678 -0.003770 0.000000 -0.008363 0.000000
# 3 -0.007887 -0.003770 0.010402 0.000000 0.000935 0.000000
# 4 0.000000 0.000000 0.000000 0.051720 0.000000 0.012781
# 5 0.002426 -0.008363 0.000935 0.000000 0.053230 0.000000
# 6 0.000000 0.000000 0.000000 0.012781 0.000000 0.037447
#
#
# Mechanical properties :
#
#
# Convention : Reuss Voigt Hill
#
# Bulk Modulus (GPa) = 32.18811 72.34713 52.26762
# Shear Modulus (GPa) = 18.57664 24.75089 21.66376
#
# Velocity S-wave (km/s) = 3.24662 3.74751 3.50602
# Velocity P-wave (km/s) = 5.68488 7.73146 6.78577
#
# Compressibility (1/GPa) = 0.03106737
#
# Stress axis : x y z
#
# Youngs Moduli (GPa) = 53.60582 22.38217 96.13213
#
# Poissons Ratio (x) = 0.21660 0.75816
# Poissons Ratio (y) = 0.51875 0.36244
# Poissons Ratio (z) = 0.42277 0.08439
#
# Static dielectric constant tensor:
#      x y z
#    x 1.576470 0.000000 0.016230 
#    y 0.000000 1.600890 0.000000 
#    z 0.016230 0.000000 1.591090 
# 
# From -- ./inp_files/172190.got.cif
#   From: 2010.05.17/outbox.cif.g08.bks.cpg/sg12_87_cif.got.tgz:172190.got - 2010.06.03 13:09:07.
