data_PCOD9200983
_publ_section_title
;
Structure prediction by ZEFSAII (Michael W. Deem and Ramdas Pophale) SiO2 
 PCOD9200983
Probable space group: C 2/M
;
_chemical_formula_sum "Si O2"
_cell_formula_units_Z 64
_cell_length_a 16.604640
_cell_length_b 17.547203
_cell_length_c 14.107153
_cell_angle_alpha 90.000000
_cell_angle_beta 132.663705
_cell_angle_gamma 90.000000
_cell_volume 3022.507016
_symmetry_space_group_name_H-M "C 2/M"
_symmetry_group_IT_number 12
_symmetry_cell_setting 'monoclinic'
loop_
_space_group_symop_operation_xyz
x,y,z
-x,y,-z
-x,-y,-z
x,-y,z
1/2+x,1/2+y,z
1/2-x,1/2+y,-z
1/2-x,1/2-y,-z
1/2+x,1/2-y,z
loop_
_atom_site_type_symbol
_atom_site_label
_atom_site_fract_x
_atom_site_fract_y
_atom_site_fract_z
Si Si1 0.407297 0.699298 0.669920
Si Si2 0.814049 0.586611 0.153981
Si Si3 0.109946 0.086992 0.861675
Si Si4 0.591389 0.229776 0.132473
Si Si5 0.800779 0.146348 0.258396
Si Si6 0.758025 0.085609 0.433276
Si Si7 0.981060 0.582689 0.820794
Si Si8 0.951625 0.711973 0.364915
O O1 0.509381 0.644636 0.777041
O O2 0.365698 0.730418 0.737561
O O3 0.317730 0.650094 0.542112
O O4 0.458954 0.765418 0.644081
O O5 0.809304 0.500000 0.190696
O O6 0.859571 0.653508 0.255819
O O7 0.906357 0.583938 0.145760
O O8 0.697713 0.604767 0.013617
O O9 0.172212 0.095554 0.810593
O O10 0.073231 0.000000 0.843938
O O11 0.693206 0.197589 0.155661
O O12 0.527930 0.155273 0.120442
O O13 0.500000 0.274650 0.000000
O O14 0.783915 0.101453 0.342853
O O15 0.897777 0.206871 0.347454
O O16 0.626052 0.087061 0.332571
O O17 0.795615 0.000000 0.488567
O O18 0.971229 0.500000 0.861837
O O19 0.000000 0.679501 0.500000
#
# Coordination Sequence:
#
# PCOD9200983 Si02
#       8
#     8   8   8   8   8   8   8   8
#     4  11  23  38  61  89 123 164 199 249 307 369
#     4  10  21  38  60  83 115 160 203 246 294 356
#     4  10  22  39  63  90 122 161 206 256 310 361
#     4  11  23  37  57  90 122 161 199 243 306 366
#     4  10  22  35  60  92 121 154 195 253 308 366
#     4  10  20  37  60  88 121 154 195 245 303 363
#     4   9  19  36  59  87 117 153 196 246 300 357
#     4  11  22  38  58  89 120 154 201 250 305 356
#
# _framework density 21.174475000000001
#
# number of rings (size 3 to 8) (size 9 to 14) (size 15 to 20)
#    0.000    1.750    2.500    1.500    1.750    5.000 
#    0.000    1.875    0.000    3.000    0.000    0.000 
#    0.000    0.000    0.000    0.000    0.000    0.000 
#
# Total GULP energy -178709.606483 kJ/mol
# GULP energy per Si atom -5584.675203 kJ/mol
# Density = 2.112628 g / cm^3
# Si number density = 21.174475 Si / 1000 Ang^3
#
#
#
# Elastic Constant Matrix: (Units=GPa)
#
#
# Indices 1 2 3 4 5 6 
#
# 1 16.1317 -0.3157 -7.7852 0.0000 11.5364 0.0000
# 2 -0.3157 76.3339 32.7829 0.0000 -7.6732 0.0000
# 3 -7.7852 32.7829 103.5867 0.0000 -3.4075 0.0000
# 4 0.0000 0.0000 0.0000 34.8002 0.0000 2.9873
# 5 11.5364 -7.6732 -3.4075 0.0000 22.2865 0.0000
# 6 0.0000 0.0000 0.0000 2.9873 0.0000 8.5720
#
#
#
# Elastic Compliance Matrix: (Units=1/GPa)
#
#
# Indices 1 2 3 4 5 6 
#
# 1 0.107124 -0.009211 0.009084 0.000000 -0.057235 0.000000
# 2 -0.009211 0.016418 -0.005573 0.000000 0.009569 0.000000
# 3 0.009084 -0.005573 0.011943 0.000000 -0.004795 0.000000
# 4 0.000000 0.000000 0.000000 0.029622 0.000000 -0.010323
# 5 -0.057235 0.009569 -0.004795 0.000000 0.077059 0.000000
# 6 0.000000 0.000000 0.000000 -0.010323 0.000000 0.120256
#
#
# Mechanical properties :
#
#
# Convention : Reuss Voigt Hill
#
# Bulk Modulus (GPa) = 8.05918 27.26848 17.66383
# Shear Modulus (GPa) = 12.04287 24.55642 18.29965
#
# Velocity S-wave (km/s) = 2.38742 3.40916 2.94297
# Velocity P-wave (km/s) = 3.37847 5.32939 4.46187
#
# Compressibility (1/GPa) = 0.12408207
#
# Stress axis : x y z
#
# Youngs Moduli (GPa) = 9.33496 60.90995 83.73419
#
# Poissons Ratio (x) = 0.56106 -0.76060
# Poissons Ratio (y) = 0.08599 0.46668
# Poissons Ratio (z) = -0.08479 0.33947
#
# Static dielectric constant tensor:
#      x y z
#    x 1.764830 0.000000 0.005940 
#    y 0.000000 1.773890 0.000000 
#    z 0.005940 0.000000 1.776680 
# 
# From -- ./inp_files/226900.got.cif
#   From: 2010.05.17/outbox.cif.g08.bks.cpg/sg12_114_cif.got.tgz:226900.got - 2010.06.03 13:09:07.
