data_PCOD9200564
_publ_section_title
;
Structure prediction by ZEFSAII (Michael W. Deem and Ramdas Pophale) SiO2 
 PCOD9200564
Probable space group: C 2/M
;
_chemical_formula_sum "Si O2"
_cell_formula_units_Z 40
_cell_length_a 8.475051
_cell_length_b 25.391011
_cell_length_c 11.693979
_cell_angle_alpha 90.000000
_cell_angle_beta 137.115292
_cell_angle_gamma 90.000000
_cell_volume 1712.493453
_symmetry_space_group_name_H-M "C 2/M"
_symmetry_group_IT_number 12
_symmetry_cell_setting 'monoclinic'
loop_
_space_group_symop_operation_xyz
x,y,z
-x,y,-z
-x,-y,-z
x,-y,z
1/2+x,1/2+y,z
1/2-x,1/2+y,-z
1/2-x,1/2-y,-z
1/2+x,1/2-y,z
loop_
_atom_site_type_symbol
_atom_site_label
_atom_site_fract_x
_atom_site_fract_y
_atom_site_fract_z
Si Si1 0.948387 0.303311 0.783975
Si Si2 0.585882 0.000000 0.409718
Si Si3 0.664010 0.000000 0.973325
Si Si4 0.461238 0.893232 0.602558
Si Si5 0.032617 0.093966 0.142389
Si Si6 0.113614 0.808426 0.808985
O O1 0.950352 0.349015 0.691548
O O2 0.966448 0.244460 0.744757
O O3 0.725265 0.309474 0.744352
O O4 0.173017 0.307837 0.986468
O O5 0.500000 0.000000 0.500000
O O6 0.483421 0.000000 0.222741
O O7 0.713195 0.942173 0.478242
O O8 0.500000 0.000000 0.000000
O O9 0.838911 0.949792 0.062123
O O10 0.500000 0.867503 0.500000
O O11 0.706456 0.926458 0.736999
O O12 0.018745 0.138697 0.229886
O O13 0.000000 0.120453 0.000000
#
# Coordination Sequence:
#
# PCOD9200564 Si02
#       6
#     8   4   4   8   8   8
#     4  10  20  37  58  92 127 166 211 268 320 378
#     4  10  21  39  66  93 132 173 214 257 339 392
#     4  12  26  40  70 106 134 169 224 277 319 390
#     4  11  23  41  66  92 131 174 215 266 332 390
#     4  12  22  39  65  96 125 166 221 266 319 387
#     4  10  21  34  63  91 125 162 218 269 318 374
#
# _framework density 23.357754
#
# number of rings (size 3 to 8) (size 9 to 14) (size 15 to 20)
#    0.000    1.200    4.000    2.100    8.400    0.000 
#    0.000    5.000    0.000    2.400    0.000    0.000 
#    0.000    0.000    0.000    0.000    0.000    0.000 
#
# Total GULP energy -111479.752993 kJ/mol
# GULP energy per Si atom -5573.987650 kJ/mol
# Density = 2.330459 g / cm^3
# Si number density = 23.357754 Si / 1000 Ang^3
#
#
#
# Elastic Constant Matrix: (Units=GPa)
#
#
# Indices 1 2 3 4 5 6 
#
# 1 160.7153 87.3031 45.2387 0.0000 -47.2175 0.0000
# 2 87.3031 202.6684 42.8462 0.0000 -46.2476 0.0000
# 3 45.2387 42.8462 64.0165 0.0000 -42.1589 0.0000
# 4 0.0000 0.0000 0.0000 40.2666 0.0000 -13.9802
# 5 -47.2175 -46.2476 -42.1589 0.0000 43.7192 0.0000
# 6 0.0000 0.0000 0.0000 -13.9802 0.0000 38.4857
#
#
#
# Elastic Compliance Matrix: (Units=1/GPa)
#
#
# Indices 1 2 3 4 5 6 
#
# 1 0.009936 -0.002415 -0.000056 0.000000 0.008123 0.000000
# 2 -0.002415 0.007097 0.000501 0.000000 0.005383 0.000000
# 3 -0.000056 0.000501 0.042841 0.000000 0.041782 0.000000
# 4 0.000000 0.000000 0.000000 0.028419 0.000000 0.010323
# 5 0.008123 0.005383 0.041782 0.000000 0.077631 0.000000
# 6 0.000000 0.000000 0.000000 0.010323 0.000000 0.029734
#
#
# Mechanical properties :
#
#
# Convention : Reuss Voigt Hill
#
# Bulk Modulus (GPa) = 17.87787 86.46404 52.17095
# Shear Modulus (GPa) = 22.91051 41.29511 32.10281
#
# Velocity S-wave (km/s) = 3.13525 4.20925 3.71131
# Velocity P-wave (km/s) = 4.55818 7.79239 6.38351
#
# Compressibility (1/GPa) = 0.05593508
#
# Stress axis : x y z
#
# Youngs Moduli (GPa) = 100.64283 140.91184 23.34213
#
# Poissons Ratio (x) = 0.34027 0.00131
# Poissons Ratio (y) = 0.24303 -0.01171
# Poissons Ratio (z) = 0.00564 -0.07066
#
# Static dielectric constant tensor:
#      x y z
#    x 1.865940 0.000000 0.103810 
#    y 0.000000 1.880750 0.000000 
#    z 0.103810 0.000000 2.086760 
# 
# From -- ./inp_files/122221.got.cif
#   From: 2010.05.17/outbox.cif.g08.bks.cpg/sg12_62_cif.got.tgz:122221.got - 2010.06.03 13:09:07.
