data_PCOD9200871
_publ_section_title
;
Structure prediction by ZEFSAII (Michael W. Deem and Ramdas Pophale) SiO2 
 PCOD9200871
Probable space group: C 2/M
;
_chemical_formula_sum "Si O2"
_cell_formula_units_Z 48
_cell_length_a 16.565443
_cell_length_b 14.635518
_cell_length_c 10.290517
_cell_angle_alpha 90.000000
_cell_angle_beta 111.258653
_cell_angle_gamma 90.000000
_cell_volume 2325.104168
_symmetry_space_group_name_H-M "C 2/M"
_symmetry_group_IT_number 12
_symmetry_cell_setting 'monoclinic'
loop_
_space_group_symop_operation_xyz
x,y,z
-x,y,-z
-x,-y,-z
x,-y,z
1/2+x,1/2+y,z
1/2-x,1/2+y,-z
1/2-x,1/2-y,-z
1/2+x,1/2-y,z
loop_
_atom_site_type_symbol
_atom_site_label
_atom_site_fract_x
_atom_site_fract_y
_atom_site_fract_z
Si Si1 0.193119 0.700400 0.076535
Si Si2 0.539933 0.193152 0.815256
Si Si3 0.687380 0.802425 0.678346
Si Si4 0.185487 0.500000 0.574446
Si Si5 0.928449 0.804547 0.571777
Si Si6 0.223631 0.500000 0.180412
Si Si7 0.651375 0.500000 0.515264
Si Si8 0.443980 0.000000 0.727805
O O1 0.227209 0.748455 0.227049
O O2 0.217179 0.593592 0.097019
O O3 0.250000 0.750000 0.000000
O O4 0.092709 0.708253 0.979032
O O5 0.614377 0.204021 0.747996
O O6 0.467909 0.265618 0.727653
O O7 0.499164 0.091833 0.783505
O O8 0.650367 0.757540 0.525589
O O9 0.697973 0.909189 0.663608
O O10 0.260662 0.500000 0.513260
O O11 0.095089 0.500000 0.441592
O O12 0.000000 0.794668 0.500000
O O13 0.900233 0.909278 0.551765
O O14 0.312885 0.500000 0.315741
O O15 0.138586 0.500000 0.223827
#
# Coordination Sequence:
#
# PCOD9200871 Si02
#       8
#     8   8   8   4   8   4   4   4
#     4  10  22  40  60  86 117 154 194 239 293 349
#     4  10  21  36  60  89 117 148 195 247 290 342
#     4  10  20  38  60  86 118 155 200 236 286 350
#     4  11  23  35  58  90 121 157 190 240 299 352
#     4  10  20  37  60  85 111 150 200 247 285 333
#     4  11  23  39  61  87 119 155 196 240 294 357
#     4  11  23  38  58  87 120 155 198 241 290 345
#     4  11  22  36  59  92 120 151 189 247 306 341
#
# _framework density 20.644235999999999
#
# number of rings (size 3 to 8) (size 9 to 14) (size 15 to 20)
#    0.000    1.667    3.333    1.250    0.000    6.000 
#    0.000    0.833    0.000    1.000    0.000    0.000 
#    0.000    0.000    0.000    0.000    0.000    0.000 
#
# Total GULP energy -134055.235265 kJ/mol
# GULP energy per Si atom -5585.634803 kJ/mol
# Density = 2.059725 g / cm^3
# Si number density = 20.644236 Si / 1000 Ang^3
#
#
#
# Elastic Constant Matrix: (Units=GPa)
#
#
# Indices 1 2 3 4 5 6 
#
# 1 49.7485 24.7881 39.3498 0.0000 21.6635 0.0000
# 2 24.7881 182.0373 88.6532 0.0000 42.1216 0.0000
# 3 39.3498 88.6532 124.2344 0.0000 54.1222 0.0000
# 4 0.0000 0.0000 0.0000 52.8571 0.0000 -63.6726
# 5 21.6635 42.1216 54.1222 0.0000 36.2625 0.0000
# 6 0.0000 0.0000 0.0000 -63.6726 0.0000 263.3131
#
#
#
# Elastic Compliance Matrix: (Units=1/GPa)
#
#
# Indices 1 2 3 4 5 6 
#
# 1 0.028170 0.001085 -0.005193 0.000000 -0.010340 0.000000
# 2 0.001085 0.008530 -0.005237 0.000000 -0.002741 0.000000
# 3 -0.005193 -0.005237 0.026958 0.000000 -0.031049 0.000000
# 4 0.000000 0.000000 0.000000 0.026695 0.000000 0.006455
# 5 -0.010340 -0.002741 -0.031049 0.000000 0.083279 0.000000
# 6 0.000000 0.000000 0.000000 0.006455 0.000000 0.005359
#
#
# Mechanical properties :
#
#
# Convention : Reuss Voigt Hill
#
# Bulk Modulus (GPa) = 22.23724 73.51139 47.87431
# Shear Modulus (GPa) = 23.51077 84.03514 53.77296
#
# Velocity S-wave (km/s) = 3.37835 6.38707 5.10921
# Velocity P-wave (km/s) = 5.10027 9.49099 7.61878
#
# Compressibility (1/GPa) = 0.04496961
#
# Stress axis : x y z
#
# Youngs Moduli (GPa) = 35.49871 117.23129 37.09531
#
# Poissons Ratio (x) = -0.12725 0.19262
# Poissons Ratio (y) = -0.03853 0.19426
# Poissons Ratio (z) = 0.18433 0.61393
#
# Static dielectric constant tensor:
#      x y z
#    x 1.746770 0.000000 0.011780 
#    y 0.000000 1.685090 0.000000 
#    z 0.011780 0.000000 1.807330 
# 
# From -- ./inp_files/164745.got.cif
#   From: 2010.05.17/outbox.cif.g08.bks.cpg/sg12_83_cif.got.tgz:164745.got - 2010.06.03 13:09:07.
