data_PCOD9200816
_publ_section_title
;
Structure prediction by ZEFSAII (Michael W. Deem and Ramdas Pophale) SiO2 
 PCOD9200816
Probable space group: C 2/M
;
_chemical_formula_sum "Si O2"
_cell_formula_units_Z 64
_cell_length_a 19.495649
_cell_length_b 14.028233
_cell_length_c 25.897711
_cell_angle_alpha 90.000000
_cell_angle_beta 153.042803
_cell_angle_gamma 90.000000
_cell_volume 3210.786829
_symmetry_space_group_name_H-M "C 2/M"
_symmetry_group_IT_number 12
_symmetry_cell_setting 'monoclinic'
loop_
_space_group_symop_operation_xyz
x,y,z
-x,y,-z
-x,-y,-z
x,-y,z
1/2+x,1/2+y,z
1/2-x,1/2+y,-z
1/2-x,1/2-y,-z
1/2+x,1/2-y,z
loop_
_atom_site_type_symbol
_atom_site_label
_atom_site_fract_x
_atom_site_fract_y
_atom_site_fract_z
Si Si1 0.702485 0.113929 0.925588
Si Si2 0.488909 0.387559 0.930622
Si Si3 0.020801 0.389024 0.707843
Si Si4 0.672981 0.612716 0.477208
Si Si5 0.332739 0.885695 0.980770
Si Si6 0.328674 0.388983 0.405762
Si Si7 0.632281 0.699719 0.755626
Si Si8 0.838422 0.698196 0.800009
O O1 0.557023 0.136286 0.792222
O O2 0.698752 0.000000 0.928823
O O3 0.701389 0.149041 0.983580
O O4 0.852095 0.133777 0.992027
O O5 0.453861 0.500000 0.898991
O O6 0.374044 0.309999 0.830809
O O7 0.500000 0.372350 0.000000
O O8 0.062108 0.500000 0.728232
O O9 0.122172 0.314021 0.745863
O O10 0.845947 0.376228 0.575879
O O11 0.639113 0.500000 0.454361
O O12 0.669863 0.645499 0.534551
O O13 0.539791 0.663516 0.357336
O O14 0.224067 0.836390 0.866471
O O15 0.315288 0.000000 0.965772
O O16 0.504689 0.856311 0.084551
O O17 0.500000 0.386713 0.500000
O O18 0.276737 0.500000 0.370629
O O19 0.223727 0.329143 0.297527
O O20 0.716293 0.665285 0.760550
#
# Coordination Sequence:
#
# PCOD9200816 Si02
#       8
#     8   8   8   8   8   8   8   8
#     4   9  19  38  60  84 115 150 191 237 289 347
#     4  10  21  39  62  89 121 157 198 244 294 346
#     4  10  21  38  60  82 108 147 200 250 286 337
#     4  10  21  39  61  85 112 151 199 243 296 358
#     4  11  24  38  56  88 124 155 186 235 301 360
#     4  10  20  37  60  83 112 151 191 239 294 352
#     4  12  24  37  56  85 121 156 194 241 299 355
#     4  12  23  36  59  89 118 153 202 243 289 355
#
# _framework density 19.932808999999999
#
# number of rings (size 3 to 8) (size 9 to 14) (size 15 to 20)
#    0.000    1.500    1.250    4.500    0.000    8.500 
#    0.000    0.000    0.000    1.125    0.000    0.000 
#    0.000    0.000    0.000    0.000    0.000    0.000 
#
# Total GULP energy -178777.260292 kJ/mol
# GULP energy per Si atom -5586.789384 kJ/mol
# Density = 1.988744 g / cm^3
# Si number density = 19.932809 Si / 1000 Ang^3
#
#
#
# Elastic Constant Matrix: (Units=GPa)
#
#
# Indices 1 2 3 4 5 6 
#
# 1 56.5367 7.6066 11.1465 0.0008 4.2977 -0.0005
# 2 7.6066 83.3752 44.3433 0.0031 5.5723 -0.0003
# 3 11.1465 44.3433 119.3677 0.0099 -8.4067 -0.0011
# 4 0.0008 0.0031 0.0099 30.2386 0.0032 2.6508
# 5 4.2977 5.5723 -8.4067 0.0032 16.0216 -0.0006
# 6 -0.0005 -0.0003 -0.0011 2.6508 -0.0006 19.8829
#
#
#
# Elastic Compliance Matrix: (Units=1/GPa)
#
#
# Indices 1 2 3 4 5 6 
#
# 1 0.018582 -0.000180 -0.002092 0.000001 -0.006020 0.000000
# 2 -0.000180 0.016130 -0.006611 0.000002 -0.009031 -0.000001
# 3 -0.002092 -0.006611 0.011661 -0.000004 0.008979 0.000001
# 4 0.000001 0.000002 -0.000004 0.033461 -0.000010 -0.004461
# 5 -0.006020 -0.009031 0.008979 -0.000010 0.071883 0.000004
# 6 0.000000 -0.000001 0.000001 -0.004461 0.000004 0.050889
#
#
# Mechanical properties :
#
#
# Convention : Reuss Voigt Hill
#
# Bulk Modulus (GPa) = 34.95778 42.83026 38.89402
# Shear Modulus (GPa) = 21.74766 26.30749 24.02758
#
# Velocity S-wave (km/s) = 3.30669 3.63686 3.47569
# Velocity P-wave (km/s) = 5.67052 6.25856 5.97178
#
# Compressibility (1/GPa) = 0.02860593
#
# Stress axis : x y z
#
# Youngs Moduli (GPa) = 53.81568 61.99546 85.75422
#
# Poissons Ratio (x) = 0.01118 0.17941
# Poissons Ratio (y) = 0.00970 0.56695
# Poissons Ratio (z) = 0.11259 0.40987
#
# Static dielectric constant tensor:
#      x y z
#    x 1.715550 0.000000 0.016830 
#    y 0.000000 1.731280 0.000000 
#    z 0.016830 0.000000 1.685140 
# 
# From -- ./inp_files/344093.got.cif
#   From: 2010.05.17/outbox.cif.g08.bks.cpg/sg12_173_cif.got.tgz:344093.got - 2010.06.03 13:09:07.
