data_PCOD9200412
_publ_section_title
;
Structure prediction by ZEFSAII (Michael W. Deem and Ramdas Pophale) SiO2 
 PCOD9200412
Probable space group: C 2/M
;
_chemical_formula_sum "Si O2"
_cell_formula_units_Z 64
_cell_length_a 20.151402
_cell_length_b 7.417105
_cell_length_c 17.405984
_cell_angle_alpha 90.000000
_cell_angle_beta 91.245777
_cell_angle_gamma 90.000000
_cell_volume 2600.971591
_symmetry_space_group_name_H-M "C 2/M"
_symmetry_group_IT_number 12
_symmetry_cell_setting 'monoclinic'
loop_
_space_group_symop_operation_xyz
x,y,z
-x,y,-z
-x,-y,-z
x,-y,z
1/2+x,1/2+y,z
1/2-x,1/2+y,-z
1/2-x,1/2-y,-z
1/2+x,1/2-y,z
loop_
_atom_site_type_symbol
_atom_site_label
_atom_site_fract_x
_atom_site_fract_y
_atom_site_fract_z
Si Si1 0.958421 0.780389 0.575167
Si Si2 0.221265 0.216122 0.225381
Si Si3 0.927424 0.707077 0.009507
Si Si4 0.085378 0.218581 0.161633
Si Si5 0.028749 0.219763 0.735911
Si Si6 0.828228 0.784054 0.497046
Si Si7 0.659634 0.286787 0.671288
Si Si8 0.295922 0.783648 0.075308
O O1 0.992068 0.725202 0.655824
O O2 0.881997 0.721413 0.560885
O O3 0.000000 0.728114 0.500000
O O4 0.960105 0.000000 0.577396
O O5 0.145210 0.274303 0.219186
O O6 0.265645 0.260790 0.299312
O O7 0.260571 0.284605 0.151192
O O8 0.219756 0.000000 0.220770
O O9 0.937946 0.500000 0.034227
O O10 0.899172 0.710515 0.922334
O O11 0.870286 0.787675 0.061599
O O12 0.000000 0.792721 0.000000
O O13 0.014995 0.280359 0.193231
O O14 0.084960 0.000000 0.156672
O O15 0.104639 0.282054 0.729729
O O16 0.027568 0.000000 0.739574
O O17 0.750000 0.750000 0.500000
O O18 0.850579 0.713702 0.414109
O O19 0.834677 0.000000 0.497162
O O20 0.648198 0.500000 0.665871
O O21 0.301396 0.000000 0.082227
O O22 0.250000 0.750000 0.000000
#
# Coordination Sequence:
#
# PCOD9200412 Si02
#       8
#     8   8   8   8   8   8   8   8
#     4   9  15  30  56  79 101 137 182 223 262 309
#     4  10  22  37  55  81 112 144 179 221 274 330
#     4  10  22  38  57  80 109 145 182 221 270 329
#     4  10  21  37  56  81 109 139 181 229 269 316
#     4   9  18  33  54  80 108 138 179 227 270 315
#     4  10  21  35  56  83 111 143 181 226 272 321
#     4  10  21  37  55  81 112 142 181 225 268 322
#     4  10  20  37  58  79 106 141 182 225 268 320
#
# _framework density 24.606188
#
# number of rings (size 3 to 8) (size 9 to 14) (size 15 to 20)
#    0.000    2.250    2.500    0.000    3.500    1.750 
#    0.000    0.000    0.000    1.125    0.000    0.000 
#    0.000    0.000    0.000    0.000    0.000    0.000 
#
# Total GULP energy -178838.062343 kJ/mol
# GULP energy per Si atom -5588.689448 kJ/mol
# Density = 2.455018 g / cm^3
# Si number density = 24.606188 Si / 1000 Ang^3
#
#
#
# Elastic Constant Matrix: (Units=GPa)
#
#
# Indices 1 2 3 4 5 6 
#
# 1 115.7543 2.1884 -19.6193 0.0000 -4.6204 0.0000
# 2 2.1884 82.9354 -4.4348 0.0000 -6.3615 0.0000
# 3 -19.6193 -4.4348 25.7089 0.0000 1.5581 0.0000
# 4 0.0000 0.0000 0.0000 -3.7470 0.0000 5.5267
# 5 -4.6204 -6.3615 1.5581 0.0000 44.2032 0.0000
# 6 0.0000 0.0000 0.0000 5.5267 0.0000 11.6096
#
#
#
# Elastic Compliance Matrix: (Units=1/GPa)
#
#
# Indices 1 2 3 4 5 6 
#
# 1 0.009952 0.000204 0.007581 0.000000 0.000802 0.000000
# 2 0.000204 0.012300 0.002174 0.000000 0.001715 0.000000
# 3 0.007581 0.002174 0.045087 0.000000 -0.000484 0.000000
# 4 0.000000 0.000000 0.000000 -0.156789 0.000000 0.074639
# 5 0.000802 0.001715 -0.000484 0.000000 0.022971 0.000000
# 6 0.000000 0.000000 0.000000 0.074639 0.000000 0.050604
#
#
# Mechanical properties :
#
#
# Convention : Reuss Voigt Hill
#
# Bulk Modulus (GPa) = 11.46025 20.07413 15.76719
# Shear Modulus (GPa) = -745.31289 26.83077 -359.24106
#
# Velocity S-wave (km/s) = -17.42280 3.30571 -12.09600
# Velocity P-wave (km/s) = 20.00178 4.76930 13.73545
#
# Compressibility (1/GPa) = 0.08725816
#
# Stress axis : x y z
#
# Youngs Moduli (GPa) = 100.48092 81.30111 22.17932
#
# Poissons Ratio (x) = -0.01661 -0.16815
# Poissons Ratio (y) = -0.02053 -0.04821
# Poissons Ratio (z) = -0.76179 -0.17673
#
# Static dielectric constant tensor:
#      x y z
#    x 1.984160 0.000000 -0.002800 
#    y 0.000000 1.951020 0.000000 
#    z -0.002800 0.000000 1.919310 
# 
# From -- ./inp_files/281344.got.cif
#   From: 2010.05.17/outbox.cif.g08.bks.cpg/sg12_141_cif.got.tgz:281344.got - 2010.06.03 13:09:07.
