data_PCOD9200604
_publ_section_title
;
Structure prediction by ZEFSAII (Michael W. Deem and Ramdas Pophale) SiO2 
 PCOD9200604
Probable space group: C 2/M
;
_chemical_formula_sum "Si O2"
_cell_formula_units_Z 48
_cell_length_a 30.128218
_cell_length_b 7.481345
_cell_length_c 9.790555
_cell_angle_alpha 90.000000
_cell_angle_beta 83.422402
_cell_angle_gamma 90.000000
_cell_volume 2192.261221
_symmetry_space_group_name_H-M "C 2/M"
_symmetry_group_IT_number 12
_symmetry_cell_setting 'monoclinic'
loop_
_space_group_symop_operation_xyz
x,y,z
-x,y,-z
-x,-y,-z
x,-y,z
1/2+x,1/2+y,z
1/2-x,1/2+y,-z
1/2-x,1/2-y,-z
1/2+x,1/2-y,z
loop_
_atom_site_type_symbol
_atom_site_label
_atom_site_fract_x
_atom_site_fract_y
_atom_site_fract_z
Si Si1 0.373053 0.287087 0.644916
Si Si2 0.044379 0.218657 0.568543
Si Si3 0.787064 0.713112 0.098825
Si Si4 0.728350 0.714061 0.362706
Si Si5 0.118000 0.285678 0.040648
Si Si6 0.535553 0.706169 0.882757
O O1 0.370964 0.500000 0.624352
O O2 0.411024 0.219703 0.527103
O O3 0.322415 0.217076 0.639356
O O4 0.387174 0.257794 0.797361
O O5 0.041199 0.279644 0.727539
O O6 0.000000 0.269700 0.500000
O O7 0.045866 0.000000 0.568733
O O8 0.793060 0.500000 0.112875
O O9 0.764563 0.786345 0.242902
O O10 0.750000 0.750000 0.000000
O O11 0.834111 0.782468 0.028799
O O12 0.725479 0.500000 0.342286
O O13 0.750000 0.750000 0.500000
O O14 0.116284 0.500000 0.030695
O O15 0.080995 0.210651 0.952237
O O16 0.521028 0.500000 0.866168
O O17 0.500000 0.790756 0.000000
#
# Coordination Sequence:
#
# PCOD9200604 Si02
#       6
#     8   8   8   8   8   8
#     4  10  20  37  59  82 110 149 191 234 279 330
#     4   9  18  34  58  86 112 138 179 232 280 327
#     4  10  21  38  57  81 112 150 192 232 277 328
#     4  10  22  37  55  81 113 149 190 233 278 332
#     4  11  23  37  57  85 116 150 186 232 284 334
#     4  10  21  38  62  88 112 146 188 231 279 333
#
# _framework density 21.895202000000001
#
# number of rings (size 3 to 8) (size 9 to 14) (size 15 to 20)
#    0.000    2.000    1.667    1.500    2.333    5.000 
#    0.000    0.833    0.000    2.000    0.000    0.000 
#    0.000    0.000    0.000    0.000    0.000    0.000 
#
# Total GULP energy -134020.803926 kJ/mol
# GULP energy per Si atom -5584.200164 kJ/mol
# Density = 2.184537 g / cm^3
# Si number density = 21.895202 Si / 1000 Ang^3
#
#
#
# Elastic Constant Matrix: (Units=GPa)
#
#
# Indices 1 2 3 4 5 6 
#
# 1 146.3775 -2.6044 98.6777 0.0000 -19.6070 0.0000
# 2 -2.6044 63.8821 -9.0453 0.0000 -12.4299 0.0000
# 3 98.6777 -9.0453 236.4550 0.0000 -21.5397 0.0000
# 4 0.0000 0.0000 0.0000 9.3163 0.0000 7.6994
# 5 -19.6070 -12.4299 -21.5397 0.0000 45.7792 0.0000
# 6 0.0000 0.0000 0.0000 7.6994 0.0000 3.3539
#
#
#
# Elastic Compliance Matrix: (Units=1/GPa)
#
#
# Indices 1 2 3 4 5 6 
#
# 1 0.009751 0.000334 -0.003832 0.000000 0.002464 0.000000
# 2 0.000334 0.016811 0.000974 0.000000 0.005166 0.000000
# 3 -0.003832 0.000974 0.005997 0.000000 0.001445 0.000000
# 4 0.000000 0.000000 0.000000 -0.119634 0.000000 0.274640
# 5 0.002464 0.005166 0.001445 0.000000 0.024982 0.000000
# 6 0.000000 0.000000 0.000000 0.274640 0.000000 -0.332316
#
#
# Mechanical properties :
#
#
# Convention : Reuss Voigt Hill
#
# Bulk Modulus (GPa) = 36.34827 68.97453 52.66140
# Shear Modulus (GPa) = -13.15123 35.66899 11.25888
#
# Velocity S-wave (km/s) = -2.45346 4.04056 2.27009
# Velocity P-wave (km/s) = 2.93446 7.30333 5.56551
#
# Compressibility (1/GPa) = 0.02751163
#
# Stress axis : x y z
#
# Youngs Moduli (GPa) = 102.55421 59.48648 166.74412
#
# Poissons Ratio (x) = -0.01989 0.63897
# Poissons Ratio (y) = -0.03429 -0.16243
# Poissons Ratio (z) = 0.39299 -0.05795
#
# Static dielectric constant tensor:
#      x y z
#    x 1.788450 0.000000 0.005530 
#    y 0.000000 1.850580 0.000000 
#    z 0.005530 0.000000 1.840230 
# 
# From -- ./inp_files/108655.got.cif
#   From: 2010.05.17/outbox.cif.g08.bks.cpg/sg12_55_cif.got.tgz:108655.got - 2010.06.03 13:09:07.
