data_PCOD9200926
_publ_section_title
;
Structure prediction by ZEFSAII (Michael W. Deem and Ramdas Pophale) SiO2 
 PCOD9200926
Probable space group: C 2/M
;
_chemical_formula_sum "Si O2"
_cell_formula_units_Z 56
_cell_length_a 32.312230
_cell_length_b 8.088201
_cell_length_c 12.168572
_cell_angle_alpha 90.000000
_cell_angle_beta 123.796281
_cell_angle_gamma 90.000000
_cell_volume 2642.836280
_symmetry_space_group_name_H-M "C 2/M"
_symmetry_group_IT_number 12
_symmetry_cell_setting 'monoclinic'
loop_
_space_group_symop_operation_xyz
x,y,z
-x,y,-z
-x,-y,-z
x,-y,z
1/2+x,1/2+y,z
1/2-x,1/2+y,-z
1/2-x,1/2-y,-z
1/2+x,1/2-y,z
loop_
_atom_site_type_symbol
_atom_site_label
_atom_site_fract_x
_atom_site_fract_y
_atom_site_fract_z
Si Si1 0.069090 0.695554 0.835644
Si Si2 0.242778 0.699620 0.864024
Si Si3 0.635284 0.200450 0.326723
Si Si4 0.520507 0.798531 0.148843
Si Si5 0.650300 0.197604 0.588577
Si Si6 0.443651 0.693020 0.420863
Si Si7 0.340779 0.303296 0.879573
O O1 0.065451 0.500000 0.808660
O O2 0.078541 0.782358 0.733918
O O3 0.017281 0.756560 0.812344
O O4 0.112199 0.724075 0.988577
O O5 0.241640 0.500000 0.859153
O O6 0.191559 0.762664 0.734220
O O7 0.290044 0.754889 0.862093
O O8 0.250000 0.750000 0.000000
O O9 0.577326 0.252604 0.244811
O O10 0.658400 0.257935 0.476102
O O11 0.658415 0.263907 0.248159
O O12 0.636495 0.000000 0.324769
O O13 0.519360 0.000000 0.148402
O O14 0.500000 0.745260 0.000000
O O15 0.594687 0.230744 0.549460
O O16 0.655824 0.000000 0.592804
O O17 0.500000 0.763553 0.500000
O O18 0.447497 0.500000 0.452584
O O19 0.344861 0.500000 0.900263
#
# Coordination Sequence:
#
# PCOD9200926 Si02
#       7
#     8   8   8   8   8   8   8
#     4  11  21  36  61  87 115 154 204 251 289 340
#     4  10  23  42  62  86 115 150 195 247 298 351
#     4  10  20  37  60  86 116 152 197 245 290 346
#     4   9  16  30  53  82 114 146 187 237 284 332
#     4  10  22  41  64  87 114 154 205 249 287 342
#     4  11  24  40  58  86 125 158 189 236 299 362
#     4  11  23  38  57  86 123 155 189 240 303 359
#
# _framework density 21.189357999999999
#
# number of rings (size 3 to 8) (size 9 to 14) (size 15 to 20)
#    0.000    1.714    1.429    3.000    0.000    7.429 
#    0.000    2.143    0.000    0.000    0.000    0.000 
#    0.000    0.000    0.000    0.000    0.000    0.000 
#
# Total GULP energy -156507.268798 kJ/mol
# GULP energy per Si atom -5589.545314 kJ/mol
# Density = 2.114113 g / cm^3
# Si number density = 21.189358 Si / 1000 Ang^3
#
#
#
# Elastic Constant Matrix: (Units=GPa)
#
#
# Indices 1 2 3 4 5 6 
#
# 1 138.0391 4.5571 54.3863 0.0000 -10.6111 0.0000
# 2 4.5571 14.2666 3.0546 0.0000 4.8323 0.0000
# 3 54.3863 3.0546 128.8072 0.0000 -12.4301 0.0000
# 4 0.0000 0.0000 0.0000 19.5472 0.0000 -4.1507
# 5 -10.6111 4.8323 -12.4301 0.0000 36.1328 0.0000
# 6 0.0000 0.0000 0.0000 -4.1507 0.0000 14.3335
#
#
#
# Elastic Compliance Matrix: (Units=1/GPa)
#
#
# Indices 1 2 3 4 5 6 
#
# 1 0.008847 -0.002669 -0.003503 0.000000 0.001750 0.000000
# 2 -0.002669 0.075200 -0.001761 0.000000 -0.011447 0.000000
# 3 -0.003503 -0.001761 0.009524 0.000000 0.002483 0.000000
# 4 0.000000 0.000000 0.000000 0.054510 0.000000 0.015785
# 5 0.001750 -0.011447 0.002483 0.000000 0.030575 0.000000
# 6 0.000000 0.000000 0.000000 0.015785 0.000000 0.074338
#
#
# Mechanical properties :
#
#
# Convention : Reuss Voigt Hill
#
# Bulk Modulus (GPa) = 12.86913 45.01210 28.94061
# Shear Modulus (GPa) = 16.96282 28.61037 22.78659
#
# Velocity S-wave (km/s) = 2.83244 3.67852 3.28285
# Velocity P-wave (km/s) = 4.09677 6.27144 5.29691
#
# Compressibility (1/GPa) = 0.07770533
#
# Stress axis : x y z
#
# Youngs Moduli (GPa) = 113.02930 13.29781 104.99589
#
# Poissons Ratio (x) = 0.03549 0.36785
# Poissons Ratio (y) = 0.30164 0.18491
# Poissons Ratio (z) = 0.39599 0.02342
#
# Static dielectric constant tensor:
#      x y z
#    x 1.744140 0.000000 0.011800 
#    y 0.000000 1.755650 0.000000 
#    z 0.011800 0.000000 1.767160 
# 
# From -- ./inp_files/180745.got.cif
#   From: 2010.05.17/outbox.cif.g08.bks.cpg/sg12_91_cif.got.tgz:180745.got - 2010.06.03 13:09:07.
