data_PCOD9200753
_publ_section_title
;
Structure prediction by ZEFSAII (Michael W. Deem and Ramdas Pophale) SiO2 
 PCOD9200753
Probable space group: C 2/M
;
_chemical_formula_sum "Si O2"
_cell_formula_units_Z 64
_cell_length_a 24.029360
_cell_length_b 13.808508
_cell_length_c 19.407285
_cell_angle_alpha 90.000000
_cell_angle_beta 149.427184
_cell_angle_gamma 90.000000
_cell_volume 3275.354105
_symmetry_space_group_name_H-M "C 2/M"
_symmetry_group_IT_number 12
_symmetry_cell_setting 'monoclinic'
loop_
_space_group_symop_operation_xyz
x,y,z
-x,y,-z
-x,-y,-z
x,-y,z
1/2+x,1/2+y,z
1/2-x,1/2+y,-z
1/2-x,1/2-y,-z
1/2+x,1/2-y,z
loop_
_atom_site_type_symbol
_atom_site_label
_atom_site_fract_x
_atom_site_fract_y
_atom_site_fract_z
Si Si1 0.863631 0.384349 0.441282
Si Si2 0.089717 0.616282 0.731796
Si Si3 0.785830 0.883121 0.842394
Si Si4 0.274121 0.278561 0.603712
Si Si5 0.845078 0.613615 0.776785
Si Si6 0.992602 0.116507 0.143869
Si Si7 0.368195 0.233785 0.093234
Si Si8 0.397945 0.113604 0.986892
O O1 0.861578 0.500000 0.434096
O O2 0.777828 0.347447 0.292790
O O3 0.817912 0.349411 0.465218
O O4 0.991071 0.357048 0.574824
O O5 0.088167 0.500000 0.739961
O O6 0.205724 0.641363 0.820597
O O7 0.072370 0.669807 0.785240
O O8 0.786835 0.000000 0.839307
O O9 0.911275 0.858001 0.992982
O O10 0.250000 0.250000 0.500000
O O11 0.277675 0.183309 0.655398
O O12 0.389702 0.334087 0.735872
O O13 0.815850 0.500000 0.739439
O O14 0.971940 0.622743 0.888185
O O15 0.841346 0.640326 0.853887
O O16 0.931361 0.166839 0.143068
O O17 0.000248 0.000000 0.157064
O O18 0.364823 0.174288 0.018209
O O19 0.250000 0.250000 0.000000
O O20 0.375669 0.000000 0.975403
#
# Coordination Sequence:
#
# PCOD9200753 Si02
#       8
#     8   8   8   8   8   8   8   8
#     4  10  22  37  59  87 119 161 202 242 301 370
#     4  10  20  37  59  89 123 154 198 257 306 355
#     4   9  19  37  59  86 119 157 198 245 302 363
#     4  12  25  40  59  85 121 159 208 250 309 373
#     4   9  20  38  62  84 113 152 199 256 304 356
#     4  11  24  41  58  85 127 161 199 250 307 367
#     4  12  22  34  60  90 122 161 205 247 307 363
#     4   9  19  37  60  90 115 148 200 252 305 355
#
# _framework density 19.539871999999999
#
# number of rings (size 3 to 8) (size 9 to 14) (size 15 to 20)
#    0.000    1.750    2.500    2.625    1.750    3.500 
#    0.000    1.875    0.000    0.000    0.000    0.000 
#    0.000    8.000    0.000    0.000    0.000    0.000 
#
# Total GULP energy -178580.126904 kJ/mol
# GULP energy per Si atom -5580.628966 kJ/mol
# Density = 1.949540 g / cm^3
# Si number density = 19.539872 Si / 1000 Ang^3
#
#
#
# Elastic Constant Matrix: (Units=GPa)
#
#
# Indices 1 2 3 4 5 6 
#
# 1 72.0483 21.2624 32.1614 0.0000 -13.4364 0.0000
# 2 21.2624 70.4257 38.7426 0.0000 -12.0958 0.0000
# 3 32.1614 38.7426 113.4306 0.0000 -8.7737 0.0000
# 4 0.0000 0.0000 0.0000 23.7371 0.0000 -2.0612
# 5 -13.4364 -12.0958 -8.7737 0.0000 41.5573 0.0000
# 6 0.0000 0.0000 0.0000 -2.0612 0.0000 31.4549
#
#
#
# Elastic Compliance Matrix: (Units=1/GPa)
#
#
# Indices 1 2 3 4 5 6 
#
# 1 0.016983 -0.002414 -0.003681 0.000000 0.004011 0.000000
# 2 -0.002414 0.018470 -0.005356 0.000000 0.003465 0.000000
# 3 -0.003681 -0.005356 0.011667 0.000000 -0.000286 0.000000
# 4 0.000000 0.000000 0.000000 0.042369 0.000000 0.002776
# 5 0.004011 0.003465 -0.000286 0.000000 0.026308 0.000000
# 6 0.000000 0.000000 0.000000 0.002776 0.000000 0.031973
#
#
# Mechanical properties :
#
#
# Convention : Reuss Voigt Hill
#
# Bulk Modulus (GPa) = 41.29012 48.91525 45.10268
# Shear Modulus (GPa) = 27.97301 30.26572 29.11937
#
# Velocity S-wave (km/s) = 3.78774 3.93990 3.86457
# Velocity P-wave (km/s) = 6.34873 6.76646 6.56092
#
# Compressibility (1/GPa) = 0.02421887
#
# Stress axis : x y z
#
# Youngs Moduli (GPa) = 58.88263 54.14312 85.71340
#
# Poissons Ratio (x) = 0.13068 0.31548
# Poissons Ratio (y) = 0.14212 0.45908
# Poissons Ratio (z) = 0.21672 0.28999
#
# Static dielectric constant tensor:
#      x y z
#    x 1.680800 0.000000 -0.007750 
#    y 0.000000 1.695190 0.000000 
#    z -0.007750 0.000000 1.734270 
# 
# From -- ./inp_files/290131.got.cif
#   From: 2010.05.17/outbox.cif.g08.bks.cpg/sg12_146_cif.got.tgz:290131.got - 2010.06.03 13:09:07.
