data_PCOD9200849
_publ_section_title
;
Structure prediction by ZEFSAII (Michael W. Deem and Ramdas Pophale) SiO2 
 PCOD9200849
Probable space group: C 2/M
;
_chemical_formula_sum "Si O2"
_cell_formula_units_Z 56
_cell_length_a 20.888678
_cell_length_b 7.670305
_cell_length_c 19.319853
_cell_angle_alpha 90.000000
_cell_angle_beta 58.851687
_cell_angle_gamma 90.000000
_cell_volume 2649.204816
_symmetry_space_group_name_H-M "C 2/M"
_symmetry_group_IT_number 12
_symmetry_cell_setting 'monoclinic'
loop_
_space_group_symop_operation_xyz
x,y,z
-x,y,-z
-x,-y,-z
x,-y,z
1/2+x,1/2+y,z
1/2-x,1/2+y,-z
1/2-x,1/2-y,-z
1/2+x,1/2-y,z
loop_
_atom_site_type_symbol
_atom_site_label
_atom_site_fract_x
_atom_site_fract_y
_atom_site_fract_z
Si Si1 0.950394 0.290534 0.357068
Si Si2 0.761955 0.795040 0.703299
Si Si3 0.876779 0.209515 0.753660
Si Si4 0.686504 0.208272 0.478474
Si Si5 0.334205 0.290019 0.931312
Si Si6 0.532807 0.295887 0.051903
Si Si7 0.903440 0.712592 0.230222
O O1 0.945092 0.500000 0.360220
O O2 0.893287 0.226870 0.447761
O O3 0.919465 0.230890 0.299838
O O4 0.037445 0.246466 0.313924
O O5 0.818936 0.721782 0.728372
O O6 0.792981 0.779280 0.608165
O O7 0.677582 0.724209 0.749714
O O8 0.754519 0.000000 0.722906
O O9 0.856738 0.274904 0.842047
O O10 0.869911 0.000000 0.759462
O O11 0.750000 0.250000 0.500000
O O12 0.683442 0.000000 0.473559
O O13 0.342587 0.500000 0.924522
O O14 0.392089 0.220688 0.956399
O O15 0.250000 0.250000 0.000000
O O16 0.548402 0.500000 0.028722
O O17 0.469027 0.280239 0.145196
O O18 0.500000 0.216426 0.000000
O O19 0.904575 0.500000 0.228463
#
# Coordination Sequence:
#
# PCOD9200849 Si02
#       7
#     8   8   8   8   8   8   8
#     4  10  21  38  60  84 114 151 191 237 286 340
#     4  10  22  40  59  86 120 152 195 242 286 342
#     4  10  22  40  61  84 116 156 193 236 288 346
#     4  11  22  38  60  88 120 154 193 241 292 341
#     4  10  22  39  58  83 115 151 189 232 287 345
#     4  10  22  39  58  85 118 148 188 242 289 339
#     4  10  20  37  60  84 113 152 193 236 281 338
#
# _framework density 21.138418000000001
#
# number of rings (size 3 to 8) (size 9 to 14) (size 15 to 20)
#    0.000    1.857    2.857    0.429    2.000    4.286 
#    0.000    2.857    0.000    0.000    0.000    0.000 
#    0.000    0.000    0.000    0.000    0.000    0.000 
#
# Total GULP energy -156417.965091 kJ/mol
# GULP energy per Si atom -5586.355896 kJ/mol
# Density = 2.109031 g / cm^3
# Si number density = 21.138418 Si / 1000 Ang^3
#
#
#
# Elastic Constant Matrix: (Units=GPa)
#
#
# Indices 1 2 3 4 5 6 
#
# 1 211.9091 -2.1707 63.7636 0.0004 -6.7073 0.0001
# 2 -2.1707 33.4915 -18.3725 0.0001 4.3629 0.0013
# 3 63.7636 -18.3725 74.6547 0.0001 -13.6924 -0.0001
# 4 0.0004 0.0001 0.0001 23.8740 -0.0001 -8.8774
# 5 -6.7073 4.3629 -13.6924 -0.0001 39.5890 0.0000
# 6 0.0001 0.0013 -0.0001 -8.8774 0.0000 17.6114
#
#
#
# Elastic Compliance Matrix: (Units=1/GPa)
#
#
# Indices 1 2 3 4 5 6 
#
# 1 0.006641 -0.003072 -0.006577 0.000000 -0.000811 0.000000
# 2 -0.003072 0.035971 0.011375 -0.000001 -0.000550 -0.000003
# 3 -0.006577 0.011375 0.022825 0.000000 0.005527 -0.000001
# 4 0.000000 -0.000001 0.000000 0.051549 0.000000 0.025984
# 5 -0.000811 -0.000550 0.005527 0.000000 0.027094 0.000000
# 6 0.000000 -0.000003 -0.000001 0.025984 0.000000 0.069879
#
#
# Mechanical properties :
#
#
# Convention : Reuss Voigt Hill
#
# Bulk Modulus (GPa) = 14.51579 45.16624 29.84101
# Shear Modulus (GPa) = 21.41607 34.67053 28.04330
#
# Velocity S-wave (km/s) = 3.18643 4.05429 3.64627
# Velocity P-wave (km/s) = 4.51882 6.58253 5.64577
#
# Compressibility (1/GPa) = 0.06889050
#
# Stress axis : x y z
#
# Youngs Moduli (GPa) = 150.58409 27.80017 43.81097
#
# Poissons Ratio (x) = 0.08539 0.28813
# Poissons Ratio (y) = 0.46256 -0.49836
# Poissons Ratio (z) = 0.99035 -0.31623
#
# Static dielectric constant tensor:
#      x y z
#    x 1.754830 0.000000 -0.032980 
#    y 0.000000 1.814280 0.000000 
#    z -0.032980 0.000000 1.413160 
# 
# From -- ./inp_files/280850.got.cif
#   From: 2010.05.17/outbox.cif.g08.bks.cpg/sg12_141_cif.got.tgz:280850.got - 2010.06.03 13:09:07.
