data_PCOD9200781
_publ_section_title
;
Structure prediction by ZEFSAII (Michael W. Deem and Ramdas Pophale) SiO2 
 PCOD9200781
Probable space group: C 2/M
;
_chemical_formula_sum "Si O2"
_cell_formula_units_Z 56
_cell_length_a 15.630169
_cell_length_b 22.635587
_cell_length_c 13.152689
_cell_angle_alpha 90.000000
_cell_angle_beta 37.812134
_cell_angle_gamma 90.000000
_cell_volume 2852.877687
_symmetry_space_group_name_H-M "C 2/M"
_symmetry_group_IT_number 12
_symmetry_cell_setting 'monoclinic'
loop_
_space_group_symop_operation_xyz
x,y,z
-x,y,-z
-x,-y,-z
x,-y,z
1/2+x,1/2+y,z
1/2-x,1/2+y,-z
1/2-x,1/2-y,-z
1/2+x,1/2-y,z
loop_
_atom_site_type_symbol
_atom_site_label
_atom_site_fract_x
_atom_site_fract_y
_atom_site_fract_z
Si Si1 0.016306 0.930213 0.714248
Si Si2 0.642304 0.431741 0.803998
Si Si3 0.480678 0.255131 0.403992
Si Si4 0.107305 0.566800 0.306404
Si Si5 0.992667 0.349596 0.241109
Si Si6 0.786276 0.868327 0.618765
Si Si7 0.717596 0.347768 0.142154
O O1 0.106296 0.907524 0.726721
O O2 0.109907 0.916337 0.527772
O O3 0.872644 0.894330 0.839135
O O4 0.991536 0.000000 0.750674
O O5 0.689675 0.500000 0.742570
O O6 0.757364 0.403368 0.768844
O O7 0.500000 0.432950 0.000000
O O8 0.500000 0.229811 0.500000
O O9 0.449233 0.206369 0.350122
O O10 0.363452 0.305920 0.522918
O O11 0.622797 0.289112 0.239346
O O12 0.143368 0.500000 0.239038
O O13 0.000000 0.563690 0.500000
O O14 0.039903 0.601007 0.277088
O O15 0.863549 0.369455 0.293595
O O16 0.130243 0.336325 0.045461
O O17 0.773733 0.872975 0.751521
#
# Coordination Sequence:
#
# PCOD9200781 Si02
#       7
#     8   8   8   8   8   8   8
#     4  10  20  37  60  80 106 152 194 221 266 331
#     4   9  17  31  51  76 106 137 173 220 268 312
#     4   9  20  39  59  80 107 143 185 225 273 332
#     4  10  21  35  51  78 114 144 174 220 276 329
#     4  12  21  35  60  84 110 145 183 224 277 333
#     4  10  22  38  56  81 113 147 184 228 271 319
#     4  10  22  38  56  82 114 143 181 234 278 313
#
# _framework density 19.629303
#
# number of rings (size 3 to 8) (size 9 to 14) (size 15 to 20)
#    0.000    2.000    0.000    4.714    0.000    4.571 
#    0.000    1.429    0.000    2.571    0.000    0.000 
#    0.000    0.000    0.000    0.000    0.000    0.000 
#
# Total GULP energy -156330.135227 kJ/mol
# GULP energy per Si atom -5583.219115 kJ/mol
# Density = 1.958463 g / cm^3
# Si number density = 19.629303 Si / 1000 Ang^3
#
#
#
# Elastic Constant Matrix: (Units=GPa)
#
#
# Indices 1 2 3 4 5 6 
#
# 1 117.1598 7.5473 10.5856 0.0006 -7.9369 -0.0031
# 2 7.5473 27.3786 -3.7776 0.0017 3.9403 -0.0035
# 3 10.5856 -3.7776 57.3619 0.0029 -5.9741 -0.0046
# 4 0.0006 0.0017 0.0029 8.8070 -0.0005 3.7197
# 5 -7.9369 3.9403 -5.9741 -0.0005 38.2746 0.0033
# 6 -0.0031 -0.0035 -0.0046 3.7197 0.0033 24.2575
#
#
#
# Elastic Compliance Matrix: (Units=1/GPa)
#
#
# Indices 1 2 3 4 5 6 
#
# 1 0.009008 -0.002988 -0.001659 0.000001 0.001916 0.000000
# 2 -0.002988 0.038310 0.002642 -0.000012 -0.004151 0.000008
# 3 -0.001659 0.002642 0.018144 -0.000008 0.002216 0.000005
# 4 0.000001 -0.000012 -0.000008 0.121409 0.000003 -0.018617
# 5 0.001916 -0.004151 0.002216 0.000003 0.027298 -0.000004
# 6 0.000000 0.000008 0.000005 -0.018617 -0.000004 0.044079
#
#
# Mechanical properties :
#
#
# Convention : Reuss Voigt Hill
#
# Bulk Modulus (GPa) = 16.27293 25.62342 20.94817
# Shear Modulus (GPa) = 17.68394 26.77083 22.22738
#
# Velocity S-wave (km/s) = 3.00475 3.69700 3.36870
# Velocity P-wave (km/s) = 4.51067 5.59515 5.08192
#
# Compressibility (1/GPa) = 0.06145174
#
# Stress axis : x y z
#
# Youngs Moduli (GPa) = 111.01745 26.10252 55.11406
#
# Poissons Ratio (x) = 0.07799 0.09146
# Poissons Ratio (y) = 0.33170 -0.14561
# Poissons Ratio (z) = 0.18423 -0.06896
#
# Static dielectric constant tensor:
#      x y z
#    x 1.719450 0.000000 -0.020450 
#    y 0.000000 1.689710 0.000000 
#    z -0.020450 0.000000 1.702280 
# 
# From -- ./inp_files/149454.got.cif
#   From: 2010.05.17/outbox.cif.g08.bks.cpg/sg12_75_cif.got.tgz:149454.got - 2010.06.03 13:09:07.
