data_PCOD9200046
_publ_section_title
;
Structure prediction by ZEFSAII (Michael W. Deem and Ramdas Pophale) SiO2 
 PCOD9200046
Probable space group: C 2/M
;
_chemical_formula_sum "Si O2"
_cell_formula_units_Z 48
_cell_length_a 14.129997
_cell_length_b 30.594910
_cell_length_c 5.351634
_cell_angle_alpha 90.000000
_cell_angle_beta 130.692676
_cell_angle_gamma 90.000000
_cell_volume 1754.169536
_symmetry_space_group_name_H-M "C 2/M"
_symmetry_group_IT_number 12
_symmetry_cell_setting 'monoclinic'
loop_
_space_group_symop_operation_xyz
x,y,z
-x,y,-z
-x,-y,-z
x,-y,z
1/2+x,1/2+y,z
1/2-x,1/2+y,-z
1/2-x,1/2-y,-z
1/2+x,1/2-y,z
loop_
_atom_site_type_symbol
_atom_site_label
_atom_site_fract_x
_atom_site_fract_y
_atom_site_fract_z
Si Si1 0.831188 0.179953 0.683791
Si Si2 0.856294 0.895377 0.400205
Si Si3 0.619754 0.232265 0.040414
Si Si4 0.053178 0.450129 0.336874
Si Si5 0.850901 0.949438 0.889342
Si Si6 0.855014 0.654999 0.234217
O O1 0.908460 0.148534 0.629452
O O2 0.744875 0.212256 0.375868
O O3 0.891525 0.215388 0.976801
O O4 0.734138 0.150998 0.678281
O O5 0.876776 0.931004 0.654984
O O6 0.888142 0.918214 0.187941
O O7 0.718287 0.874762 0.096198
O O8 0.500000 0.216707 0.000000
O O9 0.634199 0.207275 0.804593
O O10 0.004779 0.500000 0.242227
O O11 0.200390 0.450534 0.618378
O O12 0.000000 0.433948 0.500000
O O13 0.000000 0.427543 0.000000
O O14 0.891250 0.000000 0.996723
O O15 0.000000 0.645406 0.500000
#
# Coordination Sequence:
#
# PCOD9200046 Si02
#       6
#     8   8   8   8   8   8
#     4  10  21  39  57  87 124 161 194 250 293 354
#     4  11  23  38  54  82 114 157 202 252 305 347
#     4  10  20  36  63  91 119 158 203 241 292 357
#     4   9  17  29  43  61  87 122 170 230 284 322
#     4  11  22  38  55  75 106 151 207 257 302 355
#     4  11  21  37  58  83 123 164 207 238 291 359
#
# _framework density 27.363375999999999
#
# number of rings (size 3 to 8) (size 9 to 14) (size 15 to 20)
#    0.000    1.667    3.333    2.000    0.000    4.667 
#    3.000    0.000    0.000    0.500    0.000    0.000 
#    0.000    4.000    0.000    0.000    0.000    0.000 
#
# Total GULP energy -133891.324247 kJ/mol
# GULP energy per Si atom -5578.805177 kJ/mol
# Density = 2.730110 g / cm^3
# Si number density = 27.363376 Si / 1000 Ang^3
#
#
#
# Elastic Constant Matrix: (Units=GPa)
#
#
# Indices 1 2 3 4 5 6 
#
# 1 142.6388 53.5462 44.0084 0.0000 -37.7901 0.0000
# 2 53.5462 210.8502 54.5751 0.0000 -26.4289 0.0000
# 3 44.0084 54.5751 151.8947 0.0000 -30.6915 0.0000
# 4 0.0000 0.0000 0.0000 47.9612 0.0000 -11.8511
# 5 -37.7901 -26.4289 -30.6915 0.0000 47.7646 0.0000
# 6 0.0000 0.0000 0.0000 -11.8511 0.0000 -3.6596
#
#
#
# Elastic Compliance Matrix: (Units=1/GPa)
#
#
# Indices 1 2 3 4 5 6 
#
# 1 0.009446 -0.001376 -0.001018 0.000000 0.006058 0.000000
# 2 -0.001376 0.005590 -0.001385 0.000000 0.001115 0.000000
# 3 -0.001018 -0.001385 0.008112 0.000000 0.003640 0.000000
# 4 0.000000 0.000000 0.000000 0.011582 0.000000 -0.037507
# 5 0.006058 0.001115 0.003640 0.000000 0.028685 0.000000
# 6 0.000000 0.000000 0.000000 -0.037507 0.000000 -0.151792
#
#
# Mechanical properties :
#
#
# Convention : Reuss Voigt Hill
#
# Bulk Modulus (GPa) = 64.14300 89.96036 77.05168
# Shear Modulus (GPa) = -66.11909 41.96350 -12.07779
#
# Velocity S-wave (km/s) = -4.92096 3.92032 -2.10320
# Velocity P-wave (km/s) = 2.96575 7.31023 4.72461
#
# Compressibility (1/GPa) = 0.01559016
#
# Stress axis : x y z
#
# Youngs Moduli (GPa) = 105.85950 178.88210 123.27989
#
# Poissons Ratio (x) = 0.24614 0.12556
# Poissons Ratio (y) = 0.14566 0.17070
# Poissons Ratio (z) = 0.10781 0.24769
#
# Static dielectric constant tensor:
#      x y z
#    x 2.185770 0.000000 0.005040 
#    y 0.000000 2.162030 0.000000 
#    z 0.005040 0.000000 2.024560 
# 
# From -- ./inp_files/13247.got.cif
#   From: 2010.05.17/outbox.cif.g08.bks.cpg/sg12_7_cif.got.tgz:13247.got - 2010.06.03 13:09:07.
