data_PCOD9200148
_publ_section_title
;
Structure prediction by ZEFSAII (Michael W. Deem and Ramdas Pophale) SiO2 
 PCOD9200148
Probable space group: C 2/M
;
_chemical_formula_sum "Si O2"
_cell_formula_units_Z 48
_cell_length_a 11.355666
_cell_length_b 14.363289
_cell_length_c 11.778551
_cell_angle_alpha 90.000000
_cell_angle_beta 108.389636
_cell_angle_gamma 90.000000
_cell_volume 1823.030641
_symmetry_space_group_name_H-M "C 2/M"
_symmetry_group_IT_number 12
_symmetry_cell_setting 'monoclinic'
loop_
_space_group_symop_operation_xyz
x,y,z
-x,y,-z
-x,-y,-z
x,-y,z
1/2+x,1/2+y,z
1/2-x,1/2+y,-z
1/2-x,1/2-y,-z
1/2+x,1/2-y,z
loop_
_atom_site_type_symbol
_atom_site_label
_atom_site_fract_x
_atom_site_fract_y
_atom_site_fract_z
Si Si1 0.818530 0.613596 0.990736
Si Si2 0.857125 0.193754 0.463972
Si Si3 0.458280 0.607668 0.117184
Si Si4 0.415813 0.112699 0.267752
Si Si5 0.319405 0.606434 0.672322
Si Si6 0.833599 0.612188 0.747087
O O1 0.820714 0.500000 0.997470
O O2 0.678551 0.647920 0.928066
O O3 0.880000 0.636914 0.888370
O O4 0.862954 0.641248 0.128726
O O5 0.750000 0.250000 0.500000
O O6 0.857492 0.107955 0.553837
O O7 0.795411 0.157519 0.329192
O O8 0.000000 0.225759 0.500000
O O9 0.442251 0.500000 0.152598
O O10 0.568323 0.652442 0.223413
O O11 0.500000 0.604687 0.000000
O O12 0.317380 0.143339 0.333426
O O13 0.559636 0.140381 0.310215
O O14 0.422092 0.000000 0.274511
O O15 0.314516 0.500000 0.712291
O O16 0.820584 0.500000 0.740966
#
# Coordination Sequence:
#
# PCOD9200148 Si02
#       6
#     8   8   8   8   8   8
#     4   9  15  27  51  90 133 159 189 240 305 369
#     4  12  29  48  66  86 118 165 212 260 314 368
#     4   9  14  24  47  83 122 154 185 237 300 356
#     4   9  17  30  56  98 133 161 191 242 313 370
#     4  10  20  36  64  96 126 158 207 259 303 361
#     4  10  21  37  63  94 127 162 204 254 306 362
#
# _framework density 26.329782000000002
#
# number of rings (size 3 to 8) (size 9 to 14) (size 15 to 20)
#    0.000    2.167    1.667    2.000    2.333    4.667 
#    0.000    2.500    0.000    3.000    0.000    0.000 
#    0.000    0.000    0.000    0.000    0.000    0.000 
#
# Total GULP energy -134079.708861 kJ/mol
# GULP energy per Si atom -5586.654536 kJ/mol
# Density = 2.626985 g / cm^3
# Si number density = 26.329782 Si / 1000 Ang^3
#
#
#
# Elastic Constant Matrix: (Units=GPa)
#
#
# Indices 1 2 3 4 5 6 
#
# 1 150.4723 13.4516 20.4349 0.0000 0.6857 0.0000
# 2 13.4516 76.4113 -1.9532 0.0000 0.6082 0.0000
# 3 20.4349 -1.9532 95.9145 0.0000 0.9421 0.0000
# 4 0.0000 0.0000 0.0000 -4.6626 0.0000 2.7721
# 5 0.6857 0.6082 0.9421 0.0000 45.9260 0.0000
# 6 0.0000 0.0000 0.0000 2.7721 0.0000 21.3850
#
#
#
# Elastic Compliance Matrix: (Units=1/GPa)
#
#
# Indices 1 2 3 4 5 6 
#
# 1 0.006964 -0.001264 -0.001509 0.000000 -0.000056 0.000000
# 2 -0.001264 0.013325 0.000542 0.000000 -0.000169 0.000000
# 3 -0.001509 0.000542 0.010760 0.000000 -0.000205 0.000000
# 4 0.000000 0.000000 0.000000 -0.199126 0.000000 0.025812
# 5 -0.000056 -0.000169 -0.000205 0.000000 0.021781 0.000000
# 6 0.000000 0.000000 0.000000 0.025812 0.000000 0.043416
#
#
# Mechanical properties :
#
#
# Convention : Reuss Voigt Hill
#
# Bulk Modulus (GPa) = 37.61102 42.96274 40.28688
# Shear Modulus (GPa) = -55.83110 31.92068 -11.95521
#
# Velocity S-wave (km/s) = -4.60983 3.48565 -2.13317
# Velocity P-wave (km/s) = 3.74413 5.70546 3.04415
#
# Compressibility (1/GPa) = 0.02658796
#
# Stress axis : x y z
#
# Youngs Moduli (GPa) = 143.59747 75.04805 92.93265
#
# Poissons Ratio (x) = 0.09487 0.14022
# Poissons Ratio (y) = 0.18152 -0.05040
# Poissons Ratio (z) = 0.21667 -0.04070
#
# Static dielectric constant tensor:
#      x y z
#    x 2.078020 0.000000 -0.006900 
#    y 0.000000 2.108180 0.000000 
#    z -0.006900 0.000000 2.083190 
# 
# From -- ./inp_files/131770.got.cif
#   From: 2010.05.17/outbox.cif.g08.bks.cpg/sg12_66_cif.got.tgz:131770.got - 2010.06.03 13:09:07.
