data_PCOD9200239
_publ_section_title
;
Structure prediction by ZEFSAII (Michael W. Deem and Ramdas Pophale) SiO2 
 PCOD9200239
Probable space group: C 2/M
;
_chemical_formula_sum "Si O2"
_cell_formula_units_Z 64
_cell_length_a 19.967094
_cell_length_b 17.942575
_cell_length_c 11.860395
_cell_angle_alpha 90.000000
_cell_angle_beta 53.357401
_cell_angle_gamma 90.000000
_cell_volume 3409.381608
_symmetry_space_group_name_H-M "C 2/M"
_symmetry_group_IT_number 12
_symmetry_cell_setting 'monoclinic'
loop_
_space_group_symop_operation_xyz
x,y,z
-x,y,-z
-x,-y,-z
x,-y,z
1/2+x,1/2+y,z
1/2-x,1/2+y,-z
1/2-x,1/2-y,-z
1/2+x,1/2-y,z
loop_
_atom_site_type_symbol
_atom_site_label
_atom_site_fract_x
_atom_site_fract_y
_atom_site_fract_z
Si Si1 0.003822 0.089220 0.362285
Si Si2 0.710523 0.180166 0.916944
Si Si3 0.691656 0.415798 0.814329
Si Si4 0.167146 0.313032 0.619770
Si Si5 0.904918 0.414322 0.134189
Si Si6 0.669945 0.584844 0.577890
Si Si7 0.719499 0.776367 0.340311
Si Si8 0.356285 0.334990 0.926117
O O1 0.071319 0.140576 0.231535
O O2 0.000000 0.100490 0.500000
O O3 0.912651 0.106718 0.404693
O O4 0.020852 0.000000 0.324923
O O5 0.654497 0.124555 0.899621
O O6 0.778669 0.217818 0.762689
O O7 0.767163 0.145176 0.957609
O O8 0.655686 0.248438 0.023832
O O9 0.716816 0.500000 0.814845
O O10 0.652323 0.415425 0.729267
O O11 0.767648 0.357492 0.725660
O O12 0.634226 0.382494 0.969346
O O13 0.100866 0.364372 0.747341
O O14 0.249893 0.365048 0.528510
O O15 0.195958 0.247933 0.675831
O O16 0.152885 0.282445 0.508234
O O17 0.879049 0.500000 0.179006
O O18 0.000000 0.413840 0.000000
O O19 0.690893 0.500000 0.524356
#
# Coordination Sequence:
#
# PCOD9200239 Si02
#       8
#     8   8   8   8   8   8   8   8
#     4  10  22  35  49  81 118 147 185 221 263 337
#     4   9  20  38  56  78 107 140 187 231 278 329
#     4   9  17  31  52  77 104 138 179 220 269 322
#     4   9  16  31  53  77 105 140 176 217 277 322
#     4  10  21  36  54  81 111 143 188 235 280 333
#     4   9  18  32  50  78 112 143 179 221 268 327
#     4   8  16  30  50  78 102 130 171 225 258 326
#     4  10  20  37  55  77 110 146 185 228 273 327
#
# _framework density 18.771733000000001
#
# number of rings (size 3 to 8) (size 9 to 14) (size 15 to 20)
#    0.000    2.750    0.000    0.750    3.500    2.000 
#   13.500    1.875    0.000    0.000    0.000    0.000 
#    0.000   19.000    0.000    0.000    0.000    0.000 
#
# Total GULP energy -178199.930517 kJ/mol
# GULP energy per Si atom -5568.747829 kJ/mol
# Density = 1.872901 g / cm^3
# Si number density = 18.771733 Si / 1000 Ang^3
#
#
#
# Elastic Constant Matrix: (Units=GPa)
#
#
# Indices 1 2 3 4 5 6 
#
# 1 39.2700 3.8706 8.5092 0.0000 1.9486 0.0000
# 2 3.8706 88.3983 29.0022 0.0000 -9.3592 0.0000
# 3 8.5092 29.0022 98.0502 0.0000 4.2512 0.0000
# 4 0.0000 0.0000 0.0000 26.3295 0.0000 -2.3912
# 5 1.9486 -9.3592 4.2512 0.0000 15.7789 0.0000
# 6 0.0000 0.0000 0.0000 -2.3912 0.0000 14.9964
#
#
#
# Elastic Compliance Matrix: (Units=1/GPa)
#
#
# Indices 1 2 3 4 5 6 
#
# 1 0.026116 -0.000874 -0.001868 0.000000 -0.003240 0.000000
# 2 -0.000874 0.013805 -0.004419 0.000000 0.009487 0.000000
# 3 -0.001868 -0.004419 0.011911 0.000000 -0.005599 0.000000
# 4 0.000000 0.000000 0.000000 0.038538 0.000000 0.006145
# 5 -0.003240 0.009487 -0.005599 0.000000 0.070912 0.000000
# 6 0.000000 0.000000 0.000000 0.006145 0.000000 0.067663
#
#
# Mechanical properties :
#
#
# Convention : Reuss Voigt Hill
#
# Bulk Modulus (GPa) = 26.65852 34.27586 30.46719
# Shear Modulus (GPa) = 19.54891 23.71006 21.62949
#
# Velocity S-wave (km/s) = 3.23058 3.55783 3.39814
# Velocity P-wave (km/s) = 5.30544 5.93097 5.62691
#
# Compressibility (1/GPa) = 0.03751147
#
# Stress axis : x y z
#
# Youngs Moduli (GPa) = 38.29025 72.43824 83.95780
#
# Poissons Ratio (x) = 0.06330 0.15679
# Poissons Ratio (y) = 0.03346 0.37099
# Poissons Ratio (z) = 0.07151 0.32009
#
# Static dielectric constant tensor:
#      x y z
#    x 1.631500 0.000000 0.038510 
#    y 0.000000 1.701930 0.000000 
#    z 0.038510 0.000000 1.694450 
# 
# From -- ./inp_files/168752.got.cif
#   From: 2010.05.17/outbox.cif.g08.bks.cpg/sg12_85_cif.got.tgz:168752.got - 2010.06.03 13:09:07.
