data_PCOD9200119
_publ_section_title
;
Structure prediction by ZEFSAII (Michael W. Deem and Ramdas Pophale) SiO2 
 PCOD9200119
Probable space group: C 2/M
;
_chemical_formula_sum "Si O2"
_cell_formula_units_Z 44
_cell_length_a 9.305295
_cell_length_b 24.996520
_cell_length_c 15.801766
_cell_angle_alpha 90.000000
_cell_angle_beta 39.897429
_cell_angle_gamma 90.000000
_cell_volume 2357.515597
_symmetry_space_group_name_H-M "C 2/M"
_symmetry_group_IT_number 12
_symmetry_cell_setting 'monoclinic'
loop_
_space_group_symop_operation_xyz
x,y,z
-x,y,-z
-x,-y,-z
x,-y,z
1/2+x,1/2+y,z
1/2-x,1/2+y,-z
1/2-x,1/2-y,-z
1/2+x,1/2-y,z
loop_
_atom_site_type_symbol
_atom_site_label
_atom_site_fract_x
_atom_site_fract_y
_atom_site_fract_z
Si Si1 0.933043 0.938092 0.394636
Si Si2 0.464649 0.237136 0.321920
Si Si3 0.500000 0.727510 0.500000
Si Si4 0.239654 0.146741 0.849487
Si Si5 0.740648 0.349403 0.647882
Si Si6 0.876303 0.562621 0.301418
O O1 0.878934 0.897764 0.345283
O O2 0.745696 0.931453 0.552448
O O3 0.175745 0.927291 0.325771
O O4 0.926948 0.000000 0.370752
O O5 0.516718 0.244353 0.398541
O O6 0.660539 0.206843 0.185312
O O7 0.385958 0.294781 0.323632
O O8 0.241067 0.200673 0.406489
O O9 0.227050 0.141907 0.753745
O O10 0.417470 0.102771 0.800563
O O11 0.000000 0.140761 0.000000
O O12 0.000000 0.349219 0.500000
O O13 0.943269 0.500000 0.263440
#
# Coordination Sequence:
#
# PCOD9200119 Si02
#       6
#     8   8   4   8   8   8
#     4   9  20  37  66 100 122 147 198 263 310 349
#     4  11  22  38  59  92 121 155 205 253 299 359
#     4  10  20  36  64  90 114 150 204 258 300 344
#     4  12  27  42  58  87 128 168 203 248 304 364
#     4  12  22  40  64  94 121 158 209 253 303 361
#     4   9  20  40  65  94 123 157 199 250 311 363
#
# _framework density 18.663716000000001
#
# number of rings (size 3 to 8) (size 9 to 14) (size 15 to 20)
#    0.000    1.455    4.545    2.182    2.545    2.182 
#    0.000    0.909    0.000    2.182    0.000    0.000 
#    0.000    0.000    0.000    0.000    0.000    0.000 
#
# Total GULP energy -122657.857799 kJ/mol
# GULP energy per Si atom -5575.357173 kJ/mol
# Density = 1.862124 g / cm^3
# Si number density = 18.663716 Si / 1000 Ang^3
#
#
#
# Elastic Constant Matrix: (Units=GPa)
#
#
# Indices 1 2 3 4 5 6 
#
# 1 98.5321 60.9415 43.7862 0.0000 -9.1504 0.0000
# 2 60.9415 113.1363 56.9916 0.0000 -19.0149 0.0000
# 3 43.7862 56.9916 122.4673 0.0000 -26.0193 0.0000
# 4 0.0000 0.0000 0.0000 17.7719 0.0000 -5.1602
# 5 -9.1504 -19.0149 -26.0193 0.0000 26.3428 0.0000
# 6 0.0000 0.0000 0.0000 -5.1602 0.0000 33.9340
#
#
#
# Elastic Compliance Matrix: (Units=1/GPa)
#
#
# Indices 1 2 3 4 5 6 
#
# 1 0.015795 -0.007608 -0.002668 0.000000 -0.002640 0.000000
# 2 -0.007608 0.015524 -0.003398 0.000000 0.005207 0.000000
# 3 -0.002668 -0.003398 0.012634 0.000000 0.009099 0.000000
# 4 0.000000 0.000000 0.000000 0.058868 0.000000 0.008952
# 5 -0.002640 0.005207 0.009099 0.000000 0.049790 0.000000
# 6 0.000000 0.000000 0.000000 0.008952 0.000000 0.030830
#
#
# Mechanical properties :
#
#
# Convention : Reuss Voigt Hill
#
# Bulk Modulus (GPa) = 60.22156 73.06380 66.64268
# Shear Modulus (GPa) = 23.11378 27.10416 25.10897
#
# Velocity S-wave (km/s) = 3.52296 3.81496 3.67186
# Velocity P-wave (km/s) = 6.99178 7.65753 7.33221
#
# Compressibility (1/GPa) = 0.01660535
#
# Stress axis : x y z
#
# Youngs Moduli (GPa) = 63.31278 64.41821 79.15359
#
# Poissons Ratio (x) = 0.49008 0.21115
# Poissons Ratio (y) = 0.48167 0.26895
# Poissons Ratio (z) = 0.16889 0.21889
#
# Static dielectric constant tensor:
#      x y z
#    x 1.662440 0.000000 -0.022630 
#    y 0.000000 1.714130 0.000000 
#    z -0.022630 0.000000 1.615530 
# 
# From -- ./inp_files/199567.got.cif
#   From: 2010.05.17/outbox.cif.g08.bks.cpg/sg12_100_cif.got.tgz:199567.got - 2010.06.03 13:09:07.
