data_PCOD9200274
_publ_section_title
;
Structure prediction by ZEFSAII (Michael W. Deem and Ramdas Pophale) SiO2 
 PCOD9200274
Probable space group: C 2/M
;
_chemical_formula_sum "Si O2"
_cell_formula_units_Z 56
_cell_length_a 29.407652
_cell_length_b 8.737240
_cell_length_c 14.767098
_cell_angle_alpha 90.000000
_cell_angle_beta 59.413757
_cell_angle_gamma 90.000000
_cell_volume 3266.362894
_symmetry_space_group_name_H-M "C 2/M"
_symmetry_group_IT_number 12
_symmetry_cell_setting 'monoclinic'
loop_
_space_group_symop_operation_xyz
x,y,z
-x,y,-z
-x,-y,-z
x,-y,z
1/2+x,1/2+y,z
1/2-x,1/2+y,-z
1/2-x,1/2-y,-z
1/2+x,1/2-y,z
loop_
_atom_site_type_symbol
_atom_site_label
_atom_site_fract_x
_atom_site_fract_y
_atom_site_fract_z
Si Si1 0.910892 0.823282 0.845378
Si Si2 0.849370 0.680655 0.066796
Si Si3 0.371983 0.183293 0.705245
Si Si4 0.744460 0.817797 0.107152
Si Si5 0.443929 0.815930 0.099702
Si Si6 0.949004 0.814522 0.490258
Si Si7 0.034693 0.178668 0.734077
O O1 0.905446 0.769108 0.748445
O O2 0.971625 0.811827 0.811571
O O3 0.893683 0.000000 0.872296
O O4 0.875673 0.714876 0.942933
O O5 0.841989 0.500000 0.086526
O O6 0.792950 0.761159 0.119371
O O7 0.893043 0.738330 0.094294
O O8 0.311363 0.223170 0.790015
O O9 0.396723 0.242619 0.587068
O O10 0.377705 0.000000 0.706174
O O11 0.746426 0.000000 0.096155
O O12 0.750000 0.750000 0.000000
O O13 0.440238 0.767976 0.207809
O O14 0.444609 0.000000 0.092174
O O15 0.500000 0.760872 0.000000
O O16 0.954637 0.768490 0.379431
O O17 0.000000 0.769094 0.500000
O O18 0.946628 0.000000 0.495852
O O19 0.049790 0.000000 0.724413
#
# Coordination Sequence:
#
# PCOD9200274 Si02
#       7
#     8   8   8   8   8   8   8
#     4  11  20  32  53  80 113 149 181 221 269 321
#     4  11  22  36  54  80 112 147 187 224 270 330
#     4  11  23  36  53  81 112 145 184 225 271 328
#     4  11  23  37  55  80 112 146 183 227 276 326
#     4  10  21  36  54  79 113 147 178 225 278 324
#     4  10  20  37  56  79 112 146 182 224 272 326
#     4  10  21  35  54  81 111 147 186 222 266 328
#
# _framework density 17.144452000000001
#
# number of rings (size 3 to 8) (size 9 to 14) (size 15 to 20)
#    0.000    1.429    4.286    1.714    0.000    4.571 
#    0.000    0.000    0.000    0.857    0.000    0.000 
#    0.000    0.000    0.000    0.000    0.000    0.000 
#
# Total GULP energy -156268.317241 kJ/mol
# GULP energy per Si atom -5581.011330 kJ/mol
# Density = 1.710543 g / cm^3
# Si number density = 17.144452 Si / 1000 Ang^3
#
#
#
# Elastic Constant Matrix: (Units=GPa)
#
#
# Indices 1 2 3 4 5 6 
#
# 1 99.9454 24.3376 37.4972 0.0000 1.2010 0.0000
# 2 24.3376 19.6764 13.2321 0.0000 -7.0637 0.0000
# 3 37.4972 13.2321 88.1892 0.0000 -3.3171 0.0000
# 4 0.0000 0.0000 0.0000 27.9835 0.0000 4.1881
# 5 1.2010 -7.0637 -3.3171 0.0000 25.6571 0.0000
# 6 0.0000 0.0000 0.0000 4.1881 0.0000 17.0725
#
#
#
# Elastic Compliance Matrix: (Units=1/GPa)
#
#
# Indices 1 2 3 4 5 6 
#
# 1 0.016595 -0.020101 -0.004298 0.000000 -0.006867 0.000000
# 2 -0.020101 0.086838 -0.003565 0.000000 0.024387 0.000000
# 3 -0.004298 -0.003565 0.013739 0.000000 0.000996 0.000000
# 4 0.000000 0.000000 0.000000 0.037097 0.000000 -0.009100
# 5 -0.006867 0.024387 0.000996 0.000000 0.046140 0.000000
# 6 0.000000 0.000000 0.000000 -0.009100 0.000000 0.060806
#
#
# Mechanical properties :
#
#
# Convention : Reuss Voigt Hill
#
# Bulk Modulus (GPa) = 16.32844 39.77165 28.05005
# Shear Modulus (GPa) = 14.81217 22.99223 18.90220
#
# Velocity S-wave (km/s) = 2.94251 3.66606 3.32403
# Velocity P-wave (km/s) = 4.59230 6.41626 5.57932
#
# Compressibility (1/GPa) = 0.06124283
#
# Stress axis : x y z
#
# Youngs Moduli (GPa) = 60.25733 11.51571 72.78379
#
# Poissons Ratio (x) = 0.23148 0.31286
# Poissons Ratio (y) = 1.21125 0.25949
# Poissons Ratio (z) = 0.25902 0.04106
#
# Static dielectric constant tensor:
#      x y z
#    x 1.585890 0.000000 -0.006790 
#    y 0.000000 1.582130 0.000000 
#    z -0.006790 0.000000 1.572260 
# 
# From -- ./inp_files/243699.got.cif
#   From: 2010.05.17/outbox.cif.g08.bks.cpg/sg12_122_cif.got.tgz:243699.got - 2010.06.03 13:09:07.
