data_PCOD9200904
_publ_section_title
;
Structure prediction by ZEFSAII (Michael W. Deem and Ramdas Pophale) SiO2 
 PCOD9200904
Probable space group: C 2/M
;
_chemical_formula_sum "Si O2"
_cell_formula_units_Z 64
_cell_length_a 27.246082
_cell_length_b 13.722338
_cell_length_c 8.204546
_cell_angle_alpha 90.000000
_cell_angle_beta 103.449635
_cell_angle_gamma 90.000000
_cell_volume 2983.387851
_symmetry_space_group_name_H-M "C 2/M"
_symmetry_group_IT_number 12
_symmetry_cell_setting 'monoclinic'
loop_
_space_group_symop_operation_xyz
x,y,z
-x,y,-z
-x,-y,-z
x,-y,z
1/2+x,1/2+y,z
1/2-x,1/2+y,-z
1/2-x,1/2-y,-z
1/2+x,1/2-y,z
loop_
_atom_site_type_symbol
_atom_site_label
_atom_site_fract_x
_atom_site_fract_y
_atom_site_fract_z
Si Si1 0.062319 0.886119 0.389935
Si Si2 0.368272 0.885896 0.651318
Si Si3 0.713541 0.395106 0.224019
Si Si4 0.248359 0.890986 0.612635
Si Si5 0.614708 0.299961 0.133280
Si Si6 0.097270 0.718363 0.651217
Si Si7 0.209130 0.729669 0.829696
Si Si8 0.974081 0.763714 0.148546
O O1 0.102603 0.870711 0.275872
O O2 0.081529 0.821603 0.556363
O O3 0.013092 0.832886 0.274457
O O4 0.054734 0.000000 0.419357
O O5 0.307373 0.872741 0.617034
O O6 0.390060 0.810092 0.801171
O O7 0.390082 0.850868 0.493340
O O8 0.379013 0.000000 0.687212
O O9 0.696676 0.500000 0.153439
O O10 0.717739 0.390224 0.421298
O O11 0.672104 0.319536 0.131976
O O12 0.770439 0.374914 0.213135
O O13 0.224159 0.809373 0.705868
O O14 0.245109 0.000000 0.682609
O O15 0.574200 0.320225 0.962612
O O16 0.149196 0.726274 0.792766
O O17 0.051344 0.692295 0.737926
O O18 0.250000 0.750000 0.000000
O O19 0.000000 0.726125 0.000000
#
# Coordination Sequence:
#
# PCOD9200904 Si02
#       8
#     8   8   8   8   8   8   8   8
#     4  10  22  41  67  96 126 164 211 262 317 380
#     4  10  20  38  65  92 121 166 217 257 305 371
#     4  11  21  36  60  92 130 171 214 254 302 376
#     4  10  20  37  60  85 121 170 215 252 299 364
#     4  10  20  37  64  95 131 167 211 252 317 380
#     4  11  23  39  64  90 123 167 215 262 313 381
#     4  12  24  37  57  89 136 170 206 260 317 372
#     4  10  23  42  64  91 126 164 206 264 331 383
#
# _framework density 21.452123
#
# number of rings (size 3 to 8) (size 9 to 14) (size 15 to 20)
#    0.000    1.500    2.500    3.375    0.000    5.750 
#    0.000    1.875    0.000   23.250    0.000    0.000 
#    0.000    0.000    0.000    0.000    0.000    0.000 
#
# Total GULP energy -178462.715870 kJ/mol
# GULP energy per Si atom -5576.959871 kJ/mol
# Density = 2.140330 g / cm^3
# Si number density = 21.452123 Si / 1000 Ang^3
#
#
#
# Elastic Constant Matrix: (Units=GPa)
#
#
# Indices 1 2 3 4 5 6 
#
# 1 128.6054 27.2101 17.8373 0.0000 8.1854 0.0000
# 2 27.2101 99.9901 19.2419 0.0000 7.6863 0.0000
# 3 17.8373 19.2419 64.5048 0.0000 32.2631 0.0000
# 4 0.0000 0.0000 0.0000 0.7843 0.0000 10.8345
# 5 8.1854 7.6863 32.2631 0.0000 36.8419 0.0000
# 6 0.0000 0.0000 0.0000 10.8345 0.0000 5.5348
#
#
#
# Elastic Compliance Matrix: (Units=1/GPa)
#
#
# Indices 1 2 3 4 5 6 
#
# 1 0.008433 -0.001956 -0.001807 0.000000 0.000117 0.000000
# 2 -0.001956 0.011084 -0.003250 0.000000 0.000968 0.000000
# 3 -0.001807 -0.003250 0.029238 0.000000 -0.024525 0.000000
# 4 0.000000 0.000000 0.000000 -0.048961 0.000000 0.095842
# 5 0.000117 0.000968 -0.024525 0.000000 0.048392 0.000000
# 6 0.000000 0.000000 0.000000 0.095842 0.000000 -0.006938
#
#
# Mechanical properties :
#
#
# Convention : Reuss Voigt Hill
#
# Bulk Modulus (GPa) = 28.79327 46.85322 37.82325
# Shear Modulus (GPa) = 74.79434 23.88628 49.34031
#
# Velocity S-wave (km/s) = 5.91112 3.34049 4.80106
# Velocity P-wave (km/s) = 7.74853 6.06356 6.95724
#
# Compressibility (1/GPa) = 0.03473034
#
# Stress axis : x y z
#
# Youngs Moduli (GPa) = 118.58531 90.21816 34.20164
#
# Poissons Ratio (x) = 0.17647 0.06180
# Poissons Ratio (y) = 0.23196 0.11114
# Poissons Ratio (z) = 0.21426 0.29318
#
# Static dielectric constant tensor:
#      x y z
#    x 1.851160 0.000000 -0.074650 
#    y 0.000000 1.779890 0.000000 
#    z -0.074650 0.000000 1.836410 
# 
# From -- ./inp_files/104643.got.cif
#   From: 2010.05.17/outbox.cif.g08.bks.cpg/sg12_53_cif.got.tgz:104643.got - 2010.06.03 13:09:07.
