data_PCOD9200857
_publ_section_title
;
Structure prediction by ZEFSAII (Michael W. Deem and Ramdas Pophale) SiO2 
 PCOD9200857
Probable space group: C 2/M
;
_chemical_formula_sum "Si O2"
_cell_formula_units_Z 58
_cell_length_a 25.575060
_cell_length_b 9.705589
_cell_length_c 12.202119
_cell_angle_alpha 90.000000
_cell_angle_beta 106.564160
_cell_angle_gamma 90.000000
_cell_volume 2903.129614
_symmetry_space_group_name_H-M "C 2/M"
_symmetry_group_IT_number 12
_symmetry_cell_setting 'monoclinic'
loop_
_space_group_symop_operation_xyz
x,y,z
-x,y,-z
-x,-y,-z
x,-y,z
1/2+x,1/2+y,z
1/2-x,1/2+y,-z
1/2-x,1/2-y,-z
1/2+x,1/2-y,z
loop_
_atom_site_type_symbol
_atom_site_label
_atom_site_fract_x
_atom_site_fract_y
_atom_site_fract_z
Si Si1 0.963286 0.647529 0.650530
Si Si2 0.292646 0.838067 0.760076
Si Si3 0.432038 0.770655 0.393512
Si Si4 0.058432 0.155399 0.999076
Si Si5 0.188563 0.664720 0.755682
Si Si6 0.385837 0.344307 0.731299
Si Si7 0.851498 0.342005 0.032010
Si Si8 0.500000 0.500000 0.500000
O O1 0.950636 0.500000 0.696227
O O2 0.940756 0.650136 0.513223
O O3 0.934360 0.773967 0.692781
O O4 0.027823 0.666818 0.674478
O O5 0.236589 0.753918 0.731907
O O6 0.334348 0.757701 0.704990
O O7 0.286690 0.000000 0.729300
O O8 0.318635 0.830472 0.898313
O O9 0.369828 0.784810 0.322799
O O10 0.456964 0.620812 0.433030
O O11 0.092473 0.145593 0.131695
O O12 0.048689 0.000000 0.950227
O O13 0.096012 0.243775 0.942206
O O14 0.000000 0.215427 0.000000
O O15 0.195384 0.500000 0.740530
O O16 0.185936 0.687553 0.885484
O O17 0.373902 0.500000 0.685522
O O18 0.870068 0.500000 0.053099
#
# Coordination Sequence:
#
# PCOD9200857 Si02
#       8
#     8   8   8   8   8   8   8   2
#     4  10  20  37  60  84 115 151 186 233 294 356
#     4  10  21  39  58  84 118 158 204 244 292 347
#     4  10  22  38  61  87 122 149 191 237 301 344
#     4   9  19  35  50  78 114 150 191 242 288 343
#     4  11  22  37  60  89 121 155 198 245 295 352
#     4  10  21  36  59  81 112 155 196 239 298 353
#     4   9  20  36  55  82 118 157 196 241 292 347
#     4   8  20  40  58  84 120 146 190 240 290 342
#
# _framework density 19.978438000000001
#
# number of rings (size 3 to 8) (size 9 to 14) (size 15 to 20)
#    0.000    2.345    0.000    2.897    6.759    1.931 
#    0.000    0.690    0.000    0.000    0.000    0.000 
#    0.000    0.000    0.000    0.000    0.000    0.000 
#
# Total GULP energy -161541.025216 kJ/mol
# GULP energy per Si atom -5570.380180 kJ/mol
# Density = 1.993297 g / cm^3
# Si number density = 19.978438 Si / 1000 Ang^3
#
#
#
# Elastic Constant Matrix: (Units=GPa)
#
#
# Indices 1 2 3 4 5 6 
#
# 1 100.5125 50.7679 -10.6038 0.0000 11.5188 0.0000
# 2 50.7679 143.3291 3.7417 0.0000 3.1191 0.0000
# 3 -10.6038 3.7417 12.6375 0.0000 4.9942 0.0000
# 4 0.0000 0.0000 0.0000 32.2763 0.0000 -14.7568
# 5 11.5188 3.1191 4.9942 0.0000 19.9390 0.0000
# 6 0.0000 0.0000 0.0000 -14.7568 0.0000 14.6797
#
#
#
# Elastic Compliance Matrix: (Units=1/GPa)
#
#
# Indices 1 2 3 4 5 6 
#
# 1 0.017095 -0.006314 0.021892 0.000000 -0.014371 0.000000
# 2 -0.006314 0.009371 -0.009916 0.000000 0.004665 0.000000
# 3 0.021892 -0.009916 0.116335 0.000000 -0.040235 0.000000
# 4 0.000000 0.000000 0.000000 0.057333 0.000000 0.057634
# 5 -0.014371 0.004665 -0.040235 0.000000 0.067803 0.000000
# 6 0.000000 0.000000 0.000000 0.057634 0.000000 0.126058
#
#
# Mechanical properties :
#
#
# Convention : Reuss Voigt Hill
#
# Bulk Modulus (GPa) = 6.48820 38.25453 22.37137
# Shear Modulus (GPa) = 11.51957 27.55056 19.53507
#
# Velocity S-wave (km/s) = 2.40386 3.71754 3.13038
# Velocity P-wave (km/s) = 3.31049 6.13321 4.92827
#
# Compressibility (1/GPa) = 0.15412583
#
# Stress axis : x y z
#
# Youngs Moduli (GPa) = 58.49803 106.71613 8.59586
#
# Poissons Ratio (x) = 0.67378 -0.18818
# Poissons Ratio (y) = 0.36934 0.08524
# Poissons Ratio (z) = -1.28066 1.05818
#
# Static dielectric constant tensor:
#      x y z
#    x 1.687700 0.000000 -0.010600 
#    y 0.000000 1.714850 0.000000 
#    z -0.010600 0.000000 1.725440 
# 
# From -- ./inp_files/237708.got.cif
#   From: 2010.05.17/outbox.cif.g08.bks.cpg/sg12_119_cif.got.tgz:237708.got - 2010.06.03 13:09:07.
