data_PCOD9200246
_publ_section_title
;
Structure prediction by ZEFSAII (Michael W. Deem and Ramdas Pophale) SiO2 
 PCOD9200246
Probable space group: C 2/M
;
_chemical_formula_sum "Si O2"
_cell_formula_units_Z 58
_cell_length_a 20.230981
_cell_length_b 7.946799
_cell_length_c 17.724641
_cell_angle_alpha 90.000000
_cell_angle_beta 84.853812
_cell_angle_gamma 90.000000
_cell_volume 2838.131244
_symmetry_space_group_name_H-M "C 2/M"
_symmetry_group_IT_number 12
_symmetry_cell_setting 'monoclinic'
loop_
_space_group_symop_operation_xyz
x,y,z
-x,y,-z
-x,-y,-z
x,-y,z
1/2+x,1/2+y,z
1/2-x,1/2+y,-z
1/2-x,1/2-y,-z
1/2+x,1/2-y,z
loop_
_atom_site_type_symbol
_atom_site_label
_atom_site_fract_x
_atom_site_fract_y
_atom_site_fract_z
Si Si1 0.639964 0.689019 0.533424
Si Si2 0.225876 0.302884 0.387989
Si Si3 0.007550 0.682751 0.601398
Si Si4 0.194490 0.702147 0.065148
Si Si5 0.027942 0.195894 0.236683
Si Si6 0.000000 0.000000 0.500000
Si Si7 0.456910 0.796855 0.933570
Si Si8 0.318747 0.795616 0.767957
O O1 0.607371 0.500000 0.539214
O O2 0.699932 0.704932 0.586831
O O3 0.676304 0.712149 0.450406
O O4 0.582638 0.813304 0.563077
O O5 0.207317 0.500000 0.392139
O O6 0.218842 0.241496 0.303503
O O7 0.976269 0.500000 0.588497
O O8 0.007751 0.709456 0.691267
O O9 0.977173 0.845929 0.563388
O O10 0.191015 0.500000 0.066579
O O11 0.119716 0.763383 0.054582
O O12 0.210873 0.759082 0.148761
O O13 0.250000 0.750000 0.000000
O O14 0.014913 0.249948 0.151724
O O15 0.106022 0.231211 0.241881
O O16 0.013080 0.000000 0.245325
O O17 0.455608 0.000000 0.936768
O O18 0.500000 0.735681 0.000000
O O19 0.321017 0.000000 0.767961
#
# Coordination Sequence:
#
# PCOD9200246 Si02
#       8
#     8   8   8   8   8   2   8   8
#     4  10  20  37  55  81 119 154 198 250 295 355
#     4   9  19  35  58  80 109 153 200 246 300 354
#     4  12  25  42  62  87 125 162 201 255 311 361
#     4   9  18  34  56  82 115 147 187 245 304 363
#     4  11  22  38  58  88 124 156 199 253 302 363
#     4  12  26  44  60  94 114 156 210 252 302 366
#     4   9  19  39  64  87 116 158 206 252 310 381
#     4   9  19  36  57  82 109 152 199 238 297 362
#
# _framework density 20.435984000000001
#
# number of rings (size 3 to 8) (size 9 to 14) (size 15 to 20)
#    0.000    2.069    1.379    2.690    1.931    3.586 
#    2.483    0.000    0.000    0.000    0.000    0.000 
#    0.000    0.000    0.000    0.000    0.000    0.000 
#
# Total GULP energy -161697.204451 kJ/mol
# GULP energy per Si atom -5575.765671 kJ/mol
# Density = 2.038947 g / cm^3
# Si number density = 20.435984 Si / 1000 Ang^3
#
#
#
# Elastic Constant Matrix: (Units=GPa)
#
#
# Indices 1 2 3 4 5 6 
#
# 1 45.9678 25.3395 62.7533 0.0000 3.2874 0.0000
# 2 25.3395 81.8020 38.3586 0.0000 3.8384 0.0000
# 3 62.7533 38.3586 187.3669 0.0000 19.2261 0.0000
# 4 0.0000 0.0000 0.0000 28.3112 0.0000 -5.6208
# 5 3.2874 3.8384 19.2261 0.0000 31.6213 0.0000
# 6 0.0000 0.0000 0.0000 -5.6208 0.0000 23.5789
#
#
#
# Elastic Compliance Matrix: (Units=1/GPa)
#
#
# Indices 1 2 3 4 5 6 
#
# 1 0.044428 -0.007499 -0.013827 0.000000 0.004698 0.000000
# 2 -0.007499 0.014789 -0.000439 0.000000 -0.000749 0.000000
# 3 -0.013827 -0.000439 0.010564 0.000000 -0.004932 0.000000
# 4 0.000000 0.000000 0.000000 0.037076 0.000000 0.008838
# 5 0.004698 -0.000749 -0.004932 0.000000 0.034226 0.000000
# 6 0.000000 0.000000 0.000000 0.008838 0.000000 0.044518
#
#
# Mechanical properties :
#
#
# Convention : Reuss Voigt Hill
#
# Bulk Modulus (GPa) = 38.09445 63.11549 50.60497
# Shear Modulus (GPa) = 21.01896 29.28131 25.15013
#
# Velocity S-wave (km/s) = 3.21054 3.78938 3.51191
# Velocity P-wave (km/s) = 5.69428 7.07795 6.42348
#
# Compressibility (1/GPa) = 0.02625055
#
# Stress axis : x y z
#
# Youngs Moduli (GPa) = 22.50837 67.61926 94.66095
#
# Poissons Ratio (x) = 0.50709 1.30885
# Poissons Ratio (y) = 0.16879 0.04157
# Poissons Ratio (z) = 0.31122 0.02970
#
# Static dielectric constant tensor:
#      x y z
#    x 1.665160 0.000000 0.026980 
#    y 0.000000 1.770290 0.000000 
#    z 0.026980 0.000000 1.741420 
# 
# From -- ./inp_files/237568.got.cif
#   From: 2010.05.17/outbox.cif.g08.bks.cpg/sg12_119_cif.got.tgz:237568.got - 2010.06.03 13:09:07.
