data_PCOD9200154
_publ_section_title
;
Structure prediction by ZEFSAII (Michael W. Deem and Ramdas Pophale) SiO2 
 PCOD9200154
Probable space group: C 2/M
;
_chemical_formula_sum "Si O2"
_cell_formula_units_Z 64
_cell_length_a 18.539987
_cell_length_b 14.575399
_cell_length_c 24.140776
_cell_angle_alpha 90.000000
_cell_angle_beta 151.896086
_cell_angle_gamma 90.000000
_cell_volume 3073.042200
_symmetry_space_group_name_H-M "C 2/M"
_symmetry_group_IT_number 12
_symmetry_cell_setting 'monoclinic'
loop_
_space_group_symop_operation_xyz
x,y,z
-x,y,-z
-x,-y,-z
x,-y,z
1/2+x,1/2+y,z
1/2-x,1/2+y,-z
1/2-x,1/2-y,-z
1/2+x,1/2-y,z
loop_
_atom_site_type_symbol
_atom_site_label
_atom_site_fract_x
_atom_site_fract_y
_atom_site_fract_z
Si Si1 0.364393 0.269526 0.447426
Si Si2 0.580800 0.397828 0.807557
Si Si3 0.384055 0.212256 0.230023
Si Si4 0.552523 0.289435 0.972377
Si Si5 0.437884 0.894740 0.373702
Si Si6 0.122613 0.393892 0.323776
Si Si7 0.422994 0.895696 0.075551
Si Si8 0.841609 0.862648 0.741602
O O1 0.500000 0.302447 0.500000
O O2 0.424938 0.175045 0.516528
O O3 0.289983 0.348277 0.433088
O O4 0.220544 0.238473 0.313432
O O5 0.584214 0.500000 0.785823
O O6 0.585902 0.319328 0.763815
O O7 0.434430 0.391213 0.749544
O O8 0.736625 0.386982 0.950024
O O9 0.357158 0.168673 0.272218
O O10 0.531735 0.159736 0.308888
O O11 0.232469 0.189565 0.092678
O O12 0.529135 0.186576 0.932741
O O13 0.461574 0.359662 0.872494
O O14 0.500000 0.292838 0.000000
O O15 0.314896 0.905261 0.340270
O O16 0.479728 0.000000 0.385947
O O17 0.137076 0.500000 0.346342
O O18 0.012501 0.387095 0.194411
O O19 0.454652 0.000000 0.076804
#
# Coordination Sequence:
#
# PCOD9200154 Si02
#       8
#     8   8   8   8   8   8   8   8
#     4  10  23  41  65  90 120 162 222 263 311 365
#     4  10  20  36  64  98 129 165 211 256 305 377
#     4  11  22  40  62  96 132 165 204 254 323 379
#     4  11  20  35  62  91 132 166 196 255 321 374
#     4  11  25  43  64  91 128 169 209 259 318 380
#     4  11  21  39  63  89 124 167 211 260 315 372
#     4   9  19  34  58  91 125 166 213 251 303 377
#     4  11  20  40  64  94 126 164 209 255 314 377
#
# _framework density 20.826267000000001
#
# number of rings (size 3 to 8) (size 9 to 14) (size 15 to 20)
#    0.000    1.500    3.750    1.500    0.000    5.750 
#    0.000    3.125    0.000    0.750    0.000    0.000 
#    0.000    0.000    0.000    0.000    0.000    0.000 
#
# Total GULP energy -178193.848556 kJ/mol
# GULP energy per Si atom -5568.557767 kJ/mol
# Density = 2.077887 g / cm^3
# Si number density = 20.826267 Si / 1000 Ang^3
#
#
#
# Elastic Constant Matrix: (Units=GPa)
#
#
# Indices 1 2 3 4 5 6 
#
# 1 7.9486 40.8552 -2.7977 0.0007 4.8695 0.0001
# 2 40.8552 99.3457 34.1946 -0.0006 20.4557 0.0002
# 3 -2.7977 34.1946 64.8952 -0.0013 9.5331 -0.0006
# 4 0.0007 -0.0006 -0.0013 13.9652 0.0007 -3.5693
# 5 4.8695 20.4557 9.5331 0.0007 31.4459 0.0004
# 6 0.0001 0.0002 -0.0006 -3.5693 0.0004 -8.3797
#
#
#
# Elastic Compliance Matrix: (Units=1/GPa)
#
#
# Indices 1 2 3 4 5 6 
#
# 1 -0.069047 0.037267 -0.021584 0.000003 -0.007007 0.000000
# 2 0.037267 -0.006491 0.005499 -0.000001 -0.003216 0.000000
# 3 -0.021584 0.005499 0.012157 0.000002 -0.003920 -0.000002
# 4 0.000003 -0.000001 0.000002 0.064576 -0.000001 -0.027506
# 5 -0.007007 -0.003216 -0.003920 -0.000001 0.036166 0.000003
# 6 0.000000 0.000000 -0.000002 -0.027506 0.000003 -0.107620
#
#
# Mechanical properties :
#
#
# Convention : Reuss Voigt Hill
#
# Bulk Modulus (GPa) = -47.58128 35.18818 -6.19655
# Shear Modulus (GPa) = -41.79595 14.06879 -13.86358
#
# Velocity S-wave (km/s) = -4.48469 2.60192 -2.58287
# Velocity P-wave (km/s) = 7.05074 5.09503 3.44627
#
# Compressibility (1/GPa) = -0.02101667
#
# Stress axis : x y z
#
# Youngs Moduli (GPa) = -14.48279 -154.06652 82.25555
#
# Poissons Ratio (x) = 5.74165 1.77543
# Poissons Ratio (y) = 0.53973 -0.45233
# Poissons Ratio (z) = -0.31260 0.84723
#
# Static dielectric constant tensor:
#      x y z
#    x 1.805270 0.000000 -0.012650 
#    y 0.000000 1.857020 0.000000 
#    z -0.012650 0.000000 1.791190 
# 
# From -- ./inp_files/183837.got.cif
#   From: 2010.05.17/outbox.cif.g08.bks.cpg/sg12_92_cif.got.tgz:183837.got - 2010.06.03 13:09:07.
