data_PCOD9200866
_publ_section_title
;
Structure prediction by ZEFSAII (Michael W. Deem and Ramdas Pophale) SiO2 
 PCOD9200866
Probable space group: C 2/M
;
_chemical_formula_sum "Si O2"
_cell_formula_units_Z 56
_cell_length_a 17.484319
_cell_length_b 8.157424
_cell_length_c 21.442419
_cell_angle_alpha 90.000000
_cell_angle_beta 51.071921
_cell_angle_gamma 90.000000
_cell_volume 2379.134636
_symmetry_space_group_name_H-M "C 2/M"
_symmetry_group_IT_number 12
_symmetry_cell_setting 'monoclinic'
loop_
_space_group_symop_operation_xyz
x,y,z
-x,y,-z
-x,-y,-z
x,-y,z
1/2+x,1/2+y,z
1/2-x,1/2+y,-z
1/2-x,1/2-y,-z
1/2+x,1/2-y,z
loop_
_atom_site_type_symbol
_atom_site_label
_atom_site_fract_x
_atom_site_fract_y
_atom_site_fract_z
Si Si1 0.337951 0.689334 0.849693
Si Si2 0.189836 0.681936 0.784185
Si Si3 0.636109 0.690466 0.946419
Si Si4 0.982589 0.197360 0.665262
Si Si5 0.148452 0.316019 0.376421
Si Si6 0.502342 0.689916 0.126239
Si Si7 0.295803 0.301686 0.411008
O O1 0.306986 0.500000 0.854844
O O2 0.244620 0.792341 0.918715
O O3 0.396881 0.747159 0.758143
O O4 0.414052 0.688831 0.866040
O O5 0.230661 0.500000 0.756012
O O6 0.153874 0.718327 0.872366
O O7 0.267816 0.809544 0.719739
O O8 0.087561 0.706112 0.801532
O O9 0.615635 0.500000 0.946528
O O10 0.553141 0.750596 0.036331
O O11 0.946465 0.245475 0.613250
O O12 0.088961 0.252697 0.638718
O O13 0.985815 0.000000 0.664469
O O14 0.122104 0.500000 0.408540
O O15 0.215576 0.241758 0.399274
O O16 0.469441 0.500000 0.135489
O O17 0.299651 0.500000 0.400600
O O18 0.250000 0.250000 0.500000
#
# Coordination Sequence:
#
# PCOD9200866 Si02
#       7
#     8   8   8   8   8   8   8
#     4  10  20  37  60  84 117 157 203 256 313 371
#     4  12  24  38  58  85 117 158 209 261 312 372
#     4  11  22  36  56  83 117 157 206 259 315 373
#     4  10  21  40  66  95 128 169 211 256 312 374
#     4  11  23  42  68  96 128 168 211 260 317 377
#     4  10  22  38  56  81 117 162 205 259 322 375
#     4  10  24  45  69  99 135 170 205 249 308 375
#
# _framework density 23.537970999999999
#
# number of rings (size 3 to 8) (size 9 to 14) (size 15 to 20)
#    0.000    1.429    1.429    3.857    0.000    8.000 
#    0.000    4.286    0.000    0.000    0.000    0.000 
#    0.000    0.000    0.000    0.000    0.000    0.000 
#
# Total GULP energy -156118.206233 kJ/mol
# GULP energy per Si atom -5575.650223 kJ/mol
# Density = 2.348440 g / cm^3
# Si number density = 23.537971 Si / 1000 Ang^3
#
#
#
# Elastic Constant Matrix: (Units=GPa)
#
#
# Indices 1 2 3 4 5 6 
#
# 1 145.9275 8.6403 21.5605 0.0000 12.9137 0.0002
# 2 8.6403 27.1825 -4.9092 0.0000 -3.3796 0.0006
# 3 21.5605 -4.9092 45.5191 0.0000 10.2882 0.0000
# 4 0.0000 0.0000 0.0000 18.3129 0.0000 0.2028
# 5 12.9137 -3.3796 10.2882 0.0000 36.2907 0.0000
# 6 0.0002 0.0006 0.0000 0.2028 0.0000 30.5429
#
#
#
# Elastic Compliance Matrix: (Units=1/GPa)
#
#
# Indices 1 2 3 4 5 6 
#
# 1 0.007763 -0.003369 -0.003574 0.000000 -0.002063 0.000000
# 2 -0.003369 0.039197 0.005051 0.000000 0.003417 -0.000001
# 3 -0.003574 0.005051 0.025443 0.000000 -0.005471 0.000000
# 4 0.000000 0.000000 0.000000 0.054610 0.000000 -0.000363
# 5 -0.002063 0.003417 -0.005471 0.000000 0.030158 0.000000
# 6 0.000000 -0.000001 0.000000 -0.000363 0.000000 0.032743
#
#
# Mechanical properties :
#
#
# Convention : Reuss Voigt Hill
#
# Bulk Modulus (GPa) = 14.57365 29.91248 22.24307
# Shear Modulus (GPa) = 23.08701 29.91846 26.50273
#
# Velocity S-wave (km/s) = 3.13524 3.56908 3.35917
# Velocity P-wave (km/s) = 4.39446 5.45162 4.95134
#
# Compressibility (1/GPa) = 0.06861697
#
# Stress axis : x y z
#
# Youngs Moduli (GPa) = 128.81887 25.51246 39.30371
#
# Poissons Ratio (x) = 0.08596 0.14047
# Poissons Ratio (y) = 0.43405 -0.19852
# Poissons Ratio (z) = 0.46041 -0.12886
#
# Static dielectric constant tensor:
#      x y z
#    x 2.085220 0.000000 0.016060 
#    y 0.000000 1.945170 0.000000 
#    z 0.016060 0.000000 1.856470 
# 
# From -- ./inp_files/342295.got.cif
#   From: 2010.05.17/outbox.cif.g08.bks.cpg/sg12_172_cif.got.tgz:342295.got - 2010.06.03 13:09:07.
