data_PCOD9200278
_publ_section_title
;
Structure prediction by ZEFSAII (Michael W. Deem and Ramdas Pophale) SiO2 
 PCOD9200278
Probable space group: C 2/M
;
_chemical_formula_sum "Si O2"
_cell_formula_units_Z 48
_cell_length_a 17.308430
_cell_length_b 25.327821
_cell_length_c 10.854028
_cell_angle_alpha 90.000000
_cell_angle_beta 147.761191
_cell_angle_gamma 90.000000
_cell_volume 2538.280459
_symmetry_space_group_name_H-M "C 2/M"
_symmetry_group_IT_number 12
_symmetry_cell_setting 'monoclinic'
loop_
_space_group_symop_operation_xyz
x,y,z
-x,y,-z
-x,-y,-z
x,-y,z
1/2+x,1/2+y,z
1/2-x,1/2+y,-z
1/2-x,1/2-y,-z
1/2+x,1/2-y,z
loop_
_atom_site_type_symbol
_atom_site_label
_atom_site_fract_x
_atom_site_fract_y
_atom_site_fract_z
Si Si1 0.881388 0.651563 0.943145
Si Si2 0.160550 0.163070 0.191833
Si Si3 0.821267 0.802735 0.532295
Si Si4 0.423162 0.939376 0.194171
Si Si5 0.361060 0.739570 0.039490
Si Si6 0.226695 0.440224 0.743133
O O1 0.745628 0.672408 0.680384
O O2 0.873105 0.602975 0.026106
O O3 0.918474 0.704184 0.069579
O O4 0.000000 0.639332 0.000000
O O5 0.215395 0.157664 0.404467
O O6 0.161995 0.106255 0.132236
O O7 0.222536 0.206248 0.180767
O O8 0.000000 0.184771 0.000000
O O9 0.750000 0.750000 0.500000
O O10 0.991309 0.792631 0.734346
O O11 0.586746 0.930734 0.466216
O O12 0.327902 0.935898 0.190045
O O13 0.414842 0.000000 0.137632
O O14 0.250000 0.750000 0.000000
O O15 0.277805 0.500000 0.791199
#
# Coordination Sequence:
#
# PCOD9200278 Si02
#       6
#     8   8   8   8   8   8
#     4  12  21  35  59  83 116 159 194 237 299 345
#     4  10  20  37  56  80 116 150 194 241 285 346
#     4  11  21  39  55  81 120 156 191 235 287 349
#     4   9  20  36  57  87 118 147 191 246 291 340
#     4  11  23  37  56  85 115 152 198 241 291 349
#     4   9  18  36  59  84 114 149 191 240 292 343
#
# _framework density 18.910440000000001
#
# number of rings (size 3 to 8) (size 9 to 14) (size 15 to 20)
#    0.000    1.667    3.333    3.500    0.000    1.333 
#    0.000    0.833    0.000    1.000    0.000   10.500 
#    0.000    0.000    0.000    0.000    0.000    0.000 
#
# Total GULP energy -133624.393734 kJ/mol
# GULP energy per Si atom -5567.683072 kJ/mol
# Density = 1.886740 g / cm^3
# Si number density = 18.910440 Si / 1000 Ang^3
#
#
#
# Elastic Constant Matrix: (Units=GPa)
#
#
# Indices 1 2 3 4 5 6 
#
# 1 91.9707 48.6533 32.6322 0.0000 -11.8591 0.0000
# 2 48.6533 115.8639 35.3898 0.0000 -25.2576 0.0000
# 3 32.6322 35.3898 79.1451 0.0000 -19.0153 0.0000
# 4 0.0000 0.0000 0.0000 25.5696 0.0000 -5.4412
# 5 -11.8591 -25.2576 -19.0153 0.0000 22.6724 0.0000
# 6 0.0000 0.0000 0.0000 -5.4412 0.0000 32.1561
#
#
#
# Elastic Compliance Matrix: (Units=1/GPa)
#
#
# Indices 1 2 3 4 5 6 
#
# 1 0.014985 -0.005379 -0.004170 0.000000 -0.001651 0.000000
# 2 -0.005379 0.013760 -0.001162 0.000000 0.011541 0.000000
# 3 -0.004170 -0.001162 0.017582 0.000000 0.011270 0.000000
# 4 0.000000 0.000000 0.000000 0.040570 0.000000 0.006865
# 5 -0.001651 0.011541 0.011270 0.000000 0.065552 0.000000
# 6 0.000000 0.000000 0.000000 0.006865 0.000000 0.032260
#
#
# Mechanical properties :
#
#
# Convention : Reuss Voigt Hill
#
# Bulk Modulus (GPa) = 40.15312 57.81448 48.98380
# Shear Modulus (GPa) = 23.31732 27.43325 25.37528
#
# Velocity S-wave (km/s) = 3.51528 3.81293 3.66712
# Velocity P-wave (km/s) = 6.14456 7.07274 6.62493
#
# Compressibility (1/GPa) = 0.02490466
#
# Stress axis : x y z
#
# Youngs Moduli (GPa) = 66.73285 72.67242 56.87693
#
# Poissons Ratio (x) = 0.39089 0.23719
# Poissons Ratio (y) = 0.35894 0.06611
# Poissons Ratio (z) = 0.27829 0.08447
#
# Static dielectric constant tensor:
#      x y z
#    x 1.660420 0.000000 -0.032480 
#    y 0.000000 1.667350 0.000000 
#    z -0.032480 0.000000 1.789230 
# 
# From -- ./inp_files/52425.got.cif
#   From: 2010.05.17/outbox.cif.g08.bks.cpg/sg12_27_cif.got.tgz:52425.got - 2010.06.03 13:09:07.
