data_PCOD9200016
_publ_section_title
;
Structure prediction by ZEFSAII (Michael W. Deem and Ramdas Pophale) SiO2 
 PCOD9200016
Probable space group: C 2/M
;
_chemical_formula_sum "Si O2"
_cell_formula_units_Z 40
_cell_length_a 12.793948
_cell_length_b 26.800992
_cell_length_c 6.261402
_cell_angle_alpha 90.000000
_cell_angle_beta 71.694248
_cell_angle_gamma 90.000000
_cell_volume 2038.325315
_symmetry_space_group_name_H-M "C 2/M"
_symmetry_group_IT_number 12
_symmetry_cell_setting 'monoclinic'
loop_
_space_group_symop_operation_xyz
x,y,z
-x,y,-z
-x,-y,-z
x,-y,z
1/2+x,1/2+y,z
1/2-x,1/2+y,-z
1/2-x,1/2-y,-z
1/2+x,1/2-y,z
loop_
_atom_site_type_symbol
_atom_site_label
_atom_site_fract_x
_atom_site_fract_y
_atom_site_fract_z
Si Si1 0.646784 0.714045 0.606879
Si Si2 0.844121 0.127288 0.742591
Si Si3 0.500000 0.411656 0.000000
Si Si4 0.000000 0.711921 0.500000
Si Si5 0.295269 0.556303 0.396267
Si Si6 0.292387 0.148358 0.787670
O O1 0.750000 0.750000 0.500000
O O2 0.637417 0.674193 0.422082
O O3 0.544435 0.751296 0.658195
O O4 0.686335 0.681747 0.782602
O O5 0.830672 0.078928 0.601545
O O6 0.943600 0.118994 0.843828
O O7 0.733194 0.136087 0.951045
O O8 0.401689 0.441941 0.173049
O O9 0.098577 0.678465 0.343060
O O10 0.253868 0.500000 0.438106
O O11 0.214209 0.597281 0.343733
#
# Coordination Sequence:
#
# PCOD9200016 Si02
#       6
#     8   8   4   4   8   8
#     4   9  20  36  55  81 114 151 194 232 282 339
#     4  10  21  35  57  83 123 146 190 239 288 345
#     4  10  21  34  60  88 116 148 186 232 299 352
#     4  10  20  36  63  78 113 158 196 236 284 334
#     4  10  21  38  59  83 116 150 187 238 293 353
#     4   9  21  40  55  86 117 150 193 240 285 344
#
# _framework density 19.623954000000001
#
# number of rings (size 3 to 8) (size 9 to 14) (size 15 to 20)
#    0.000    2.400    0.000    0.900    8.400    8.000 
#    0.000   15.500    0.000    1.200    0.000    0.000 
#    0.000    0.000    0.000    0.000    0.000    0.000 
#
# Total GULP energy -111555.276673 kJ/mol
# GULP energy per Si atom -5577.763834 kJ/mol
# Density = 1.957929 g / cm^3
# Si number density = 19.623954 Si / 1000 Ang^3
#
#
#
# Elastic Constant Matrix: (Units=GPa)
#
#
# Indices 1 2 3 4 5 6 
#
# 1 75.7512 48.6322 24.5545 0.0000 -9.2321 0.0000
# 2 48.6322 149.5347 31.2638 0.0000 -0.3067 0.0000
# 3 24.5545 31.2638 82.0487 0.0000 2.0381 0.0000
# 4 0.0000 0.0000 0.0000 8.8717 0.0000 -16.0454
# 5 -9.2321 -0.3067 2.0381 0.0000 16.1930 0.0000
# 6 0.0000 0.0000 0.0000 -16.0454 0.0000 10.5273
#
#
#
# Elastic Compliance Matrix: (Units=1/GPa)
#
#
# Indices 1 2 3 4 5 6 
#
# 1 0.019394 -0.005445 -0.004014 0.000000 0.011459 0.000000
# 2 -0.005445 0.008799 -0.001655 0.000000 -0.002729 0.000000
# 3 -0.004014 -0.001655 0.014122 0.000000 -0.004097 0.000000
# 4 0.000000 0.000000 0.000000 -0.064168 0.000000 -0.097802
# 5 0.011459 -0.002729 -0.004097 0.000000 0.068753 0.000000
# 6 0.000000 0.000000 0.000000 -0.097802 0.000000 -0.054076
#
#
# Mechanical properties :
#
#
# Convention : Reuss Voigt Hill
#
# Bulk Modulus (GPa) = 49.78526 57.35952 53.57239
# Shear Modulus (GPa) = 229.90763 20.64400 125.27582
#
# Velocity S-wave (km/s) = 10.83563 3.24694 7.99855
# Velocity P-wave (km/s) = 13.48972 6.58404 10.61420
#
# Compressibility (1/GPa) = 0.02008626
#
# Stress axis : x y z
#
# Youngs Moduli (GPa) = 51.56125 113.65332 70.81290
#
# Poissons Ratio (x) = 0.61882 0.28425
# Poissons Ratio (y) = 0.28074 0.11722
# Poissons Ratio (z) = 0.20697 0.18814
#
# Static dielectric constant tensor:
#      x y z
#    x 1.717440 0.000000 0.008740 
#    y 0.000000 1.697530 0.000000 
#    z 0.008740 0.000000 1.712380 
# 
# From -- ./inp_files/8338.got.cif
#   From: 2010.05.17/outbox.cif.g08.bks.cpg/sg12_5_cif.got.tgz:8338.got - 2010.06.03 13:09:07.
