data_PCOD9200030
_publ_section_title
;
Structure prediction by ZEFSAII (Michael W. Deem and Ramdas Pophale) SiO2 
 PCOD9200030
Probable space group: C 2/M
;
_chemical_formula_sum "Si O2"
_cell_formula_units_Z 48
_cell_length_a 13.716441
_cell_length_b 19.947000
_cell_length_c 15.467448
_cell_angle_alpha 90.000000
_cell_angle_beta 144.621290
_cell_angle_gamma 90.000000
_cell_volume 2450.190992
_symmetry_space_group_name_H-M "C 2/M"
_symmetry_group_IT_number 12
_symmetry_cell_setting 'monoclinic'
loop_
_space_group_symop_operation_xyz
x,y,z
-x,y,-z
-x,-y,-z
x,-y,z
1/2+x,1/2+y,z
1/2-x,1/2+y,-z
1/2-x,1/2-y,-z
1/2+x,1/2-y,z
loop_
_atom_site_type_symbol
_atom_site_label
_atom_site_fract_x
_atom_site_fract_y
_atom_site_fract_z
Si Si1 0.707498 0.641989 0.820488
Si Si2 0.789835 0.500000 0.656103
Si Si3 0.064130 0.000000 0.667022
Si Si4 0.999024 0.768643 0.799026
Si Si5 0.169587 0.848564 0.075114
Si Si6 0.435910 0.116202 0.143530
Si Si7 0.316256 0.757110 0.327406
O O1 0.623180 0.570142 0.748227
O O2 0.577202 0.687681 0.780122
O O3 0.738027 0.685791 0.755917
O O4 0.867805 0.626666 0.996841
O O5 0.672265 0.500000 0.656004
O O6 0.638976 0.500000 0.478281
O O7 0.913989 0.563593 0.743101
O O8 0.806699 0.779067 0.684444
O O9 0.014145 0.690520 0.791364
O O10 0.102690 0.790887 0.960201
O O11 0.277653 0.898803 0.093344
O O12 0.284052 0.812679 0.230117
O O13 0.000000 0.874667 0.000000
O O14 0.500000 0.751029 0.500000
#
# Coordination Sequence:
#
# PCOD9200030 Si02
#       7
#     8   4   4   8   8   8   8
#     4  11  22  40  61  88 122 158 200 250 294 354
#     4  11  27  41  60  86 123 166 197 241 298 366
#     4  11  27  43  53  86 131 161 195 238 304 361
#     4  10  20  36  63  89 115 155 206 252 292 345
#     4   9  18  37  59  89 122 145 197 259 296 344
#     4  11  20  40  63  89 114 160 209 242 295 353
#     4  11  22  32  55  92 123 157 193 242 304 353
#
# _framework density 19.590309000000001
#
# number of rings (size 3 to 8) (size 9 to 14) (size 15 to 20)
#    0.000    1.500    3.333    2.500    4.667    4.667 
#    0.000    0.417    0.000    3.000    0.000   11.667 
#    0.000    0.000    0.000    0.000    0.000    0.000 
#
# Total GULP energy -133861.002645 kJ/mol
# GULP energy per Si atom -5577.541777 kJ/mol
# Density = 1.954572 g / cm^3
# Si number density = 19.590309 Si / 1000 Ang^3
#
#
#
# Elastic Constant Matrix: (Units=GPa)
#
#
# Indices 1 2 3 4 5 6 
#
# 1 79.5805 12.9175 13.8378 0.0000 24.3448 0.0000
# 2 12.9175 83.9802 26.6183 0.0000 11.1613 0.0000
# 3 13.8378 26.6183 69.8393 0.0000 19.5941 0.0000
# 4 0.0000 0.0000 0.0000 14.6196 0.0000 0.1897
# 5 24.3448 11.1613 19.5941 0.0000 24.1548 0.0000
# 6 0.0000 0.0000 0.0000 0.1897 0.0000 20.4579
#
#
#
# Elastic Compliance Matrix: (Units=1/GPa)
#
#
# Indices 1 2 3 4 5 6 
#
# 1 0.018443 -0.000906 0.002316 0.000000 -0.020048 0.000000
# 2 -0.000906 0.013724 -0.004568 0.000000 -0.001722 0.000000
# 3 0.002316 -0.004568 0.020278 0.000000 -0.016673 0.000000
# 4 0.000000 0.000000 0.000000 0.068410 0.000000 -0.000634
# 5 -0.020048 -0.001722 -0.016673 0.000000 0.075927 0.000000
# 6 0.000000 0.000000 0.000000 -0.000634 0.000000 0.048887
#
#
# Mechanical properties :
#
#
# Convention : Reuss Voigt Hill
#
# Bulk Modulus (GPa) = 21.67835 37.79413 29.73624
# Shear Modulus (GPa) = 18.70126 23.84820 21.27473
#
# Velocity S-wave (km/s) = 3.09304 3.49283 3.29900
# Velocity P-wave (km/s) = 4.88321 5.96663 5.45190
#
# Compressibility (1/GPa) = 0.04612898
#
# Stress axis : x y z
#
# Youngs Moduli (GPa) = 54.21998 72.86656 49.31335
#
# Poissons Ratio (x) = 0.06605 -0.11420
# Poissons Ratio (y) = 0.04915 0.22525
# Poissons Ratio (z) = -0.12557 0.33284
#
# Static dielectric constant tensor:
#      x y z
#    x 1.773110 0.000000 0.001970 
#    y 0.000000 1.656310 0.000000 
#    z 0.001970 0.000000 1.718310 
# 
# From -- ./inp_files/61759.got.cif
#   From: 2010.05.17/outbox.cif.g08.bks.cpg/sg12_31_cif.got.tgz:61759.got - 2010.06.03 13:09:07.
