data_PCOD9200168
_publ_section_title
;
Structure prediction by ZEFSAII (Michael W. Deem and Ramdas Pophale) SiO2 
 PCOD9200168
Probable space group: C 2/M
;
_chemical_formula_sum "Si O2"
_cell_formula_units_Z 40
_cell_length_a 9.859770
_cell_length_b 18.817611
_cell_length_c 17.900427
_cell_angle_alpha 90.000000
_cell_angle_beta 152.043688
_cell_angle_gamma 90.000000
_cell_volume 1556.971195
_symmetry_space_group_name_H-M "C 2/M"
_symmetry_group_IT_number 12
_symmetry_cell_setting 'monoclinic'
loop_
_space_group_symop_operation_xyz
x,y,z
-x,y,-z
-x,-y,-z
x,-y,z
1/2+x,1/2+y,z
1/2-x,1/2+y,-z
1/2-x,1/2-y,-z
1/2+x,1/2-y,z
loop_
_atom_site_type_symbol
_atom_site_label
_atom_site_fract_x
_atom_site_fract_y
_atom_site_fract_z
Si Si1 0.112501 0.919613 0.822446
Si Si2 0.333538 0.884345 0.514220
Si Si3 0.836421 0.202338 0.781836
Si Si4 0.194164 0.401972 0.823826
Si Si5 0.302317 0.135504 0.762518
O O1 0.804808 0.919150 0.626177
O O2 0.059392 0.855379 0.855090
O O3 0.322130 0.899067 0.854655
O O4 0.158223 0.000000 0.872529
O O5 0.525345 0.814540 0.592745
O O6 0.544065 0.926171 0.673439
O O7 0.043060 0.864641 0.418635
O O8 0.765907 0.178988 0.832261
O O9 0.911827 0.283798 0.813382
O O10 0.971537 0.407151 0.782463
O O11 0.500000 0.429805 0.000000
#
# Coordination Sequence:
#
# PCOD9200168 Si02
#       5
#     8   8   8   8   8
#     4  10  22  39  64  98 125 155 208 269 312 358
#     4   8  21  34  62  90 118 163 204 256 307 367
#     4  10  20  36  65  92 125 162 210 255 315 366
#     4  10  22  38  56  87 126 163 205 253 310 372
#     4  10  20  38  64  94 122 162 210 262 309 364
#
# _framework density 25.690906999999999
#
# number of rings (size 3 to 8) (size 9 to 14) (size 15 to 20)
#    2.400    0.000    0.000    3.000    0.000    4.000 
#    0.000    4.000    0.000    6.600    0.000    0.000 
#    0.000    0.000    0.000    0.000    0.000    0.000 
#
# Total GULP energy -111438.362308 kJ/mol
# GULP energy per Si atom -5571.918115 kJ/mol
# Density = 2.563243 g / cm^3
# Si number density = 25.690907 Si / 1000 Ang^3
#
#
#
# Elastic Constant Matrix: (Units=GPa)
#
#
# Indices 1 2 3 4 5 6 
#
# 1 123.3559 11.9622 23.1503 -7.5430 15.6609 6.9354
# 2 11.9622 133.0345 27.5588 5.7743 6.1861 -5.3133
# 3 23.1503 27.5588 120.6303 -7.7942 -14.9930 7.1274
# 4 -7.5430 5.7743 -7.794226912.3944 11.9757**********
# 5 15.6609 6.1861 -14.9930 11.9757 40.1866 -11.0160
# 6 6.9354 -5.3133 7.1274********** -11.016022683.9634
#
#
#
# Elastic Compliance Matrix: (Units=1/GPa)
#
#
# Indices 1 2 3 4 5 6 
#
# 1 0.009099 -0.000148 -0.002255 0.000010 -0.004365 0.000007
# 2 -0.000148 0.008046 -0.002052 -0.000001 -0.001946 0.000001
# 3 -0.002255 -0.002052 0.009794 -0.000013 0.004848 -0.000014
# 4 0.000010 -0.000001 -0.000013 -0.031116 -0.000032 -0.033913
# 5 -0.004365 -0.001946 0.004848 -0.000032 0.028697 -0.000022
# 6 0.000007 0.000001 -0.000014 -0.033913 -0.000022 -0.036917
#
#
# Mechanical properties :
#
#
# Convention : Reuss Voigt Hill
#
# Bulk Modulus (GPa) = 55.46537 55.81816 55.64176
# Shear Modulus (GPa) = 1983.87262 9948.26550 5966.06906
#
# Velocity S-wave (km/s) = 27.81878 62.29524 48.24200
# Velocity P-wave (km/s) = 32.45739 72.08354 55.89955
#
# Compressibility (1/GPa) = 0.01802927
#
# Stress axis : x y z
#
# Youngs Moduli (GPa) = 109.90776 124.28975 102.10592
#
# Poissons Ratio (x) = 0.01843 0.23020
# Poissons Ratio (y) = 0.01630 0.20948
# Poissons Ratio (z) = 0.24779 0.25499
#
# Static dielectric constant tensor:
#      x y z
#    x 2.031420 0.000000 0.031120 
#    y 0.000000 2.034470 -0.000010 
#    z 0.031120 -0.000010 2.138400 
# 
# From -- ./inp_files/306511.got.cif
#   From: 2010.05.17/outbox.cif.g08.bks.cpg/sg12_154_cif.got.tgz:306511.got - 2010.06.03 13:09:07.
