data_PCOD9200452
_publ_section_title
;
Structure prediction by ZEFSAII (Michael W. Deem and Ramdas Pophale) SiO2 
 PCOD9200452
Probable space group: C 2/M
;
_chemical_formula_sum "Si O2"
_cell_formula_units_Z 48
_cell_length_a 9.014680
_cell_length_b 10.157358
_cell_length_c 25.277843
_cell_angle_alpha 90.000000
_cell_angle_beta 83.275113
_cell_angle_gamma 90.000000
_cell_volume 2298.649537
_symmetry_space_group_name_H-M "C 2/M"
_symmetry_group_IT_number 12
_symmetry_cell_setting 'monoclinic'
loop_
_space_group_symop_operation_xyz
x,y,z
-x,y,-z
-x,-y,-z
x,-y,z
1/2+x,1/2+y,z
1/2-x,1/2+y,-z
1/2-x,1/2-y,-z
1/2+x,1/2-y,z
loop_
_atom_site_type_symbol
_atom_site_label
_atom_site_fract_x
_atom_site_fract_y
_atom_site_fract_z
Si Si1 0.568578 0.850767 0.055347
Si Si2 0.406163 0.352759 0.646537
Si Si3 0.752485 0.153054 0.885841
Si Si4 0.375645 0.773746 0.280773
Si Si5 0.838056 0.850514 0.532755
Si Si6 0.331656 0.855255 0.791473
O O1 0.426312 0.845711 0.100623
O O2 0.678887 0.735504 0.068182
O O3 0.632835 0.000000 0.054386
O O4 0.500000 0.832751 0.000000
O O5 0.459919 0.500000 0.633392
O O6 0.534740 0.277652 0.672163
O O7 0.263487 0.355521 0.691299
O O8 0.356525 0.298286 0.591886
O O9 0.803103 0.235718 0.832806
O O10 0.800216 0.000000 0.883010
O O11 0.502889 0.842340 0.240147
O O12 0.293120 0.662887 0.249027
O O13 0.750000 0.750000 0.500000
O O14 0.000000 0.860542 0.500000
O O15 0.773267 0.000000 0.537622
O O16 0.315230 0.000000 0.816900
#
# Coordination Sequence:
#
# PCOD9200452 Si02
#       6
#     8   8   8   8   8   8
#     4  10  22  41  63  88 119 153 191 237 286 337
#     4  10  20  37  58  81 113 149 187 234 285 337
#     4  11  24  39  60  89 118 153 194 235 283 340
#     4  10  22  37  58  84 111 147 193 237 283 338
#     4  10  21  37  58  85 116 150 188 233 285 341
#     4  11  23  39  59  84 115 151 191 236 286 339
#
# _framework density 20.881827000000001
#
# number of rings (size 3 to 8) (size 9 to 14) (size 15 to 20)
#    0.000    1.667    0.000    4.000    0.000    8.667 
#    0.000    4.167    0.000    0.000    0.000    0.000 
#    0.000    0.000    0.000    0.000    0.000    0.000 
#
# Total GULP energy -134010.328392 kJ/mol
# GULP energy per Si atom -5583.763683 kJ/mol
# Density = 2.083430 g / cm^3
# Si number density = 20.881827 Si / 1000 Ang^3
#
#
#
# Elastic Constant Matrix: (Units=GPa)
#
#
# Indices 1 2 3 4 5 6 
#
# 1 72.5172 33.8867 4.7677 0.0000 6.1855 0.0000
# 2 33.8867 128.2882 25.6465 0.0000 19.4266 0.0000
# 3 4.7677 25.6465 82.5900 0.0000 8.5516 0.0000
# 4 0.0000 0.0000 0.0000 17.8305 0.0000 -9.2953
# 5 6.1855 19.4266 8.5516 0.0000 38.5468 0.0000
# 6 0.0000 0.0000 0.0000 -9.2953 0.0000 -4.0438
#
#
#
# Elastic Compliance Matrix: (Units=1/GPa)
#
#
# Indices 1 2 3 4 5 6 
#
# 1 0.015754 -0.004170 0.000440 0.000000 -0.000524 0.000000
# 2 -0.004170 0.009965 -0.002459 0.000000 -0.003807 0.000000
# 3 0.000440 -0.002459 0.013024 0.000000 -0.001721 0.000000
# 4 0.000000 0.000000 0.000000 0.025512 0.000000 -0.058643
# 5 -0.000524 -0.003807 -0.001721 0.000000 0.028327 0.000000
# 6 0.000000 0.000000 0.000000 -0.058643 0.000000 -0.112491
#
#
# Mechanical properties :
#
#
# Convention : Reuss Voigt Hill
#
# Bulk Modulus (GPa) = 37.93044 45.77747 41.85395
# Shear Modulus (GPa) = 3973.39227 25.07299 1999.23263
#
# Velocity S-wave (km/s) = 43.66841 3.46888 30.97550
# Velocity P-wave (km/s) = 50.60412 6.16555 36.04713
#
# Compressibility (1/GPa) = 0.02636405
#
# Stress axis : x y z
#
# Youngs Moduli (GPa) = 63.47514 100.35542 76.77854
#
# Poissons Ratio (x) = 0.41848 -0.03376
# Poissons Ratio (y) = 0.26469 0.18883
# Poissons Ratio (z) = -0.02791 0.24681
#
# Static dielectric constant tensor:
#      x y z
#    x 1.718980 0.000000 0.007660 
#    y 0.000000 1.747150 0.000000 
#    z 0.007660 0.000000 1.789030 
# 
# From -- ./inp_files/371865.got.cif
#   From: 2010.05.17/outbox.cif.g08.bks.cpg/sg12_186_cif.got.tgz:371865.got - 2010.06.03 13:09:07.
