data_PCOD9200450
_publ_section_title
;
Structure prediction by ZEFSAII (Michael W. Deem and Ramdas Pophale) SiO2 
 PCOD9200450
Probable space group: C 2/M
;
_chemical_formula_sum "Si O2"
_cell_formula_units_Z 48
_cell_length_a 12.544599
_cell_length_b 12.798913
_cell_length_c 12.991526
_cell_angle_alpha 90.000000
_cell_angle_beta 59.040808
_cell_angle_gamma 90.000000
_cell_volume 1788.715787
_symmetry_space_group_name_H-M "C 2/M"
_symmetry_group_IT_number 12
_symmetry_cell_setting 'monoclinic'
loop_
_space_group_symop_operation_xyz
x,y,z
-x,y,-z
-x,-y,-z
x,-y,z
1/2+x,1/2+y,z
1/2-x,1/2+y,-z
1/2-x,1/2-y,-z
1/2+x,1/2-y,z
loop_
_atom_site_type_symbol
_atom_site_label
_atom_site_fract_x
_atom_site_fract_y
_atom_site_fract_z
Si Si1 0.373307 0.384446 0.859479
Si Si2 0.640462 0.342099 0.441015
Si Si3 0.463584 0.842042 0.770645
Si Si4 0.338529 0.114343 0.506960
Si Si5 0.679891 0.388278 0.877502
Si Si6 0.838925 0.658180 0.173526
O O1 0.413814 0.500000 0.805995
O O2 0.442515 0.283982 0.778838
O O3 0.226953 0.371479 0.900314
O O4 0.379474 0.378789 0.979707
O O5 0.500000 0.377559 0.500000
O O6 0.643047 0.215491 0.432729
O O7 0.706274 0.372727 0.515063
O O8 0.733156 0.378329 0.306220
O O9 0.558044 0.874681 0.633916
O O10 0.327818 0.886911 0.821971
O O11 0.530206 0.875490 0.844309
O O12 0.347785 0.000000 0.550944
O O13 0.644146 0.500000 0.848928
O O14 0.650453 0.283838 0.831349
#
# Coordination Sequence:
#
# PCOD9200450 Si02
#       6
#     8   8   8   8   8   8
#     4  10  22  38  56  81 113 147 186 230 275 326
#     4  10  21  38  58  84 113 146 185 226 273 328
#     4  10  20  37  58  81 113 147 182 228 276 324
#     4  10  22  39  58  84 115 145 182 227 275 328
#     4  10  21  36  55  82 113 147 186 228 276 325
#     4  10  21  36  57  82 111 145 187 227 271 329
#
# _framework density 26.834893999999998
#
# number of rings (size 3 to 8) (size 9 to 14) (size 15 to 20)
#    0.000    2.000    0.000    4.500    0.000    8.000 
#    0.000   15.000    0.000    0.000    0.000    0.000 
#    0.000    0.000    0.000    0.000    0.000    0.000 
#
# Total GULP energy -134517.568311 kJ/mol
# GULP energy per Si atom -5604.898680 kJ/mol
# Density = 2.677382 g / cm^3
# Si number density = 26.834894 Si / 1000 Ang^3
#
#
#
# Elastic Constant Matrix: (Units=GPa)
#
#
# Indices 1 2 3 4 5 6 
#
# 1 161.2419 5.5259 13.0537 0.0000 -26.0667 0.0000
# 2 5.5259 204.0366 12.8076 0.0000 -7.5653 0.0000
# 3 13.0537 12.8076 69.3279 0.0000 -17.0768 0.0000
# 4 0.0000 0.0000 0.0000 -46.0591 0.0000 -42.9862
# 5 -26.0667 -7.5653 -17.0768 0.0000 38.7955 0.0000
# 6 0.0000 0.0000 0.0000 -42.9862 0.0000 -35.6853
#
#
#
# Elastic Compliance Matrix: (Units=1/GPa)
#
#
# Indices 1 2 3 4 5 6 
#
# 1 0.006960 -0.000007 -0.000177 0.000000 0.004597 0.000000
# 2 -0.000007 0.004972 -0.000762 0.000000 0.000629 0.000000
# 3 -0.000177 -0.000762 0.016300 0.000000 0.006907 0.000000
# 4 0.000000 0.000000 0.000000 0.174771 0.000000 -0.210527
# 5 0.004597 0.000629 0.006907 0.000000 0.032028 0.000000
# 6 0.000000 0.000000 0.000000 -0.210527 0.000000 0.225577
#
#
# Mechanical properties :
#
#
# Convention : Reuss Voigt Hill
#
# Bulk Modulus (GPa) = 37.96547 55.26452 46.61499
# Shear Modulus (GPa) = 10.60942 18.29151 14.45046
#
# Velocity S-wave (km/s) = 1.99052 2.61364 2.32307
# Velocity P-wave (km/s) = 4.41151 5.45409 4.96027
#
# Compressibility (1/GPa) = 0.02633973
#
# Stress axis : x y z
#
# Youngs Moduli (GPa) = 143.68703 201.10781 61.35084
#
# Poissons Ratio (x) = 0.00140 0.01085
# Poissons Ratio (y) = 0.00100 0.04676
# Poissons Ratio (z) = 0.02540 0.15329
#
# Static dielectric constant tensor:
#      x y z
#    x 2.085600 0.000000 0.010040 
#    y 0.000000 2.093480 0.000000 
#    z 0.010040 0.000000 2.043780 
# 
# From -- ./inp_files/214075.got.cif
#   From: 2010.05.17/outbox.cif.g08.bks.cpg/sg12_108_cif.got.tgz:214075.got - 2010.06.03 13:09:07.
