data_PCOD9200898
_publ_section_title
;
Structure prediction by ZEFSAII (Michael W. Deem and Ramdas Pophale) SiO2 
 PCOD9200898
Probable space group: C 2/M
;
_chemical_formula_sum "Si O2"
_cell_formula_units_Z 44
_cell_length_a 14.744356
_cell_length_b 24.533706
_cell_length_c 8.630957
_cell_angle_alpha 90.000000
_cell_angle_beta 135.646471
_cell_angle_gamma 90.000000
_cell_volume 2182.614546
_symmetry_space_group_name_H-M "C 2/M"
_symmetry_group_IT_number 12
_symmetry_cell_setting 'monoclinic'
loop_
_space_group_symop_operation_xyz
x,y,z
-x,y,-z
-x,-y,-z
x,-y,z
1/2+x,1/2+y,z
1/2-x,1/2+y,-z
1/2-x,1/2-y,-z
1/2+x,1/2-y,z
loop_
_atom_site_type_symbol
_atom_site_label
_atom_site_fract_x
_atom_site_fract_y
_atom_site_fract_z
Si Si1 0.622480 0.000000 0.864749
Si Si2 0.014484 0.675200 0.839637
Si Si3 0.250240 0.891849 0.845315
Si Si4 0.500000 0.659903 0.500000
Si Si5 0.324508 0.000000 0.436310
Si Si6 0.883349 0.783925 0.644451
Si Si7 0.742252 0.114722 0.521353
O O1 0.466354 0.000000 0.693135
O O2 0.650135 0.000000 0.715569
O O3 0.687888 0.052654 0.019901
O O4 0.993523 0.739901 0.815117
O O5 0.897010 0.643693 0.610926
O O6 0.156549 0.655110 0.971223
O O7 0.000000 0.657429 0.000000
O O8 0.103385 0.878284 0.713371
O O9 0.251167 0.892697 0.657912
O O10 0.583964 0.697483 0.489462
O O11 0.253323 0.055766 0.396831
O O12 0.750000 0.750000 0.500000
O O13 0.853126 0.840551 0.695522
#
# Coordination Sequence:
#
# PCOD9200898 Si02
#       7
#     4   8   8   4   4   8   8
#     4  11  23  36  56  92 126 152 198 258 308 361
#     4   9  17  33  57  88 116 154 202 247 292 363
#     4  10  20  37  60  85 118 159 207 251 296 358
#     4  10  22  39  60  86 118 159 210 254 300 362
#     4  11  21  37  58  91 122 158 195 253 313 363
#     4   9  19  38  57  87 121 156 199 249 302 356
#     4   9  18  35  61  83 119 157 202 243 300 363
#
# _framework density 20.159310000000001
#
# number of rings (size 3 to 8) (size 9 to 14) (size 15 to 20)
#    0.000    2.364    1.818    1.636    0.000    1.818 
#    9.818    0.909    0.000    4.364    0.000    0.000 
#    0.000    0.000    0.000    0.000    0.000    0.000 
#
# Total GULP energy -122509.954029 kJ/mol
# GULP energy per Si atom -5568.634274 kJ/mol
# Density = 2.011343 g / cm^3
# Si number density = 20.159310 Si / 1000 Ang^3
#
#
#
# Elastic Constant Matrix: (Units=GPa)
#
#
# Indices 1 2 3 4 5 6 
#
# 1 61.7859 35.1175 9.7775 0.0000 16.3995 0.0000
# 2 35.1175 164.3825 36.4131 0.0000 27.2454 0.0000
# 3 9.7775 36.4131 40.9645 0.0000 22.9754 0.0000
# 4 0.0000 0.0000 0.0000 34.5615 0.0000 3.6338
# 5 16.3995 27.2454 22.9754 0.0000 21.5246 0.0000
# 6 0.0000 0.0000 0.0000 3.6338 0.0000 21.2933
#
#
#
# Elastic Compliance Matrix: (Units=1/GPa)
#
#
# Indices 1 2 3 4 5 6 
#
# 1 0.023172 -0.003258 0.012344 0.000000 -0.026706 0.000000
# 2 -0.003258 0.008355 -0.005257 0.000000 -0.002482 0.000000
# 3 0.012344 -0.005257 0.068971 0.000000 -0.076370 0.000000
# 4 0.000000 0.000000 0.000000 0.029463 0.000000 -0.005028
# 5 -0.026706 -0.002482 -0.076370 0.000000 0.151464 0.000000
# 6 0.000000 0.000000 0.000000 -0.005028 0.000000 0.047821
#
#
# Mechanical properties :
#
#
# Convention : Reuss Voigt Hill
#
# Bulk Modulus (GPa) = 9.24597 47.74991 28.49794
# Shear Modulus (GPa) = 13.98049 27.86421 20.92235
#
# Velocity S-wave (km/s) = 2.63630 3.72183 3.22506
# Velocity P-wave (km/s) = 3.72333 6.49670 5.29482
#
# Compressibility (1/GPa) = 0.10815521
#
# Stress axis : x y z
#
# Youngs Moduli (GPa) = 43.15570 119.68326 14.49885
#
# Poissons Ratio (x) = 0.38996 -0.17897
# Poissons Ratio (y) = 0.14061 0.07622
# Poissons Ratio (z) = -0.53271 0.62921
#
# Static dielectric constant tensor:
#      x y z
#    x 1.749400 0.000000 0.022640 
#    y 0.000000 1.749100 0.000000 
#    z 0.022640 0.000000 1.759590 
# 
# From -- ./inp_files/65585.got.cif
#   From: 2010.05.17/outbox.cif.g08.bks.cpg/sg12_33_cif.got.tgz:65585.got - 2010.06.03 13:09:07.
