data_PCOD9200782
_publ_section_title
;
Structure prediction by ZEFSAII (Michael W. Deem and Ramdas Pophale) SiO2 
 PCOD9200782
Probable space group: C 2/M
;
_chemical_formula_sum "Si O2"
_cell_formula_units_Z 56
_cell_length_a 13.856625
_cell_length_b 12.588664
_cell_length_c 17.537636
_cell_angle_alpha 90.000000
_cell_angle_beta 63.985595
_cell_angle_gamma 90.000000
_cell_volume 2749.255315
_symmetry_space_group_name_H-M "C 2/M"
_symmetry_group_IT_number 12
_symmetry_cell_setting 'monoclinic'
loop_
_space_group_symop_operation_xyz
x,y,z
-x,y,-z
-x,-y,-z
x,-y,z
1/2+x,1/2+y,z
1/2-x,1/2+y,-z
1/2-x,1/2-y,-z
1/2+x,1/2-y,z
loop_
_atom_site_type_symbol
_atom_site_label
_atom_site_fract_x
_atom_site_fract_y
_atom_site_fract_z
Si Si1 0.396545 0.754763 0.885164
Si Si2 0.862241 0.729577 0.201689
Si Si3 0.526359 0.272118 0.405441
Si Si4 0.813513 0.375624 0.059961
Si Si5 0.654633 0.874439 0.249432
Si Si6 0.243782 0.827572 0.381211
Si Si7 0.196060 0.118250 0.563148
O O1 0.519800 0.721904 0.834329
O O2 0.310991 0.660696 0.903112
O O3 0.372359 0.841087 0.827855
O O4 0.374710 0.807821 0.974497
O O5 0.853683 0.657803 0.129477
O O6 0.768903 0.817843 0.227237
O O7 0.834705 0.660914 0.286631
O O8 0.500000 0.232452 0.500000
O O9 0.566630 0.181984 0.334180
O O10 0.628727 0.349735 0.382819
O O11 0.422843 0.334088 0.410178
O O12 0.826611 0.500000 0.042476
O O13 0.658055 0.000000 0.258300
O O14 0.251907 0.881986 0.460311
O O15 0.244992 0.702617 0.404227
O O16 0.192856 0.000000 0.595272
#
# Coordination Sequence:
#
# PCOD9200782 Si02
#       7
#     8   8   8   8   8   8   8
#     4  10  21  39  60  84 116 145 182 235 277 328
#     4  10  21  38  57  82 114 146 184 230 277 332
#     4   9  19  36  55  81 114 146 188 236 275 324
#     4  10  22  39  60  86 113 146 186 227 278 336
#     4  10  21  37  57  82 113 149 187 229 281 334
#     4   9  20  36  53  83 117 140 185 241 277 324
#     4  10  20  37  60  80 108 154 194 229 280 333
#
# _framework density 20.369150999999999
#
# number of rings (size 3 to 8) (size 9 to 14) (size 15 to 20)
#    0.000    2.286    0.000    1.714    0.000    8.000 
#    0.000   20.000    0.000    5.143    0.000    0.000 
#    0.000    0.000    0.000    0.000    0.000    0.000 
#
# Total GULP energy -156342.438016 kJ/mol
# GULP energy per Si atom -5583.658501 kJ/mol
# Density = 2.032279 g / cm^3
# Si number density = 20.369151 Si / 1000 Ang^3
#
#
#
# Elastic Constant Matrix: (Units=GPa)
#
#
# Indices 1 2 3 4 5 6 
#
# 1 67.9125 0.1782 21.3429 0.0000 -13.8826 0.0000
# 2 0.1782 66.5596 -16.9373 0.0000 -0.5900 0.0000
# 3 21.3429 -16.9373 94.5968 0.0000 -4.5953 0.0000
# 4 0.0000 0.0000 0.0000 5.9918 0.0000 -10.0480
# 5 -13.8826 -0.5900 -4.5953 0.0000 32.0037 0.0000
# 6 0.0000 0.0000 0.0000 -10.0480 0.0000 -1.1146
#
#
#
# Elastic Compliance Matrix: (Units=1/GPa)
#
#
# Indices 1 2 3 4 5 6 
#
# 1 0.017325 -0.000936 -0.003738 0.000000 0.006961 0.000000
# 2 -0.000936 0.015807 0.003057 0.000000 0.000324 0.000000
# 3 -0.003738 0.003057 0.011969 0.000000 0.000153 0.000000
# 4 0.000000 0.000000 0.000000 0.010355 0.000000 -0.093348
# 5 0.006961 0.000324 0.000153 0.000000 0.034294 0.000000
# 6 0.000000 0.000000 0.000000 -0.093348 0.000000 -0.055665
#
#
# Mechanical properties :
#
#
# Convention : Reuss Voigt Hill
#
# Bulk Modulus (GPa) = 23.88459 26.47071 25.17765
# Shear Modulus (GPa) = 97.51048 22.34184 59.92616
#
# Velocity S-wave (km/s) = 6.92644 3.31546 5.42991
# Velocity P-wave (km/s) = 8.70165 5.26119 7.19023
#
# Compressibility (1/GPa) = 0.04186800
#
# Stress axis : x y z
#
# Youngs Moduli (GPa) = 57.71959 63.26120 83.54597
#
# Poissons Ratio (x) = 0.05921 0.31232
# Poissons Ratio (y) = 0.05402 -0.25542
# Poissons Ratio (z) = 0.21577 -0.19340
#
# Static dielectric constant tensor:
#      x y z
#    x 1.737370 0.000000 -0.009710 
#    y 0.000000 1.673220 0.000000 
#    z -0.009710 0.000000 1.748170 
# 
# From -- ./inp_files/269180.got.cif
#   From: 2010.05.17/outbox.cif.g08.bks.cpg/sg12_135_cif.got.tgz:269180.got - 2010.06.03 13:09:07.
