data_PCOD9200347
_publ_section_title
;
Structure prediction by ZEFSAII (Michael W. Deem and Ramdas Pophale) SiO2 
 PCOD9200347
Probable space group: C 2/M
;
_chemical_formula_sum "Si O2"
_cell_formula_units_Z 48
_cell_length_a 11.132990
_cell_length_b 25.075232
_cell_length_c 9.928271
_cell_angle_alpha 90.000000
_cell_angle_beta 110.090473
_cell_angle_gamma 90.000000
_cell_volume 2602.951067
_symmetry_space_group_name_H-M "C 2/M"
_symmetry_group_IT_number 12
_symmetry_cell_setting 'monoclinic'
loop_
_space_group_symop_operation_xyz
x,y,z
-x,y,-z
-x,-y,-z
x,-y,z
1/2+x,1/2+y,z
1/2-x,1/2+y,-z
1/2-x,1/2-y,-z
1/2+x,1/2-y,z
loop_
_atom_site_type_symbol
_atom_site_label
_atom_site_fract_x
_atom_site_fract_y
_atom_site_fract_z
Si Si1 0.568393 0.000000 0.306035
Si Si2 0.500000 0.912734 0.500000
Si Si3 0.258636 0.395541 0.727070
Si Si4 0.709440 0.000000 0.887377
Si Si5 0.487563 0.606576 0.338491
Si Si6 0.176661 0.000000 0.770889
Si Si7 0.316667 0.720336 0.838788
Si Si8 0.424001 0.718227 0.182024
O O1 0.553276 0.950003 0.400435
O O2 0.444689 0.000000 0.161654
O O3 0.698997 0.000000 0.276009
O O4 0.622982 0.883517 0.605119
O O5 0.245131 0.447567 0.815017
O O6 0.371216 0.405183 0.664222
O O7 0.296382 0.342853 0.821110
O O8 0.778052 0.000000 0.056678
O O9 0.500000 0.620883 0.500000
O O10 0.404169 0.553339 0.288643
O O11 0.430169 0.656820 0.233523
O O12 0.427056 0.736031 0.773451
O O13 0.181706 0.750469 0.771427
O O14 0.372474 0.727287 0.010411
#
# Coordination Sequence:
#
# PCOD9200347 Si02
#       8
#     4   4   8   4   8   4   8   8
#     4   9  19  35  53  77 115 149 179 224 271 325
#     4   9  18  36  56  74 108 152 186 215 270 340
#     4  10  20  37  57  82 108 148 186 226 274 337
#     4  10  21  36  57  84 113 141 190 230 272 330
#     4  11  23  37  55  83 116 145 182 230 278 332
#     4  12  22  35  57  84 113 149 181 229 284 331
#     4   9  18  37  61  81 108 143 190 231 282 329
#     4   9  19  38  58  82 110 145 184 237 280 329
#
# _framework density 18.440608000000001
#
# number of rings (size 3 to 8) (size 9 to 14) (size 15 to 20)
#    0.000    2.167    0.000    3.500    0.000    2.667 
#   10.500    1.667    0.000    0.000    0.000    0.000 
#    0.000    0.000    0.000    0.000    0.000    0.000 
#
# Total GULP energy -133771.900312 kJ/mol
# GULP energy per Si atom -5573.829180 kJ/mol
# Density = 1.839864 g / cm^3
# Si number density = 18.440608 Si / 1000 Ang^3
#
#
#
# Elastic Constant Matrix: (Units=GPa)
#
#
# Indices 1 2 3 4 5 6 
#
# 1 178.3983 61.4981 20.7923 0.0000 -11.7112 0.0000
# 2 61.4981 65.0566 -2.6078 0.0000 -4.6769 0.0000
# 3 20.7923 -2.6078 34.0797 0.0000 -1.8511 0.0000
# 4 0.0000 0.0000 0.0000 -8.7842 0.0000 14.5507
# 5 -11.7112 -4.6769 -1.8511 0.0000 18.5185 0.0000
# 6 0.0000 0.0000 0.0000 14.5507 0.0000 33.4937
#
#
#
# Elastic Compliance Matrix: (Units=1/GPa)
#
#
# Indices 1 2 3 4 5 6 
#
# 1 0.009764 -0.009261 -0.006492 0.000000 0.003187 0.000000
# 2 -0.009261 0.024508 0.007585 0.000000 0.001091 0.000000
# 3 -0.006492 0.007585 0.033950 0.000000 0.001203 0.000000
# 4 0.000000 0.000000 0.000000 -0.066201 0.000000 0.028760
# 5 0.003187 0.001091 0.001203 0.000000 0.056411 0.000000
# 6 0.000000 0.000000 0.000000 0.028760 0.000000 0.017362
#
#
# Mechanical properties :
#
#
# Convention : Reuss Voigt Hill
#
# Bulk Modulus (GPa) = 19.27363 48.54444 33.90903
# Shear Modulus (GPa) = 45.69303 21.83574 33.76438
#
# Velocity S-wave (km/s) = 4.98320 3.44483 4.28364
# Velocity P-wave (km/s) = 6.60183 6.49649 6.54937
#
# Compressibility (1/GPa) = 0.05188436
#
# Stress axis : x y z
#
# Youngs Moduli (GPa) = 102.41950 40.80302 29.45525
#
# Poissons Ratio (x) = 0.37787 0.19124
# Poissons Ratio (y) = 0.94849 -0.22341
# Poissons Ratio (z) = 0.66496 -0.30948
#
# Static dielectric constant tensor:
#      x y z
#    x 1.659460 0.000000 0.005220 
#    y 0.000000 1.604460 0.000000 
#    z 0.005220 0.000000 1.634440 
# 
# From -- ./inp_files/51535.got.cif
#   From: 2010.05.17/outbox.cif.g08.bks.cpg/sg12_26_cif.got.tgz:51535.got - 2010.06.03 13:09:07.
