data_PCOD9200281
_publ_section_title
;
Structure prediction by ZEFSAII (Michael W. Deem and Ramdas Pophale) SiO2 
 PCOD9200281
Probable space group: C 2/M
;
_chemical_formula_sum "Si O2"
_cell_formula_units_Z 64
_cell_length_a 14.617230
_cell_length_b 30.713679
_cell_length_c 20.657630
_cell_angle_alpha 90.000000
_cell_angle_beta 159.752312
_cell_angle_gamma 90.000000
_cell_volume 3209.614792
_symmetry_space_group_name_H-M "C 2/M"
_symmetry_group_IT_number 12
_symmetry_cell_setting 'monoclinic'
loop_
_space_group_symop_operation_xyz
x,y,z
-x,y,-z
-x,-y,-z
x,-y,z
1/2+x,1/2+y,z
1/2-x,1/2+y,-z
1/2-x,1/2-y,-z
1/2+x,1/2-y,z
loop_
_atom_site_type_symbol
_atom_site_label
_atom_site_fract_x
_atom_site_fract_y
_atom_site_fract_z
Si Si1 0.285433 0.913843 0.201674
Si Si2 0.849006 0.878036 0.115895
Si Si3 0.716024 0.765259 0.795192
Si Si4 0.803950 0.450318 0.431478
Si Si5 0.275112 0.869566 0.709399
Si Si6 0.748164 0.661950 0.285314
Si Si7 0.492219 0.841710 0.725781
Si Si8 0.048689 0.828088 0.688048
O O1 0.515269 0.942834 0.384870
O O2 0.251890 0.875136 0.232497
O O3 0.363913 0.887745 0.188974
O O4 0.000000 0.935182 0.000000
O O5 0.831328 0.848145 0.167844
O O6 0.062355 0.916512 0.267387
O O7 0.982697 0.847052 0.149985
O O8 0.551694 0.894609 0.904189
O O9 0.727469 0.792364 0.736243
O O10 0.658732 0.800881 0.812531
O O11 0.528218 0.723952 0.671691
O O12 0.000000 0.745464 0.000000
O O13 0.708952 0.500000 0.366313
O O14 0.000000 0.443961 0.500000
O O15 0.363412 0.836986 0.710423
O O16 0.199033 0.845545 0.724798
O O17 0.000000 0.890722 0.500000
O O18 0.000000 0.657693 0.500000
O O19 0.250238 0.844973 0.514717
#
# Coordination Sequence:
#
# PCOD9200281 Si02
#       8
#     8   8   8   8   8   8   8   8
#     4  11  19  36  62  92 124 154 193 232 294 376
#     4  12  19  40  64  83 118 166 201 239 311 368
#     4  11  22  35  51  84 121 154 205 258 306 352
#     4  11  23  40  65 100 131 150 185 241 303 378
#     4  10  23  37  57  85 111 155 217 256 288 337
#     4  11  20  35  58  89 118 163 202 240 299 372
#     4  10  20  37  56  81 113 163 201 245 301 353
#     4  11  23  38  55  81 117 161 214 262 288 341
#
# _framework density 19.940087999999999
#
# number of rings (size 3 to 8) (size 9 to 14) (size 15 to 20)
#    0.000    1.125    3.750    5.250    0.000    2.750 
#    0.000    2.500    0.000    1.875    0.000    0.000 
#    0.000    0.000    0.000    0.000    0.000    0.000 
#
# Total GULP energy -178529.084131 kJ/mol
# GULP energy per Si atom -5579.033879 kJ/mol
# Density = 1.989470 g / cm^3
# Si number density = 19.940088 Si / 1000 Ang^3
#
#
#
# Elastic Constant Matrix: (Units=GPa)
#
#
# Indices 1 2 3 4 5 6 
#
# 1 110.8669 24.7190 14.2632 0.0084 -1.2174 -0.0177
# 2 24.7190 85.1189 26.9445 0.0073 2.5770 -0.0056
# 3 14.2632 26.9445 131.3570 0.0489 13.0260 -0.0996
# 4 0.0084 0.0073 0.0489 1.8590 0.0122 5.6015
# 5 -1.2174 2.5770 13.0260 0.0122 30.1912 -0.0300
# 6 -0.0177 -0.0056 -0.0996 5.6015 -0.0300 6.2422
#
#
#
# Elastic Compliance Matrix: (Units=1/GPa)
#
#
# Indices 1 2 3 4 5 6 
#
# 1 0.009698 -0.002654 -0.000595 0.000049 0.000874 -0.000024
# 2 -0.002654 0.013291 -0.002418 -0.000077 -0.000198 0.000034
# 3 -0.000595 -0.002418 0.008520 0.000315 -0.003494 -0.000167
# 4 0.000049 -0.000077 0.000315 -0.315682 0.000281 0.283287
# 5 0.000874 -0.000198 -0.003494 0.000281 0.034682 -0.000140
# 6 -0.000024 0.000034 -0.000167 0.283287 -0.000140 -0.094012
#
#
# Mechanical properties :
#
#
# Convention : Reuss Voigt Hill
#
# Bulk Modulus (GPa) = 49.57300 51.02182 50.29741
# Shear Modulus (GPa) = -15.36357 25.08620 4.86132
#
# Velocity S-wave (km/s) = -2.77878 3.55079 1.56309
# Velocity P-wave (km/s) = 3.82354 6.51567 5.34198
#
# Compressibility (1/GPa) = 0.02017227
#
# Stress axis : x y z
#
# Youngs Moduli (GPa) = 103.11593 75.24095 117.37433
#
# Poissons Ratio (x) = 0.19972 0.06987
# Poissons Ratio (y) = 0.27370 0.28385
# Poissons Ratio (z) = 0.06139 0.18196
#
# Static dielectric constant tensor:
#      x y z
#    x 1.720910 -0.000010 -0.019380 
#    y -0.000010 1.653950 -0.000010 
#    z -0.019380 -0.000010 1.798850 
# 
# From -- ./inp_files/312932.got.cif
#   From: 2010.05.17/outbox.cif.g08.bks.cpg/sg12_157_cif.got.tgz:312932.got - 2010.06.03 13:09:07.
