data_PCOD9200537
_publ_section_title
;
Structure prediction by ZEFSAII (Michael W. Deem and Ramdas Pophale) SiO2 
 PCOD9200537
Probable space group: C 2/M
;
_chemical_formula_sum "Si O2"
_cell_formula_units_Z 64
_cell_length_a 14.927294
_cell_length_b 29.873076
_cell_length_c 12.784314
_cell_angle_alpha 90.000000
_cell_angle_beta 146.579909
_cell_angle_gamma 90.000000
_cell_volume 3139.868468
_symmetry_space_group_name_H-M "C 2/M"
_symmetry_group_IT_number 12
_symmetry_cell_setting 'monoclinic'
loop_
_space_group_symop_operation_xyz
x,y,z
-x,y,-z
-x,-y,-z
x,-y,z
1/2+x,1/2+y,z
1/2-x,1/2+y,-z
1/2-x,1/2-y,-z
1/2+x,1/2-y,z
loop_
_atom_site_type_symbol
_atom_site_label
_atom_site_fract_x
_atom_site_fract_y
_atom_site_fract_z
Si Si1 0.628287 0.864527 0.497421
Si Si2 0.764565 0.332473 0.195630
Si Si3 0.125548 0.594459 0.039177
Si Si4 0.648677 0.551611 0.585701
Si Si5 0.771629 0.200084 0.468404
Si Si6 0.306121 0.269229 0.280404
Si Si7 0.642203 0.665766 0.844326
Si Si8 0.878288 0.446442 0.634567
O O1 0.451222 0.845173 0.352177
O O2 0.759465 0.857570 0.717586
O O3 0.670662 0.835492 0.436421
O O4 0.616371 0.916969 0.463115
O O5 0.748211 0.281042 0.211898
O O6 0.672860 0.339738 0.997525
O O7 0.206618 0.556644 0.190856
O O8 0.267613 0.624894 0.127736
O O9 0.000000 0.617424 0.000000
O O10 0.025759 0.571319 0.849535
O O11 0.500000 0.574733 0.500000
O O12 0.606676 0.500000 0.525961
O O13 0.716045 0.568035 0.541224
O O14 0.750000 0.250000 0.500000
O O15 0.727393 0.206343 0.303436
O O16 0.952562 0.178398 0.646711
O O17 0.500000 0.267726 0.500000
O O18 0.278467 0.292792 0.142274
O O19 0.881661 0.500000 0.627065
#
# Coordination Sequence:
#
# PCOD9200537 Si02
#       8
#     8   8   8   8   8   8   8   8
#     4  11  22  39  66  84 124 170 211 268 324 379
#     4  11  21  43  60  83 123 169 214 264 315 375
#     4  10  21  37  57  90 128 162 205 267 324 385
#     4   9  19  34  58  88 124 162 196 252 333 399
#     4  11  23  42  62  93 129 169 210 262 328 391
#     4  10  20  37  58  86 122 157 200 255 312 371
#     4  11  24  36  62  93 120 166 215 258 312 382
#     4  10  21  39  63  92 124 166 219 272 328 393
#
# _framework density 20.383019999999998
#
# number of rings (size 3 to 8) (size 9 to 14) (size 15 to 20)
#    0.000    1.625    3.750    1.500    5.250    2.500 
#    0.000    2.500    0.000    0.000    0.000    0.875 
#    0.000    0.000    0.000    0.000    0.000    0.000 
#
# Total GULP energy -178230.216807 kJ/mol
# GULP energy per Si atom -5569.694275 kJ/mol
# Density = 2.033663 g / cm^3
# Si number density = 20.383020 Si / 1000 Ang^3
#
#
#
# Elastic Constant Matrix: (Units=GPa)
#
#
# Indices 1 2 3 4 5 6 
#
# 1 69.9860 26.5971 7.2516 0.0000 0.8220 0.0000
# 2 26.5971 95.1543 18.2849 0.0000 -8.1191 0.0000
# 3 7.2516 18.2849 29.8736 0.0000 -15.5887 0.0000
# 4 0.0000 0.0000 0.0000 25.4333 0.0000 -5.4507
# 5 0.8220 -8.1191 -15.5887 0.0000 34.2406 0.0000
# 6 0.0000 0.0000 0.0000 -5.4507 0.0000 31.4763
#
#
#
# Elastic Compliance Matrix: (Units=1/GPa)
#
#
# Indices 1 2 3 4 5 6 
#
# 1 0.016210 -0.004233 -0.002716 0.000000 -0.002629 0.000000
# 2 -0.004233 0.013027 -0.006926 0.000000 0.000037 0.000000
# 3 -0.002716 -0.006926 0.049251 0.000000 0.020845 0.000000
# 4 0.000000 0.000000 0.000000 0.040834 0.000000 0.007071
# 5 -0.002629 0.000037 0.020845 0.000000 0.038767 0.000000
# 6 0.000000 0.000000 0.000000 0.007071 0.000000 0.032994
#
#
# Mechanical properties :
#
#
# Convention : Reuss Voigt Hill
#
# Bulk Modulus (GPa) = 19.70980 33.25345 26.48162
# Shear Modulus (GPa) = 21.20934 27.75539 24.48236
#
# Velocity S-wave (km/s) = 3.22924 3.69411 3.46947
# Velocity P-wave (km/s) = 4.85744 5.87750 5.39165
#
# Compressibility (1/GPa) = 0.05073619
#
# Stress axis : x y z
#
# Youngs Moduli (GPa) = 61.69157 76.76566 20.30436
#
# Poissons Ratio (x) = 0.32498 0.05514
# Poissons Ratio (y) = 0.26116 0.14063
# Poissons Ratio (z) = 0.16754 0.53170
#
# Static dielectric constant tensor:
#      x y z
#    x 1.787150 0.000000 0.066890 
#    y 0.000000 1.710470 0.000000 
#    z 0.066890 0.000000 1.644790 
# 
# From -- ./inp_files/150301.got.cif
#   From: 2010.05.17/outbox.cif.g08.bks.cpg/sg12_76_cif.got.tgz:150301.got - 2010.06.03 13:09:07.
