data_PCOD9200068
_publ_section_title
;
Structure prediction by ZEFSAII (Michael W. Deem and Ramdas Pophale) SiO2 
 PCOD9200068
Probable space group: C 2/M
;
_chemical_formula_sum "Si O2"
_cell_formula_units_Z 56
_cell_length_a 19.961627
_cell_length_b 31.361997
_cell_length_c 8.839724
_cell_angle_alpha 90.000000
_cell_angle_beta 31.260962
_cell_angle_gamma 90.000000
_cell_volume 2871.791004
_symmetry_space_group_name_H-M "C 2/M"
_symmetry_group_IT_number 12
_symmetry_cell_setting 'monoclinic'
loop_
_space_group_symop_operation_xyz
x,y,z
-x,y,-z
-x,-y,-z
x,-y,z
1/2+x,1/2+y,z
1/2-x,1/2+y,-z
1/2-x,1/2-y,-z
1/2+x,1/2-y,z
loop_
_atom_site_type_symbol
_atom_site_label
_atom_site_fract_x
_atom_site_fract_y
_atom_site_fract_z
Si Si1 0.369241 0.748937 0.654906
Si Si2 0.867040 0.500000 0.669154
Si Si3 0.954789 0.925286 0.261685
Si Si4 0.380554 0.655350 0.614865
Si Si5 0.589151 0.500000 0.185212
Si Si6 0.139173 0.342603 0.312920
Si Si7 0.835397 0.549605 0.204151
Si Si8 0.412973 0.919481 0.383595
O O1 0.500000 0.749048 0.500000
O O2 0.367004 0.703640 0.573296
O O3 0.357745 0.796312 0.610658
O O4 0.250000 0.750000 0.000000
O O5 0.864796 0.458501 0.573223
O O6 0.000000 0.500000 0.500000
O O7 0.726261 0.500000 0.008943
O O8 0.920054 0.881468 0.419416
O O9 0.815654 0.948339 0.531895
O O10 0.055678 0.957625 0.149773
O O11 0.000000 0.918374 0.000000
O O12 0.500000 0.656244 0.500000
O O13 0.252045 0.650180 0.969153
O O14 0.500000 0.500000 0.500000
O O15 0.142791 0.377496 0.435984
O O16 0.000000 0.346301 0.500000
O O17 0.877626 0.500000 0.120022
O O18 0.864924 0.570859 0.308547
O O19 0.930635 0.576250 0.911769
#
# Coordination Sequence:
#
# PCOD9200068 Si02
#       8
#     8   4   8   8   4   8   8   8
#     4   8  16  34  59  88 116 155 192 248 311 373
#     4  12  26  38  61  88 125 157 196 257 322 353
#     4  12  26  42  64  85 128 169 212 247 316 378
#     4  10  22  39  62  92 123 155 203 257 314 368
#     4  12  29  43  63  93 128 161 215 269 305 368
#     4  10  20  36  63  93 121 152 204 262 311 364
#     4  11  22  42  61  80 116 175 209 245 300 381
#     4  11  22  38  61  87 120 156 212 253 305 364
#
# _framework density 19.500028
#
# number of rings (size 3 to 8) (size 9 to 14) (size 15 to 20)
#    0.000    1.429    2.143    3.214    8.000    0.000 
#    0.000    0.000    3.143    0.857    0.000    0.000 
#    0.000    0.000    0.000    0.000    0.000    0.000 
#
# Total GULP energy -155969.062120 kJ/mol
# GULP energy per Si atom -5570.323647 kJ/mol
# Density = 1.945564 g / cm^3
# Si number density = 19.500028 Si / 1000 Ang^3
#
#
#
# Elastic Constant Matrix: (Units=GPa)
#
#
# Indices 1 2 3 4 5 6 
#
# 1 40.5758 29.6187 31.0705 0.0000 -7.3506 0.0000
# 2 29.6187 191.0723 37.6419 0.0000 27.0803 0.0000
# 3 31.0705 37.6419 126.9883 0.0000 -14.4661 0.0000
# 4 0.0000 0.0000 0.0000 72.9522 0.0000 -36.2350
# 5 -7.3506 27.0803 -14.4661 0.0000 40.6006 0.0000
# 6 0.0000 0.0000 0.0000 -36.2350 0.0000 54.3980
#
#
#
# Elastic Compliance Matrix: (Units=1/GPa)
#
#
# Indices 1 2 3 4 5 6 
#
# 1 0.034439 -0.005228 -0.006013 0.000000 0.007580 0.000000
# 2 -0.005228 0.007260 -0.001597 0.000000 -0.006358 0.000000
# 3 -0.006013 -0.001597 0.010232 0.000000 0.003622 0.000000
# 4 0.000000 0.000000 0.000000 0.020485 0.000000 0.013645
# 5 0.007580 -0.006358 0.003622 0.000000 0.031534 0.000000
# 6 0.000000 0.000000 0.000000 0.013645 0.000000 0.027472
#
#
# Mechanical properties :
#
#
# Convention : Reuss Voigt Hill
#
# Bulk Modulus (GPa) = 38.08891 61.69984 49.89437
# Shear Modulus (GPa) = 30.14768 50.94385 40.54576
#
# Velocity S-wave (km/s) = 3.93623 5.11681 4.56484
# Velocity P-wave (km/s) = 6.34300 8.16202 7.30932
#
# Compressibility (1/GPa) = 0.02625436
#
# Stress axis : x y z
#
# Youngs Moduli (GPa) = 29.03665 137.74582 97.73270
#
# Poissons Ratio (x) = 0.72016 0.58768
# Poissons Ratio (y) = 0.15181 0.15608
# Poissons Ratio (z) = 0.17460 0.21998
#
# Static dielectric constant tensor:
#      x y z
#    x 1.685290 0.000000 -0.043950 
#    y 0.000000 1.753770 0.000000 
#    z -0.043950 0.000000 1.725710 
# 
# From -- ./inp_files/91582.got.cif
#   From: 2010.05.17/outbox.cif.g08.bks.cpg/sg12_46_cif.got.tgz:91582.got - 2010.06.03 13:09:07.
