data_PCOD9200733
_publ_section_title
;
Structure prediction by ZEFSAII (Michael W. Deem and Ramdas Pophale) SiO2 
 PCOD9200733
Probable space group: C 2/M
;
_chemical_formula_sum "Si O2"
_cell_formula_units_Z 56
_cell_length_a 5.335384
_cell_length_b 30.155854
_cell_length_c 16.831299
_cell_angle_alpha 90.000000
_cell_angle_beta 118.346787
_cell_angle_gamma 90.000000
_cell_volume 2383.318032
_symmetry_space_group_name_H-M "C 2/M"
_symmetry_group_IT_number 12
_symmetry_cell_setting 'monoclinic'
loop_
_space_group_symop_operation_xyz
x,y,z
-x,y,-z
-x,-y,-z
x,-y,z
1/2+x,1/2+y,z
1/2-x,1/2+y,-z
1/2-x,1/2-y,-z
1/2+x,1/2-y,z
loop_
_atom_site_type_symbol
_atom_site_label
_atom_site_fract_x
_atom_site_fract_y
_atom_site_fract_z
Si Si1 0.335082 0.272744 0.264273
Si Si2 0.622076 0.205092 0.940513
Si Si3 0.280051 0.141561 0.661557
Si Si4 0.773057 0.126819 0.862924
Si Si5 0.317046 0.905120 0.399262
Si Si6 0.086744 0.547223 0.922031
Si Si7 0.481384 0.450120 0.784499
O O1 0.653247 0.266899 0.278061
O O2 0.318116 0.309075 0.330967
O O3 0.142929 0.283639 0.157594
O O4 0.815611 0.175194 0.909205
O O5 0.500000 0.179639 0.000000
O O6 0.750000 0.250000 0.000000
O O7 0.487254 0.131484 0.767322
O O8 0.478067 0.130497 0.615585
O O9 0.986559 0.114259 0.617687
O O10 0.729721 0.093406 0.928199
O O11 0.962067 0.095143 0.834533
O O12 0.500000 0.922498 0.500000
O O13 0.223621 0.940835 0.319715
O O14 0.232221 0.500000 0.930973
O O15 0.817940 0.547225 0.822031
O O16 0.000000 0.546590 0.000000
O O17 0.413610 0.500000 0.805013
#
# Coordination Sequence:
#
# PCOD9200733 Si02
#       7
#     8   8   8   8   8   8   8
#     4  11  22  39  65  90 131 180 221 281 350 401
#     4  11  22  40  56  89 133 173 227 292 339 397
#     4  10  22  40  65  97 133 177 222 270 345 423
#     4  10  21  39  61  86 128 180 221 271 340 409
#     4  11  22  42  70 101 135 173 221 281 349 417
#     4  10  20  37  59  87 126 169 220 276 323 393
#     4  10  22  41  65  96 132 173 226 284 339 412
#
# _framework density 23.496655000000001
#
# number of rings (size 3 to 8) (size 9 to 14) (size 15 to 20)
#    0.000    1.571    2.857    2.143    0.000    0.857 
#    5.143    2.143    0.000   11.143    0.000    0.000 
#    0.000    0.000    0.000    0.000    0.000    0.000 
#
# Total GULP energy -155944.495182 kJ/mol
# GULP energy per Si atom -5569.446257 kJ/mol
# Density = 2.344318 g / cm^3
# Si number density = 23.496655 Si / 1000 Ang^3
#
#
#
# Elastic Constant Matrix: (Units=GPa)
#
#
# Indices 1 2 3 4 5 6 
#
# 1 85.4865 10.7031 27.6983 0.0000 6.6276 0.0000
# 2 10.7031 96.7513 17.7944 0.0000 -0.5292 0.0000
# 3 27.6983 17.7944 103.6197 0.0000 5.2908 0.0000
# 4 0.0000 0.0000 0.0000 27.7311 0.0000 -4.8219
# 5 6.6276 -0.5292 5.2908 0.0000 30.7820 0.0000
# 6 0.0000 0.0000 0.0000 -4.8219 0.0000 38.0179
#
#
#
# Elastic Compliance Matrix: (Units=1/GPa)
#
#
# Indices 1 2 3 4 5 6 
#
# 1 0.013024 -0.000861 -0.003218 0.000000 -0.002266 0.000000
# 2 -0.000861 0.010738 -0.001647 0.000000 0.000653 0.000000
# 3 -0.003218 -0.001647 0.010855 0.000000 -0.001201 0.000000
# 4 0.000000 0.000000 0.000000 0.036874 0.000000 0.004677
# 5 -0.002266 0.000653 -0.001201 0.000000 0.033192 0.000000
# 6 0.000000 0.000000 0.000000 0.004677 0.000000 0.026897
#
#
# Mechanical properties :
#
#
# Convention : Reuss Voigt Hill
#
# Bulk Modulus (GPa) = 43.17027 44.24991 43.71009
# Shear Modulus (GPa) = 33.16696 34.61699 33.89198
#
# Velocity S-wave (km/s) = 3.76115 3.84249 3.80204
# Velocity P-wave (km/s) = 6.10528 6.20964 6.15768
#
# Compressibility (1/GPa) = 0.02316409
#
# Stress axis : x y z
#
# Youngs Moduli (GPa) = 76.78226 93.13101 92.12362
#
# Poissons Ratio (x) = 0.08022 0.29643
# Poissons Ratio (y) = 0.06614 0.15173
# Poissons Ratio (z) = 0.24707 0.15339
#
# Static dielectric constant tensor:
#      x y z
#    x 2.060120 0.000000 -0.016940 
#    y 0.000000 1.945890 0.000000 
#    z -0.016940 0.000000 1.854900 
# 
# From -- ./inp_files/192609.got.cif
#   From: 2010.05.17/outbox.cif.g08.bks.cpg/sg12_97_cif.got.tgz:192609.got - 2010.06.03 13:09:07.
