data_PCOD9200161
_publ_section_title
;
Structure prediction by ZEFSAII (Michael W. Deem and Ramdas Pophale) SiO2 
 PCOD9200161
Probable space group: C 2/M
;
_chemical_formula_sum "Si O2"
_cell_formula_units_Z 64
_cell_length_a 17.771464
_cell_length_b 23.580316
_cell_length_c 14.042095
_cell_angle_alpha 90.000000
_cell_angle_beta 30.360385
_cell_angle_gamma 90.000000
_cell_volume 2974.212636
_symmetry_space_group_name_H-M "C 2/M"
_symmetry_group_IT_number 12
_symmetry_cell_setting 'monoclinic'
loop_
_space_group_symop_operation_xyz
x,y,z
-x,y,-z
-x,-y,-z
x,-y,z
1/2+x,1/2+y,z
1/2-x,1/2+y,-z
1/2-x,1/2-y,-z
1/2+x,1/2-y,z
loop_
_atom_site_type_symbol
_atom_site_label
_atom_site_fract_x
_atom_site_fract_y
_atom_site_fract_z
Si Si1 0.336873 0.725002 0.637271
Si Si2 0.653846 0.435542 0.286970
Si Si3 0.412667 0.781353 0.830918
Si Si4 0.826467 0.932874 0.161128
Si Si5 0.843710 0.663709 0.546562
Si Si6 0.872686 0.824530 0.392030
Si Si7 0.073725 0.064969 0.155416
Si Si8 0.607991 0.848386 0.968693
O O1 0.500000 0.723574 0.500000
O O2 0.276317 0.787413 0.686540
O O3 0.324775 0.688983 0.552677
O O4 0.240453 0.696124 0.821277
O O5 0.500000 0.410758 0.500000
O O6 0.657226 0.500000 0.316777
O O7 0.646839 0.433398 0.179957
O O8 0.808139 0.406503 0.144369
O O9 0.488157 0.811347 0.654312
O O10 0.517899 0.728600 0.747303
O O11 0.250000 0.750000 0.000000
O O12 0.441077 0.834271 0.872027
O O13 0.706655 0.895047 0.349730
O O14 0.805141 0.000000 0.204129
O O15 0.823400 0.924720 0.049575
O O16 0.000000 0.918942 0.000000
O O17 0.759835 0.671980 0.538096
O O18 0.955320 0.884548 0.290776
O O19 0.014029 0.000000 0.208553
O O20 0.500000 0.835649 0.000000
#
# Coordination Sequence:
#
# PCOD9200161 Si02
#       8
#     8   8   8   8   8   8   8   8
#     4  11  23  40  61  90 126 168 223 270 334 405
#     4  10  22  42  67  94 127 172 222 271 328 400
#     4  11  24  41  61  91 131 176 219 272 340 407
#     4  10  21  40  66 102 138 174 226 287 343 404
#     4  11  23  41  64  95 131 173 222 275 332 403
#     4  11  21  39  63  91 130 168 216 282 330 394
#     4  10  20  36  65 101 133 174 224 276 337 402
#     4  12  23  38  63  93 127 163 210 273 338 399
#
# _framework density 21.5183
#
# number of rings (size 3 to 8) (size 9 to 14) (size 15 to 20)
#    0.000    1.250    1.250    7.125    1.750    0.750 
#    4.500    0.625    0.000    2.625    0.000    0.000 
#    0.000    0.000    0.000    0.000    0.000    0.000 
#
# Total GULP energy -178288.808613 kJ/mol
# GULP energy per Si atom -5571.525269 kJ/mol
# Density = 2.146932 g / cm^3
# Si number density = 21.518300 Si / 1000 Ang^3
#
#
#
# Elastic Constant Matrix: (Units=GPa)
#
#
# Indices 1 2 3 4 5 6 
#
# 1 68.2459 8.9065 21.8187 -0.0225 13.4501 0.0063
# 2 8.9065 109.7569 37.2733 -0.0322 -1.9462 0.0116
# 3 21.8187 37.2733 82.0199 -0.0484 -1.9300 0.0119
# 4 -0.0225 -0.0322 -0.0484 31.0382 0.0293 3.9824
# 5 13.4501 -1.9462 -1.9300 0.0293 25.1151 -0.0086
# 6 0.0063 0.0116 0.0119 3.9824 -0.0086 24.4635
#
#
#
# Elastic Compliance Matrix: (Units=1/GPa)
#
#
# Indices 1 2 3 4 5 6 
#
# 1 0.018294 0.000081 -0.005143 0.000016 -0.010186 -0.000008
# 2 0.000081 0.010779 -0.004911 0.000004 0.000414 -0.000003
# 3 -0.005143 -0.004911 0.015876 0.000013 0.003594 -0.000005
# 4 0.000016 0.000004 0.000013 0.032906 -0.000048 -0.005357
# 5 -0.010186 0.000414 0.003594 -0.000048 0.045580 0.000024
# 6 -0.000008 -0.000003 -0.000005 -0.005357 0.000024 0.041749
#
#
# Mechanical properties :
#
#
# Convention : Reuss Voigt Hill
#
# Bulk Modulus (GPa) = 39.99136 44.00219 41.99677
# Shear Modulus (GPa) = 25.84449 28.92496 27.38472
#
# Velocity S-wave (km/s) = 3.46937 3.67031 3.57126
# Velocity P-wave (km/s) = 5.88845 6.20119 6.04684
#
# Compressibility (1/GPa) = 0.02500540
#
# Stress axis : x y z
#
# Youngs Moduli (GPa) = 54.66241 92.76962 62.98621
#
# Poissons Ratio (x) = -0.00756 0.32395
# Poissons Ratio (y) = -0.00445 0.30930
# Poissons Ratio (z) = 0.28114 0.45555
#
# Static dielectric constant tensor:
#      x y z
#    x 1.818130 -0.000010 0.020220 
#    y -0.000010 1.857960 0.000040 
#    z 0.020220 0.000040 1.840030 
# 
# From -- ./inp_files/228111.got.cif
#   From: 2010.05.17/outbox.cif.g08.bks.cpg/sg12_115_cif.got.tgz:228111.got - 2010.06.03 13:09:07.
