data_PCOD9200702
_publ_section_title
;
Structure prediction by ZEFSAII (Michael W. Deem and Ramdas Pophale) SiO2 
 PCOD9200702
Probable space group: C 2/M
;
_chemical_formula_sum "Si O2"
_cell_formula_units_Z 28
_cell_length_a 15.537811
_cell_length_b 14.295983
_cell_length_c 7.860064
_cell_angle_alpha 90.000000
_cell_angle_beta 35.679814
_cell_angle_gamma 90.000000
_cell_volume 1018.329819
_symmetry_space_group_name_H-M "C 2/M"
_symmetry_group_IT_number 12
_symmetry_cell_setting 'monoclinic'
loop_
_space_group_symop_operation_xyz
x,y,z
-x,y,-z
-x,-y,-z
x,-y,z
1/2+x,1/2+y,z
1/2-x,1/2+y,-z
1/2-x,1/2-y,-z
1/2+x,1/2-y,z
loop_
_atom_site_type_symbol
_atom_site_label
_atom_site_fract_x
_atom_site_fract_y
_atom_site_fract_z
Si Si1 0.910200 0.154563 0.822022
Si Si2 0.795614 0.858542 0.454945
Si Si3 0.854022 0.500000 0.537753
Si Si4 0.640871 0.127369 0.050223
O O1 0.868431 0.260860 0.932347
O O2 0.000000 0.157821 0.500000
O O3 0.037692 0.128304 0.749187
O O4 0.762047 0.100408 0.999302
O O5 0.750000 0.750000 0.500000
O O6 0.759845 0.918014 0.347851
O O7 0.695039 0.895731 0.773240
O O8 0.987177 0.580018 0.335065
#
# Coordination Sequence:
#
# PCOD9200702 Si02
#       4
#     8   8   4   8
#     4   9  20  37  59  83 115 162 190 234 296 349
#     4  11  21  35  60  90 119 152 194 247 293 342
#     4  12  23  36  61  95 113 152 202 248 283 346
#     4  10  20  37  59  85 119 151 201 235 291 346
#
# _framework density 27.496005
#
# number of rings (size 3 to 8) (size 9 to 14) (size 15 to 20)
#    0.000    1.714    2.857    2.571    0.000    1.143 
#    0.000    5.000    0.000    3.429    0.000    0.000 
#    0.000    0.000    0.000    0.000    0.000    0.000 
#
# Total GULP energy -78048.821384 kJ/mol
# GULP energy per Si atom -5574.915813 kJ/mol
# Density = 2.743342 g / cm^3
# Si number density = 27.496005 Si / 1000 Ang^3
#
#
#
# Elastic Constant Matrix: (Units=GPa)
#
#
# Indices 1 2 3 4 5 6 
#
# 1 147.4619 6.8633 68.7203 0.0000 -5.3744 0.0000
# 2 6.8633 163.8271 -20.3279 0.0000 -37.9162 0.0000
# 3 68.7203 -20.3279 109.3442 0.0000 -33.5156 0.0000
# 4 0.0000 0.0000 0.0000 -37.6905 0.0000 -108.6420
# 5 -5.3744 -37.9162 -33.5156 0.0000 69.1202 0.0000
# 6 0.0000 0.0000 0.0000 -108.6420 0.0000 -20.6684
#
#
#
# Elastic Compliance Matrix: (Units=1/GPa)
#
#
# Indices 1 2 3 4 5 6 
#
# 1 0.010832 -0.002680 -0.008808 0.000000 -0.004899 0.000000
# 2 -0.002680 0.008542 0.005456 0.000000 0.007123 0.000000
# 3 -0.008808 0.005456 0.019266 0.000000 0.011650 0.000000
# 4 0.000000 0.000000 0.000000 0.001875 0.000000 -0.009855
# 5 -0.004899 0.007123 0.011650 0.000000 0.023643 0.000000
# 6 0.000000 0.000000 0.000000 -0.009855 0.000000 0.003419
#
#
# Mechanical properties :
#
#
# Convention : Reuss Voigt Hill
#
# Bulk Modulus (GPa) = 37.62924 59.01608 48.32266
# Shear Modulus (GPa) = 56.49764 26.51076 41.50420
#
# Velocity S-wave (km/s) = 4.53786 3.10847 3.88940
# Velocity P-wave (km/s) = 6.41649 5.86460 6.14674
#
# Compressibility (1/GPa) = 0.02657508
#
# Stress axis : x y z
#
# Youngs Moduli (GPa) = 92.31755 117.07264 51.90512
#
# Poissons Ratio (x) = 0.31381 0.45716
# Poissons Ratio (y) = 0.24745 -0.28318
# Poissons Ratio (z) = 0.81310 -0.63872
#
# Static dielectric constant tensor:
#      x y z
#    x 2.189790 0.000000 0.144480 
#    y 0.000000 2.032200 0.000000 
#    z 0.144480 0.000000 2.238430 
# 
# From -- ./inp_files/44723.got.cif
#   From: 2010.05.17/outbox.cif.g08.bks.cpg/sg12_23_cif.got.tgz:44723.got - 2010.06.03 13:09:07.
