data_PCOD9200106
_publ_section_title
;
Structure prediction by ZEFSAII (Michael W. Deem and Ramdas Pophale) SiO2 
 PCOD9200106
Probable space group: C 2/M
;
_chemical_formula_sum "Si O2"
_cell_formula_units_Z 48
_cell_length_a 11.556062
_cell_length_b 26.992779
_cell_length_c 14.504638
_cell_angle_alpha 90.000000
_cell_angle_beta 29.219795
_cell_angle_gamma 90.000000
_cell_volume 2208.653699
_symmetry_space_group_name_H-M "C 2/M"
_symmetry_group_IT_number 12
_symmetry_cell_setting 'monoclinic'
loop_
_space_group_symop_operation_xyz
x,y,z
-x,y,-z
-x,-y,-z
x,-y,z
1/2+x,1/2+y,z
1/2-x,1/2+y,-z
1/2-x,1/2-y,-z
1/2+x,1/2-y,z
loop_
_atom_site_type_symbol
_atom_site_label
_atom_site_fract_x
_atom_site_fract_y
_atom_site_fract_z
Si Si1 0.155436 0.698463 0.603414
Si Si2 0.247977 0.644570 0.224306
Si Si3 0.448958 0.366320 0.275489
Si Si4 0.005685 0.343252 0.096856
Si Si5 0.892483 0.556100 0.438455
Si Si6 0.716453 0.054739 0.701773
O O1 0.250000 0.750000 0.500000
O O2 0.355750 0.659213 0.433216
O O3 0.915323 0.683261 0.716586
O O4 0.101851 0.690995 0.748339
O O5 0.304472 0.657327 0.290680
O O6 0.098192 0.593632 0.325541
O O7 0.500000 0.638138 0.000000
O O8 0.355477 0.422391 0.349731
O O9 0.723138 0.357304 0.068967
O O10 0.870346 0.396003 0.187118
O O11 0.000000 0.319374 0.000000
O O12 0.932973 0.500000 0.438504
O O13 0.878907 0.557982 0.336733
O O14 0.000000 0.055722 0.500000
O O15 0.647232 0.000000 0.787082
#
# Coordination Sequence:
#
# PCOD9200106 Si02
#       6
#     8   8   8   8   8   8
#     4  11  25  48  71  98 133 176 229 287 354 414
#     4  11  21  44  71  97 138 181 229 285 355 415
#     4  11  23  44  69  98 138 182 224 285 351 412
#     4  12  25  43  71 103 140 181 232 288 341 408
#     4  10  20  36  64 102 141 184 234 280 336 410
#     4  10  20  38  64  95 140 191 231 273 333 405
#
# _framework density 21.732696000000001
#
# number of rings (size 3 to 8) (size 9 to 14) (size 15 to 20)
#    0.000    1.167    5.000    3.000    0.000    3.333 
#    6.000    0.000    0.000    0.000    0.000    0.000 
#    0.000    0.000    0.000    0.000    0.000    0.000 
#
# Total GULP energy -134178.340161 kJ/mol
# GULP energy per Si atom -5590.764173 kJ/mol
# Density = 2.168323 g / cm^3
# Si number density = 21.732696 Si / 1000 Ang^3
#
#
#
# Elastic Constant Matrix: (Units=GPa)
#
#
# Indices 1 2 3 4 5 6 
#
# 1 92.9072 38.9088 38.6347 0.0000 21.9679 0.0001
# 2 38.9088 120.6716 58.6841 0.0000 -2.5313 0.0000
# 3 38.6347 58.6841 129.3422 0.0001 7.0982 -0.0001
# 4 0.0000 0.0000 0.0001 15.2142 0.0000 5.7065
# 5 21.9679 -2.5313 7.0982 0.0000 47.0493 0.0000
# 6 0.0001 0.0000 -0.0001 5.7065 0.0000 9.8374
#
#
#
# Elastic Compliance Matrix: (Units=1/GPa)
#
#
# Indices 1 2 3 4 5 6 
#
# 1 0.014961 -0.003819 -0.002361 0.000000 -0.006835 0.000000
# 2 -0.003819 0.011689 -0.004331 0.000000 0.003065 0.000000
# 3 -0.002361 -0.004331 0.010440 0.000000 -0.000706 0.000000
# 4 0.000000 0.000000 0.000000 0.084006 0.000000 -0.048730
# 5 -0.006835 0.003065 -0.000706 0.000000 0.024717 0.000000
# 6 0.000000 0.000000 0.000000 -0.048730 0.000000 0.129919
#
#
# Mechanical properties :
#
#
# Convention : Reuss Voigt Hill
#
# Bulk Modulus (GPa) = 62.23499 68.37515 65.30507
# Shear Modulus (GPa) = 16.55030 28.19972 22.37501
#
# Velocity S-wave (km/s) = 2.76259 3.60609 3.21215
# Velocity P-wave (km/s) = 6.23495 6.99061 6.62357
#
# Compressibility (1/GPa) = 0.01606813
#
# Stress axis : x y z
#
# Youngs Moduli (GPa) = 66.84208 85.55212 95.78245
#
# Poissons Ratio (x) = 0.32673 0.22614
# Poissons Ratio (y) = 0.25527 0.41482
# Poissons Ratio (z) = 0.15781 0.37051
#
# Static dielectric constant tensor:
#      x y z
#    x 1.834360 0.000000 0.028690 
#    y 0.000000 1.815460 0.000000 
#    z 0.028690 0.000000 1.783440 
# 
# From -- ./inp_files/209300.got.cif
#   From: 2010.05.17/outbox.cif.g08.bks.cpg/sg12_105_cif.got.tgz:209300.got - 2010.06.03 13:09:07.
