data_PCOD9200741
_publ_section_title
;
Structure prediction by ZEFSAII (Michael W. Deem and Ramdas Pophale) SiO2 
 PCOD9200741
Probable space group: C 2/M
;
_chemical_formula_sum "Si O2"
_cell_formula_units_Z 56
_cell_length_a 18.168506
_cell_length_b 13.490044
_cell_length_c 22.939220
_cell_angle_alpha 90.000000
_cell_angle_beta 149.780311
_cell_angle_gamma 90.000000
_cell_volume 2829.780535
_symmetry_space_group_name_H-M "C 2/M"
_symmetry_group_IT_number 12
_symmetry_cell_setting 'monoclinic'
loop_
_space_group_symop_operation_xyz
x,y,z
-x,y,-z
-x,-y,-z
x,-y,z
1/2+x,1/2+y,z
1/2-x,1/2+y,-z
1/2-x,1/2-y,-z
1/2+x,1/2-y,z
loop_
_atom_site_type_symbol
_atom_site_label
_atom_site_fract_x
_atom_site_fract_y
_atom_site_fract_z
Si Si1 0.615941 0.618410 0.936325
Si Si2 0.908086 0.616821 0.196647
Si Si3 0.884754 0.883351 0.473471
Si Si4 0.355363 0.616908 0.172168
Si Si5 0.421109 0.726178 0.615847
Si Si6 0.155543 0.611795 0.138180
Si Si7 0.400219 0.206844 0.774985
O O1 0.584698 0.500000 0.915447
O O2 0.690355 0.642623 0.924367
O O3 0.472379 0.686352 0.837523
O O4 0.735984 0.638344 0.068354
O O5 0.925423 0.500000 0.216557
O O6 0.986161 0.676765 0.302233
O O7 0.987162 0.648839 0.190374
O O8 0.950624 0.831668 0.575924
O O9 0.750505 0.813035 0.362563
O O10 0.000000 0.884725 0.500000
O O11 0.842222 0.000000 0.455356
O O12 0.208728 0.500000 0.187827
O O13 0.521741 0.650960 0.295252
O O14 0.262206 0.657964 0.162470
O O15 0.250000 0.750000 0.500000
O O16 0.341446 0.500000 0.166773
O O17 0.131083 0.662268 0.182956
O O18 0.000000 0.606022 0.000000
#
# Coordination Sequence:
#
# PCOD9200741 Si02
#       7
#     8   8   8   8   8   8   8
#     4  10  22  40  63  93 127 162 207 260 313 371
#     4  11  23  38  61  92 127 164 207 257 310 370
#     4  11  24  43  66  95 129 163 205 258 314 371
#     4  10  20  37  59  88 123 156 198 257 314 365
#     4  12  23  37  59  88 123 164 209 250 302 369
#     4  10  21  34  56  92 125 154 194 248 312 377
#     4  12  21  38  64  92 126 167 203 253 318 377
#
# _framework density 19.78952
#
# number of rings (size 3 to 8) (size 9 to 14) (size 15 to 20)
#    0.000    1.143    2.857    3.857    2.000    5.143 
#    0.000    0.714    0.000    4.714    0.000    0.000 
#    0.000    0.000    0.000    0.000    0.000    0.000 
#
# Total GULP energy -156131.548483 kJ/mol
# GULP energy per Si atom -5576.126732 kJ/mol
# Density = 1.974448 g / cm^3
# Si number density = 19.789520 Si / 1000 Ang^3
#
#
#
# Elastic Constant Matrix: (Units=GPa)
#
#
# Indices 1 2 3 4 5 6 
#
# 1 53.3657 48.2089 31.8185 0.0002 -2.3718 0.0001
# 2 48.2089 129.9169 55.7231 0.0003 -8.7741 0.0001
# 3 31.8185 55.7231 147.2916 0.0008 -10.2449 0.0003
# 4 0.0002 0.0003 0.0008 29.4388 0.0003 -11.0605
# 5 -2.3718 -8.7741 -10.2449 0.0003 30.0913 0.0001
# 6 0.0001 0.0001 0.0003 -11.0605 0.0001 21.0781
#
#
#
# Elastic Compliance Matrix: (Units=1/GPa)
#
#
# Indices 1 2 3 4 5 6 
#
# 1 0.029073 -0.009728 -0.002702 0.000000 -0.001465 0.000000
# 2 -0.009728 0.012513 -0.002491 0.000000 0.002034 0.000000
# 3 -0.002702 -0.002491 0.008450 0.000000 0.001938 0.000000
# 4 0.000000 0.000000 0.000000 0.042310 -0.000001 0.022202
# 5 -0.001465 0.002034 0.001938 -0.000001 0.034369 0.000000
# 6 0.000000 0.000000 0.000000 0.022202 0.000000 0.059093
#
#
# Mechanical properties :
#
#
# Convention : Reuss Voigt Hill
#
# Bulk Modulus (GPa) = 49.52067 66.89724 58.20896
# Shear Modulus (GPa) = 22.48394 29.10988 25.79691
#
# Velocity S-wave (km/s) = 3.37435 3.83949 3.61441
# Velocity P-wave (km/s) = 6.34505 7.31665 6.84810
#
# Compressibility (1/GPa) = 0.02019359
#
# Stress axis : x y z
#
# Youngs Moduli (GPa) = 34.39660 79.91805 118.34254
#
# Poissons Ratio (x) = 0.77746 0.31975
# Poissons Ratio (y) = 0.33462 0.29477
# Poissons Ratio (z) = 0.09294 0.19906
#
# Static dielectric constant tensor:
#      x y z
#    x 1.735780 0.000000 -0.009880 
#    y 0.000000 1.739320 0.000000 
#    z -0.009880 0.000000 1.770250 
# 
# From -- ./inp_files/316804.got.cif
#   From: 2010.05.17/outbox.cif.g08.bks.cpg/sg12_159_cif.got.tgz:316804.got - 2010.06.03 13:09:07.
