data_PCOD9200809
_publ_section_title
;
Structure prediction by ZEFSAII (Michael W. Deem and Ramdas Pophale) SiO2 
 PCOD9200809
Probable space group: C 2/M
;
_chemical_formula_sum "Si O2"
_cell_formula_units_Z 56
_cell_length_a 18.303515
_cell_length_b 8.612556
_cell_length_c 29.417009
_cell_angle_alpha 90.000000
_cell_angle_beta 141.044051
_cell_angle_gamma 90.000000
_cell_volume 2915.575003
_symmetry_space_group_name_H-M "C 2/M"
_symmetry_group_IT_number 12
_symmetry_cell_setting 'monoclinic'
loop_
_space_group_symop_operation_xyz
x,y,z
-x,y,-z
-x,-y,-z
x,-y,z
1/2+x,1/2+y,z
1/2-x,1/2+y,-z
1/2-x,1/2-y,-z
1/2+x,1/2-y,z
loop_
_atom_site_type_symbol
_atom_site_label
_atom_site_fract_x
_atom_site_fract_y
_atom_site_fract_z
Si Si1 0.775087 0.186349 0.788410
Si Si2 0.634517 0.186249 0.072110
Si Si3 0.553374 0.312054 0.210786
Si Si4 0.081246 0.687951 0.496701
Si Si5 0.654240 0.311083 0.356997
Si Si6 0.018465 0.186450 0.645821
Si Si7 0.795743 0.684998 0.069934
O O1 0.820385 0.255315 0.857557
O O2 0.861196 0.231721 0.789034
O O3 0.645889 0.245036 0.715530
O O4 0.774418 0.000000 0.790986
O O5 0.713145 0.255628 0.070270
O O6 0.642575 0.000000 0.074340
O O7 0.500000 0.231067 0.000000
O O8 0.544535 0.500000 0.207038
O O9 0.607013 0.261503 0.285010
O O10 0.426162 0.243575 0.141854
O O11 0.079601 0.500000 0.492072
O O12 0.213720 0.738585 0.569871
O O13 0.000000 0.730188 0.500000
O O14 0.032217 0.758106 0.426666
O O15 0.655420 0.500000 0.357151
O O16 0.567944 0.262357 0.355477
O O17 0.025027 0.000000 0.649896
O O18 0.793857 0.500000 0.067672
O O19 0.750000 0.750000 0.000000
#
# Coordination Sequence:
#
# PCOD9200809 Si02
#       7
#     8   8   8   8   8   8   8
#     4  11  23  39  62  90 119 157 203 247 294 353
#     4  11  24  42  64  90 122 159 199 247 300 351
#     4  10  21  40  64  88 118 156 199 247 299 356
#     4  10  20  37  60  83 111 150 196 244 296 358
#     4   9  19  36  58  84 114 152 194 238 295 357
#     4  11  22  36  57  85 119 156 194 243 300 357
#     4  12  25  41  63  91 123 159 200 245 296 356
#
# _framework density 19.207189
#
# number of rings (size 3 to 8) (size 9 to 14) (size 15 to 20)
#    0.000    1.429    0.000    5.571    0.000    8.286 
#    0.000    2.143    0.000    0.000    0.000    0.000 
#    0.000    0.000    0.000    0.000    0.000    0.000 
#
# Total GULP energy -156623.817144 kJ/mol
# GULP energy per Si atom -5593.707755 kJ/mol
# Density = 1.916347 g / cm^3
# Si number density = 19.207189 Si / 1000 Ang^3
#
#
#
# Elastic Constant Matrix: (Units=GPa)
#
#
# Indices 1 2 3 4 5 6 
#
# 1 222.4637 57.4859 132.4256 0.0000 4.0311 0.0000
# 2 57.4859 45.3794 50.1083 0.0001 3.3859 0.0000
# 3 132.4256 50.1083 226.7606 0.0000 3.5095 0.0000
# 4 0.0000 0.0001 0.0000 34.3070 0.0000 -0.9717
# 5 4.0311 3.3859 3.5095 0.0000 46.1767 0.0000
# 6 0.0000 0.0000 0.0000 -0.9717 0.0000 25.5526
#
#
#
# Elastic Compliance Matrix: (Units=1/GPa)
#
#
# Indices 1 2 3 4 5 6 
#
# 1 0.008203 -0.006750 -0.003299 0.000000 0.000030 0.000000
# 2 -0.006750 0.034830 -0.003728 0.000000 -0.001681 0.000000
# 3 -0.003299 -0.003728 0.007160 0.000000 0.000017 0.000000
# 4 0.000000 0.000000 0.000000 0.029180 0.000000 0.001110
# 5 0.000030 -0.001681 0.000017 0.000000 0.021775 0.000000
# 6 0.000000 0.000000 0.000000 0.001110 0.000000 0.039177
#
#
# Mechanical properties :
#
#
# Convention : Reuss Voigt Hill
#
# Bulk Modulus (GPa) = 44.17494 108.29371 76.23433
# Shear Modulus (GPa) = 28.50182 38.17951 33.34066
#
# Velocity S-wave (km/s) = 3.85634 4.46328 4.17086
# Velocity P-wave (km/s) = 6.54810 9.11402 7.93546
#
# Compressibility (1/GPa) = 0.02263727
#
# Stress axis : x y z
#
# Youngs Moduli (GPa) = 121.90954 28.71071 139.66108
#
# Poissons Ratio (x) = 0.19381 0.46076
# Poissons Ratio (y) = 0.82295 0.52071
# Poissons Ratio (z) = 0.40219 0.10704
#
# Static dielectric constant tensor:
#      x y z
#    x 1.640380 0.000000 0.002760 
#    y 0.000000 1.655360 0.000000 
#    z 0.002760 0.000000 1.623650 
# 
# From -- ./inp_files/363089.got.cif
#   From: 2010.05.17/outbox.cif.g08.bks.cpg/sg12_182_cif.got.tgz:363089.got - 2010.06.03 13:09:07.
