data_PCOD9200463
_publ_section_title
;
Structure prediction by ZEFSAII (Michael W. Deem and Ramdas Pophale) SiO2 
 PCOD9200463
Probable space group: C 2/M
;
_chemical_formula_sum "Si O2"
_cell_formula_units_Z 32
_cell_length_a 18.212137
_cell_length_b 17.065472
_cell_length_c 14.565083
_cell_angle_alpha 90.000000
_cell_angle_beta 159.083512
_cell_angle_gamma 90.000000
_cell_volume 1616.101712
_symmetry_space_group_name_H-M "C 2/M"
_symmetry_group_IT_number 12
_symmetry_cell_setting 'monoclinic'
loop_
_space_group_symop_operation_xyz
x,y,z
-x,y,-z
-x,-y,-z
x,-y,z
1/2+x,1/2+y,z
1/2-x,1/2+y,-z
1/2-x,1/2-y,-z
1/2+x,1/2-y,z
loop_
_atom_site_type_symbol
_atom_site_label
_atom_site_fract_x
_atom_site_fract_y
_atom_site_fract_z
Si Si1 0.833113 0.410626 0.736342
Si Si2 0.498093 0.166017 0.232751
Si Si3 0.908212 0.093643 0.162273
Si Si4 0.061625 0.814511 0.177615
O O1 0.803577 0.500000 0.732261
O O2 0.934779 0.405164 0.755193
O O3 0.603444 0.378623 0.452905
O O4 0.000000 0.373986 0.000000
O O5 0.690880 0.183124 0.523660
O O6 0.486094 0.239207 0.148449
O O7 0.291089 0.142086 0.041119
O O8 0.970317 0.113627 0.130322
O O9 0.881327 0.000000 0.142238
O O10 0.000000 0.814274 0.000000
#
# Coordination Sequence:
#
# PCOD9200463 Si02
#       4
#     8   8   8   8
#     4   9  18  33  54  83 117 150 185 227 278 333
#     4  10  20  37  58  82 112 146 186 234 281 330
#     4  10  21  37  58  84 114 148 187 232 279 330
#     4  10  22  39  58  82 112 147 187 232 281 332
#
# _framework density 19.800733999999999
#
# number of rings (size 3 to 8) (size 9 to 14) (size 15 to 20)
#    0.000    2.250    0.000    2.250    0.000    3.500 
#    0.000    7.500    0.000    0.000    0.000    0.000 
#    0.000    0.000    0.000    0.000    0.000    0.000 
#
# Total GULP energy -89174.867803 kJ/mol
# GULP energy per Si atom -5573.429238 kJ/mol
# Density = 1.975567 g / cm^3
# Si number density = 19.800734 Si / 1000 Ang^3
#
#
#
# Elastic Constant Matrix: (Units=GPa)
#
#
# Indices 1 2 3 4 5 6 
#
# 1 105.4592 28.9858 115.7434 0.0000 -13.6987 0.0000
# 2 28.9858 69.2298 50.4971 0.0000 -1.5459 0.0000
# 3 115.7434 50.4971 172.1078 0.0000 -2.4435 0.0000
# 4 0.0000 0.0000 0.0000 14.8174 0.0000 13.7281
# 5 -13.6987 -1.5459 -2.4435 0.0000 46.5514 0.0000
# 6 0.0000 0.0000 0.0000 13.7281 0.0000 21.1726
#
#
#
# Elastic Compliance Matrix: (Units=1/GPa)
#
#
# Indices 1 2 3 4 5 6 
#
# 1 0.041663 0.003974 -0.029030 0.000000 0.010868 0.000000
# 2 0.003974 0.018762 -0.008158 0.000000 0.001364 0.000000
# 3 -0.029030 -0.008158 0.027622 0.000000 -0.007364 0.000000
# 4 0.000000 0.000000 0.000000 0.169024 0.000000 -0.109593
# 5 0.010868 0.001364 -0.007364 0.000000 0.024339 0.000000
# 6 0.000000 0.000000 0.000000 -0.109593 0.000000 0.118289
#
#
# Mechanical properties :
#
#
# Convention : Reuss Voigt Hill
#
# Bulk Modulus (GPa) = 46.25642 81.91659 64.08650
# Shear Modulus (GPa) = 10.56337 26.61300 18.58818
#
# Velocity S-wave (km/s) = 2.31223 3.67009 3.06725
# Velocity P-wave (km/s) = 5.52632 7.70842 6.70671
#
# Compressibility (1/GPa) = 0.02161862
#
# Stress axis : x y z
#
# Youngs Moduli (GPa) = 24.00203 53.30002 36.20261
#
# Poissons Ratio (x) = -0.21181 1.05097
# Poissons Ratio (y) = -0.09538 0.29533
# Poissons Ratio (z) = 0.69679 0.43481
#
# Static dielectric constant tensor:
#      x y z
#    x 1.660510 0.000000 -0.011470 
#    y 0.000000 1.786630 0.000000 
#    z -0.011470 0.000000 1.716520 
# 
# From -- ./inp_files/6035.got.cif
#   From: 2010.05.17/outbox.cif.g08.bks.cpg/sg12_4_cif.got.tgz:6035.got - 2010.06.03 13:09:07.
