data_PCOD9200975
_publ_section_title
;
Structure prediction by ZEFSAII (Michael W. Deem and Ramdas Pophale) SiO2 
 PCOD9200975
Probable space group: C 2/M
;
_chemical_formula_sum "Si O2"
_cell_formula_units_Z 48
_cell_length_a 25.356336
_cell_length_b 8.801428
_cell_length_c 12.755644
_cell_angle_alpha 90.000000
_cell_angle_beta 109.317709
_cell_angle_gamma 90.000000
_cell_volume 2686.429258
_symmetry_space_group_name_H-M "C 2/M"
_symmetry_group_IT_number 12
_symmetry_cell_setting 'monoclinic'
loop_
_space_group_symop_operation_xyz
x,y,z
-x,y,-z
-x,-y,-z
x,-y,z
1/2+x,1/2+y,z
1/2-x,1/2+y,-z
1/2-x,1/2-y,-z
1/2+x,1/2-y,z
loop_
_atom_site_type_symbol
_atom_site_label
_atom_site_fract_x
_atom_site_fract_y
_atom_site_fract_z
Si Si1 0.500149 0.817568 0.123526
Si Si2 0.691092 0.818852 0.500111
Si Si3 0.812342 0.819354 0.273521
Si Si4 0.184825 0.317954 0.128774
Si Si5 0.123346 0.317702 0.874834
Si Si6 0.614224 0.680472 0.272620
O O1 0.440056 0.781879 0.133665
O O2 0.551031 0.735310 0.213906
O O3 0.508645 0.000000 0.135084
O O4 0.500000 0.777153 0.000000
O O5 0.750000 0.750000 0.500000
O O6 0.680803 0.764402 0.611584
O O7 0.643361 0.758228 0.391283
O O8 0.694278 0.000000 0.496540
O O9 0.749981 0.785643 0.189168
O O10 0.856088 0.764420 0.215713
O O11 0.816163 0.000000 0.292417
O O12 0.176012 0.500000 0.135635
O O13 0.148928 0.234211 0.193440
O O14 0.162910 0.276085 0.999242
O O15 0.127367 0.500000 0.863110
O O16 0.617285 0.500000 0.284933
#
# Coordination Sequence:
#
# PCOD9200975 Si02
#       6
#     8   8   8   8   8   8
#     4  10  20  39  64  87 119 164 205 249 299 357
#     4  12  24  41  64  89 120 158 203 249 298 361
#     4  11  23  38  60  90 126 163 199 247 305 358
#     4  10  20  37  60  87 123 164 200 244 298 362
#     4  10  21  38  61  88 122 165 206 244 300 360
#     4  12  24  37  60  93 124 156 199 254 304 352
#
# _framework density 17.867584000000001
#
# number of rings (size 3 to 8) (size 9 to 14) (size 15 to 20)
#    0.000    1.167    3.333    4.000    0.000    2.333 
#    0.000    0.833    0.000    5.000    0.000    0.000 
#    0.000    0.000    0.000    0.000    0.000    0.000 
#
# Total GULP energy -134205.235761 kJ/mol
# GULP energy per Si atom -5591.884823 kJ/mol
# Density = 1.782692 g / cm^3
# Si number density = 17.867584 Si / 1000 Ang^3
#
#
#
# Elastic Constant Matrix: (Units=GPa)
#
#
# Indices 1 2 3 4 5 6 
#
# 1 87.3656 58.6906 78.7435 0.0000 -5.2129 0.0000
# 2 58.6906 84.5614 75.9913 0.0000 -1.9034 0.0000
# 3 78.7435 75.9913 157.2230 0.0000 -1.8159 0.0000
# 4 0.0000 0.0000 0.0000 30.4405 0.0000 -2.0290
# 5 -5.2129 -1.9034 -1.8159 0.0000 31.0653 0.0000
# 6 0.0000 0.0000 0.0000 -2.0290 0.0000 29.3663
#
#
#
# Elastic Compliance Matrix: (Units=1/GPa)
#
#
# Indices 1 2 3 4 5 6 
#
# 1 0.025941 -0.011120 -0.007581 0.000000 0.003229 0.000000
# 2 -0.011120 0.025688 -0.006855 0.000000 -0.000693 0.000000
# 3 -0.007581 -0.006855 0.013460 0.000000 -0.000905 0.000000
# 4 0.000000 0.000000 0.000000 0.033003 0.000000 0.002280
# 5 0.003229 -0.000693 -0.000905 0.000000 0.032637 0.000000
# 6 0.000000 0.000000 0.000000 0.002280 0.000000 0.034210
#
#
# Mechanical properties :
#
#
# Convention : Reuss Voigt Hill
#
# Bulk Modulus (GPa) = 71.53655 84.00009 77.76832
# Shear Modulus (GPa) = 22.65433 25.88938 24.27186
#
# Velocity S-wave (km/s) = 3.56462 3.81065 3.68969
# Velocity P-wave (km/s) = 7.55421 8.15328 7.85945
#
# Compressibility (1/GPa) = 0.01397887
#
# Stress axis : x y z
#
# Youngs Moduli (GPa) = 38.54850 38.92888 74.29633
#
# Poissons Ratio (x) = 0.43288 0.56321
# Poissons Ratio (y) = 0.42865 0.50927
# Poissons Ratio (z) = 0.29222 0.26684
#
# Static dielectric constant tensor:
#      x y z
#    x 1.585860 0.000000 0.008400 
#    y 0.000000 1.601610 0.000000 
#    z 0.008400 0.000000 1.586910 
# 
# From -- ./inp_files/172915.got.cif
#   From: 2010.05.17/outbox.cif.g08.bks.cpg/sg12_87_cif.got.tgz:172915.got - 2010.06.03 13:09:07.
