data_PCOD9200929
_publ_section_title
;
Structure prediction by ZEFSAII (Michael W. Deem and Ramdas Pophale) SiO2 
 PCOD9200929
Probable space group: C 2/M
;
_chemical_formula_sum "Si O2"
_cell_formula_units_Z 40
_cell_length_a 16.133653
_cell_length_b 7.377420
_cell_length_c 21.674429
_cell_angle_alpha 90.000000
_cell_angle_beta 45.947546
_cell_angle_gamma 90.000000
_cell_volume 1854.106479
_symmetry_space_group_name_H-M "C 2/M"
_symmetry_group_IT_number 12
_symmetry_cell_setting 'monoclinic'
loop_
_space_group_symop_operation_xyz
x,y,z
-x,y,-z
-x,-y,-z
x,-y,z
1/2+x,1/2+y,z
1/2-x,1/2+y,-z
1/2-x,1/2-y,-z
1/2+x,1/2-y,z
loop_
_atom_site_type_symbol
_atom_site_label
_atom_site_fract_x
_atom_site_fract_y
_atom_site_fract_z
Si Si1 0.879608 0.214790 0.457755
Si Si2 0.656545 0.792141 0.957764
Si Si3 0.440618 0.000000 0.668466
Si Si4 0.814980 0.000000 0.155406
Si Si5 0.904736 0.000000 0.248435
Si Si6 0.414065 0.784313 0.870407
Si Si7 0.655930 0.000000 0.421104
O O1 0.750000 0.250000 0.500000
O O2 0.881761 0.321210 0.522027
O O3 0.976563 0.324300 0.368596
O O4 0.900877 0.000000 0.450334
O O5 0.640575 0.670415 0.906509
O O6 0.791404 0.773319 0.906167
O O7 0.629564 0.000000 0.959254
O O8 0.591818 0.733749 0.053787
O O9 0.325864 0.000000 0.769452
O O10 0.391150 0.000000 0.623833
O O11 0.857384 0.000000 0.203030
O O12 0.984230 0.824501 0.214078
O O13 0.794394 0.000000 0.348531
O O14 0.426247 0.000000 0.860110
#
# Coordination Sequence:
#
# PCOD9200929 Si02
#       7
#     8   8   4   4   4   8   4
#     4  11  21  41  66  91 118 149 193 244 287 345
#     4  10  20  37  60  86 116 157 206 247 292 348
#     4  10  24  42  60  90 125 155 192 235 293 362
#     4  11  24  40  58  87 126 158 191 243 298 348
#     4  11  24  40  58  87 126 158 191 243 298 348
#     4  10  20  37  60  86 116 157 206 247 292 348
#     4  10  24  42  60  90 125 155 192 235 293 362
#
# _framework density 21.573734000000002
#
# number of rings (size 3 to 8) (size 9 to 14) (size 15 to 20)
#    0.000    1.600    4.000    1.800    0.000    7.200 
#    0.000    6.000    0.000    0.000    0.000    0.000 
#    0.000    0.000    0.000    0.000    0.000    0.000 
#
# Total GULP energy -111865.470711 kJ/mol
# GULP energy per Si atom -5593.273536 kJ/mol
# Density = 2.152463 g / cm^3
# Si number density = 21.573734 Si / 1000 Ang^3
#
#
#
# Elastic Constant Matrix: (Units=GPa)
#
#
# Indices 1 2 3 4 5 6 
#
# 1 75.5586 13.0978 14.7929 0.0000 -4.5010 0.0000
# 2 13.0978 153.7728 37.4719 0.0000 -3.5302 0.0001
# 3 14.7929 37.4719 85.3932 0.0000 -19.6437 0.0000
# 4 0.0000 0.0000 0.0000 26.6823 0.0000 -1.7615
# 5 -4.5010 -3.5302 -19.6437 0.0000 47.0505 0.0000
# 6 0.0000 0.0001 0.0000 -1.7615 0.0000 3.7346
#
#
#
# Elastic Compliance Matrix: (Units=1/GPa)
#
#
# Indices 1 2 3 4 5 6 
#
# 1 0.013767 -0.000678 -0.001987 0.000000 0.000437 0.000000
# 2 -0.000678 0.007348 -0.003313 0.000000 -0.000897 0.000000
# 3 -0.001987 -0.003313 0.014832 0.000000 0.005754 0.000000
# 4 0.000000 0.000000 0.000000 0.038683 0.000000 0.018246
# 5 0.000437 -0.000897 0.005754 0.000000 0.023630 0.000000
# 6 0.000000 0.000000 0.000000 0.018246 0.000000 0.276375
#
#
# Mechanical properties :
#
#
# Convention : Reuss Voigt Hill
#
# Bulk Modulus (GPa) = 41.68312 49.49443 45.58877
# Shear Modulus (GPa) = 12.67141 32.11761 22.39451
#
# Velocity S-wave (km/s) = 2.42617 3.86260 3.22537
# Velocity P-wave (km/s) = 5.21647 6.54864 5.92015
#
# Compressibility (1/GPa) = 0.02399053
#
# Stress axis : x y z
#
# Youngs Moduli (GPa) = 72.63559 136.09828 67.42121
#
# Poissons Ratio (x) = 0.09234 0.13395
# Poissons Ratio (y) = 0.04928 0.22337
# Poissons Ratio (z) = 0.14431 0.45090
#
# Static dielectric constant tensor:
#      x y z
#    x 1.811700 0.000000 -0.001140 
#    y 0.000000 1.732310 0.000000 
#    z -0.001140 0.000000 1.776700 
# 
# From -- ./inp_files/341895.got.cif
#   From: 2010.05.17/outbox.cif.g08.bks.cpg/sg12_171_cif.got.tgz:341895.got - 2010.06.03 13:09:07.
