data_PCOD9200136
_publ_section_title
;
Structure prediction by ZEFSAII (Michael W. Deem and Ramdas Pophale) SiO2 
 PCOD9200136
Probable space group: C 2/M
;
_chemical_formula_sum "Si O2"
_cell_formula_units_Z 48
_cell_length_a 12.816464
_cell_length_b 18.342508
_cell_length_c 11.210379
_cell_angle_alpha 90.000000
_cell_angle_beta 68.748726
_cell_angle_gamma 90.000000
_cell_volume 2456.196219
_symmetry_space_group_name_H-M "C 2/M"
_symmetry_group_IT_number 12
_symmetry_cell_setting 'monoclinic'
loop_
_space_group_symop_operation_xyz
x,y,z
-x,y,-z
-x,-y,-z
x,-y,z
1/2+x,1/2+y,z
1/2-x,1/2+y,-z
1/2-x,1/2-y,-z
1/2+x,1/2-y,z
loop_
_atom_site_type_symbol
_atom_site_label
_atom_site_fract_x
_atom_site_fract_y
_atom_site_fract_z
Si Si1 0.423921 0.000000 0.342515
Si Si2 0.245052 0.352945 0.218224
Si Si3 0.403307 0.713472 0.636139
Si Si4 0.667661 0.000000 0.351624
Si Si5 0.961074 0.228518 0.201216
Si Si6 0.335850 0.184155 0.987957
Si Si7 0.180907 0.642537 0.727408
O O1 0.379824 0.929552 0.290345
O O2 0.556374 0.000000 0.314138
O O3 0.370298 0.000000 0.496033
O O4 0.164358 0.288416 0.303892
O O5 0.234223 0.426082 0.297593
O O6 0.371715 0.321268 0.169037
O O7 0.199626 0.369460 0.103991
O O8 0.500000 0.724848 0.500000
O O9 0.463489 0.688238 0.733305
O O10 0.309795 0.654498 0.638683
O O11 0.884985 0.288460 0.300019
O O12 0.045958 0.278918 0.091695
O O13 0.250000 0.250000 0.000000
O O14 0.325622 0.153548 0.125481
#
# Coordination Sequence:
#
# PCOD9200136 Si02
#       7
#     4   8   8   4   8   8   8
#     4  11  26  43  63  88 134 173 214 260 312 383
#     4  10  23  38  64  92 125 171 208 261 323 371
#     4  10  22  36  61  95 125 159 222 266 308 376
#     4  11  26  45  60  90 134 172 218 257 312 388
#     4  10  20  36  64  93 122 163 208 269 320 362
#     4  11  19  39  64  98 126 153 214 270 315 377
#     4  11  23  39  63  96 125 172 206 260 326 373
#
# _framework density 19.542411000000001
#
# number of rings (size 3 to 8) (size 9 to 14) (size 15 to 20)
#    0.000    1.500    5.000    2.500    7.000    2.000 
#    0.000    3.750    0.000    1.000    0.000    0.000 
#    0.000    0.000    0.000    0.000    0.000    0.000 
#
# Total GULP energy -133857.397587 kJ/mol
# GULP energy per Si atom -5577.391566 kJ/mol
# Density = 1.949793 g / cm^3
# Si number density = 19.542411 Si / 1000 Ang^3
#
#
#
# Elastic Constant Matrix: (Units=GPa)
#
#
# Indices 1 2 3 4 5 6 
#
# 1 129.9612 33.8827 25.3043 0.0000 -4.7397 0.0000
# 2 33.8827 73.8398 11.1507 0.0000 8.6834 0.0000
# 3 25.3043 11.1507 61.3198 0.0000 -1.5265 0.0000
# 4 0.0000 0.0000 0.0000 23.4855 0.0000 5.0848
# 5 -4.7397 8.6834 -1.5265 0.0000 30.8912 0.0000
# 6 0.0000 0.0000 0.0000 5.0848 0.0000 27.1490
#
#
#
# Elastic Compliance Matrix: (Units=1/GPa)
#
#
# Indices 1 2 3 4 5 6 
#
# 1 0.009474 -0.004172 -0.003089 0.000000 0.002474 0.000000
# 2 -0.004172 0.016286 -0.001372 0.000000 -0.005286 0.000000
# 3 -0.003089 -0.001372 0.017852 0.000000 0.000794 0.000000
# 4 0.000000 0.000000 0.000000 0.044379 0.000000 -0.008312
# 5 0.002474 -0.005286 0.000794 0.000000 0.034276 0.000000
# 6 0.000000 0.000000 0.000000 -0.008312 0.000000 0.038391
#
#
# Mechanical properties :
#
#
# Convention : Reuss Voigt Hill
#
# Bulk Modulus (GPa) = 37.95569 45.08848 41.52209
# Shear Modulus (GPa) = 26.78022 29.29067 28.03544
#
# Velocity S-wave (km/s) = 3.70586 3.87567 3.79171
# Velocity P-wave (km/s) = 6.14618 6.56886 6.36103
#
# Compressibility (1/GPa) = 0.02634651
#
# Stress axis : x y z
#
# Youngs Moduli (GPa) = 105.55271 61.40325 56.01616
#
# Poissons Ratio (x) = 0.25615 0.17305
# Poissons Ratio (y) = 0.44033 0.07683
# Poissons Ratio (z) = 0.32609 0.08422
#
# Static dielectric constant tensor:
#      x y z
#    x 1.756140 0.000000 -0.002380 
#    y 0.000000 1.665760 0.000000 
#    z -0.002380 0.000000 1.774860 
# 
# From -- ./inp_files/131698.got.cif
#   From: 2010.05.17/outbox.cif.g08.bks.cpg/sg12_66_cif.got.tgz:131698.got - 2010.06.03 13:09:07.
