data_PCOD9200987
_publ_section_title
;
Structure prediction by ZEFSAII (Michael W. Deem and Ramdas Pophale) SiO2 
 PCOD9200987
Probable space group: C 2/M
;
_chemical_formula_sum "Si O2"
_cell_formula_units_Z 60
_cell_length_a 13.095242
_cell_length_b 19.314663
_cell_length_c 12.472519
_cell_angle_alpha 90.000000
_cell_angle_beta 108.054748
_cell_angle_gamma 90.000000
_cell_volume 2999.342822
_symmetry_space_group_name_H-M "C 2/M"
_symmetry_group_IT_number 12
_symmetry_cell_setting 'monoclinic'
loop_
_space_group_symop_operation_xyz
x,y,z
-x,y,-z
-x,-y,-z
x,-y,z
1/2+x,1/2+y,z
1/2-x,1/2+y,-z
1/2-x,1/2-y,-z
1/2+x,1/2-y,z
loop_
_atom_site_type_symbol
_atom_site_label
_atom_site_fract_x
_atom_site_fract_y
_atom_site_fract_z
Si Si1 0.784774 0.921414 0.706534
Si Si2 0.835580 0.420477 0.554971
Si Si3 0.500000 0.820739 0.500000
Si Si4 0.820320 0.716086 0.283301
Si Si5 0.638680 0.211801 0.144976
Si Si6 0.407154 0.727655 0.090118
Si Si7 0.748672 0.578732 0.762890
Si Si8 0.038177 0.079368 0.826849
O O1 0.746485 0.914079 0.571038
O O2 0.714485 0.863727 0.744202
O O3 0.912841 0.911489 0.757115
O O4 0.760820 0.000000 0.733734
O O5 0.875552 0.500000 0.568698
O O6 0.774208 0.408717 0.646307
O O7 0.933784 0.369213 0.561411
O O8 0.589980 0.779771 0.596160
O O9 0.706738 0.754042 0.263953
O O10 0.859220 0.754337 0.189611
O O11 0.515101 0.226335 0.125806
O O12 0.678973 0.133619 0.150235
O O13 0.654877 0.249847 0.036472
O O14 0.431252 0.645526 0.091167
O O15 0.780261 0.500000 0.797843
O O16 0.623749 0.584748 0.756577
O O17 0.050300 0.000000 0.873580
#
# Coordination Sequence:
#
# PCOD9200987 Si02
#       8
#     8   8   4   8   8   8   8   8
#     4   9  19  37  60  90 123 158 202 250 298 357
#     4   9  18  35  59  85 121 164 201 244 301 354
#     4  10  21  36  58  92 121 158 204 250 298 356
#     4  11  21  39  60  87 122 157 200 249 301 360
#     4  11  23  41  63  86 118 163 202 248 305 365
#     4  11  23  41  64  88 118 161 205 247 307 356
#     4  10  21  38  60  88 120 159 202 248 299 360
#     4  10  20  37  60  88 122 158 201 249 295 355
#
# _framework density 20.004383000000001
#
# number of rings (size 3 to 8) (size 9 to 14) (size 15 to 20)
#    0.000    1.867    2.667    1.400    0.000    1.067 
#    2.400    9.333    0.000    0.000    0.000    0.000 
#    0.000    0.000    0.000    0.000    0.000    0.000 
#
# Total GULP energy -167182.773133 kJ/mol
# GULP energy per Si atom -5572.759104 kJ/mol
# Density = 1.995885 g / cm^3
# Si number density = 20.004383 Si / 1000 Ang^3
#
#
#
# Elastic Constant Matrix: (Units=GPa)
#
#
# Indices 1 2 3 4 5 6 
#
# 1 56.4104 25.5566 18.3742 0.0000 14.4379 0.0000
# 2 25.5566 135.4121 48.0091 0.0000 15.8740 0.0000
# 3 18.3742 48.0091 63.9532 0.0000 20.7118 0.0000
# 4 0.0000 0.0000 0.0000 25.0007 0.0000 1.7354
# 5 14.4379 15.8740 20.7118 0.0000 29.0455 0.0000
# 6 0.0000 0.0000 0.0000 1.7354 0.0000 26.2308
#
#
#
# Elastic Compliance Matrix: (Units=1/GPa)
#
#
# Indices 1 2 3 4 5 6 
#
# 1 0.021485 -0.002517 -0.001652 0.000000 -0.008127 0.000000
# 2 -0.002517 0.010358 -0.007314 0.000000 0.000805 0.000000
# 3 -0.001652 -0.007314 0.026059 0.000000 -0.013764 0.000000
# 4 0.000000 0.000000 0.000000 0.040183 0.000000 -0.002658
# 5 -0.008127 0.000805 -0.013764 0.000000 0.047843 0.000000
# 6 0.000000 0.000000 0.000000 -0.002658 0.000000 0.038299
#
#
# Mechanical properties :
#
#
# Convention : Reuss Voigt Hill
#
# Bulk Modulus (GPa) = 28.62175 48.85060 38.73618
# Shear Modulus (GPa) = 22.84786 26.97777 24.91281
#
# Velocity S-wave (km/s) = 3.38323 3.67630 3.53281
# Velocity P-wave (km/s) = 5.44063 6.51868 6.00390
#
# Compressibility (1/GPa) = 0.03493846
#
# Stress axis : x y z
#
# Youngs Moduli (GPa) = 46.54328 96.53944 38.37461
#
# Poissons Ratio (x) = 0.24296 0.06339
# Poissons Ratio (y) = 0.11713 0.28066
# Poissons Ratio (z) = 0.07688 0.70606
#
# Static dielectric constant tensor:
#      x y z
#    x 1.780110 0.000000 -0.037860 
#    y 0.000000 1.751110 0.000000 
#    z -0.037860 0.000000 1.688870 
# 
# From -- ./inp_files/146181.got.cif
#   From: 2010.05.17/outbox.cif.g08.bks.cpg/sg12_74_cif.got.tgz:146181.got - 2010.06.03 13:09:07.
