data_PCOD9200252
_publ_section_title
;
Structure prediction by ZEFSAII (Michael W. Deem and Ramdas Pophale) SiO2 
 PCOD9200252
Probable space group: C 2/M
;
_chemical_formula_sum "Si O2"
_cell_formula_units_Z 48
_cell_length_a 19.058161
_cell_length_b 12.927999
_cell_length_c 11.025472
_cell_angle_alpha 90.000000
_cell_angle_beta 51.426428
_cell_angle_gamma 90.000000
_cell_volume 2123.780796
_symmetry_space_group_name_H-M "C 2/M"
_symmetry_group_IT_number 12
_symmetry_cell_setting 'monoclinic'
loop_
_space_group_symop_operation_xyz
x,y,z
-x,y,-z
-x,-y,-z
x,-y,z
1/2+x,1/2+y,z
1/2-x,1/2+y,-z
1/2-x,1/2-y,-z
1/2+x,1/2-y,z
loop_
_atom_site_type_symbol
_atom_site_label
_atom_site_fract_x
_atom_site_fract_y
_atom_site_fract_z
Si Si1 0.651675 0.619703 0.639575
Si Si2 0.072665 0.307856 0.015362
Si Si3 0.467935 0.195847 0.340123
Si Si4 0.138554 0.304906 0.323329
Si Si5 0.252175 0.884554 0.296999
Si Si6 0.320375 0.614961 0.101841
O O1 0.620433 0.500000 0.661080
O O2 0.580432 0.703321 0.666367
O O3 0.737854 0.630515 0.457062
O O4 0.674084 0.634160 0.757380
O O5 0.013671 0.364994 0.180104
O O6 0.148050 0.369688 0.861282
O O7 0.123511 0.208041 0.015558
O O8 0.000000 0.265758 0.000000
O O9 0.397356 0.147814 0.510687
O O10 0.553719 0.218041 0.332143
O O11 0.188987 0.198872 0.301764
O O12 0.215842 0.374533 0.181187
O O13 0.221751 0.000000 0.301527
O O14 0.354121 0.500000 0.040073
#
# Coordination Sequence:
#
# PCOD9200252 Si02
#       6
#     8   8   8   8   8   8
#     4   9  18  34  59  83 109 145 189 233 269 323
#     4  11  22  34  56  83 114 144 176 237 285 324
#     4  10  20  37  55  84 112 144 187 224 279 327
#     4   9  21  38  60  78 110 153 185 226 268 334
#     4   9  20  36  54  80 111 147 186 221 273 333
#     4  10  21  37  57  84 112 147 188 227 277 329
#
# _framework density 22.601203999999999
#
# number of rings (size 3 to 8) (size 9 to 14) (size 15 to 20)
#    0.000    2.333    1.667    0.000    2.333    6.667 
#    0.000    8.333    0.000    0.000    0.000    0.000 
#    0.000    0.000    0.000    0.000    0.000    0.000 
#
# Total GULP energy -133881.294769 kJ/mol
# GULP energy per Si atom -5578.387282 kJ/mol
# Density = 2.254976 g / cm^3
# Si number density = 22.601204 Si / 1000 Ang^3
#
#
#
# Elastic Constant Matrix: (Units=GPa)
#
#
# Indices 1 2 3 4 5 6 
#
# 1 58.6433 -5.2894 3.3027 0.0000 -18.3904 0.0000
# 2 -5.2894 54.4427 -10.7290 0.0000 3.4995 0.0000
# 3 3.3027 -10.7290 116.6524 0.0000 -3.7210 0.0000
# 4 0.0000 0.0000 0.0000 8.8278 0.0000 0.1861
# 5 -18.3904 3.4995 -3.7210 0.0000 24.4214 0.0000
# 6 0.0000 0.0000 0.0000 0.1861 0.0000 2.4388
#
#
#
# Elastic Compliance Matrix: (Units=1/GPa)
#
#
# Indices 1 2 3 4 5 6 
#
# 1 0.022389 0.001102 0.000000 0.000000 0.016702 0.000000
# 2 0.001102 0.018906 0.001656 0.000000 -0.001627 0.000000
# 3 0.000000 0.001656 0.008760 0.000000 0.001098 0.000000
# 4 0.000000 0.000000 0.000000 0.113461 0.000000 -0.008660
# 5 0.016702 -0.001627 0.001098 0.000000 0.053926 0.000000
# 6 0.000000 0.000000 0.000000 -0.008660 0.000000 0.410691
#
#
# Mechanical properties :
#
#
# Convention : Reuss Voigt Hill
#
# Bulk Modulus (GPa) = 17.99521 22.70079 20.34800
# Shear Modulus (GPa) = 7.79859 23.30120 15.54990
#
# Velocity S-wave (km/s) = 1.85957 3.21436 2.62584
# Velocity P-wave (km/s) = 3.54824 4.88283 4.26802
#
# Compressibility (1/GPa) = 0.05557033
#
# Stress axis : x y z
#
# Youngs Moduli (GPa) = 44.66387 52.89368 114.15823
#
# Poissons Ratio (x) = -0.05827 -0.00002
# Poissons Ratio (y) = -0.04921 -0.18902
# Poissons Ratio (z) = -0.00001 -0.08758
#
# Static dielectric constant tensor:
#      x y z
#    x 1.839210 0.000000 0.034740 
#    y 0.000000 1.844710 0.000000 
#    z 0.034740 0.000000 1.920520 
# 
# From -- ./inp_files/167523.got.cif
#   From: 2010.05.17/outbox.cif.g08.bks.cpg/sg12_84_cif.got.tgz:167523.got - 2010.06.03 13:09:07.
