data_PCOD9200870
_publ_section_title
;
Structure prediction by ZEFSAII (Michael W. Deem and Ramdas Pophale) SiO2 
 PCOD9200870
Probable space group: C 2/M
;
_chemical_formula_sum "Si O2"
_cell_formula_units_Z 44
_cell_length_a 8.254310
_cell_length_b 22.139231
_cell_length_c 13.089111
_cell_angle_alpha 90.000000
_cell_angle_beta 108.657525
_cell_angle_gamma 90.000000
_cell_volume 2266.254618
_symmetry_space_group_name_H-M "C 2/M"
_symmetry_group_IT_number 12
_symmetry_cell_setting 'monoclinic'
loop_
_space_group_symop_operation_xyz
x,y,z
-x,y,-z
-x,-y,-z
x,-y,z
1/2+x,1/2+y,z
1/2-x,1/2+y,-z
1/2-x,1/2-y,-z
1/2+x,1/2-y,z
loop_
_atom_site_type_symbol
_atom_site_label
_atom_site_fract_x
_atom_site_fract_y
_atom_site_fract_z
Si Si1 0.054769 0.069887 0.798498
Si Si2 0.000000 0.860102 0.000000
Si Si3 0.846867 0.746613 0.722290
Si Si4 0.339085 0.180307 0.151156
Si Si5 0.035547 0.568904 0.124410
Si Si6 0.531506 0.334459 0.622804
O O1 0.260625 0.070750 0.825120
O O2 0.990839 0.111897 0.693388
O O3 0.009517 0.099529 0.898941
O O4 0.999084 0.000000 0.783964
O O5 0.178286 0.823241 0.042228
O O6 0.741660 0.797775 0.759516
O O7 0.724983 0.689829 0.677663
O O8 0.003192 0.726848 0.828230
O O9 0.919207 0.776699 0.634773
O O10 0.428574 0.115222 0.170114
O O11 0.977077 0.500000 0.127512
O O12 0.000000 0.586577 0.000000
O O13 0.500000 0.351111 0.500000
#
# Coordination Sequence:
#
# PCOD9200870 Si02
#       6
#     8   4   8   8   8   8
#     4  11  23  40  62  93 124 158 204 250 305 362
#     4  12  23  38  62  94 126 164 199 244 298 372
#     4  10  23  41  60  90 122 159 204 255 299 363
#     4  11  22  39  59  88 126 159 201 243 306 355
#     4  10  20  37  60  84 119 163 203 244 298 364
#     4  11  22  42  66  89 117 160 209 257 306 355
#
# _framework density 19.415296000000001
#
# number of rings (size 3 to 8) (size 9 to 14) (size 15 to 20)
#    0.000    1.273    5.455    0.818    0.000    1.818 
#    1.636    0.000    0.000    0.000    0.000    3.818 
#    0.000    0.000    0.000    0.000    0.000    0.000 
#
# Total GULP energy -122713.561375 kJ/mol
# GULP energy per Si atom -5577.889153 kJ/mol
# Density = 1.937111 g / cm^3
# Si number density = 19.415296 Si / 1000 Ang^3
#
#
#
# Elastic Constant Matrix: (Units=GPa)
#
#
# Indices 1 2 3 4 5 6 
#
# 1 83.1918 37.7803 27.9029 0.0000 -1.2266 0.0000
# 2 37.7803 67.5205 69.9664 0.0000 -14.3406 0.0000
# 3 27.9029 69.9664 110.3234 0.0000 -16.1411 0.0000
# 4 0.0000 0.0000 0.0000 14.1071 0.0000 2.1654
# 5 -1.2266 -14.3406 -16.1411 0.0000 19.2275 0.0000
# 6 0.0000 0.0000 0.0000 2.1654 0.0000 24.5558
#
#
#
# Elastic Compliance Matrix: (Units=1/GPa)
#
#
# Indices 1 2 3 4 5 6 
#
# 1 0.017807 -0.016705 0.005055 0.000000 -0.007080 0.000000
# 2 -0.016705 0.060819 -0.031767 0.000000 0.017628 0.000000
# 3 0.005055 -0.031767 0.027945 0.000000 0.000089 0.000000
# 4 0.000000 0.000000 0.000000 0.071859 0.000000 -0.006337
# 5 -0.007080 0.017628 0.000089 0.000000 0.064779 0.000000
# 6 0.000000 0.000000 0.000000 -0.006337 0.000000 0.041282
#
#
# Mechanical properties :
#
#
# Convention : Reuss Voigt Hill
#
# Bulk Modulus (GPa) = 50.66762 59.14831 54.90797
# Shear Modulus (GPa) = 13.23077 19.93713 16.58395
#
# Velocity S-wave (km/s) = 2.61331 3.20797 2.92579
# Velocity P-wave (km/s) = 5.93795 6.65225 6.30522
#
# Compressibility (1/GPa) = 0.01973647
#
# Stress axis : x y z
#
# Youngs Moduli (GPa) = 56.15728 16.44212 35.78424
#
# Poissons Ratio (x) = 0.27467 -0.18088
# Poissons Ratio (y) = 0.93813 1.13676
# Poissons Ratio (z) = -0.28387 0.52232
#
# Static dielectric constant tensor:
#      x y z
#    x 1.722130 0.000000 0.026220 
#    y 0.000000 1.692020 0.000000 
#    z 0.026220 0.000000 1.656630 
# 
# From -- ./inp_files/120824.got.cif
#   From: 2010.05.17/outbox.cif.g08.bks.cpg/sg12_61_cif.got.tgz:120824.got - 2010.06.03 13:09:07.
