data_PCOD9200259
_publ_section_title
;
Structure prediction by ZEFSAII (Michael W. Deem and Ramdas Pophale) SiO2 
 PCOD9200259
Probable space group: C 2/M
;
_chemical_formula_sum "Si O2"
_cell_formula_units_Z 64
_cell_length_a 15.488737
_cell_length_b 32.102589
_cell_length_c 8.816984
_cell_angle_alpha 90.000000
_cell_angle_beta 58.591433
_cell_angle_gamma 90.000000
_cell_volume 3741.673128
_symmetry_space_group_name_H-M "C 2/M"
_symmetry_group_IT_number 12
_symmetry_cell_setting 'monoclinic'
loop_
_space_group_symop_operation_xyz
x,y,z
-x,y,-z
-x,-y,-z
x,-y,z
1/2+x,1/2+y,z
1/2-x,1/2+y,-z
1/2-x,1/2-y,-z
1/2+x,1/2-y,z
loop_
_atom_site_type_symbol
_atom_site_label
_atom_site_fract_x
_atom_site_fract_y
_atom_site_fract_z
Si Si1 0.849307 0.368904 0.477107
Si Si2 0.206263 0.628933 0.124910
Si Si3 0.113534 0.452979 0.703719
Si Si4 0.608816 0.317825 0.986693
Si Si5 0.874288 0.453149 0.943637
Si Si6 0.005084 0.234099 0.318552
Si Si7 0.971349 0.676049 0.850500
Si Si8 0.701603 0.707091 0.599358
O O1 0.844235 0.369780 0.662696
O O2 0.831258 0.415072 0.429449
O O3 0.769524 0.333035 0.502884
O O4 0.955778 0.353850 0.312884
O O5 0.322783 0.642192 0.039091
O O6 0.189443 0.583586 0.070879
O O7 0.142944 0.661786 0.080502
O O8 0.143358 0.500000 0.630342
O O9 0.992415 0.449095 0.788797
O O10 0.128069 0.449433 0.871590
O O11 0.676397 0.292566 0.801985
O O12 0.500000 0.324573 0.000000
O O13 0.592096 0.292473 0.156986
O O14 0.841482 0.500000 0.933015
O O15 0.004989 0.277277 0.226279
O O16 0.000000 0.244496 0.500000
O O17 0.906075 0.206217 0.382363
O O18 0.000000 0.671590 0.000000
O O19 0.750000 0.750000 0.500000
#
# Coordination Sequence:
#
# PCOD9200259 Si02
#       8
#     8   8   8   8   8   8   8   8
#     4  11  21  33  53  80 110 145 187 227 266 322
#     4  11  22  35  56  82 107 142 187 226 271 332
#     4   9  18  33  51  77 116 153 179 215 269 329
#     4   9  22  42  56  75 107 146 182 231 286 319
#     4   9  18  33  52  77 112 148 181 218 271 332
#     4  11  23  38  55  77 106 142 191 238 269 319
#     4  12  23  34  51  77 115 148 181 223 273 330
#     4  10  20  37  56  74 110 150 181 223 275 325
#
# _framework density 17.104647
#
# number of rings (size 3 to 8) (size 9 to 14) (size 15 to 20)
#    0.000    1.750    2.500    3.750    1.750    3.000 
#    0.000    1.250    0.000    0.375    0.000    2.625 
#    0.000   19.000    0.000    0.000    0.000    0.000 
#
# Total GULP energy -178412.218557 kJ/mol
# GULP energy per Si atom -5575.381830 kJ/mol
# Density = 1.706572 g / cm^3
# Si number density = 17.104647 Si / 1000 Ang^3
#
#
#
# Elastic Constant Matrix: (Units=GPa)
#
#
# Indices 1 2 3 4 5 6 
#
# 1 49.6495 49.9502 23.0479 0.0000 -0.4139 0.0000
# 2 49.9502 135.3459 42.3061 0.0000 1.0374 0.0000
# 3 23.0479 42.3061 66.9386 0.0000 -0.5590 0.0000
# 4 0.0000 0.0000 0.0000 23.6669 0.0000 6.7558
# 5 -0.4139 1.0374 -0.5590 0.0000 18.3162 0.0000
# 6 0.0000 0.0000 0.0000 6.7558 0.0000 26.3417
#
#
#
# Elastic Compliance Matrix: (Units=1/GPa)
#
#
# Indices 1 2 3 4 5 6 
#
# 1 0.033155 -0.010817 -0.004569 0.000000 0.001222 0.000000
# 2 -0.010817 0.012746 -0.004340 0.000000 -0.001099 0.000000
# 3 -0.004569 -0.004340 0.019261 0.000000 0.000730 0.000000
# 4 0.000000 0.000000 0.000000 0.045591 0.000000 -0.011693
# 5 0.001222 -0.001099 0.000730 0.000000 0.054709 0.000000
# 6 0.000000 0.000000 0.000000 -0.011693 0.000000 0.040961
#
#
# Mechanical properties :
#
#
# Convention : Reuss Voigt Hill
#
# Bulk Modulus (GPa) = 38.89604 53.61583 46.25594
# Shear Modulus (GPa) = 19.65059 22.77362 21.21210
#
# Velocity S-wave (km/s) = 3.39314 3.65283 3.52538
# Velocity P-wave (km/s) = 6.17581 7.01461 6.60853
#
# Compressibility (1/GPa) = 0.02570956
#
# Stress axis : x y z
#
# Youngs Moduli (GPa) = 30.16123 78.45765 51.91761
#
# Poissons Ratio (x) = 0.84870 0.23720
# Poissons Ratio (y) = 0.32626 0.22533
# Poissons Ratio (z) = 0.13780 0.34051
#
# Static dielectric constant tensor:
#      x y z
#    x 1.606550 0.000000 -0.001670 
#    y 0.000000 1.587750 0.000000 
#    z -0.001670 0.000000 1.606300 
# 
# From -- ./inp_files/68238.got.cif
#   From: 2010.05.17/outbox.cif.g08.bks.cpg/sg12_35_cif.got.tgz:68238.got - 2010.06.03 13:09:07.
