data_PCOD9200227
_publ_section_title
;
Structure prediction by ZEFSAII (Michael W. Deem and Ramdas Pophale) SiO2 
 PCOD9200227
Probable space group: C 2/M
;
_chemical_formula_sum "Si O2"
_cell_formula_units_Z 64
_cell_length_a 12.688455
_cell_length_b 25.555288
_cell_length_c 26.442458
_cell_angle_alpha 90.000000
_cell_angle_beta 153.712442
_cell_angle_gamma 90.000000
_cell_volume 3797.291942
_symmetry_space_group_name_H-M "C 2/M"
_symmetry_group_IT_number 12
_symmetry_cell_setting 'monoclinic'
loop_
_space_group_symop_operation_xyz
x,y,z
-x,y,-z
-x,-y,-z
x,-y,z
1/2+x,1/2+y,z
1/2-x,1/2+y,-z
1/2-x,1/2-y,-z
1/2+x,1/2-y,z
loop_
_atom_site_type_symbol
_atom_site_label
_atom_site_fract_x
_atom_site_fract_y
_atom_site_fract_z
Si Si1 0.936088 0.722472 0.302165
Si Si2 0.865070 0.169221 0.653138
Si Si3 0.219847 0.135375 0.883540
Si Si4 0.918323 0.756347 0.120461
Si Si5 0.767396 0.056621 0.864610
Si Si6 0.507351 0.854902 0.419404
Si Si7 0.282619 0.165618 0.134452
Si Si8 0.347117 0.437746 0.779472
O O1 0.690806 0.739334 0.222523
O O2 0.061616 0.685401 0.397397
O O3 0.845744 0.688687 0.216013
O O4 0.078678 0.772745 0.343295
O O5 0.684604 0.169876 0.623533
O O6 0.737222 0.137399 0.553324
O O7 0.099644 0.142103 0.776687
O O8 0.170251 0.191751 0.888462
O O9 0.075074 0.091756 0.853178
O O10 0.500000 0.125580 0.000000
O O11 0.894050 0.704877 0.143116
O O12 0.750000 0.750000 0.000000
O O13 0.629007 0.106106 0.826850
O O14 0.841064 0.067794 0.838009
O O15 0.646326 0.000000 0.813489
O O16 0.000000 0.053163 0.000000
O O17 0.377915 0.905931 0.340545
O O18 0.000000 0.165568 0.000000
O O19 0.344134 0.500000 0.767048
#
# Coordination Sequence:
#
# PCOD9200227 Si02
#       8
#     8   8   8   8   8   8   8   8
#     4  12  18  33  49  76 108 143 177 219 271 324
#     4  10  21  35  52  76 108 142 176 221 270 325
#     4  11  21  37  51  77 113 144 174 223 276 328
#     4  12  21  30  49  77 113 148 181 214 266 334
#     4   9  18  32  50  75 106 135 174 227 267 308
#     4  10  20  37  54  76 106 140 182 226 271 319
#     4  11  19  29  48  77 107 142 181 215 264 329
#     4  10  20  37  59  81 104 140 185 226 273 323
#
# _framework density 16.854116000000001
#
# number of rings (size 3 to 8) (size 9 to 14) (size 15 to 20)
#    0.000    1.375    6.250    1.500    1.750    0.250 
#    0.000    5.000    0.000    0.000    0.000    0.875 
#    0.000    2.000    0.000    0.000    0.000    0.000 
#
# Total GULP energy -178337.066048 kJ/mol
# GULP energy per Si atom -5573.033314 kJ/mol
# Density = 1.681576 g / cm^3
# Si number density = 16.854116 Si / 1000 Ang^3
#
#
#
# Elastic Constant Matrix: (Units=GPa)
#
#
# Indices 1 2 3 4 5 6 
#
# 1 52.8350 49.2636 33.3763 0.0018 -24.0846 0.0002
# 2 49.2636 139.4381 33.2321 0.0061 -10.8339 -0.0028
# 3 33.3763 33.2321 114.9390 0.0300 -25.8716 -0.0098
# 4 0.0018 0.0061 0.0300 14.8110 0.0032 -0.9421
# 5 -24.0846 -10.8339 -25.8716 0.0032 28.7402 -0.0012
# 6 0.0002 -0.0028 -0.0098 -0.9421 -0.0012 22.5596
#
#
#
# Elastic Compliance Matrix: (Units=1/GPa)
#
#
# Indices 1 2 3 4 5 6 
#
# 1 0.048860 -0.014049 -0.002636 -0.000002 0.033276 -0.000002
# 2 -0.014049 0.011771 -0.001223 0.000001 -0.008436 0.000001
# 3 -0.002636 -0.001223 0.011561 -0.000024 0.007737 0.000004
# 4 -0.000002 0.000001 -0.000024 0.067697 -0.000030 0.002827
# 5 0.033276 -0.008436 0.007737 -0.000030 0.066465 0.000004
# 6 -0.000002 0.000001 0.000004 0.002827 0.000004 0.044445
#
#
# Mechanical properties :
#
#
# Convention : Reuss Voigt Hill
#
# Bulk Modulus (GPa) = 27.49002 59.88403 43.68702
# Shear Modulus (GPa) = 16.73699 25.97818 21.35758
#
# Velocity S-wave (km/s) = 3.15469 3.93027 3.56364
# Velocity P-wave (km/s) = 5.44200 7.49693 6.55055
#
# Compressibility (1/GPa) = 0.03637684
#
# Stress axis : x y z
#
# Youngs Moduli (GPa) = 20.46666 84.95493 86.49935
#
# Poissons Ratio (x) = 1.19349 0.22802
# Poissons Ratio (y) = 0.28753 0.10577
# Poissons Ratio (z) = 0.05395 0.10388
#
# Static dielectric constant tensor:
#      x y z
#    x 1.560700 0.000000 -0.025900 
#    y 0.000000 1.594820 -0.000010 
#    z -0.025900 -0.000010 1.602820 
# 
# From -- ./inp_files/337078.got.cif
#   From: 2010.05.17/outbox.cif.g08.bks.cpg/sg12_169_cif.got.tgz:337078.got - 2010.06.03 13:09:07.
