data_PCOD9200728
_publ_section_title
;
Structure prediction by ZEFSAII (Michael W. Deem and Ramdas Pophale) SiO2 
 PCOD9200728
Probable space group: C 2/M
;
_chemical_formula_sum "Si O2"
_cell_formula_units_Z 64
_cell_length_a 31.329605
_cell_length_b 13.572764
_cell_length_c 14.276548
_cell_angle_alpha 90.000000
_cell_angle_beta 34.411674
_cell_angle_gamma 90.000000
_cell_volume 3430.826178
_symmetry_space_group_name_H-M "C 2/M"
_symmetry_group_IT_number 12
_symmetry_cell_setting 'monoclinic'
loop_
_space_group_symop_operation_xyz
x,y,z
-x,y,-z
-x,-y,-z
x,-y,z
1/2+x,1/2+y,z
1/2-x,1/2+y,-z
1/2-x,1/2-y,-z
1/2+x,1/2-y,z
loop_
_atom_site_type_symbol
_atom_site_label
_atom_site_fract_x
_atom_site_fract_y
_atom_site_fract_z
Si Si1 0.303122 0.719009 0.490131
Si Si2 0.775260 0.882668 0.901269
Si Si3 0.298876 0.119668 0.164454
Si Si4 0.044403 0.730414 0.152936
Si Si5 0.111081 0.383236 0.548643
Si Si6 0.360197 0.884562 0.719398
Si Si7 0.962037 0.886611 0.170745
Si Si8 0.430792 0.710856 0.681806
O O1 0.250000 0.750000 0.500000
O O2 0.253499 0.659653 0.656644
O O3 0.338320 0.816743 0.474659
O O4 0.376273 0.654888 0.326826
O O5 0.740528 0.853619 0.863769
O O6 0.855693 0.840238 0.781239
O O7 0.781195 0.000000 0.886843
O O8 0.718284 0.858268 0.088647
O O9 0.306956 0.000000 0.154382
O O10 0.380174 0.174097 0.017134
O O11 0.059315 0.782934 0.225563
O O12 0.975574 0.652792 0.287637
O O13 0.012981 0.814488 0.141289
O O14 0.117457 0.500000 0.555093
O O15 0.137332 0.362476 0.394715
O O16 0.421416 0.822913 0.664201
O O17 0.373008 0.000000 0.708420
O O18 0.961676 0.000000 0.205184
O O19 0.000000 0.885142 0.000000
O O20 0.500000 0.665273 0.500000
#
# Coordination Sequence:
#
# PCOD9200728 Si02
#       8
#     8   8   8   8   8   8   8   8
#     4  11  24  42  66  94 122 154 204 252 311 366
#     4  10  23  39  58  86 124 166 204 244 294 357
#     4  11  23  40  64  91 123 162 203 250 305 363
#     4  11  23  38  63  92 124 159 207 252 301 359
#     4  10  22  39  62  91 126 161 203 252 301 356
#     4  10  20  37  59  87 121 162 204 243 290 349
#     4  10  23  46  68  88 119 159 200 252 312 370
#     4  12  23  36  58  87 124 167 203 244 294 347
#
# _framework density 18.654399000000002
#
# number of rings (size 3 to 8) (size 9 to 14) (size 15 to 20)
#    0.000    1.375    2.500    2.625    3.500    2.500 
#    0.000    0.625    0.000    4.125    0.000    0.000 
#    0.000    0.000    0.000    0.000    0.000    0.000 
#
# Total GULP energy -178714.377799 kJ/mol
# GULP energy per Si atom -5584.824306 kJ/mol
# Density = 1.861194 g / cm^3
# Si number density = 18.654399 Si / 1000 Ang^3
#
#
#
# Elastic Constant Matrix: (Units=GPa)
#
#
# Indices 1 2 3 4 5 6 
#
# 1 132.6777 60.5314 76.4969 0.0000 -11.1856 0.0000
# 2 60.5314 89.1338 63.8133 0.0000 -0.4438 0.0000
# 3 76.4969 63.8133 164.5596 0.0000 -14.2464 0.0000
# 4 0.0000 0.0000 0.0000 23.7150 0.0000 4.7759
# 5 -11.1856 -0.4438 -14.2464 0.0000 30.2183 0.0000
# 6 0.0000 0.0000 0.0000 4.7759 0.0000 22.2758
#
#
#
# Elastic Compliance Matrix: (Units=1/GPa)
#
#
# Indices 1 2 3 4 5 6 
#
# 1 0.012406 -0.006187 -0.003105 0.000000 0.003038 0.000000
# 2 -0.006187 0.018834 -0.004798 0.000000 -0.004275 0.000000
# 3 -0.003105 -0.004798 0.009670 0.000000 0.003339 0.000000
# 4 0.000000 0.000000 0.000000 0.044070 0.000000 -0.009449
# 5 0.003038 -0.004275 0.003339 0.000000 0.035728 0.000000
# 6 0.000000 0.000000 0.000000 -0.009449 0.000000 0.046918
#
#
# Mechanical properties :
#
#
# Convention : Reuss Voigt Hill
#
# Bulk Modulus (GPa) = 78.54930 87.56158 83.05544
# Shear Modulus (GPa) = 24.99395 27.61045 26.30220
#
# Velocity S-wave (km/s) = 3.66436 3.85139 3.75903
# Velocity P-wave (km/s) = 7.75257 8.17425 7.96620
#
# Compressibility (1/GPa) = 0.01273086
#
# Stress axis : x y z
#
# Youngs Moduli (GPa) = 80.60631 53.09496 103.41664
#
# Poissons Ratio (x) = 0.32850 0.32109
# Poissons Ratio (y) = 0.49871 0.49615
# Poissons Ratio (z) = 0.25027 0.25473
#
# Static dielectric constant tensor:
#      x y z
#    x 1.603880 0.000000 0.027770 
#    y 0.000000 1.636300 0.000000 
#    z 0.027770 0.000000 1.534550 
# 
# From -- ./inp_files/183775.got.cif
#   From: 2010.05.17/outbox.cif.g08.bks.cpg/sg12_92_cif.got.tgz:183775.got - 2010.06.03 13:09:07.
