data_PCOD9200113
_publ_section_title
;
Structure prediction by ZEFSAII (Michael W. Deem and Ramdas Pophale) SiO2 
 PCOD9200113
Probable space group: C 2/M
;
_chemical_formula_sum "Si O2"
_cell_formula_units_Z 56
_cell_length_a 23.833690
_cell_length_b 12.547481
_cell_length_c 9.498576
_cell_angle_alpha 90.000000
_cell_angle_beta 73.582295
_cell_angle_gamma 90.000000
_cell_volume 2724.755800
_symmetry_space_group_name_H-M "C 2/M"
_symmetry_group_IT_number 12
_symmetry_cell_setting 'monoclinic'
loop_
_space_group_symop_operation_xyz
x,y,z
-x,y,-z
-x,-y,-z
x,-y,z
1/2+x,1/2+y,z
1/2-x,1/2+y,-z
1/2-x,1/2-y,-z
1/2+x,1/2-y,z
loop_
_atom_site_type_symbol
_atom_site_label
_atom_site_fract_x
_atom_site_fract_y
_atom_site_fract_z
Si Si1 0.317954 0.228036 0.411881
Si Si2 0.611980 0.619766 0.044327
Si Si3 0.081587 0.122745 0.747637
Si Si4 0.397669 0.120526 0.597123
Si Si5 0.797493 0.294069 0.124646
Si Si6 0.024002 0.190338 0.344532
Si Si7 0.213268 0.388137 0.150108
O O1 0.250000 0.250000 0.500000
O O2 0.354986 0.335333 0.348367
O O3 0.355892 0.166449 0.502407
O O4 0.319211 0.167594 0.259933
O O5 0.637337 0.500000 0.034115
O O6 0.572383 0.637523 0.209435
O O7 0.577620 0.624823 0.919854
O O8 0.658205 0.714247 0.988567
O O9 0.032857 0.198689 0.714089
O O10 0.072019 0.000000 0.711293
O O11 0.446730 0.203619 0.610982
O O12 0.354005 0.113408 0.760503
O O13 0.417853 0.000000 0.549101
O O14 0.743704 0.214912 0.192062
O O15 0.780183 0.379827 0.021993
O O16 0.000000 0.130041 0.500000
O O17 0.237935 0.500000 0.188286
#
# Coordination Sequence:
#
# PCOD9200113 Si02
#       7
#     8   8   8   8   8   8   8
#     4  11  22  41  63  92 127 161 206 251 309 367
#     4  10  21  38  62  92 123 162 202 247 316 376
#     4  10  23  42  65  92 126 167 205 252 313 374
#     4  11  24  43  64  88 124 167 207 255 314 367
#     4  10  20  36  64  87 126 159 206 256 301 370
#     4  12  23  41  63  91 124 161 207 262 307 367
#     4  10  20  37  61  89 119 161 205 251 310 367
#
# _framework density 20.552299999999999
#
# number of rings (size 3 to 8) (size 9 to 14) (size 15 to 20)
#    0.000    1.429    4.286    1.286    0.000    4.286 
#    0.000    0.000    0.000    1.714    0.000    0.000 
#    0.000    0.000    0.000    0.000    0.000    0.000 
#
# Total GULP energy -156011.481710 kJ/mol
# GULP energy per Si atom -5571.838632 kJ/mol
# Density = 2.050552 g / cm^3
# Si number density = 20.552300 Si / 1000 Ang^3
#
#
#
# Elastic Constant Matrix: (Units=GPa)
#
#
# Indices 1 2 3 4 5 6 
#
# 1 95.3790 38.5490 31.3741 0.0000 0.0810 0.0000
# 2 38.5490 90.8627 32.5199 0.0000 12.2979 0.0000
# 3 31.3741 32.5199 114.3096 0.0000 0.2984 0.0000
# 4 0.0000 0.0000 0.0000 14.6475 0.0000 1.4294
# 5 0.0810 12.2979 0.2984 0.0000 44.0563 0.0000
# 6 0.0000 0.0000 0.0000 1.4294 0.0000 7.7278
#
#
#
# Elastic Compliance Matrix: (Units=1/GPa)
#
#
# Indices 1 2 3 4 5 6 
#
# 1 0.013236 -0.005013 -0.002211 0.000000 0.001390 0.000000
# 2 -0.005013 0.014682 -0.002790 0.000000 -0.004070 0.000000
# 3 -0.002211 -0.002790 0.010147 0.000000 0.000714 0.000000
# 4 0.000000 0.000000 0.000000 0.069526 0.000000 -0.012860
# 5 0.001390 -0.004070 0.000714 0.000000 0.023827 0.000000
# 6 0.000000 0.000000 0.000000 -0.012860 0.000000 0.131782
#
#
# Mechanical properties :
#
#
# Convention : Reuss Voigt Hill
#
# Bulk Modulus (GPa) = 55.43852 56.15971 55.79912
# Shear Modulus (GPa) = 17.28670 26.49353 21.89012
#
# Velocity S-wave (km/s) = 2.90333 3.59427 3.26712
# Velocity P-wave (km/s) = 6.18644 6.67904 6.43746
#
# Compressibility (1/GPa) = 0.01803800
#
# Stress axis : x y z
#
# Youngs Moduli (GPa) = 75.54951 68.11153 98.55255
#
# Poissons Ratio (x) = 0.34141 0.21785
# Poissons Ratio (y) = 0.37870 0.27500
# Poissons Ratio (z) = 0.16701 0.19006
#
# Static dielectric constant tensor:
#      x y z
#    x 1.771720 0.000000 -0.001500 
#    y 0.000000 1.731390 0.000000 
#    z -0.001500 0.000000 1.751850 
# 
# From -- ./inp_files/96252.got.cif
#   From: 2010.05.17/outbox.cif.g08.bks.cpg/sg12_49_cif.got.tgz:96252.got - 2010.06.03 13:09:07.
