data_PCOD9200940
_publ_section_title
;
Structure prediction by ZEFSAII (Michael W. Deem and Ramdas Pophale) SiO2 
 PCOD9200940
Probable space group: C 2/M
;
_chemical_formula_sum "Si O2"
_cell_formula_units_Z 48
_cell_length_a 29.142119
_cell_length_b 13.300071
_cell_length_c 15.106961
_cell_angle_alpha 90.000000
_cell_angle_beta 19.895044
_cell_angle_gamma 90.000000
_cell_volume 1992.562104
_symmetry_space_group_name_H-M "C 2/M"
_symmetry_group_IT_number 12
_symmetry_cell_setting 'monoclinic'
loop_
_space_group_symop_operation_xyz
x,y,z
-x,y,-z
-x,-y,-z
x,-y,z
1/2+x,1/2+y,z
1/2-x,1/2+y,-z
1/2-x,1/2-y,-z
1/2+x,1/2-y,z
loop_
_atom_site_type_symbol
_atom_site_label
_atom_site_fract_x
_atom_site_fract_y
_atom_site_fract_z
Si Si1 0.769691 0.650727 0.691411
Si Si2 0.850803 0.883914 0.281335
Si Si3 0.364770 0.886805 0.187733
Si Si4 0.945630 0.715204 0.858222
Si Si5 0.862084 0.341016 0.702923
Si Si6 0.231706 0.881827 0.118832
O O1 0.723389 0.612794 0.679503
O O2 0.632759 0.681010 0.990447
O O3 0.843072 0.604602 0.644006
O O4 0.894727 0.724140 0.438640
O O5 0.753202 0.844251 0.535818
O O6 0.873335 0.000000 0.266317
O O7 0.000000 0.836588 0.000000
O O8 0.401238 0.831608 0.032296
O O9 0.327436 0.000000 0.230135
O O10 0.500000 0.891544 0.000000
O O11 0.869275 0.649030 0.922117
O O12 0.858257 0.218033 0.694319
O O13 0.000000 0.367513 0.500000
O O14 0.752188 0.369741 0.976251
O O15 0.196310 0.000000 0.202308
#
# Coordination Sequence:
#
# PCOD9200940 Si02
#       6
#     8   8   8   8   8   8
#     4  11  24  40  63  90 125 169 207 264 324 383
#     4  10  23  42  62  89 126 165 210 267 325 387
#     4  10  20  37  60  86 119 160 209 265 318 377
#     4  11  23  39  61  91 126 167 213 265 321 388
#     4  10  21  42  65  92 135 169 212 278 325 387
#     4  10  22  40  65  96 129 172 220 267 327 392
#
# _framework density 24.089587999999999
#
# number of rings (size 3 to 8) (size 9 to 14) (size 15 to 20)
#    0.000    1.667    3.333    0.500    2.333    3.333 
#    0.000    0.000    0.000    0.000    0.000    0.000 
#    0.000    0.000    0.000    0.000    0.000    0.000 
#
# Total GULP energy -133615.502736 kJ/mol
# GULP energy per Si atom -5567.312614 kJ/mol
# Density = 2.403476 g / cm^3
# Si number density = 24.089588 Si / 1000 Ang^3
#
#
#
# Elastic Constant Matrix: (Units=GPa)
#
#
# Indices 1 2 3 4 5 6 
#
# 1 155.0416 -19.2586 14.9220 0.0000 16.6436 0.0000
# 2 -19.2586 84.5413 -18.3405 0.0000 0.7876 0.0000
# 3 14.9220 -18.3405 114.9366 0.0000 1.3767 0.0000
# 4 0.0000 0.0000 0.0000 0.3398 0.0000 -4.0523
# 5 16.6436 0.7876 1.3767 0.0000 44.1795 0.0000
# 6 0.0000 0.0000 0.0000 -4.0523 0.0000 -17.6728
#
#
#
# Elastic Compliance Matrix: (Units=1/GPa)
#
#
# Indices 1 2 3 4 5 6 
#
# 1 0.006978 0.001475 -0.000639 0.000000 -0.002635 0.000000
# 2 0.001475 0.012568 0.001824 0.000000 -0.000837 0.000000
# 3 -0.000639 0.001824 0.009075 0.000000 -0.000075 0.000000
# 4 0.000000 0.000000 0.000000 0.788056 0.000000 -0.180698
# 5 -0.002635 -0.000837 -0.000075 0.000000 0.023645 0.000000
# 6 0.000000 0.000000 0.000000 -0.180698 0.000000 -0.015151
#
#
# Mechanical properties :
#
#
# Convention : Reuss Voigt Hill
#
# Bulk Modulus (GPa) = 29.46198 34.35169 31.90684
# Shear Modulus (GPa) = 6.01566 30.51573 18.26570
#
# Velocity S-wave (km/s) = 1.58197 3.56302 2.75660
# Velocity P-wave (km/s) = 3.94887 5.58728 4.83794
#
# Compressibility (1/GPa) = 0.03394205
#
# Stress axis : x y z
#
# Youngs Moduli (GPa) = 143.31757 79.56629 110.18875
#
# Poissons Ratio (x) = -0.11740 0.07040
# Poissons Ratio (y) = -0.21146 -0.20098
# Poissons Ratio (z) = 0.09156 -0.14513
#
# Static dielectric constant tensor:
#      x y z
#    x 1.930490 0.000000 -0.035550 
#    y 0.000000 2.062210 0.000000 
#    z -0.035550 0.000000 1.966800 
# 
# From -- ./inp_files/251424.got.cif
#   From: 2010.05.17/outbox.cif.g08.bks.cpg/sg12_126_cif.got.tgz:251424.got - 2010.06.03 13:09:07.
