data_PCOD9200080
_publ_section_title
;
Structure prediction by ZEFSAII (Michael W. Deem and Ramdas Pophale) SiO2 
 PCOD9200080
Probable space group: C 2/M
;
_chemical_formula_sum "Si O2"
_cell_formula_units_Z 50
_cell_length_a 11.626327
_cell_length_b 21.326559
_cell_length_c 16.434584
_cell_angle_alpha 90.000000
_cell_angle_beta 143.329930
_cell_angle_gamma 90.000000
_cell_volume 2433.584171
_symmetry_space_group_name_H-M "C 2/M"
_symmetry_group_IT_number 12
_symmetry_cell_setting 'monoclinic'
loop_
_space_group_symop_operation_xyz
x,y,z
-x,y,-z
-x,-y,-z
x,-y,z
1/2+x,1/2+y,z
1/2-x,1/2+y,-z
1/2-x,1/2-y,-z
1/2+x,1/2-y,z
loop_
_atom_site_type_symbol
_atom_site_label
_atom_site_fract_x
_atom_site_fract_y
_atom_site_fract_z
Si Si1 0.564499 0.622232 0.166770
Si Si2 0.500000 0.000000 0.000000
Si Si3 0.772091 0.425655 0.610985
Si Si4 0.039241 0.747709 0.925271
Si Si5 0.528140 0.574064 0.316162
Si Si6 0.829940 0.615775 0.810797
Si Si7 0.724635 0.074422 0.873736
O O1 0.578987 0.696708 0.185531
O O2 0.612864 0.585631 0.275808
O O3 0.688274 0.597349 0.161966
O O4 0.345418 0.607364 0.013534
O O5 0.458031 0.055618 0.907399
O O6 0.743240 0.500000 0.601920
O O7 0.674473 0.408419 0.470783
O O8 0.707869 0.396165 0.659393
O O9 0.999485 0.412033 0.742437
O O10 0.950285 0.678542 0.869619
O O11 0.250000 0.750000 0.000000
O O12 0.000000 0.763555 0.000000
O O13 0.470858 0.500000 0.291415
O O14 0.335158 0.615490 0.213931
O O15 0.753724 0.000000 0.898809
#
# Coordination Sequence:
#
# PCOD9200080 Si02
#       7
#     8   2   8   8   8   8   8
#     4  11  22  39  62  95 130 170 222 268 330 393
#     4  12  24  36  66 108 126 160 216 296 338 392
#     4  10  22  39  63  93 133 170 211 268 340 398
#     4  12  25  42  66  97 136 178 220 276 341 405
#     4  11  23  41  67  97 132 174 217 276 336 400
#     4  12  24  39  64  96 133 165 217 276 337 395
#     4  10  20  36  63  94 125 162 212 275 324 385
#
# _framework density 20.545829000000001
#
# number of rings (size 3 to 8) (size 9 to 14) (size 15 to 20)
#    0.000    0.960    4.000    4.320    2.240    1.920 
#    0.000    3.200    3.520    0.000    0.000    0.000 
#    0.000    0.000    0.000    0.000    0.000    0.000 
#
# Total GULP energy -139301.646942 kJ/mol
# GULP energy per Si atom -5572.065878 kJ/mol
# Density = 2.049907 g / cm^3
# Si number density = 20.545829 Si / 1000 Ang^3
#
#
#
# Elastic Constant Matrix: (Units=GPa)
#
#
# Indices 1 2 3 4 5 6 
#
# 1 62.7321 11.6106 33.4528 -0.0003 -19.6091 -0.0002
# 2 11.6106 103.0703 31.9676 0.0000 4.9639 0.0000
# 3 33.4528 31.9676 89.9053 0.0002 -28.1505 -0.0001
# 4 -0.0003 0.0000 0.0002 7.8574 0.0000 -2.6122
# 5 -19.6091 4.9639 -28.1505 0.0000 31.1098 -0.0001
# 6 -0.0002 0.0000 -0.0001 -2.6122 -0.0001 33.6513
#
#
#
# Elastic Compliance Matrix: (Units=1/GPa)
#
#
# Indices 1 2 3 4 5 6 
#
# 1 0.021681 -0.001554 -0.004407 0.000001 0.009926 0.000000
# 2 -0.001554 0.012359 -0.006615 0.000000 -0.008937 0.000000
# 3 -0.004407 -0.006615 0.020337 -0.000001 0.016681 0.000000
# 4 0.000001 0.000000 -0.000001 0.130640 0.000000 0.010141
# 5 0.009926 -0.008937 0.016681 0.000000 0.054921 0.000000
# 6 0.000000 0.000000 0.000000 0.010141 0.000000 0.030504
#
#
# Mechanical properties :
#
#
# Convention : Reuss Voigt Hill
#
# Bulk Modulus (GPa) = 34.21442 45.52998 39.87220
# Shear Modulus (GPa) = 16.37545 26.43547 21.40546
#
# Velocity S-wave (km/s) = 2.82622 3.59089 3.23126
# Velocity P-wave (km/s) = 5.22866 6.27702 5.77667
#
# Compressibility (1/GPa) = 0.02922744
#
# Stress axis : x y z
#
# Youngs Moduli (GPa) = 46.12298 80.91226 49.17039
#
# Poissons Ratio (x) = 0.12570 0.21669
# Poissons Ratio (y) = 0.07165 0.32524
# Poissons Ratio (z) = 0.20326 0.53521
#
# Static dielectric constant tensor:
#      x y z
#    x 1.833050 0.000000 0.004130 
#    y 0.000000 1.721860 0.000000 
#    z 0.004130 0.000000 1.770050 
# 
# From -- ./inp_files/208666.got.cif
#   From: 2010.05.17/outbox.cif.g08.bks.cpg/sg12_105_cif.got.tgz:208666.got - 2010.06.03 13:09:07.
