data_PCOD9200498
_publ_section_title
;
Structure prediction by ZEFSAII (Michael W. Deem and Ramdas Pophale) SiO2 
 PCOD9200498
Probable space group: C 2/M
;
_chemical_formula_sum "Si O2"
_cell_formula_units_Z 64
_cell_length_a 9.256099
_cell_length_b 23.565899
_cell_length_c 19.370902
_cell_angle_alpha 90.000000
_cell_angle_beta 124.876111
_cell_angle_gamma 90.000000
_cell_volume 3466.429672
_symmetry_space_group_name_H-M "C 2/M"
_symmetry_group_IT_number 12
_symmetry_cell_setting 'monoclinic'
loop_
_space_group_symop_operation_xyz
x,y,z
-x,y,-z
-x,-y,-z
x,-y,z
1/2+x,1/2+y,z
1/2-x,1/2+y,-z
1/2-x,1/2-y,-z
1/2+x,1/2-y,z
loop_
_atom_site_type_symbol
_atom_site_label
_atom_site_fract_x
_atom_site_fract_y
_atom_site_fract_z
Si Si1 0.010437 0.108938 0.144591
Si Si2 0.154205 0.201537 0.085266
Si Si3 0.489415 0.148463 0.828444
Si Si4 0.871628 0.827912 0.688807
Si Si5 0.345656 0.062890 0.902659
Si Si6 0.848584 0.565409 0.401822
Si Si7 0.200165 0.240721 0.735254
Si Si8 0.611527 0.062605 0.745151
O O1 0.044285 0.149649 0.089175
O O2 0.023890 0.148080 0.216258
O O3 0.176640 0.067239 0.193041
O O4 0.828397 0.077494 0.101822
O O5 0.328115 0.177184 0.094752
O O6 0.242846 0.234669 0.173839
O O7 0.000000 0.232999 0.000000
O O8 0.394848 0.109885 0.859639
O O9 0.352927 0.194965 0.764449
O O10 0.541567 0.109576 0.777768
O O11 0.791328 0.883329 0.629698
O O12 0.720466 0.789352 0.683066
O O13 0.010773 0.789307 0.686071
O O14 0.327122 0.000000 0.865804
O O15 0.500000 0.061689 0.000000
O O16 0.777644 0.500000 0.385423
O O17 0.928136 0.572134 0.346321
O O18 0.000000 0.570312 0.500000
O O19 0.552030 0.000000 0.749367
#
# Coordination Sequence:
#
# PCOD9200498 Si02
#       8
#     8   8   8   8   8   8   8   8
#     4   9  18  34  52  74 104 143 191 235 281 340
#     4  10  21  35  52  74 103 147 199 245 296 341
#     4  11  21  35  53  76 111 150 193 244 292 338
#     4  10  20  37  58  84 114 150 188 229 279 339
#     4  11  22  33  48  76 113 150 196 250 297 337
#     4   9  19  38  67  97 120 144 181 231 283 342
#     4  11  21  36  55  80 114 153 193 241 283 341
#     4   9  18  34  58  82 106 143 188 229 276 344
#
# _framework density 18.462800000000001
#
# number of rings (size 3 to 8) (size 9 to 14) (size 15 to 20)
#    0.000    2.000    2.500    2.250    0.000    1.500 
#    0.000    0.625    0.000    6.000    0.000    2.625 
#    0.000    0.000    0.000    0.000    0.000    0.000 
#
# Total GULP energy -178396.753982 kJ/mol
# GULP energy per Si atom -5574.898562 kJ/mol
# Density = 1.842078 g / cm^3
# Si number density = 18.462800 Si / 1000 Ang^3
#
#
#
# Elastic Constant Matrix: (Units=GPa)
#
#
# Indices 1 2 3 4 5 6 
#
# 1 83.6743 41.2484 22.6041 0.0000 8.8925 0.0000
# 2 41.2484 99.2951 22.6725 0.0000 8.3864 0.0000
# 3 22.6041 22.6725 52.7734 0.0000 5.7044 0.0000
# 4 0.0000 0.0000 0.0000 0.6578 0.0000 -25.0690
# 5 8.8925 8.3864 5.7044 0.0000 8.6166 0.0000
# 6 0.0000 0.0000 0.0000 -25.0690 0.0000 -19.0338
#
#
#
# Elastic Compliance Matrix: (Units=1/GPa)
#
#
# Indices 1 2 3 4 5 6 
#
# 1 0.016559 -0.005203 -0.003832 0.000000 -0.009489 0.000000
# 2 -0.005203 0.013378 -0.002900 0.000000 -0.005732 0.000000
# 3 -0.003832 -0.002900 0.022730 0.000000 -0.008271 0.000000
# 4 0.000000 0.000000 0.000000 0.029695 0.000000 -0.039111
# 5 -0.009489 -0.005732 -0.008271 0.000000 0.136903 0.000000
# 6 0.000000 0.000000 0.000000 -0.039111 0.000000 -0.001026
#
#
# Mechanical properties :
#
#
# Convention : Reuss Voigt Hill
#
# Bulk Modulus (GPa) = 34.72275 45.42142 40.07209
# Shear Modulus (GPa) = 19.86428 7.99596 13.93012
#
# Velocity S-wave (km/s) = 3.28366 2.08333 2.74979
# Velocity P-wave (km/s) = 5.76405 5.51743 5.64209
#
# Compressibility (1/GPa) = 0.02879956
#
# Stress axis : x y z
#
# Youngs Moduli (GPa) = 60.38847 74.74724 43.99468
#
# Poissons Ratio (x) = 0.38888 0.16859
# Poissons Ratio (y) = 0.31418 0.12757
# Poissons Ratio (z) = 0.23141 0.21674
#
# Static dielectric constant tensor:
#      x y z
#    x 1.654470 0.000000 -0.008150 
#    y 0.000000 1.691720 0.000000 
#    z -0.008150 0.000000 1.627350 
# 
# From -- ./inp_files/302138.got.cif
#   From: 2010.05.17/outbox.cif.g08.bks.cpg/sg12_152_cif.got.tgz:302138.got - 2010.06.03 13:09:07.
