data_PCOD9200511
_publ_section_title
;
Structure prediction by ZEFSAII (Michael W. Deem and Ramdas Pophale) SiO2 
 PCOD9200511
Probable space group: C 2/M
;
_chemical_formula_sum "Si O2"
_cell_formula_units_Z 58
_cell_length_a 12.368555
_cell_length_b 19.377140
_cell_length_c 15.577789
_cell_angle_alpha 90.000000
_cell_angle_beta 63.943252
_cell_angle_gamma 90.000000
_cell_volume 3354.011810
_symmetry_space_group_name_H-M "C 2/M"
_symmetry_group_IT_number 12
_symmetry_cell_setting 'monoclinic'
loop_
_space_group_symop_operation_xyz
x,y,z
-x,y,-z
-x,-y,-z
x,-y,z
1/2+x,1/2+y,z
1/2-x,1/2+y,-z
1/2-x,1/2-y,-z
1/2+x,1/2-y,z
loop_
_atom_site_type_symbol
_atom_site_label
_atom_site_fract_x
_atom_site_fract_y
_atom_site_fract_z
Si Si1 0.757941 0.165606 0.248021
Si Si2 0.713227 0.345633 0.089514
Si Si3 0.169062 0.676071 0.769570
Si Si4 0.500000 0.500000 0.500000
Si Si5 0.749705 0.076072 0.589986
Si Si6 0.856683 0.581214 0.557492
Si Si7 0.116792 0.310526 0.123353
Si Si8 0.986259 0.919281 0.105531
O O1 0.787251 0.245195 0.257680
O O2 0.694625 0.127674 0.348800
O O3 0.675025 0.164152 0.192033
O O4 0.881324 0.126421 0.182459
O O5 0.772729 0.350174 0.161878
O O6 0.646236 0.271244 0.106387
O O7 0.612353 0.402425 0.106809
O O8 0.814328 0.345408 0.980400
O O9 0.211585 0.628870 0.676300
O O10 0.024925 0.676846 0.828291
O O11 0.391816 0.559106 0.539451
O O12 0.705439 0.098767 0.511553
O O13 0.691339 0.000000 0.626452
O O14 0.830849 0.500000 0.583546
O O15 0.000000 0.589340 0.500000
O O16 0.956652 0.000000 0.122728
O O17 0.000000 0.901376 0.000000
#
# Coordination Sequence:
#
# PCOD9200511 Si02
#       8
#     8   8   8   2   8   8   8   8
#     4  11  22  37  60  93 120 155 205 250 308 351
#     4  10  21  36  59  85 122 168 199 238 297 361
#     4  11  22  37  61  92 117 161 205 247 303 356
#     4   8  20  44  62  80 114 158 198 236 318 368
#     4   9  21  42  60  81 115 154 199 251 299 370
#     4  10  21  40  61  83 112 156 199 246 311 362
#     4  10  20  37  58  84 128 159 197 249 291 358
#     4  11  22  39  61  89 128 160 205 253 293 353
#
# _framework density 17.292722999999999
#
# number of rings (size 3 to 8) (size 9 to 14) (size 15 to 20)
#    0.414    1.379    2.759    1.655    0.000    2.207 
#    3.724    1.379    0.000    1.655    0.000    0.000 
#    0.000    0.000    0.000    0.000    0.000    0.000 
#
# Total GULP energy -161569.233746 kJ/mol
# GULP energy per Si atom -5571.352888 kJ/mol
# Density = 1.725336 g / cm^3
# Si number density = 17.292723 Si / 1000 Ang^3
#
#
#
# Elastic Constant Matrix: (Units=GPa)
#
#
# Indices 1 2 3 4 5 6 
#
# 1 120.3930 40.1701 76.2969 0.0000 -4.1334 0.0000
# 2 40.1701 65.8249 77.7699 0.0000 12.6326 0.0000
# 3 76.2969 77.7699 141.5895 0.0000 14.8328 0.0000
# 4 0.0000 0.0000 0.0000 20.2149 0.0000 9.2058
# 5 -4.1334 12.6326 14.8328 0.0000 23.8079 0.0000
# 6 0.0000 0.0000 0.0000 9.2058 0.0000 17.0621
#
#
#
# Elastic Compliance Matrix: (Units=1/GPa)
#
#
# Indices 1 2 3 4 5 6 
#
# 1 0.013765 -0.000438 -0.007971 0.000000 0.007589 0.000000
# 2 -0.000438 0.045050 -0.023532 0.000000 -0.009319 0.000000
# 3 -0.007971 -0.023532 0.024734 0.000000 -0.004308 0.000000
# 4 0.000000 0.000000 0.000000 0.065583 0.000000 -0.035385
# 5 0.007589 -0.009319 -0.004308 0.000000 0.050949 0.000000
# 6 0.000000 0.000000 0.000000 -0.035385 0.000000 0.077701
#
#
# Mechanical properties :
#
#
# Convention : Reuss Voigt Hill
#
# Bulk Modulus (GPa) = 50.84932 79.58678 65.21805
# Shear Modulus (GPa) = 14.35873 21.12169 17.74021
#
# Velocity S-wave (km/s) = 2.88468 3.49867 3.20641
# Velocity P-wave (km/s) = 6.36899 7.90216 7.17663
#
# Compressibility (1/GPa) = 0.01966595
#
# Stress axis : x y z
#
# Youngs Moduli (GPa) = 72.64967 22.19778 40.42937
#
# Poissons Ratio (x) = 0.00973 0.32228
# Poissons Ratio (y) = 0.03185 0.95137
# Poissons Ratio (z) = 0.57912 0.52235
#
# Static dielectric constant tensor:
#      x y z
#    x 1.575910 0.000000 0.015980 
#    y 0.000000 1.579460 0.000000 
#    z 0.015980 0.000000 1.569510 
# 
# From -- ./inp_files/207652.got.cif
#   From: 2010.05.17/outbox.cif.g08.bks.cpg/sg12_104_cif.got.tgz:207652.got - 2010.06.03 13:09:07.
