data_PCOD9200143
_publ_section_title
;
Structure prediction by ZEFSAII (Michael W. Deem and Ramdas Pophale) SiO2 
 PCOD9200143
Probable space group: C 2/M
;
_chemical_formula_sum "Si O2"
_cell_formula_units_Z 64
_cell_length_a 29.615308
_cell_length_b 13.959221
_cell_length_c 8.719065
_cell_angle_alpha 90.000000
_cell_angle_beta 55.350448
_cell_angle_gamma 90.000000
_cell_volume 2965.239626
_symmetry_space_group_name_H-M "C 2/M"
_symmetry_group_IT_number 12
_symmetry_cell_setting 'monoclinic'
loop_
_space_group_symop_operation_xyz
x,y,z
-x,y,-z
-x,-y,-z
x,-y,z
1/2+x,1/2+y,z
1/2-x,1/2+y,-z
1/2-x,1/2-y,-z
1/2+x,1/2-y,z
loop_
_atom_site_type_symbol
_atom_site_label
_atom_site_fract_x
_atom_site_fract_y
_atom_site_fract_z
Si Si1 0.445681 0.205666 0.804518
Si Si2 0.567602 0.200746 0.533124
Si Si3 0.671191 0.111855 0.500909
Si Si4 0.114744 0.111680 0.579296
Si Si5 0.212034 0.112609 0.888989
Si Si6 0.271208 0.613651 0.793175
Si Si7 0.446010 0.392497 0.996593
Si Si8 0.833520 0.295626 0.163131
O O1 0.507659 0.168113 0.709264
O O2 0.433251 0.196055 0.648877
O O3 0.447978 0.314895 0.860273
O O4 0.393509 0.166079 0.997933
O O5 0.617427 0.141586 0.509696
O O6 0.578523 0.311062 0.559373
O O7 0.726073 0.123222 0.294058
O O8 0.675242 0.177072 0.643864
O O9 0.668170 0.000000 0.552121
O O10 0.177732 0.133533 0.416968
O O11 0.100648 0.122214 0.784742
O O12 0.103981 0.000000 0.558634
O O13 0.173941 0.184663 0.869261
O O14 0.196724 0.000000 0.905142
O O15 0.212104 0.142514 0.067122
O O16 0.263585 0.500000 0.813447
O O17 0.215322 0.657425 0.840567
O O18 0.442960 0.500000 0.941077
O O19 0.500000 0.384622 0.000000
#
# Coordination Sequence:
#
# PCOD9200143 Si02
#       8
#     8   8   8   8   8   8   8   8
#     4  11  25  39  64  91 123 166 214 258 312 373
#     4  11  23  44  63  90 124 164 213 267 310 368
#     4  11  25  44  67  92 122 161 209 267 323 376
#     4  10  20  36  64  95 130 170 205 249 308 370
#     4  10  22  41  65  94 130 168 208 258 314 377
#     4  10  21  39  64  96 131 168 215 261 307 367
#     4  10  20  37  59  89 130 169 202 246 304 367
#     4  12  23  39  63  96 129 167 206 257 317 379
#
# _framework density 21.583414999999999
#
# number of rings (size 3 to 8) (size 9 to 14) (size 15 to 20)
#    0.000    1.375    1.250    4.125    0.000    2.000 
#    0.000    9.375    0.000    0.000    0.000    0.000 
#    0.000    0.000    0.000    0.000    0.000    0.000 
#
# Total GULP energy -178965.633293 kJ/mol
# GULP energy per Si atom -5592.676040 kJ/mol
# Density = 2.153429 g / cm^3
# Si number density = 21.583415 Si / 1000 Ang^3
#
#
#
# Elastic Constant Matrix: (Units=GPa)
#
#
# Indices 1 2 3 4 5 6 
#
# 1 87.4356 19.3014 22.2065 0.0000 -9.2579 0.0000
# 2 19.3014 35.4412 19.8509 0.0000 4.8866 0.0000
# 3 22.2065 19.8509 95.0078 0.0000 -11.7209 0.0000
# 4 0.0000 0.0000 0.0000 26.2419 0.0000 7.7536
# 5 -9.2579 4.8866 -11.7209 0.0000 35.2060 0.0000
# 6 0.0000 0.0000 0.0000 7.7536 0.0000 3.5210
#
#
#
# Elastic Compliance Matrix: (Units=1/GPa)
#
#
# Indices 1 2 3 4 5 6 
#
# 1 0.013835 -0.007489 -0.001138 0.000000 0.004298 0.000000
# 2 -0.007489 0.037725 -0.007321 0.000000 -0.009643 0.000000
# 3 -0.001138 -0.007321 0.012941 0.000000 0.005025 0.000000
# 4 0.000000 0.000000 0.000000 0.109076 0.000000 -0.240194
# 5 0.004298 -0.009643 0.005025 0.000000 0.032546 0.000000
# 6 0.000000 0.000000 0.000000 -0.240194 0.000000 0.812933
#
#
# Mechanical properties :
#
#
# Convention : Reuss Voigt Hill
#
# Bulk Modulus (GPa) = 30.67275 37.84470 34.25872
# Shear Modulus (GPa) = 4.70889 23.42883 14.06886
#
# Velocity S-wave (km/s) = 1.47867 3.29827 2.55588
# Velocity P-wave (km/s) = 4.14215 5.66366 4.96157
#
# Compressibility (1/GPa) = 0.03260223
#
# Stress axis : x y z
#
# Youngs Moduli (GPa) = 72.28284 26.50776 77.27239
#
# Poissons Ratio (x) = 0.19853 0.08797
# Poissons Ratio (y) = 0.54135 0.56574
# Poissons Ratio (z) = 0.08229 0.19407
#
# Static dielectric constant tensor:
#      x y z
#    x 1.775050 0.000000 -0.036590 
#    y 0.000000 1.805580 0.000000 
#    z -0.036590 0.000000 1.786910 
# 
# From -- ./inp_files/111950.got.cif
#   From: 2010.05.17/outbox.cif.g08.bks.cpg/sg12_56_cif.got.tgz:111950.got - 2010.06.03 13:09:07.
