data_PCOD9200790
_publ_section_title
;
Structure prediction by ZEFSAII (Michael W. Deem and Ramdas Pophale) SiO2 
 PCOD9200790
Probable space group: C 2/M
;
_chemical_formula_sum "Si O2"
_cell_formula_units_Z 64
_cell_length_a 20.836351
_cell_length_b 8.663398
_cell_length_c 32.630236
_cell_angle_alpha 90.000000
_cell_angle_beta 142.885304
_cell_angle_gamma 90.000000
_cell_volume 3554.221418
_symmetry_space_group_name_H-M "C 2/M"
_symmetry_group_IT_number 12
_symmetry_cell_setting 'monoclinic'
loop_
_space_group_symop_operation_xyz
x,y,z
-x,y,-z
-x,-y,-z
x,-y,z
1/2+x,1/2+y,z
1/2-x,1/2+y,-z
1/2-x,1/2-y,-z
1/2+x,1/2-y,z
loop_
_atom_site_type_symbol
_atom_site_label
_atom_site_fract_x
_atom_site_fract_y
_atom_site_fract_z
Si Si1 0.339826 0.815250 0.575611
Si Si2 0.266985 0.186665 0.053862
Si Si3 0.589083 0.815274 0.578301
Si Si4 0.307116 0.186369 0.654321
Si Si5 0.041337 0.687428 0.792339
Si Si6 0.687736 0.813751 0.790261
Si Si7 0.879694 0.812017 0.945214
Si Si8 0.059974 0.816719 0.653946
O O1 0.250000 0.750000 0.500000
O O2 0.313802 0.776716 0.609432
O O3 0.453107 0.748550 0.620121
O O4 0.344036 0.000000 0.574473
O O5 0.379844 0.236383 0.131186
O O6 0.176266 0.234771 0.040546
O O7 0.266262 0.000000 0.052220
O O8 0.250000 0.250000 0.000000
O O9 0.500000 0.764385 0.500000
O O10 0.704457 0.762502 0.621743
O O11 0.567249 0.745589 0.611675
O O12 0.584643 0.000000 0.578800
O O13 0.419408 0.237958 0.731177
O O14 0.299117 0.000000 0.654188
O O15 0.040258 0.500000 0.791977
O O16 0.098476 0.730551 0.778678
O O17 0.799962 0.768346 0.867749
O O18 0.657342 0.740238 0.731761
O O19 0.685360 0.000000 0.785278
O O20 0.881303 0.000000 0.946469
O O21 0.000000 0.757581 0.000000
O O22 0.056439 0.000000 0.651647
#
# Coordination Sequence:
#
# PCOD9200790 Si02
#       8
#     8   8   8   8   8   8   8   8
#     4  11  22  37  60  88 116 145 183 230 279 331
#     4   9  17  31  53  78 110 146 181 220 269 324
#     4  11  25  43  60  79 109 147 186 233 287 339
#     4  10  20  37  60  82 109 145 185 226 275 335
#     4   8  15  32  56  79 106 148 185 219 274 332
#     4   9  16  33  59  82 110 148 188 231 279 329
#     4   8  15  30  55  83 109 143 187 229 271 325
#     4  12  24  38  58  84 115 150 190 231 279 338
#
# _framework density 18.006758000000001
#
# number of rings (size 3 to 8) (size 9 to 14) (size 15 to 20)
#    0.000    2.250    1.250    4.125    0.000    4.000 
#    2.250    3.125    0.000    0.750    0.000    0.000 
#    0.000    0.000    0.000    0.000    0.000    0.000 
#
# Total GULP energy -178586.534531 kJ/mol
# GULP energy per Si atom -5580.829204 kJ/mol
# Density = 1.796577 g / cm^3
# Si number density = 18.006758 Si / 1000 Ang^3
#
#
#
# Elastic Constant Matrix: (Units=GPa)
#
#
# Indices 1 2 3 4 5 6 
#
# 1 53.1624 12.9599 32.4924 0.0000 -10.4460 0.0000
# 2 12.9599 22.2553 10.9030 -0.0001 -8.3136 0.0001
# 3 32.4924 10.9030 119.3581 0.0000 -9.1898 0.0000
# 4 0.0000 -0.0001 0.0000 22.7716 0.0000 -4.6225
# 5 -10.4460 -8.3136 -9.1898 0.0000 38.7799 0.0000
# 6 0.0000 0.0001 0.0000 -4.6225 0.0000 25.5060
#
#
#
# Elastic Compliance Matrix: (Units=1/GPa)
#
#
# Indices 1 2 3 4 5 6 
#
# 1 0.025597 -0.010905 -0.005726 0.000000 0.003200 0.000000
# 2 -0.010905 0.055171 -0.001412 0.000000 0.008555 0.000000
# 3 -0.005726 -0.001412 0.010108 0.000000 0.000550 0.000000
# 4 0.000000 0.000000 0.000000 0.045592 0.000000 0.008263
# 5 0.003200 0.008555 0.000550 0.000000 0.028613 0.000000
# 6 0.000000 0.000000 0.000000 0.008263 0.000000 0.040704
#
#
# Mechanical properties :
#
#
# Convention : Reuss Voigt Hill
#
# Bulk Modulus (GPa) = 18.25151 34.16517 26.20834
# Shear Modulus (GPa) = 19.22080 26.63953 22.93016
#
# Velocity S-wave (km/s) = 3.27069 3.85049 3.57237
# Velocity P-wave (km/s) = 4.94177 6.22761 5.62158
#
# Compressibility (1/GPa) = 0.05479000
#
# Stress axis : x y z
#
# Youngs Moduli (GPa) = 39.06702 18.12538 98.92959
#
# Poissons Ratio (x) = 0.19766 0.56643
# Poissons Ratio (y) = 0.42604 0.13972
# Poissons Ratio (z) = 0.22368 0.02560
#
# Static dielectric constant tensor:
#      x y z
#    x 1.580620 0.000000 0.002670 
#    y 0.000000 1.608590 0.000000 
#    z 0.002670 0.000000 1.623130 
# 
# From -- ./inp_files/378497.got.cif
#   From: 2010.05.17/outbox.cif.g08.bks.cpg/sg12_190_cif.got.tgz:378497.got - 2010.06.03 13:09:07.
