data_PCOD9200064
_publ_section_title
;
Structure prediction by ZEFSAII (Michael W. Deem and Ramdas Pophale) SiO2 
 PCOD9200064
Probable space group: C 2/M
;
_chemical_formula_sum "Si O2"
_cell_formula_units_Z 44
_cell_length_a 21.780360
_cell_length_b 14.812514
_cell_length_c 7.561762
_cell_angle_alpha 90.000000
_cell_angle_beta 53.881902
_cell_angle_gamma 90.000000
_cell_volume 1970.709855
_symmetry_space_group_name_H-M "C 2/M"
_symmetry_group_IT_number 12
_symmetry_cell_setting 'monoclinic'
loop_
_space_group_symop_operation_xyz
x,y,z
-x,y,-z
-x,-y,-z
x,-y,z
1/2+x,1/2+y,z
1/2-x,1/2+y,-z
1/2-x,1/2-y,-z
1/2+x,1/2-y,z
loop_
_atom_site_type_symbol
_atom_site_label
_atom_site_fract_x
_atom_site_fract_y
_atom_site_fract_z
Si Si1 0.148857 0.257175 0.363744
Si Si2 0.749045 0.099542 0.790538
Si Si3 0.578449 0.902009 0.044958
Si Si4 0.500000 0.158082 0.500000
Si Si5 0.084365 0.208391 0.850719
Si Si6 0.234175 0.106056 0.664428
O O1 0.203278 0.178364 0.201753
O O2 0.110658 0.216448 0.605013
O O3 0.201413 0.339922 0.338993
O O4 0.076503 0.283869 0.372710
O O5 0.747843 0.114458 0.578189
O O6 0.781604 0.000000 0.766804
O O7 0.661503 0.099600 0.995362
O O8 0.510818 0.897563 0.302256
O O9 0.576734 0.000000 0.953939
O O10 0.577365 0.810672 0.935028
O O11 0.152101 0.153527 0.830035
O O12 0.000000 0.167246 0.000000
O O13 0.232857 0.000000 0.709086
#
# Coordination Sequence:
#
# PCOD9200064 Si02
#       6
#     8   8   8   4   8   8
#     4  11  21  39  62  87 121 155 196 240 290 352
#     4   9  18  37  66  90 112 152 200 245 288 342
#     4  11  22  39  59  86 118 154 196 239 291 348
#     4  12  27  38  55  86 126 162 187 240 297 348
#     4  11  20  39  64  88 116 152 199 243 292 344
#     4  10  20  36  63  93 117 149 196 246 292 343
#
# _framework density 22.326979999999999
#
# number of rings (size 3 to 8) (size 9 to 14) (size 15 to 20)
#    0.000    1.455    5.455    1.364    0.000    2.909 
#    0.000    0.455    0.000    0.000    0.000    0.000 
#    0.000    0.000    0.000    0.000    0.000    0.000 
#
# Total GULP energy -122937.597109 kJ/mol
# GULP energy per Si atom -5588.072596 kJ/mol
# Density = 2.227616 g / cm^3
# Si number density = 22.326980 Si / 1000 Ang^3
#
#
#
# Elastic Constant Matrix: (Units=GPa)
#
#
# Indices 1 2 3 4 5 6 
#
# 1 119.4029 53.9060 8.0873 0.0000 -39.5273 0.0000
# 2 53.9060 121.0849 17.8863 0.0000 -23.3820 0.0000
# 3 8.0873 17.8863 74.7002 0.0000 -19.1955 0.0000
# 4 0.0000 0.0000 0.0000 14.5131 0.0000 -2.0682
# 5 -39.5273 -23.3820 -19.1955 0.0000 38.4583 0.0000
# 6 0.0000 0.0000 0.0000 -2.0682 0.0000 5.5426
#
#
#
# Elastic Compliance Matrix: (Units=1/GPa)
#
#
# Indices 1 2 3 4 5 6 
#
# 1 0.014779 -0.004309 0.003053 0.000000 0.014094 0.000000
# 2 -0.004309 0.010666 -0.001788 0.000000 0.001163 0.000000
# 3 0.003053 -0.001788 0.016073 0.000000 0.010073 0.000000
# 4 0.000000 0.000000 0.000000 0.072773 0.000000 0.027155
# 5 0.014094 0.001163 0.010073 0.000000 0.046223 0.000000
# 6 0.000000 0.000000 0.000000 0.027155 0.000000 0.190554
#
#
# Mechanical properties :
#
#
# Convention : Reuss Voigt Hill
#
# Bulk Modulus (GPa) = 28.22441 52.77193 40.49817
# Shear Modulus (GPa) = 13.55135 27.39002 20.47068
#
# Velocity S-wave (km/s) = 2.46631 3.50632 3.03125
# Velocity P-wave (km/s) = 4.55841 6.33085 5.51628
#
# Compressibility (1/GPa) = 0.03543032
#
# Stress axis : x y z
#
# Youngs Moduli (GPa) = 67.66169 93.75753 62.21602
#
# Poissons Ratio (x) = 0.40400 -0.18998
# Poissons Ratio (y) = 0.29156 0.11127
# Poissons Ratio (z) = -0.20660 0.16768
#
# Static dielectric constant tensor:
#      x y z
#    x 1.891070 0.000000 0.033610 
#    y 0.000000 1.832350 0.000000 
#    z 0.033610 0.000000 1.839080 
# 
# From -- ./inp_files/96129.got.cif
#   From: 2010.05.17/outbox.cif.g08.bks.cpg/sg12_49_cif.got.tgz:96129.got - 2010.06.03 13:09:07.
