data_PCOD9200011
_publ_section_title
;
Structure prediction by ZEFSAII (Michael W. Deem and Ramdas Pophale) SiO2 
 PCOD9200011
Probable space group: C 2/M
;
_chemical_formula_sum "Si O2"
_cell_formula_units_Z 48
_cell_length_a 11.590346
_cell_length_b 23.969931
_cell_length_c 9.107475
_cell_angle_alpha 90.000000
_cell_angle_beta 113.072699
_cell_angle_gamma 90.000000
_cell_volume 2327.838980
_symmetry_space_group_name_H-M "C 2/M"
_symmetry_group_IT_number 12
_symmetry_cell_setting 'monoclinic'
loop_
_space_group_symop_operation_xyz
x,y,z
-x,y,-z
-x,-y,-z
x,-y,z
1/2+x,1/2+y,z
1/2-x,1/2+y,-z
1/2-x,1/2-y,-z
1/2+x,1/2-y,z
loop_
_atom_site_type_symbol
_atom_site_label
_atom_site_fract_x
_atom_site_fract_y
_atom_site_fract_z
Si Si1 0.865197 0.940261 0.854462
Si Si2 0.151514 0.751208 0.592272
Si Si3 0.746075 0.644829 0.824341
Si Si4 0.052939 0.435796 0.194269
Si Si5 0.344827 0.854041 0.187743
Si Si6 0.968724 0.063441 0.319201
O O1 0.777867 0.889876 0.844299
O O2 0.901562 0.938715 0.702886
O O3 0.805406 0.000000 0.865061
O O4 0.000000 0.938989 0.000000
O O5 0.250000 0.750000 0.500000
O O6 0.205709 0.801222 0.716433
O O7 0.151566 0.694845 0.691328
O O8 0.000000 0.761923 0.500000
O O9 0.823418 0.601329 0.762964
O O10 0.623244 0.608129 0.799050
O O11 0.826101 0.663187 0.007190
O O12 0.069248 0.500000 0.251895
O O13 0.959487 0.398015 0.244570
O O14 0.000000 0.438773 0.000000
O O15 0.000000 0.078927 0.500000
O O16 0.915433 0.000000 0.287113
#
# Coordination Sequence:
#
# PCOD9200011 Si02
#       6
#     8   8   8   8   8   8
#     4  10  20  36  62  98 131 163 206 266 324 383
#     4  12  29  48  68  93 132 178 226 284 343 403
#     4  11  22  41  68  94 125 170 224 272 321 391
#     4   9  19  37  65  99 133 169 212 269 333 397
#     4  11  23  41  66  97 127 172 221 274 324 400
#     4  10  21  36  59  95 134 167 205 255 323 388
#
# _framework density 20.619983000000001
#
# number of rings (size 3 to 8) (size 9 to 14) (size 15 to 20)
#    0.000    1.500    1.667    3.000    4.667    1.333 
#    0.000    2.500    0.000    2.000    0.000    0.000 
#    0.000    0.000    0.000    0.000    0.000    0.000 
#
# Total GULP energy -133798.171560 kJ/mol
# GULP energy per Si atom -5574.923815 kJ/mol
# Density = 2.057305 g / cm^3
# Si number density = 20.619983 Si / 1000 Ang^3
#
#
#
# Elastic Constant Matrix: (Units=GPa)
#
#
# Indices 1 2 3 4 5 6 
#
# 1 96.0298 61.0613 32.8063 0.0000 -10.4540 0.0000
# 2 61.0613 154.2033 41.3523 0.0000 -6.1837 0.0000
# 3 32.8063 41.3523 69.5439 0.0000 -15.6594 0.0000
# 4 0.0000 0.0000 0.0000 26.8881 0.0000 4.8485
# 5 -10.4540 -6.1837 -15.6594 0.0000 19.8901 0.0000
# 6 0.0000 0.0000 0.0000 4.8485 0.0000 27.8743
#
#
#
# Elastic Compliance Matrix: (Units=1/GPa)
#
#
# Indices 1 2 3 4 5 6 
#
# 1 0.015102 -0.004933 -0.003341 0.000000 0.003773 0.000000
# 2 -0.004933 0.009362 -0.003851 0.000000 -0.002714 0.000000
# 3 -0.003341 -0.003851 0.021369 0.000000 0.013870 0.000000
# 4 0.000000 0.000000 0.000000 0.038395 0.000000 -0.006678
# 5 0.003773 -0.002714 0.013870 0.000000 0.062336 0.000000
# 6 0.000000 0.000000 0.000000 -0.006678 0.000000 0.037037
#
#
# Mechanical properties :
#
#
# Convention : Reuss Voigt Hill
#
# Bulk Modulus (GPa) = 46.33380 65.57964 55.95672
# Shear Modulus (GPa) = 23.25083 27.23430 25.24257
#
# Velocity S-wave (km/s) = 3.36160 3.63819 3.50262
# Velocity P-wave (km/s) = 6.13076 7.03715 6.59954
#
# Compressibility (1/GPa) = 0.02158252
#
# Stress axis : x y z
#
# Youngs Moduli (GPa) = 66.21501 106.81318 46.79725
#
# Poissons Ratio (x) = 0.52689 0.15637
# Poissons Ratio (y) = 0.32663 0.18022
# Poissons Ratio (z) = 0.22126 0.41134
#
# Static dielectric constant tensor:
#      x y z
#    x 1.837050 0.000000 -0.032430 
#    y 0.000000 1.726120 0.000000 
#    z -0.032430 0.000000 1.804880 
# 
# From -- ./inp_files/51430.got.cif
#   From: 2010.05.17/outbox.cif.g08.bks.cpg/sg12_26_cif.got.tgz:51430.got - 2010.06.03 13:09:07.
