data_PCOD9200223
_publ_section_title
;
Structure prediction by ZEFSAII (Michael W. Deem and Ramdas Pophale) SiO2 
 PCOD9200223
Probable space group: C 2/M
;
_chemical_formula_sum "Si O2"
_cell_formula_units_Z 52
_cell_length_a 11.368020
_cell_length_b 22.715213
_cell_length_c 16.375287
_cell_angle_alpha 90.000000
_cell_angle_beta 145.368989
_cell_angle_gamma 90.000000
_cell_volume 2403.034190
_symmetry_space_group_name_H-M "C 2/M"
_symmetry_group_IT_number 12
_symmetry_cell_setting 'monoclinic'
loop_
_space_group_symop_operation_xyz
x,y,z
-x,y,-z
-x,-y,-z
x,-y,z
1/2+x,1/2+y,z
1/2-x,1/2+y,-z
1/2-x,1/2-y,-z
1/2+x,1/2-y,z
loop_
_atom_site_type_symbol
_atom_site_label
_atom_site_fract_x
_atom_site_fract_y
_atom_site_fract_z
Si Si1 0.206255 0.208006 0.303155
Si Si2 0.853521 0.837967 0.987896
Si Si3 0.593205 0.429087 0.639336
Si Si4 0.840470 0.592285 0.567378
Si Si5 0.500000 0.100154 0.500000
Si Si6 0.516179 0.777116 0.685900
Si Si7 0.475229 0.933003 0.151804
O O1 0.308518 0.144632 0.377081
O O2 0.372130 0.240459 0.336382
O O3 0.999523 0.196223 0.133601
O O4 0.141604 0.237823 0.351475
O O5 0.703028 0.793191 0.854484
O O6 0.713441 0.887964 0.950134
O O7 0.000000 0.864556 0.000000
O O8 0.500000 0.405856 0.500000
O O9 0.606228 0.500000 0.641356
O O10 0.403112 0.414238 0.588483
O O11 0.828061 0.409621 0.788694
O O12 0.962256 0.566184 0.560968
O O13 0.905332 0.660313 0.609133
O O14 0.918796 0.565398 0.697240
O O15 0.418632 0.000000 0.096190
#
# Coordination Sequence:
#
# PCOD9200223 Si02
#       7
#     8   8   8   8   4   8   8
#     4  10  20  37  53  76 109 142 180 223 269 313
#     4   9  18  34  55  75 104 138 173 226 271 309
#     4   8  14  28  50  76 106 130 163 215 261 304
#     4   9  17  32  51  77 108 143 170 211 267 314
#     4  10  22  36  49  70 114 142 169 218 268 312
#     4   9  19  35  55  76 106 138 181 226 262 317
#     4   9  17  32  55  84 105 130 179 226 262 311
#
# _framework density 21.639309999999998
#
# number of rings (size 3 to 8) (size 9 to 14) (size 15 to 20)
#    0.000    2.923    0.000    2.769    0.000    2.769 
#   18.000    1.538    0.000    1.846    0.000    2.154 
#    0.000    0.000    0.000    0.000    0.000    0.000 
#
# Total GULP energy -144905.384453 kJ/mol
# GULP energy per Si atom -5573.284017 kJ/mol
# Density = 2.159006 g / cm^3
# Si number density = 21.639310 Si / 1000 Ang^3
#
#
#
# Elastic Constant Matrix: (Units=GPa)
#
#
# Indices 1 2 3 4 5 6 
#
# 1 117.4124 41.7066 22.8067 0.0005 25.7395 0.0000
# 2 41.7066 47.7009 15.0475 -0.0002 12.4502 -0.0008
# 3 22.8067 15.0475 57.8023 0.0008 18.2478 0.0025
# 4 0.0005 -0.0002 0.0008 13.3635 0.0004 -4.4771
# 5 25.7395 12.4502 18.2478 0.0004 37.5424 0.0003
# 6 0.0000 -0.0008 0.0025 -4.4771 0.0003 -17.6481
#
#
#
# Elastic Compliance Matrix: (Units=1/GPa)
#
#
# Indices 1 2 3 4 5 6 
#
# 1 0.013466 -0.010048 -0.000986 0.000000 -0.005421 0.000000
# 2 -0.010048 0.031353 -0.003650 0.000000 -0.001735 -0.000002
# 3 -0.000986 -0.003650 0.021315 0.000000 -0.008474 0.000003
# 4 0.000000 0.000000 0.000000 0.068969 -0.000001 -0.017497
# 5 -0.005421 -0.001735 -0.008474 -0.000001 0.035047 0.000000
# 6 0.000000 -0.000002 0.000003 -0.017497 0.000000 -0.052225
#
#
# Mechanical properties :
#
#
# Convention : Reuss Voigt Hill
#
# Bulk Modulus (GPa) = 27.19887 42.44859 34.82373
# Shear Modulus (GPa) = 31.33836 16.20855 23.77346
#
# Velocity S-wave (km/s) = 3.80967 2.73982 3.31815
# Velocity P-wave (km/s) = 5.65225 5.44681 5.55048
#
# Compressibility (1/GPa) = 0.03676623
#
# Stress axis : x y z
#
# Youngs Moduli (GPa) = 74.26052 31.89453 46.91593
#
# Poissons Ratio (x) = 0.32047 0.04627
# Poissons Ratio (y) = 0.74616 0.17124
# Poissons Ratio (z) = 0.07323 0.11641
#
# Static dielectric constant tensor:
#      x y z
#    x 1.914710 0.000000 0.008180 
#    y 0.000000 1.771470 0.000000 
#    z 0.008180 0.000000 1.811800 
# 
# From -- ./inp_files/265977.got.cif
#   From: 2010.05.17/outbox.cif.g08.bks.cpg/sg12_133_cif.got.tgz:265977.got - 2010.06.03 13:09:07.
