data_PCOD9200574
_publ_section_title
;
Structure prediction by ZEFSAII (Michael W. Deem and Ramdas Pophale) SiO2 
 PCOD9200574
Probable space group: C 2/M
;
_chemical_formula_sum "Si O2"
_cell_formula_units_Z 64
_cell_length_a 27.965622
_cell_length_b 13.441321
_cell_length_c 9.368361
_cell_angle_alpha 90.000000
_cell_angle_beta 114.111347
_cell_angle_gamma 90.000000
_cell_volume 3214.278192
_symmetry_space_group_name_H-M "C 2/M"
_symmetry_group_IT_number 12
_symmetry_cell_setting 'monoclinic'
loop_
_space_group_symop_operation_xyz
x,y,z
-x,y,-z
-x,-y,-z
x,-y,z
1/2+x,1/2+y,z
1/2-x,1/2+y,-z
1/2-x,1/2-y,-z
1/2+x,1/2-y,z
loop_
_atom_site_type_symbol
_atom_site_label
_atom_site_fract_x
_atom_site_fract_y
_atom_site_fract_z
Si Si1 0.064167 0.889056 0.337783
Si Si2 0.392866 0.883914 0.687759
Si Si3 0.697232 0.386936 0.274855
Si Si4 0.271324 0.883897 0.630129
Si Si5 0.586323 0.295659 0.089788
Si Si6 0.115928 0.747385 0.581314
Si Si7 0.234119 0.729186 0.819939
Si Si8 0.945987 0.877414 0.257948
O O1 0.057102 0.869643 0.162655
O O2 0.113616 0.825556 0.448225
O O3 0.008775 0.866386 0.343300
O O4 0.077192 0.000000 0.388311
O O5 0.330021 0.873678 0.638034
O O6 0.419806 0.812854 0.841412
O O7 0.404114 0.846810 0.537977
O O8 0.406457 0.000000 0.721012
O O9 0.679172 0.500000 0.264758
O O10 0.729243 0.360228 0.455813
O O11 0.647580 0.321163 0.176693
O O12 0.739328 0.372254 0.200793
O O13 0.258968 0.814045 0.748324
O O14 0.265209 0.000000 0.661726
O O15 0.569763 0.325371 0.911072
O O16 0.172279 0.727267 0.715946
O O17 0.082500 0.808987 0.657980
O O18 0.250000 0.750000 0.000000
O O19 0.935117 0.000000 0.249163
#
# Coordination Sequence:
#
# PCOD9200574 Si02
#       8
#     8   8   8   8   8   8   8   8
#     4  10  21  39  64  93 123 161 206 252 310 380
#     4  10  21  40  63  86 115 162 218 261 297 350
#     4  11  21  36  59  88 123 161 206 250 301 368
#     4  10  20  37  59  79 109 157 210 252 290 345
#     4  11  21  36  64  93 125 162 204 252 313 374
#     4  11  23  37  61  85 121 169 209 247 307 373
#     4  12  24  36  54  86 128 160 193 249 311 370
#     4  11  23  40  62  95 134 161 194 254 323 383
#
# _framework density 19.911159000000001
#
# number of rings (size 3 to 8) (size 9 to 14) (size 15 to 20)
#    0.000    1.250    2.500    4.875    0.000    4.500 
#    0.000    0.625    0.000   12.000    0.000    0.000 
#    0.000    0.000    0.000    0.000    0.000    0.000 
#
# Total GULP energy -178372.633782 kJ/mol
# GULP energy per Si atom -5574.144806 kJ/mol
# Density = 1.986584 g / cm^3
# Si number density = 19.911159 Si / 1000 Ang^3
#
#
#
# Elastic Constant Matrix: (Units=GPa)
#
#
# Indices 1 2 3 4 5 6 
#
# 1 51.2404 11.0518 4.2212 0.0000 -7.2982 0.0000
# 2 11.0518 88.8033 30.7187 0.0000 7.9502 0.0000
# 3 4.2212 30.7187 119.4607 0.0000 -15.7558 0.0000
# 4 0.0000 0.0000 0.0000 3.6153 0.0000 -1.5077
# 5 -7.2982 7.9502 -15.7558 0.0000 28.6467 0.0000
# 6 0.0000 0.0000 0.0000 -1.5077 0.0000 25.9559
#
#
#
# Elastic Compliance Matrix: (Units=1/GPa)
#
#
# Indices 1 2 3 4 5 6 
#
# 1 0.021214 -0.003657 0.001119 0.000000 0.007035 0.000000
# 2 -0.003657 0.013878 -0.004389 0.000000 -0.007197 0.000000
# 3 0.001119 -0.004389 0.010414 0.000000 0.007230 0.000000
# 4 0.000000 0.000000 0.000000 0.283470 0.000000 0.016466
# 5 0.007035 -0.007197 0.007230 0.000000 0.042674 0.000000
# 6 0.000000 0.000000 0.000000 0.016466 0.000000 0.039483
#
#
# Mechanical properties :
#
#
# Convention : Reuss Voigt Hill
#
# Bulk Modulus (GPa) = 31.59339 39.05420 35.32380
# Shear Modulus (GPa) = 11.48002 25.87777 18.67889
#
# Velocity S-wave (km/s) = 2.40378 3.60899 3.06618
# Velocity P-wave (km/s) = 4.85858 6.08467 5.50586
#
# Compressibility (1/GPa) = 0.03165219
#
# Stress axis : x y z
#
# Youngs Moduli (GPa) = 47.13778 72.05411 96.02806
#
# Poissons Ratio (x) = 0.26350 -0.10741
# Poissons Ratio (y) = 0.17238 0.42145
# Poissons Ratio (z) = -0.05273 0.31623
#
# Static dielectric constant tensor:
#      x y z
#    x 1.734100 0.000000 -0.023730 
#    y 0.000000 1.760310 0.000000 
#    z -0.023730 0.000000 1.725960 
# 
# From -- ./inp_files/104644.got.cif
#   From: 2010.05.17/outbox.cif.g08.bks.cpg/sg12_53_cif.got.tgz:104644.got - 2010.06.03 13:09:07.
