data_PCOD9200863
_publ_section_title
;
Structure prediction by ZEFSAII (Michael W. Deem and Ramdas Pophale) SiO2 
 PCOD9200863
Probable space group: C 2/M
;
_chemical_formula_sum "Si O2"
_cell_formula_units_Z 64
_cell_length_a 8.526669
_cell_length_b 22.978101
_cell_length_c 26.689415
_cell_angle_alpha 90.000000
_cell_angle_beta 144.673845
_cell_angle_gamma 90.000000
_cell_volume 3023.662446
_symmetry_space_group_name_H-M "C 2/M"
_symmetry_group_IT_number 12
_symmetry_cell_setting 'monoclinic'
loop_
_space_group_symop_operation_xyz
x,y,z
-x,y,-z
-x,-y,-z
x,-y,z
1/2+x,1/2+y,z
1/2-x,1/2+y,-z
1/2-x,1/2-y,-z
1/2+x,1/2-y,z
loop_
_atom_site_type_symbol
_atom_site_label
_atom_site_fract_x
_atom_site_fract_y
_atom_site_fract_z
Si Si1 0.207866 0.352991 0.147670
Si Si2 0.251435 0.430717 0.704943
Si Si3 0.083595 0.328898 0.422666
Si Si4 0.686283 0.567256 0.998841
Si Si5 0.068723 0.672701 0.221121
Si Si6 0.183489 0.433448 0.804163
Si Si7 0.559360 0.738958 0.067662
Si Si8 0.842394 0.213419 0.391116
O O1 0.466463 0.394693 0.220243
O O2 0.165664 0.319092 0.189688
O O3 0.209480 0.301842 0.106544
O O4 0.943568 0.391691 0.069249
O O5 0.277402 0.500000 0.699301
O O6 0.148376 0.427666 0.735656
O O7 0.049974 0.392305 0.617659
O O8 0.383100 0.322098 0.524204
O O9 0.126085 0.304439 0.376976
O O10 0.905191 0.282335 0.407076
O O11 0.774594 0.500000 0.017347
O O12 0.490031 0.581413 0.901050
O O13 0.500000 0.571587 0.000000
O O14 0.252929 0.698153 0.312183
O O15 0.028546 0.604831 0.220899
O O16 0.769693 0.699436 0.151480
O O17 0.148248 0.500000 0.809783
O O18 0.500000 0.707791 0.000000
O O19 0.250000 0.750000 0.000000
#
# Coordination Sequence:
#
# PCOD9200863 Si02
#       8
#     8   8   8   8   8   8   8   8
#     4  12  26  39  63  89 130 178 216 270 323 392
#     4  11  25  44  66  98 135 173 219 274 339 397
#     4  10  22  45  69 101 131 168 211 275 327 395
#     4  10  20  37  60  84 116 163 217 262 301 363
#     4  12  24  41  63  91 129 167 220 261 325 394
#     4  10  22  39  63  89 123 165 214 268 313 379
#     4  12  27  42  59  92 132 175 220 275 335 386
#     4  10  23  41  72 101 128 168 217 264 333 391
#
# _framework density 21.166384000000001
#
# number of rings (size 3 to 8) (size 9 to 14) (size 15 to 20)
#    0.000    1.125    3.750    1.875    7.000    0.500 
#    0.000    3.750    0.000    0.750    0.000    0.000 
#    0.000    0.000    0.000    0.000    0.000    0.000 
#
# Total GULP energy -178686.089851 kJ/mol
# GULP energy per Si atom -5583.940308 kJ/mol
# Density = 2.111821 g / cm^3
# Si number density = 21.166384 Si / 1000 Ang^3
#
#
#
# Elastic Constant Matrix: (Units=GPa)
#
#
# Indices 1 2 3 4 5 6 
#
# 1 14.0374 6.7047 0.1167 0.0032 0.3599 0.0019
# 2 6.7047 127.3995 49.8589 -0.0012 5.1947 0.0008
# 3 0.1167 49.8589 93.3140 0.0016 -20.8403 0.0015
# 4 0.0032 -0.0012 0.0016 36.8331 0.0009 -2.8172
# 5 0.3599 5.1947 -20.8403 0.0009 25.0469 0.0012
# 6 0.0019 0.0008 0.0015 -2.8172 0.0012 23.5933
#
#
#
# Elastic Compliance Matrix: (Units=1/GPa)
#
#
# Indices 1 2 3 4 5 6 
#
# 1 0.073678 -0.005322 0.003392 -0.000007 0.002867 -0.000007
# 2 -0.005322 0.011789 -0.008378 0.000002 -0.009340 0.000001
# 3 0.003392 -0.008378 0.019119 -0.000002 0.017597 -0.000002
# 4 -0.000007 0.000002 -0.000002 0.027400 -0.000003 0.003272
# 5 0.002867 -0.009340 0.017597 -0.000003 0.056463 -0.000004
# 6 -0.000007 0.000001 -0.000002 0.003272 -0.000004 0.042776
#
#
# Mechanical properties :
#
#
# Convention : Reuss Voigt Hill
#
# Bulk Modulus (GPa) = 11.90908 38.67903 25.29405
# Shear Modulus (GPa) = 17.86793 28.96602 23.41697
#
# Velocity S-wave (km/s) = 2.90860 3.70333 3.32976
# Velocity P-wave (km/s) = 4.11322 6.04976 5.17292
#
# Compressibility (1/GPa) = 0.08396957
#
# Stress axis : x y z
#
# Youngs Moduli (GPa) = 13.57252 84.82369 52.30421
#
# Poissons Ratio (x) = 0.45141 -0.17740
# Poissons Ratio (y) = 0.07223 0.43822
# Poissons Ratio (z) = -0.04603 0.71068
#
# Static dielectric constant tensor:
#      x y z
#    x 1.815590 0.000000 -0.027090 
#    y 0.000000 1.769410 0.000000 
#    z -0.027090 0.000000 1.755230 
# 
# From -- ./inp_files/373296.got.cif
#   From: 2010.05.17/outbox.cif.g08.bks.cpg/sg12_187_cif.got.tgz:373296.got - 2010.06.03 13:09:07.
