data_PCOD9200597
_publ_section_title
;
Structure prediction by ZEFSAII (Michael W. Deem and Ramdas Pophale) SiO2 
 PCOD9200597
Probable space group: C 2/M
;
_chemical_formula_sum "Si O2"
_cell_formula_units_Z 56
_cell_length_a 16.366551
_cell_length_b 8.694099
_cell_length_c 23.828211
_cell_angle_alpha 90.000000
_cell_angle_beta 58.721403
_cell_angle_gamma 90.000000
_cell_volume 2897.763420
_symmetry_space_group_name_H-M "C 2/M"
_symmetry_group_IT_number 12
_symmetry_cell_setting 'monoclinic'
loop_
_space_group_symop_operation_xyz
x,y,z
-x,y,-z
-x,-y,-z
x,-y,z
1/2+x,1/2+y,z
1/2-x,1/2+y,-z
1/2-x,1/2-y,-z
1/2+x,1/2-y,z
loop_
_atom_site_type_symbol
_atom_site_label
_atom_site_fract_x
_atom_site_fract_y
_atom_site_fract_z
Si Si1 0.035465 0.684741 0.157518
Si Si2 0.273287 0.673268 0.432554
Si Si3 0.725568 0.816119 0.157282
Si Si4 0.558663 0.818591 0.694686
Si Si5 0.581519 0.173899 0.430846
Si Si6 0.061750 0.314011 0.923301
Si Si7 0.122782 0.821256 0.297646
O O1 0.045903 0.500000 0.148380
O O2 0.138405 0.738471 0.146607
O O3 0.994721 0.741671 0.112600
O O4 0.955671 0.711985 0.234123
O O5 0.312753 0.500000 0.426060
O O6 0.250000 0.750000 0.500000
O O7 0.342907 0.774128 0.369228
O O8 0.174243 0.661491 0.435612
O O9 0.695109 0.769284 0.231308
O O10 0.830569 0.748828 0.109297
O O11 0.728659 0.000000 0.152024
O O12 0.479583 0.715121 0.692992
O O13 0.537691 0.000000 0.693596
O O14 0.500000 0.243511 0.500000
O O15 0.611579 0.263667 0.364831
O O16 0.548995 0.000000 0.426004
O O17 0.068047 0.500000 0.917648
O O18 0.000000 0.273666 0.000000
O O19 0.147042 0.000000 0.287206
#
# Coordination Sequence:
#
# PCOD9200597 Si02
#       7
#     8   8   8   8   8   8   8
#     4   8  18  37  59  84 118 161 199 239 301 365
#     4  11  23  37  56  83 114 150 196 241 292 351
#     4  10  21  39  61  86 120 161 203 248 304 367
#     4  10  20  37  59  81 113 153 193 241 298 353
#     4  10  22  39  57  80 114 154 193 238 292 350
#     4  10  21  38  61  91 125 160 202 253 304 361
#     4  11  22  37  60  87 114 147 193 245 299 357
#
# _framework density 19.325248999999999
#
# number of rings (size 3 to 8) (size 9 to 14) (size 15 to 20)
#    0.000    2.000    0.000    4.286    2.000    3.429 
#    0.000    3.571    0.000    0.000    0.000    0.000 
#    0.000    0.000    0.000    0.000    0.000    0.000 
#
# Total GULP energy -156183.710073 kJ/mol
# GULP energy per Si atom -5577.989645 kJ/mol
# Density = 1.928126 g / cm^3
# Si number density = 19.325249 Si / 1000 Ang^3
#
#
#
# Elastic Constant Matrix: (Units=GPa)
#
#
# Indices 1 2 3 4 5 6 
#
# 1 87.1901 17.5281 86.9979 0.0000 3.8583 0.0000
# 2 17.5281 37.9689 30.2709 0.0000 7.9171 -0.0001
# 3 86.9979 30.2709 161.8720 0.0000 -1.6608 0.0000
# 4 0.0000 0.0000 0.0000 25.3449 0.0000 -9.6389
# 5 3.8583 7.9171 -1.6608 0.0000 41.5506 0.0000
# 6 0.0000 -0.0001 0.0000 -9.6389 0.0000 24.4639
#
#
#
# Elastic Compliance Matrix: (Units=1/GPa)
#
#
# Indices 1 2 3 4 5 6 
#
# 1 0.025071 -0.000260 -0.013455 0.000000 -0.002816 0.000000
# 2 -0.000260 0.032599 -0.006022 0.000000 -0.006428 0.000000
# 3 -0.013455 -0.006022 0.014566 0.000000 0.002979 0.000000
# 4 0.000000 0.000000 0.000000 0.046410 0.000000 0.018286
# 5 -0.002816 -0.006428 0.002979 0.000000 0.025672 0.000000
# 6 0.000000 0.000000 0.000000 0.018286 0.000000 0.048081
#
#
# Mechanical properties :
#
#
# Convention : Reuss Voigt Hill
#
# Bulk Modulus (GPa) = 30.52334 61.84721 46.18527
# Shear Modulus (GPa) = 20.59355 28.42080 24.50717
#
# Velocity S-wave (km/s) = 3.26794 3.83907 3.56496
# Velocity P-wave (km/s) = 5.48344 7.19195 6.39500
#
# Compressibility (1/GPa) = 0.03276181
#
# Stress axis : x y z
#
# Youngs Moduli (GPa) = 39.88640 30.67572 68.65402
#
# Poissons Ratio (x) = 0.00797 0.92373
# Poissons Ratio (y) = 0.01036 0.41347
# Poissons Ratio (z) = 0.53666 0.18474
#
# Static dielectric constant tensor:
#      x y z
#    x 1.695820 0.000000 0.057770 
#    y 0.000000 1.687190 0.000000 
#    z 0.057770 0.000000 1.731100 
# 
# From -- ./inp_files/338477.got.cif
#   From: 2010.05.17/outbox.cif.g08.bks.cpg/sg12_170_cif.got.tgz:338477.got - 2010.06.03 13:09:07.
