data_PCOD9200249
_publ_section_title
;
Structure prediction by ZEFSAII (Michael W. Deem and Ramdas Pophale) SiO2 
 PCOD9200249
Probable space group: C 2/M
;
_chemical_formula_sum "Si O2"
_cell_formula_units_Z 48
_cell_length_a 29.535646
_cell_length_b 13.086550
_cell_length_c 9.479086
_cell_angle_alpha 90.000000
_cell_angle_beta 143.976394
_cell_angle_gamma 90.000000
_cell_volume 2154.780128
_symmetry_space_group_name_H-M "C 2/M"
_symmetry_group_IT_number 12
_symmetry_cell_setting 'monoclinic'
loop_
_space_group_symop_operation_xyz
x,y,z
-x,y,-z
-x,-y,-z
x,-y,z
1/2+x,1/2+y,z
1/2-x,1/2+y,-z
1/2-x,1/2-y,-z
1/2+x,1/2-y,z
loop_
_atom_site_type_symbol
_atom_site_label
_atom_site_fract_x
_atom_site_fract_y
_atom_site_fract_z
Si Si1 0.148385 0.386186 0.074988
Si Si2 0.167977 0.283790 0.616381
Si Si3 0.505826 0.811003 0.181139
Si Si4 0.559113 0.386774 0.857755
Si Si5 0.666505 0.306415 0.918172
Si Si6 0.185354 0.882451 0.418548
O O1 0.154193 0.500000 0.030199
O O2 0.222123 0.371953 0.363873
O O3 0.067458 0.373355 0.949437
O O4 0.154921 0.301931 0.969847
O O5 0.169450 0.214849 0.760944
O O6 0.163111 0.204494 0.474180
O O7 0.091183 0.351142 0.426747
O O8 0.248937 0.342896 0.819672
O O9 0.498038 0.702452 0.241840
O O10 0.500000 0.796162 0.000000
O O11 0.528457 0.500000 0.802754
O O12 0.595926 0.373257 0.796281
O O13 0.633165 0.370817 0.148721
O O14 0.171948 0.000000 0.434569
#
# Coordination Sequence:
#
# PCOD9200249 Si02
#       6
#     8   8   8   8   8   8
#     4   9  20  37  56  79 108 146 188 223 270 325
#     4  10  20  37  55  83 111 142 184 224 273 322
#     4  11  22  34  56  83 113 143 176 232 280 320
#     4  10  21  36  55  84 113 146 183 220 271 327
#     4   9  21  38  60  78 108 150 184 223 265 326
#     4   9  18  34  58  80 108 148 187 222 262 323
#
# _framework density 22.276053999999998
#
# number of rings (size 3 to 8) (size 9 to 14) (size 15 to 20)
#    0.000    2.333    1.667    0.000    2.333    6.667 
#    0.000    5.833    0.000    0.000    0.000    0.000 
#    0.000    0.000    0.000    0.000    0.000    0.000 
#
# Total GULP energy -134044.620698 kJ/mol
# GULP energy per Si atom -5585.192529 kJ/mol
# Density = 2.222535 g / cm^3
# Si number density = 22.276054 Si / 1000 Ang^3
#
#
#
# Elastic Constant Matrix: (Units=GPa)
#
#
# Indices 1 2 3 4 5 6 
#
# 1 74.3774 -6.0758 16.9487 0.0000 10.7615 0.0000
# 2 -6.0758 53.8669 -6.4362 0.0000 5.9011 0.0000
# 3 16.9487 -6.4362 57.2637 0.0000 30.3472 0.0000
# 4 0.0000 0.0000 0.0000 14.3420 0.0000 1.2766
# 5 10.7615 5.9011 30.3472 0.0000 42.0777 0.0000
# 6 0.0000 0.0000 0.0000 1.2766 0.0000 5.3171
#
#
#
# Elastic Compliance Matrix: (Units=1/GPa)
#
#
# Indices 1 2 3 4 5 6 
#
# 1 0.014540 0.001404 -0.003352 0.000000 -0.001498 0.000000
# 2 0.001404 0.020213 0.005745 0.000000 -0.007337 0.000000
# 3 -0.003352 0.005745 0.030874 0.000000 -0.022215 0.000000
# 4 0.000000 0.000000 0.000000 0.071248 0.000000 -0.017106
# 5 -0.001498 -0.007337 -0.022215 0.000000 0.041200 0.000000
# 6 0.000000 0.000000 0.000000 -0.017106 0.000000 0.192180
#
#
# Mechanical properties :
#
#
# Convention : Reuss Voigt Hill
#
# Bulk Modulus (GPa) = 13.65758 21.59795 17.62776
# Shear Modulus (GPa) = 12.91764 24.41877 18.66821
#
# Velocity S-wave (km/s) = 2.41070 3.31447 2.89803
# Velocity P-wave (km/s) = 3.72733 4.93601 4.37363
#
# Compressibility (1/GPa) = 0.07321942
#
# Stress axis : x y z
#
# Youngs Moduli (GPa) = 68.77501 49.47381 32.38982
#
# Poissons Ratio (x) = -0.06944 0.10857
# Poissons Ratio (y) = -0.09654 -0.18606
# Poissons Ratio (z) = 0.23052 -0.28420
#
# Static dielectric constant tensor:
#      x y z
#    x 1.814010 0.000000 0.029390 
#    y 0.000000 1.803880 0.000000 
#    z 0.029390 0.000000 1.862910 
# 
# From -- ./inp_files/104924.got.cif
#   From: 2010.05.17/outbox.cif.g08.bks.cpg/sg12_53_cif.got.tgz:104924.got - 2010.06.03 13:09:07.
