data_PCOD9200413
_publ_section_title
;
Structure prediction by ZEFSAII (Michael W. Deem and Ramdas Pophale) SiO2 
 PCOD9200413
Probable space group: C 2/M
;
_chemical_formula_sum "Si O2"
_cell_formula_units_Z 64
_cell_length_a 19.257483
_cell_length_b 9.262887
_cell_length_c 22.308894
_cell_angle_alpha 90.000000
_cell_angle_beta 120.969207
_cell_angle_gamma 90.000000
_cell_volume 3412.162329
_symmetry_space_group_name_H-M "C 2/M"
_symmetry_group_IT_number 12
_symmetry_cell_setting 'monoclinic'
loop_
_space_group_symop_operation_xyz
x,y,z
-x,y,-z
-x,-y,-z
x,-y,z
1/2+x,1/2+y,z
1/2-x,1/2+y,-z
1/2-x,1/2-y,-z
1/2+x,1/2-y,z
loop_
_atom_site_type_symbol
_atom_site_label
_atom_site_fract_x
_atom_site_fract_y
_atom_site_fract_z
Si Si1 0.057549 0.170830 0.118312
Si Si2 0.500945 0.828510 0.688460
Si Si3 0.328352 0.831039 0.915085
Si Si4 0.872120 0.669138 0.739616
Si Si5 0.332044 0.170192 0.178257
Si Si6 0.253478 0.828884 0.587267
Si Si7 0.893682 0.666603 0.069966
Si Si8 0.619846 0.329050 0.443139
O O1 0.094433 0.248280 0.076757
O O2 0.111165 0.227695 0.197801
O O3 0.967810 0.226846 0.092069
O O4 0.060422 0.000000 0.113513
O O5 0.441387 0.805448 0.719479
O O6 0.591339 0.784647 0.747388
O O7 0.461485 0.748858 0.614332
O O8 0.500590 0.000000 0.677709
O O9 0.248558 0.762403 0.850908
O O10 0.333880 0.000000 0.903755
O O11 0.330044 0.814027 0.987862
O O12 0.878330 0.500000 0.759932
O O13 0.785893 0.692787 0.668696
O O14 0.359059 0.184878 0.120865
O O15 0.315909 0.000000 0.181770
O O16 0.311809 0.731190 0.572223
O O17 0.161296 0.800188 0.526312
O O18 0.269258 0.000000 0.580739
O O19 0.923603 0.500000 0.078969
O O20 0.610352 0.500000 0.432166
#
# Coordination Sequence:
#
# PCOD9200413 Si02
#       8
#     8   8   8   8   8   8   8   8
#     4  12  24  36  54  80 108 138 176 220 264 309
#     4   9  17  30  49  71 101 140 171 204 257 311
#     4  11  24  39  57  79 105 137 176 217 263 317
#     4   9  16  31  51  70  99 138 177 211 256 312
#     4  10  20  37  58  79 107 139 173 215 264 312
#     4   8  15  26  40  62  96 136 168 204 258 306
#     4  10  21  40  61  79 103 138 173 213 266 319
#     4   9  15  23  39  66  99 131 168 211 250 297
#
# _framework density 18.756435
#
# number of rings (size 3 to 8) (size 9 to 14) (size 15 to 20)
#    0.000    2.250    1.250    3.375    0.000    6.000 
#    0.000    0.000    0.000    0.000    0.000    0.875 
#    0.000    7.000    0.000    0.000    0.000    0.000 
#
# Total GULP energy -178463.418321 kJ/mol
# GULP energy per Si atom -5576.981823 kJ/mol
# Density = 1.871374 g / cm^3
# Si number density = 18.756435 Si / 1000 Ang^3
#
#
#
# Elastic Constant Matrix: (Units=GPa)
#
#
# Indices 1 2 3 4 5 6 
#
# 1 24.5706 29.0011 8.0791 0.0000 11.7868 0.0000
# 2 29.0011 70.6814 32.7326 0.0000 15.3572 0.0000
# 3 8.0791 32.7326 86.9095 0.0000 28.6301 0.0000
# 4 0.0000 0.0000 0.0000 28.7040 0.0000 7.0554
# 5 11.7868 15.3572 28.6301 0.0000 18.3428 0.0000
# 6 0.0000 0.0000 0.0000 7.0554 0.0000 23.6225
#
#
#
# Elastic Compliance Matrix: (Units=1/GPa)
#
#
# Indices 1 2 3 4 5 6 
#
# 1 0.156399 -0.059410 0.050550 0.000000 -0.129660 0.000000
# 2 -0.059410 0.040423 -0.022907 0.000000 0.040087 0.000000
# 3 0.050550 -0.022907 0.040791 0.000000 -0.076972 0.000000
# 4 0.000000 0.000000 0.000000 0.037599 0.000000 -0.011230
# 5 -0.129660 0.040087 -0.076972 0.000000 0.224412 0.000000
# 6 0.000000 0.000000 0.000000 -0.011230 0.000000 0.045687
#
#
# Mechanical properties :
#
#
# Convention : Reuss Voigt Hill
#
# Bulk Modulus (GPa) = 5.74455 35.75415 20.74935
# Shear Modulus (GPa) = 7.49769 21.62378 14.56073
#
# Velocity S-wave (km/s) = 2.00152 3.39908 2.78925
# Velocity P-wave (km/s) = 2.90014 5.87441 4.63247
#
# Compressibility (1/GPa) = 0.17407800
#
# Stress axis : x y z
#
# Youngs Moduli (GPa) = 6.39389 24.73845 24.51519
#
# Poissons Ratio (x) = 1.46971 -1.23923
# Poissons Ratio (y) = 0.37986 0.56158
# Poissons Ratio (z) = -0.32321 0.56669
#
# Static dielectric constant tensor:
#      x y z
#    x 1.633370 0.000000 0.015290 
#    y 0.000000 1.624070 0.000000 
#    z 0.015290 0.000000 1.703780 
# 
# From -- ./inp_files/345624.got.cif
#   From: 2010.05.17/outbox.cif.g08.bks.cpg/sg12_173_cif.got.tgz:345624.got - 2010.06.03 13:09:07.
