data_PCOD9200687
_publ_section_title
;
Structure prediction by ZEFSAII (Michael W. Deem and Ramdas Pophale) SiO2 
 PCOD9200687
Probable space group: C 2/M
;
_chemical_formula_sum "Si O2"
_cell_formula_units_Z 28
_cell_length_a 9.326863
_cell_length_b 16.293955
_cell_length_c 8.657673
_cell_angle_alpha 90.000000
_cell_angle_beta 67.470055
_cell_angle_gamma 90.000000
_cell_volume 1215.302936
_symmetry_space_group_name_H-M "C 2/M"
_symmetry_group_IT_number 12
_symmetry_cell_setting 'monoclinic'
loop_
_space_group_symop_operation_xyz
x,y,z
-x,y,-z
-x,-y,-z
x,-y,z
1/2+x,1/2+y,z
1/2-x,1/2+y,-z
1/2-x,1/2-y,-z
1/2+x,1/2-y,z
loop_
_atom_site_type_symbol
_atom_site_label
_atom_site_fract_x
_atom_site_fract_y
_atom_site_fract_z
Si Si1 0.453872 0.090492 0.198594
Si Si2 0.402238 0.745190 0.333772
Si Si3 0.600487 0.590209 0.254879
Si Si4 0.000000 0.164992 0.000000
O O1 0.492358 0.168063 0.289444
O O2 0.266546 0.090972 0.265997
O O3 0.507522 0.000000 0.227984
O O4 0.500000 0.100290 0.000000
O O5 0.250000 0.750000 0.500000
O O6 0.500924 0.667484 0.346088
O O7 0.390790 0.720859 0.155202
O O8 0.529668 0.500000 0.306308
O O9 0.605442 0.609087 0.068305
#
# Coordination Sequence:
#
# PCOD9200687 Si02
#       4
#     8   8   8   4
#     4  10  20  37  59  85 114 151 193 236 284 338
#     4  10  21  35  55  85 117 148 187 234 285 337
#     4   9  19  37  61  83 113 151 192 236 284 340
#     4   8  19  36  59  78 118 144 197 228 287 336
#
# _framework density 23.039524
#
# number of rings (size 3 to 8) (size 9 to 14) (size 15 to 20)
#    1.714    0.857    1.429    0.429    0.000    6.857 
#    0.000    2.857    0.000    0.000    0.000   10.000 
#    0.000    0.000    0.000    0.000    0.000    0.000 
#
# Total GULP energy -77969.429085 kJ/mol
# GULP energy per Si atom -5569.244935 kJ/mol
# Density = 2.298709 g / cm^3
# Si number density = 23.039524 Si / 1000 Ang^3
#
#
#
# Elastic Constant Matrix: (Units=GPa)
#
#
# Indices 1 2 3 4 5 6 
#
# 1 23.1785 15.9261 6.6170 0.0000 -4.0064 0.0000
# 2 15.9261 244.8689 63.7927 0.0000 -21.3347 0.0000
# 3 6.6170 63.7927 135.4225 0.0000 -10.4361 0.0000
# 4 0.0000 0.0000 0.0000 -43.2910 0.0000 -53.8584
# 5 -4.0064 -21.3347 -10.4361 0.0000 36.0928 0.0000
# 6 0.0000 0.0000 0.0000 -53.8584 0.0000 -15.6262
#
#
#
# Elastic Compliance Matrix: (Units=1/GPa)
#
#
# Indices 1 2 3 4 5 6 
#
# 1 0.045651 -0.002464 -0.000810 0.000000 0.003377 0.000000
# 2 -0.002464 0.004960 -0.002057 0.000000 0.002063 0.000000
# 3 -0.000810 -0.002057 0.008481 0.000000 0.001147 0.000000
# 4 0.000000 0.000000 0.000000 0.007025 0.000000 -0.024214
# 5 0.003377 0.002063 0.001147 0.000000 0.029632 0.000000
# 6 0.000000 0.000000 0.000000 -0.024214 0.000000 0.019463
#
#
# Mechanical properties :
#
#
# Convention : Reuss Voigt Hill
#
# Bulk Modulus (GPa) = 20.64791 64.01572 42.33182
# Shear Modulus (GPa) = 35.20679 16.57739 25.89209
#
# Velocity S-wave (km/s) = 3.91334 2.68530 3.35597
# Velocity P-wave (km/s) = 5.42221 6.12045 5.78188
#
# Compressibility (1/GPa) = 0.04843105
#
# Stress axis : x y z
#
# Youngs Moduli (GPa) = 21.90515 201.62401 117.90828
#
# Poissons Ratio (x) = 0.49680 0.09547
# Poissons Ratio (y) = 0.05397 0.24253
# Poissons Ratio (z) = 0.01774 0.41473
#
# Static dielectric constant tensor:
#      x y z
#    x 1.870170 0.000000 0.018100 
#    y 0.000000 1.930000 0.000000 
#    z 0.018100 0.000000 1.917660 
# 
# From -- ./inp_files/128157.got.cif
#   From: 2010.05.17/outbox.cif.g08.bks.cpg/sg12_65_cif.got.tgz:128157.got - 2010.06.03 13:09:07.
