data_PCOD9200675
_publ_section_title
;
Structure prediction by ZEFSAII (Michael W. Deem and Ramdas Pophale) SiO2 
 PCOD9200675
Probable space group: C 2/M
;
_chemical_formula_sum "Si O2"
_cell_formula_units_Z 56
_cell_length_a 7.275883
_cell_length_b 28.303062
_cell_length_c 14.120416
_cell_angle_alpha 90.000000
_cell_angle_beta 66.680228
_cell_angle_gamma 90.000000
_cell_volume 2670.274165
_symmetry_space_group_name_H-M "C 2/M"
_symmetry_group_IT_number 12
_symmetry_cell_setting 'monoclinic'
loop_
_space_group_symop_operation_xyz
x,y,z
-x,y,-z
-x,-y,-z
x,-y,z
1/2+x,1/2+y,z
1/2-x,1/2+y,-z
1/2-x,1/2-y,-z
1/2+x,1/2-y,z
loop_
_atom_site_type_symbol
_atom_site_label
_atom_site_fract_x
_atom_site_fract_y
_atom_site_fract_z
Si Si1 0.083809 0.618570 0.629775
Si Si2 0.842626 0.053149 0.680238
Si Si3 0.953972 0.205070 0.225629
Si Si4 0.947574 0.686681 0.810561
Si Si5 0.675304 0.633958 0.600116
Si Si6 0.688267 0.655288 0.028030
Si Si7 0.232220 0.448097 0.923384
O O1 0.168115 0.567961 0.643295
O O2 0.234730 0.640940 0.522459
O O3 0.076747 0.648722 0.727467
O O4 0.866145 0.618560 0.625674
O O5 0.761396 0.055210 0.804463
O O6 0.016062 0.091785 0.633513
O O7 0.913636 0.000000 0.648015
O O8 0.759628 0.189370 0.206228
O O9 0.921950 0.180617 0.333604
O O10 0.963326 0.261223 0.216980
O O11 0.147808 0.183475 0.133178
O O12 0.882812 0.670298 0.928496
O O13 0.500000 0.667796 0.000000
O O14 0.679794 0.599467 0.049874
O O15 0.314497 0.500000 0.935822
O O16 0.000000 0.447700 0.000000
#
# Coordination Sequence:
#
# PCOD9200675 Si02
#       7
#     8   8   8   8   8   8   8
#     4  10  23  41  61  91 125 163 205 259 307 362
#     4  11  23  41  66  94 124 163 210 255 311 374
#     4  10  21  37  57  87 120 157 206 253 305 369
#     4  10  22  36  58  88 119 160 205 250 310 364
#     4  10  22  42  63  87 128 163 205 258 306 363
#     4  10  20  37  59  84 120 156 198 250 305 366
#     4  10  21  37  58  88 122 156 200 252 308 369
#
# _framework density 20.971630000000001
#
# number of rings (size 3 to 8) (size 9 to 14) (size 15 to 20)
#    0.000    1.857    1.429    1.714    2.000    3.714 
#    0.000    1.429    0.000    0.000    0.000    0.000 
#    0.000    0.000    0.000    0.000    0.000    0.000 
#
# Total GULP energy -156391.140618 kJ/mol
# GULP energy per Si atom -5585.397879 kJ/mol
# Density = 2.092390 g / cm^3
# Si number density = 20.971630 Si / 1000 Ang^3
#
#
#
# Elastic Constant Matrix: (Units=GPa)
#
#
# Indices 1 2 3 4 5 6 
#
# 1 38.8830 5.7899 29.9829 0.0000 -6.6203 0.0000
# 2 5.7899 106.8744 28.2719 0.0000 -1.1192 0.0000
# 3 29.9829 28.2719 105.5317 0.0000 -7.4166 0.0000
# 4 0.0000 0.0000 0.0000 21.2627 0.0000 -4.5232
# 5 -6.6203 -1.1192 -7.4166 0.0000 16.3765 0.0000
# 6 0.0000 0.0000 0.0000 -4.5232 0.0000 39.4641
#
#
#
# Elastic Compliance Matrix: (Units=1/GPa)
#
#
# Indices 1 2 3 4 5 6 
#
# 1 0.034436 0.000692 -0.009283 0.000000 0.009764 0.000000
# 2 0.000692 0.010089 -0.002925 0.000000 -0.000355 0.000000
# 3 -0.009283 -0.002925 0.013034 0.000000 0.001950 0.000000
# 4 0.000000 0.000000 0.000000 0.048206 0.000000 0.005525
# 5 0.009764 -0.000355 0.001950 0.000000 0.065869 0.000000
# 6 0.000000 0.000000 0.000000 0.005525 0.000000 0.025973
#
#
# Mechanical properties :
#
#
# Convention : Reuss Voigt Hill
#
# Bulk Modulus (GPa) = 28.96171 42.15319 35.55745
# Shear Modulus (GPa) = 21.53814 27.90361 24.72087
#
# Velocity S-wave (km/s) = 3.20818 3.65161 3.43706
# Velocity P-wave (km/s) = 5.25006 6.15815 5.72215
#
# Compressibility (1/GPa) = 0.03452835
#
# Stress axis : x y z
#
# Youngs Moduli (GPa) = 29.03973 99.11597 76.72381
#
# Poissons Ratio (x) = -0.06862 0.71222
# Poissons Ratio (y) = -0.02011 0.22438
# Poissons Ratio (z) = 0.26957 0.28987
#
# Static dielectric constant tensor:
#      x y z
#    x 1.774620 0.000000 0.000190 
#    y 0.000000 1.730920 0.000000 
#    z 0.000190 0.000000 1.763320 
# 
# From -- ./inp_files/198759.got.cif
#   From: 2010.05.17/outbox.cif.g08.bks.cpg/sg12_100_cif.got.tgz:198759.got - 2010.06.03 13:09:07.
