data_PCOD9200097
_publ_section_title
;
Structure prediction by ZEFSAII (Michael W. Deem and Ramdas Pophale) SiO2 
 PCOD9200097
Probable space group: C 2/M
;
_chemical_formula_sum "Si O2"
_cell_formula_units_Z 48
_cell_length_a 21.910068
_cell_length_b 13.607241
_cell_length_c 11.886435
_cell_angle_alpha 90.000000
_cell_angle_beta 36.119620
_cell_angle_gamma 90.000000
_cell_volume 2088.956247
_symmetry_space_group_name_H-M "C 2/M"
_symmetry_group_IT_number 12
_symmetry_cell_setting 'monoclinic'
loop_
_space_group_symop_operation_xyz
x,y,z
-x,y,-z
-x,-y,-z
x,-y,z
1/2+x,1/2+y,z
1/2-x,1/2+y,-z
1/2-x,1/2-y,-z
1/2+x,1/2-y,z
loop_
_atom_site_type_symbol
_atom_site_label
_atom_site_fract_x
_atom_site_fract_y
_atom_site_fract_z
Si Si1 0.561585 0.257587 0.708402
Si Si2 0.727831 0.710927 0.286205
Si Si3 0.710506 0.390396 0.090201
Si Si4 0.955274 0.386660 0.689385
Si Si5 0.121423 0.606910 0.793970
Si Si6 0.627223 0.614759 0.966665
O O1 0.638621 0.310096 0.508004
O O2 0.498491 0.181933 0.723229
O O3 0.630141 0.194264 0.692268
O O4 0.481492 0.329650 0.889966
O O5 0.691036 0.688600 0.215452
O O6 0.819374 0.635731 0.181005
O O7 0.778478 0.819190 0.221428
O O8 0.691187 0.500000 0.164919
O O9 0.643991 0.379406 0.076907
O O10 0.831026 0.384788 0.876233
O O11 0.987824 0.500000 0.661597
O O12 0.000000 0.359130 0.500000
O O13 0.155898 0.500000 0.701361
O O14 0.000000 0.602620 0.000000
O O15 0.629145 0.500000 0.930945
#
# Coordination Sequence:
#
# PCOD9200097 Si02
#       6
#     8   8   8   8   8   8
#     4  12  25  40  66  96 134 171 220 265 336 391
#     4  12  24  42  68  95 131 174 222 271 328 393
#     4  10  21  40  65  94 130 173 218 271 324 383
#     4  10  20  36  63  97 128 164 218 273 325 382
#     4  11  23  45  72  95 122 162 219 280 329 386
#     4  11  25  43  63  96 142 179 216 266 332 399
#
# _framework density 22.977982000000001
#
# number of rings (size 3 to 8) (size 9 to 14) (size 15 to 20)
#    0.000    1.000    3.333    3.000    2.333    6.667 
#    0.000    3.333    0.000    0.000    0.000    0.000 
#    0.000    0.000    0.000    0.000    0.000    0.000 
#
# Total GULP energy -134324.803849 kJ/mol
# GULP energy per Si atom -5596.866827 kJ/mol
# Density = 2.292568 g / cm^3
# Si number density = 22.977982 Si / 1000 Ang^3
#
#
#
# Elastic Constant Matrix: (Units=GPa)
#
#
# Indices 1 2 3 4 5 6 
#
# 1 55.4744 24.0232 -9.3687 0.0000 0.8513 0.0000
# 2 24.0232 97.5794 -7.1153 0.0000 -6.3983 0.0000
# 3 -9.3687 -7.1153 50.1891 0.0000 4.2658 0.0000
# 4 0.0000 0.0000 0.0000 20.0805 0.0000 9.9450
# 5 0.8513 -6.3983 4.2658 0.0000 22.7232 0.0000
# 6 0.0000 0.0000 0.0000 9.9450 0.0000 19.7647
#
#
#
# Elastic Compliance Matrix: (Units=1/GPa)
#
#
# Indices 1 2 3 4 5 6 
#
# 1 0.020842 -0.005069 0.003414 0.000000 -0.002849 0.000000
# 2 -0.005069 0.011751 0.000429 0.000000 0.003418 0.000000
# 3 0.003414 0.000429 0.020958 0.000000 -0.003941 0.000000
# 4 0.000000 0.000000 0.000000 0.066329 0.000000 -0.033375
# 5 -0.002849 0.003418 -0.003941 0.000000 0.045817 0.000000
# 6 0.000000 0.000000 0.000000 -0.033375 0.000000 0.067388
#
#
# Mechanical properties :
#
#
# Convention : Reuss Voigt Hill
#
# Bulk Modulus (GPa) = 19.56961 24.25792 21.91377
# Shear Modulus (GPa) = 19.79655 25.56059 22.67857
#
# Velocity S-wave (km/s) = 2.93839 3.33888 3.14502
# Velocity P-wave (km/s) = 4.47743 5.04421 4.76925
#
# Compressibility (1/GPa) = 0.05109964
#
# Stress axis : x y z
#
# Youngs Moduli (GPa) = 47.98074 85.09617 47.71496
#
# Poissons Ratio (x) = 0.43134 -0.16290
# Poissons Ratio (y) = 0.24321 -0.02048
# Poissons Ratio (z) = -0.16381 -0.03653
#
# Static dielectric constant tensor:
#      x y z
#    x 1.882160 0.000000 0.006120 
#    y 0.000000 1.903550 0.000000 
#    z 0.006120 0.000000 1.855460 
# 
# From -- ./inp_files/143189.got.cif
#   From: 2010.05.17/outbox.cif.g08.bks.cpg/sg12_72_cif.got.tgz:143189.got - 2010.06.03 13:09:07.
