data_PCOD9200536
_publ_section_title
;
Structure prediction by ZEFSAII (Michael W. Deem and Ramdas Pophale) SiO2 
 PCOD9200536
Probable space group: C 2/M
;
_chemical_formula_sum "Si O2"
_cell_formula_units_Z 42
_cell_length_a 21.914776
_cell_length_b 7.336605
_cell_length_c 12.347017
_cell_angle_alpha 90.000000
_cell_angle_beta 51.744599
_cell_angle_gamma 90.000000
_cell_volume 1558.859247
_symmetry_space_group_name_H-M "C 2/M"
_symmetry_group_IT_number 12
_symmetry_cell_setting 'monoclinic'
loop_
_space_group_symop_operation_xyz
x,y,z
-x,y,-z
-x,-y,-z
x,-y,z
1/2+x,1/2+y,z
1/2-x,1/2+y,-z
1/2-x,1/2-y,-z
1/2+x,1/2-y,z
loop_
_atom_site_type_symbol
_atom_site_label
_atom_site_fract_x
_atom_site_fract_y
_atom_site_fract_z
Si Si1 0.000000 0.500000 0.500000
Si Si2 0.937387 0.720422 0.823415
Si Si3 0.744239 0.205558 0.659615
Si Si4 0.089177 0.277333 0.911986
Si Si5 0.910172 0.212108 0.445964
Si Si6 0.699785 0.783298 0.163279
O O1 0.948753 0.342215 0.492464
O O2 0.938356 0.500000 0.817124
O O3 0.885806 0.782205 0.779136
O O4 0.026362 0.778787 0.719606
O O5 0.895079 0.772675 0.980244
O O6 0.658627 0.291573 0.760093
O O7 0.822378 0.278403 0.518031
O O8 0.768963 0.201365 0.760342
O O9 0.735172 0.000000 0.629847
O O10 0.089777 0.500000 0.903027
O O11 0.000000 0.220162 0.000000
O O12 0.904595 0.000000 0.484866
O O13 0.695628 0.000000 0.186116
O O14 0.750000 0.750000 0.000000
#
# Coordination Sequence:
#
# PCOD9200536 Si02
#       6
#     2   8   8   8   8   8
#     4  12  22  40  60  90 128 168 206 242 292 368
#     4  10  20  37  58  86 121 159 203 246 299 369
#     4  10  21  38  57  86 118 152 202 244 295 366
#     4   9  18  37  65  89 114 154 206 261 309 355
#     4  11  24  38  59  87 126 168 201 244 300 361
#     4  11  21  32  53  83 117 155 188 236 296 359
#
# _framework density 26.942779999999999
#
# number of rings (size 3 to 8) (size 9 to 14) (size 15 to 20)
#    0.000    1.714    2.857    2.000    4.000    3.048 
#    0.000    0.952    0.000    2.286    0.000    0.000 
#    0.000    0.000    0.000    0.000    0.000    0.000 
#
# Total GULP energy -117220.085167 kJ/mol
# GULP energy per Si atom -5581.908817 kJ/mol
# Density = 2.688146 g / cm^3
# Si number density = 26.942780 Si / 1000 Ang^3
#
#
#
# Elastic Constant Matrix: (Units=GPa)
#
#
# Indices 1 2 3 4 5 6 
#
# 1 109.4841 16.6620 41.2642 0.0000 -31.4488 0.0000
# 2 16.6620 153.2242 -0.5384 0.0000 -2.1207 0.0000
# 3 41.2642 -0.5384 188.6115 0.0000 -45.7067 0.0000
# 4 0.0000 0.0000 0.0000 16.7524 0.0000 -2.2540
# 5 -31.4488 -2.1207 -45.7067 0.0000 59.8559 0.0000
# 6 0.0000 0.0000 0.0000 -2.2540 0.0000 12.3599
#
#
#
# Elastic Compliance Matrix: (Units=1/GPa)
#
#
# Indices 1 2 3 4 5 6 
#
# 1 0.011186 -0.001154 -0.001272 0.000000 0.004865 0.000000
# 2 -0.001154 0.006650 0.000223 0.000000 -0.000200 0.000000
# 3 -0.001272 0.000223 0.006652 0.000000 0.004419 0.000000
# 4 0.000000 0.000000 0.000000 0.061195 0.000000 0.011160
# 5 0.004865 -0.000200 0.004419 0.000000 0.022631 0.000000
# 6 0.000000 0.000000 0.000000 0.011160 0.000000 0.082942
#
#
# Mechanical properties :
#
#
# Convention : Reuss Voigt Hill
#
# Bulk Modulus (GPa) = 49.79322 62.89948 56.34635
# Shear Modulus (GPa) = 24.70927 44.05578 34.38252
#
# Velocity S-wave (km/s) = 3.03165 4.04810 3.57617
# Velocity P-wave (km/s) = 5.54759 6.72650 6.16529
#
# Compressibility (1/GPa) = 0.02008306
#
# Stress axis : x y z
#
# Youngs Moduli (GPa) = 89.39656 150.37977 150.33960
#
# Poissons Ratio (x) = 0.17347 0.19116
# Poissons Ratio (y) = 0.10312 -0.03350
# Poissons Ratio (z) = 0.11367 -0.03350
#
# Static dielectric constant tensor:
#      x y z
#    x 2.120860 0.000000 -0.018190 
#    y 0.000000 2.032400 0.000000 
#    z -0.018190 0.000000 2.186910 
# 
# From -- ./inp_files/243479.got.cif
#   From: 2010.05.17/outbox.cif.g08.bks.cpg/sg12_122_cif.got.tgz:243479.got - 2010.06.03 13:09:07.
