data_PCOD9200070
_publ_section_title
;
Structure prediction by ZEFSAII (Michael W. Deem and Ramdas Pophale) SiO2 
 PCOD9200070
Probable space group: C 2/M
;
_chemical_formula_sum "Si O2"
_cell_formula_units_Z 50
_cell_length_a 30.785946
_cell_length_b 7.503667
_cell_length_c 31.158374
_cell_angle_alpha 90.000000
_cell_angle_beta 163.085376
_cell_angle_gamma 90.000000
_cell_volume 2094.179129
_symmetry_space_group_name_H-M "C 2/M"
_symmetry_group_IT_number 12
_symmetry_cell_setting 'monoclinic'
loop_
_space_group_symop_operation_xyz
x,y,z
-x,y,-z
-x,-y,-z
x,-y,z
1/2+x,1/2+y,z
1/2-x,1/2+y,-z
1/2-x,1/2-y,-z
1/2+x,1/2-y,z
loop_
_atom_site_type_symbol
_atom_site_label
_atom_site_fract_x
_atom_site_fract_y
_atom_site_fract_z
Si Si1 0.529048 0.705870 0.636627
Si Si2 0.500000 0.500000 0.000000
Si Si3 0.068646 0.715463 0.126924
Si Si4 0.184784 0.703590 0.869345
Si Si5 0.658216 0.295631 0.673436
Si Si6 0.463613 0.708564 0.187056
Si Si7 0.696202 0.214376 0.338436
O O1 0.501174 0.500000 0.596970
O O2 0.625258 0.705910 0.770574
O O3 0.619104 0.788123 0.682221
O O4 0.364540 0.782119 0.490388
O O5 0.541972 0.340730 0.003860
O O6 0.044185 0.500000 0.100614
O O7 0.222009 0.775047 0.247320
O O8 0.094143 0.761180 0.200787
O O9 0.216842 0.500000 0.887998
O O10 0.059335 0.708260 0.788054
O O11 0.333094 0.780380 0.032107
O O12 0.500000 0.297871 0.500000
O O13 0.709431 0.500000 0.729070
O O14 0.433035 0.500000 0.164324
O O15 0.618546 0.728842 0.308993
O O16 0.702572 0.000000 0.345419
#
# Coordination Sequence:
#
# PCOD9200070 Si02
#       7
#     8   2   8   8   8   8   8
#     4  10  20  36  63  93 121 157 209 255 307 372
#     4  12  26  40  58  90 128 168 214 274 296 386
#     4  10  22  42  64  89 127 171 214 260 318 368
#     4  10  22  41  60  88 119 156 203 254 307 374
#     4   9  16  35  64  88 116 163 210 254 307 367
#     4  10  22  40  64  86 121 161 201 250 311 371
#     4  10  21  38  63  92 122 163 204 252 312 376
#
# _framework density 23.875703999999999
#
# number of rings (size 3 to 8) (size 9 to 14) (size 15 to 20)
#    0.000    2.080    1.600    1.200    1.120    4.480 
#    4.320    3.600    0.000    0.000    0.000    0.000 
#    0.000    0.000    0.000    0.000    0.000    0.000 
#
# Total GULP energy -139383.853471 kJ/mol
# GULP energy per Si atom -5575.354139 kJ/mol
# Density = 2.382136 g / cm^3
# Si number density = 23.875704 Si / 1000 Ang^3
#
#
#
# Elastic Constant Matrix: (Units=GPa)
#
#
# Indices 1 2 3 4 5 6 
#
# 1 127.6659 -7.1945 16.7444 0.0056 6.8352 -0.0097
# 2 -7.1945 87.3724 -2.4651 -0.0104 -6.0672 -0.0057
# 3 16.7444 -2.4651 28.9465 -0.0044 4.2053 -0.0350
# 4 0.0056 -0.0104 -0.0044 28.6446 -0.0034 -62.0195
# 5 6.8352 -6.0672 4.2053 -0.0034 43.9206 -0.0021
# 6 -0.0097 -0.0057 -0.0350 -62.0195 -0.0021 139.5969
#
#
#
# Elastic Compliance Matrix: (Units=1/GPa)
#
#
# Indices 1 2 3 4 5 6 
#
# 1 0.008531 0.000512 -0.004775 -0.000094 -0.000800 -0.000043
# 2 0.000512 0.011604 0.000477 0.000152 0.001478 0.000068
# 3 -0.004775 0.000477 0.037757 0.000692 -0.002806 0.000316
# 4 -0.000094 0.000152 0.000692 0.916748 0.000059 0.407289
# 5 -0.000800 0.001478 -0.002806 0.000059 0.023366 0.000026
# 6 -0.000043 0.000068 0.000316 0.407289 0.000026 0.188112
#
#
# Mechanical properties :
#
#
# Convention : Reuss Voigt Hill
#
# Bulk Modulus (GPa) = 19.87247 28.68382 24.27815
# Shear Modulus (GPa) = 4.13065 58.22574 31.17820
#
# Velocity S-wave (km/s) = 1.31675 4.94368 3.61758
# Velocity P-wave (km/s) = 3.26391 6.68031 5.25736
#
# Compressibility (1/GPa) = 0.05032086
#
# Stress axis : x y z
#
# Youngs Moduli (GPa) = 117.22079 86.18069 26.48482
#
# Poissons Ratio (x) = -0.04414 0.12647
# Poissons Ratio (y) = -0.06004 -0.01264
# Poissons Ratio (z) = 0.55974 -0.04114
#
# Static dielectric constant tensor:
#      x y z
#    x 1.888060 -0.000010 0.025570 
#    y -0.000010 1.560170 -0.000010 
#    z 0.025570 -0.000010 2.021190 
# 
# From -- ./inp_files/384874.got.cif
#   From: 2010.05.17/outbox.cif.g08.bks.cpg/sg12_193_cif.got.tgz:384874.got - 2010.06.03 13:09:07.
