data_PCOD9200321
_publ_section_title
;
Structure prediction by ZEFSAII (Michael W. Deem and Ramdas Pophale) SiO2 
 PCOD9200321
Probable space group: C 2/M
;
_chemical_formula_sum "Si O2"
_cell_formula_units_Z 48
_cell_length_a 20.930329
_cell_length_b 8.182039
_cell_length_c 18.115284
_cell_angle_alpha 90.000000
_cell_angle_beta 140.417892
_cell_angle_gamma 90.000000
_cell_volume 1976.729139
_symmetry_space_group_name_H-M "C 2/M"
_symmetry_group_IT_number 12
_symmetry_cell_setting 'monoclinic'
loop_
_space_group_symop_operation_xyz
x,y,z
-x,y,-z
-x,-y,-z
x,-y,z
1/2+x,1/2+y,z
1/2-x,1/2+y,-z
1/2-x,1/2-y,-z
1/2+x,1/2-y,z
loop_
_atom_site_type_symbol
_atom_site_label
_atom_site_fract_x
_atom_site_fract_y
_atom_site_fract_z
Si Si1 0.664741 0.686863 0.496247
Si Si2 0.886882 0.803536 0.915942
Si Si3 0.792787 0.805604 0.156946
Si Si4 0.476510 0.700170 0.230110
Si Si5 0.881646 0.315432 0.389918
Si Si6 0.862268 0.194268 0.733034
O O1 0.676693 0.500000 0.484448
O O2 0.563176 0.750373 0.366595
O O3 0.642519 0.699750 0.563502
O O4 0.775195 0.768507 0.596334
O O5 0.820799 0.749416 0.926828
O O6 0.836974 0.749955 0.793339
O O7 0.889733 0.000000 0.923841
O O8 0.000000 0.748114 0.000000
O O9 0.849622 0.748915 0.281881
O O10 0.865682 0.742874 0.155792
O O11 0.791292 0.000000 0.150637
O O12 0.472518 0.500000 0.226291
O O13 0.530554 0.754694 0.202589
O O14 0.838807 0.500000 0.363343
O O15 0.000000 0.330931 0.500000
O O16 0.872541 0.000000 0.747031
#
# Coordination Sequence:
#
# PCOD9200321 Si02
#       6
#     8   8   8   8   8   8
#     4  11  20  32  52  81 116 150 187 225 269 319
#     4  10  22  40  61  83 107 140 186 238 287 335
#     4  11  21  36  58  82 111 143 184 235 282 328
#     4   9  20  35  53  81 116 153 183 220 274 329
#     4  11  21  32  50  79 114 151 189 223 266 328
#     4  10  20  37  57  78 111 152 191 225 271 330
#
# _framework density 24.282537000000001
#
# number of rings (size 3 to 8) (size 9 to 14) (size 15 to 20)
#    0.000    1.667    3.333    2.000    0.000    1.000 
#    0.000    3.333    0.000    0.000    0.000    0.000 
#    0.000    0.000    0.000    0.000    0.000    0.000 
#
# Total GULP energy -133879.568664 kJ/mol
# GULP energy per Si atom -5578.315361 kJ/mol
# Density = 2.422727 g / cm^3
# Si number density = 24.282537 Si / 1000 Ang^3
#
#
#
# Elastic Constant Matrix: (Units=GPa)
#
#
# Indices 1 2 3 4 5 6 
#
# 1 184.8752 17.7506 19.9662 0.0000 47.1556 0.0000
# 2 17.7506 35.8104 3.3457 0.0000 11.1395 0.0000
# 3 19.9662 3.3457 60.9918 0.0000 32.4057 0.0000
# 4 0.0000 0.0000 0.0000 11.7277 0.0000 10.6995
# 5 47.1556 11.1395 32.4057 0.0000 44.5987 0.0000
# 6 0.0000 0.0000 0.0000 10.6995 0.0000 28.7504
#
#
#
# Elastic Compliance Matrix: (Units=1/GPa)
#
#
# Indices 1 2 3 4 5 6 
#
# 1 0.007751 -0.000994 0.002833 0.000000 -0.010005 0.000000
# 2 -0.000994 0.030967 0.003547 0.000000 -0.009261 0.000000
# 3 0.002833 0.003547 0.028237 0.000000 -0.024399 0.000000
# 4 0.000000 0.000000 0.000000 0.129101 0.000000 -0.048045
# 5 -0.010005 -0.009261 -0.024399 0.000000 0.053042 0.000000
# 6 0.000000 0.000000 0.000000 -0.048045 0.000000 0.052662
#
#
# Mechanical properties :
#
#
# Convention : Reuss Voigt Hill
#
# Bulk Modulus (GPa) = 12.86554 40.42247 26.64400
# Shear Modulus (GPa) = 15.77801 33.05636 24.41718
#
# Velocity S-wave (km/s) = 2.55182 3.69361 3.17447
# Velocity P-wave (km/s) = 3.74061 5.90536 4.94294
#
# Compressibility (1/GPa) = 0.07772702
#
# Stress axis : x y z
#
# Youngs Moduli (GPa) = 129.02368 32.29236 35.41459
#
# Poissons Ratio (x) = 0.03210 -0.10034
# Poissons Ratio (y) = 0.12827 -0.12562
# Poissons Ratio (z) = -0.36555 -0.11455
#
# Static dielectric constant tensor:
#      x y z
#    x 2.039770 0.000000 0.050790 
#    y 0.000000 1.877990 0.000000 
#    z 0.050790 0.000000 2.036660 
# 
# From -- ./inp_files/249352.got.cif
#   From: 2010.05.17/outbox.cif.g08.bks.cpg/sg12_125_cif.got.tgz:249352.got - 2010.06.03 13:09:07.
