data_PCOD9200554
_publ_section_title
;
Structure prediction by ZEFSAII (Michael W. Deem and Ramdas Pophale) SiO2 
 PCOD9200554
Probable space group: C 2/M
;
_chemical_formula_sum "Si O2"
_cell_formula_units_Z 64
_cell_length_a 11.344079
_cell_length_b 19.827901
_cell_length_c 27.289427
_cell_angle_alpha 90.000000
_cell_angle_beta 149.223946
_cell_angle_gamma 90.000000
_cell_volume 3140.813097
_symmetry_space_group_name_H-M "C 2/M"
_symmetry_group_IT_number 12
_symmetry_cell_setting 'monoclinic'
loop_
_space_group_symop_operation_xyz
x,y,z
-x,y,-z
-x,-y,-z
x,-y,z
1/2+x,1/2+y,z
1/2-x,1/2+y,-z
1/2-x,1/2-y,-z
1/2+x,1/2-y,z
loop_
_atom_site_type_symbol
_atom_site_label
_atom_site_fract_x
_atom_site_fract_y
_atom_site_fract_z
Si Si1 0.550588 0.419745 0.162761
Si Si2 0.132202 0.690006 0.152172
Si Si3 0.643800 0.801076 0.268498
Si Si4 0.166517 0.824417 0.454940
Si Si5 0.878259 0.170360 0.903857
Si Si6 0.464556 0.921300 0.378458
Si Si7 0.172028 0.832200 0.343492
Si Si8 0.825208 0.425773 0.893453
O O1 0.507866 0.500000 0.140436
O O2 0.523696 0.377539 0.103746
O O3 0.812244 0.410943 0.275468
O O4 0.392803 0.397752 0.152803
O O5 0.090318 0.714570 0.192200
O O6 0.083214 0.751792 0.098609
O O7 0.396562 0.664993 0.246617
O O8 0.036608 0.621076 0.095600
O O9 0.402738 0.835796 0.197462
O O10 0.700372 0.735356 0.321239
O O11 0.891778 0.837517 0.359274
O O12 0.250000 0.750000 0.500000
O O13 0.306072 0.877353 0.537276
O O14 0.240409 0.828630 0.424520
O O15 0.000000 0.158601 0.000000
O O16 0.304627 0.892614 0.364976
O O17 0.509214 0.000000 0.400609
O O18 0.763227 0.500000 0.850829
O O19 0.000000 0.434291 0.000000
#
# Coordination Sequence:
#
# PCOD9200554 Si02
#       8
#     8   8   8   8   8   8   8   8
#     4  10  23  44  66  89 126 170 216 263 312 385
#     4  10  21  37  61  91 131 159 205 264 319 369
#     4  10  23  40  59  94 127 167 211 260 317 373
#     4  11  23  37  62  93 123 167 212 259 312 381
#     4  11  25  40  64  95 127 172 214 262 315 378
#     4  11  22  39  64  93 124 162 209 262 319 375
#     4  10  20  37  58  89 124 163 206 251 310 372
#     4  10  21  38  63  91 120 164 213 265 323 375
#
# _framework density 20.376891000000001
#
# number of rings (size 3 to 8) (size 9 to 14) (size 15 to 20)
#    0.000    1.625    2.500    1.500    7.000    1.750 
#    0.000    3.125    0.000    1.500    0.000    0.000 
#    0.000    0.000    0.000    0.000    0.000    0.000 
#
# Total GULP energy -178280.853414 kJ/mol
# GULP energy per Si atom -5571.276669 kJ/mol
# Density = 2.033051 g / cm^3
# Si number density = 20.376891 Si / 1000 Ang^3
#
#
#
# Elastic Constant Matrix: (Units=GPa)
#
#
# Indices 1 2 3 4 5 6 
#
# 1 59.7552 25.8742 27.9253 0.0004 2.0040 -0.0004
# 2 25.8742 73.7376 43.1986 -0.0058 -8.2020 0.0028
# 3 27.9253 43.1986 87.3500 -0.0165 2.6256 0.0076
# 4 0.0004 -0.0058 -0.0165 134.7631 -0.0047 -61.8016
# 5 2.0040 -8.2020 2.6256 -0.0047 32.2073 0.0021
# 6 -0.0004 0.0028 0.0076 -61.8016 0.0021 54.9261
#
#
#
# Elastic Compliance Matrix: (Units=1/GPa)
#
#
# Indices 1 2 3 4 5 6 
#
# 1 0.020974 -0.005251 -0.004039 -0.000001 -0.002313 0.000000
# 2 -0.005251 0.021490 -0.009146 0.000000 0.006545 0.000000
# 3 -0.004039 -0.009146 0.017368 0.000002 -0.003494 0.000000
# 4 -0.000001 0.000000 0.000002 0.015331 0.000001 0.017251
# 5 -0.002313 0.006545 -0.003494 0.000001 0.033144 0.000000
# 6 0.000000 0.000000 0.000000 0.017251 0.000000 0.037616
#
#
# Mechanical properties :
#
#
# Convention : Reuss Voigt Hill
#
# Bulk Modulus (GPa) = 43.55373 46.09323 44.82348
# Shear Modulus (GPa) = 26.25389 52.63560 39.44475
#
# Velocity S-wave (km/s) = 3.59334 5.08794 4.40450
# Velocity P-wave (km/s) = 6.21584 7.56212 6.92179
#
# Compressibility (1/GPa) = 0.02296015
#
# Stress axis : x y z
#
# Youngs Moduli (GPa) = 47.67910 46.53289 57.57854
#
# Poissons Ratio (x) = 0.24433 0.23256
# Poissons Ratio (y) = 0.25034 0.52662
# Poissons Ratio (z) = 0.19257 0.42559
#
# Static dielectric constant tensor:
#      x y z
#    x 1.778810 0.000000 0.015770 
#    y 0.000000 1.962320 0.000000 
#    z 0.015770 0.000000 1.860140 
# 
# From -- ./inp_files/374508.got.cif
#   From: 2010.05.17/outbox.cif.g08.bks.cpg/sg12_188_cif.got.tgz:374508.got - 2010.06.03 13:09:07.
