data_PCOD9200117
_publ_section_title
;
Structure prediction by ZEFSAII (Michael W. Deem and Ramdas Pophale) SiO2 
 PCOD9200117
Probable space group: C 2/M
;
_chemical_formula_sum "Si O2"
_cell_formula_units_Z 38
_cell_length_a 6.757467
_cell_length_b 13.747679
_cell_length_c 15.361050
_cell_angle_alpha 90.000000
_cell_angle_beta 86.473138
_cell_angle_gamma 90.000000
_cell_volume 1424.330962
_symmetry_space_group_name_H-M "C 2/M"
_symmetry_group_IT_number 12
_symmetry_cell_setting 'monoclinic'
loop_
_space_group_symop_operation_xyz
x,y,z
-x,y,-z
-x,-y,-z
x,-y,z
1/2+x,1/2+y,z
1/2-x,1/2+y,-z
1/2-x,1/2-y,-z
1/2+x,1/2-y,z
loop_
_atom_site_type_symbol
_atom_site_label
_atom_site_fract_x
_atom_site_fract_y
_atom_site_fract_z
Si Si1 0.230212 0.135688 0.483228
Si Si2 0.838408 0.347629 0.108424
Si Si3 0.141351 0.166428 0.297708
Si Si4 0.500000 0.000000 0.000000
Si Si5 0.685799 0.106309 0.328340
Si Si6 0.000000 0.169032 0.000000
O O1 0.250000 0.250000 0.500000
O O2 0.257755 0.124895 0.379132
O O3 0.339899 0.098143 0.565815
O O4 0.000000 0.107988 0.500000
O O5 0.761684 0.352670 0.207216
O O6 0.016012 0.415533 0.075919
O O7 0.892412 0.240000 0.073357
O O8 0.661271 0.387071 0.051143
O O9 0.113694 0.284328 0.304928
O O10 0.923380 0.119256 0.303835
O O11 0.625719 0.000000 0.293091
#
# Coordination Sequence:
#
# PCOD9200117 Si02
#       6
#     8   8   8   2   8   4
#     4   8  16  31  53  86 120 164 201 250 309 360
#     4  10  20  39  61  91 121 163 209 264 320 389
#     4  10  20  36  64  89 128 165 213 266 308 381
#     4  10  24  38  60  94 128 154 216 264 328 400
#     4  10  21  38  62  93 129 170 212 256 317 379
#     4   9  20  38  66  81 118 168 195 260 340 365
#
# _framework density 26.679193999999999
#
# number of rings (size 3 to 8) (size 9 to 14) (size 15 to 20)
#    0.000    2.526    0.000    1.263    1.474    4.211 
#    0.000    1.053   39.368   56.842    0.000    0.000 
#    0.000    0.000    0.000    0.000    0.000    0.000 
#
# Total GULP energy -105944.053132 kJ/mol
# GULP energy per Si atom -5576.002796 kJ/mol
# Density = 2.661847 g / cm^3
# Si number density = 26.679194 Si / 1000 Ang^3
#
#
#
# Elastic Constant Matrix: (Units=GPa)
#
#
# Indices 1 2 3 4 5 6 
#
# 1 73.2536 6.5198 35.0229 0.0000 3.1997 0.0000
# 2 6.5198 180.6227 22.3121 0.0000 -6.7826 0.0000
# 3 35.0229 22.3121 241.4173 0.0000 -46.6134 0.0000
# 4 0.0000 0.0000 0.0000 -32.0029 0.0000 45.9008
# 5 3.1997 -6.7826 -46.6134 0.0000 46.5971 0.0000
# 6 0.0000 0.0000 0.0000 45.9008 0.0000 -66.0961
#
#
#
# Elastic Compliance Matrix: (Units=1/GPa)
#
#
# Indices 1 2 3 4 5 6 
#
# 1 0.015280 -0.000337 -0.002971 0.000000 -0.004071 0.000000
# 2 -0.000337 0.005613 -0.000381 0.000000 0.000459 0.000000
# 3 -0.002971 -0.000381 0.005747 0.000000 0.005898 0.000000
# 4 0.000000 0.000000 0.000000 -7.883802 0.000000 -5.474950
# 5 -0.004071 0.000459 0.005898 0.000000 0.027707 0.000000
# 6 0.000000 0.000000 0.000000 -5.474950 0.000000 -3.817238
#
#
# Mechanical properties :
#
#
# Convention : Reuss Voigt Hill
#
# Bulk Modulus (GPa) = 51.92164 69.22260 60.57212
# Shear Modulus (GPa) = -0.42982 18.46222 9.01620
#
# Velocity S-wave (km/s) = -0.40181 2.63346 1.84033
# Velocity P-wave (km/s) = 4.39186 5.93712 5.22197
#
# Compressibility (1/GPa) = 0.01925979
#
# Stress axis : x y z
#
# Youngs Moduli (GPa) = 65.44616 178.16094 173.99496
#
# Poissons Ratio (x) = 0.06010 0.51703
# Poissons Ratio (y) = 0.02208 0.06633
# Poissons Ratio (z) = 0.19447 0.06792
#
# Static dielectric constant tensor:
#      x y z
#    x 2.376380 0.000000 -0.073650 
#    y 0.000000 2.083860 0.000000 
#    z -0.073650 0.000000 2.092330 
# 
# From -- ./inp_files/255010.got.cif
#   From: 2010.05.17/outbox.cif.g08.bks.cpg/sg12_128_cif.got.tgz:255010.got - 2010.06.03 13:09:07.
