data_PCOD9200382
_publ_section_title
;
Structure prediction by ZEFSAII (Michael W. Deem and Ramdas Pophale) SiO2 
 PCOD9200382
Probable space group: C 2/M
;
_chemical_formula_sum "Si O2"
_cell_formula_units_Z 44
_cell_length_a 14.140899
_cell_length_b 20.181510
_cell_length_c 8.532004
_cell_angle_alpha 90.000000
_cell_angle_beta 79.126266
_cell_angle_gamma 90.000000
_cell_volume 2391.185387
_symmetry_space_group_name_H-M "C 2/M"
_symmetry_group_IT_number 12
_symmetry_cell_setting 'monoclinic'
loop_
_space_group_symop_operation_xyz
x,y,z
-x,y,-z
-x,-y,-z
x,-y,z
1/2+x,1/2+y,z
1/2-x,1/2+y,-z
1/2-x,1/2-y,-z
1/2+x,1/2-y,z
loop_
_atom_site_type_symbol
_atom_site_label
_atom_site_fract_x
_atom_site_fract_y
_atom_site_fract_z
Si Si1 0.425017 0.350813 0.353110
Si Si2 0.966213 0.289521 0.670176
Si Si3 0.500000 0.857687 0.000000
Si Si4 0.743453 0.288927 0.779438
Si Si5 0.210819 0.353630 0.900758
Si Si6 0.393748 0.421689 0.695487
O O1 0.477655 0.279904 0.348042
O O2 0.326500 0.335660 0.296097
O O3 0.399111 0.384647 0.526245
O O4 0.507665 0.397260 0.251156
O O5 0.983201 0.319488 0.838760
O O6 0.851907 0.280157 0.685078
O O7 0.000000 0.326647 0.500000
O O8 0.606521 0.888830 0.943287
O O9 0.700280 0.214823 0.805283
O O10 0.755298 0.324016 0.943666
O O11 0.296610 0.397928 0.808642
O O12 0.395563 0.500000 0.674287
#
# Coordination Sequence:
#
# PCOD9200382 Si02
#       6
#     8   8   4   8   8   8
#     4  11  20  36  59  84 123 155 197 252 299 364
#     4  11  20  33  54  92 125 153 189 241 314 371
#     4  10  22  34  57  92 127 148 190 250 312 370
#     4  10  21  33  58  91 121 149 197 251 318 364
#     4  10  20  37  57  87 121 156 196 253 306 365
#     4  11  24  41  57  83 121 169 208 240 293 365
#
# _framework density 18.400915999999999
#
# number of rings (size 3 to 8) (size 9 to 14) (size 15 to 20)
#    0.000    1.455    5.455    1.091    2.545    2.182 
#    0.000    3.182    0.000    0.000    0.000    2.545 
#    0.000    0.000    0.000    0.000    0.000    0.000 
#
# Total GULP energy -122486.507924 kJ/mol
# GULP energy per Si atom -5567.568542 kJ/mol
# Density = 1.835903 g / cm^3
# Si number density = 18.400916 Si / 1000 Ang^3
#
#
#
# Elastic Constant Matrix: (Units=GPa)
#
#
# Indices 1 2 3 4 5 6 
#
# 1 145.4698 25.3548 38.7633 0.0000 -19.2732 0.0000
# 2 25.3548 40.7662 22.6650 0.0000 5.4384 0.0000
# 3 38.7633 22.6650 82.1200 0.0000 -16.5787 0.0000
# 4 0.0000 0.0000 0.0000 4.4638 0.0000 -10.6348
# 5 -19.2732 5.4384 -16.5787 0.0000 33.1546 0.0000
# 6 0.0000 0.0000 0.0000 -10.6348 0.0000 -10.0005
#
#
#
# Elastic Compliance Matrix: (Units=1/GPa)
#
#
# Indices 1 2 3 4 5 6 
#
# 1 0.008946 -0.005314 -0.001702 0.000000 0.005221 0.000000
# 2 -0.005314 0.035263 -0.010028 0.000000 -0.013888 0.000000
# 3 -0.001702 -0.010028 0.017664 0.000000 0.009488 0.000000
# 4 0.000000 0.000000 0.000000 0.063399 0.000000 -0.067420
# 5 0.005221 -0.013888 0.009488 0.000000 0.040219 0.000000
# 6 0.000000 0.000000 0.000000 -0.067420 0.000000 -0.028299
#
#
# Mechanical properties :
#
#
# Convention : Reuss Voigt Hill
#
# Bulk Modulus (GPa) = 35.99076 49.10247 42.54662
# Shear Modulus (GPa) = 27.69438 17.62844 22.66141
#
# Velocity S-wave (km/s) = 3.88371 3.09855 3.51313
# Velocity P-wave (km/s) = 6.30180 6.28841 6.29511
#
# Compressibility (1/GPa) = 0.02778491
#
# Stress axis : x y z
#
# Youngs Moduli (GPa) = 111.78497 28.35814 56.61262
#
# Poissons Ratio (x) = 0.15070 0.09635
# Poissons Ratio (y) = 0.59404 0.56771
# Poissons Ratio (z) = 0.19026 0.28437
#
# Static dielectric constant tensor:
#      x y z
#    x 1.692550 0.000000 0.015330 
#    y 0.000000 1.598840 0.000000 
#    z 0.015330 0.000000 1.708430 
# 
# From -- ./inp_files/62651.got.cif
#   From: 2010.05.17/outbox.cif.g08.bks.cpg/sg12_32_cif.got.tgz:62651.got - 2010.06.03 13:09:07.
