data_PCOD9200801
_publ_section_title
;
Structure prediction by ZEFSAII (Michael W. Deem and Ramdas Pophale) SiO2 
 PCOD9200801
Probable space group: C 2/M
;
_chemical_formula_sum "Si O2"
_cell_formula_units_Z 56
_cell_length_a 21.379360
_cell_length_b 15.463718
_cell_length_c 21.459232
_cell_angle_alpha 90.000000
_cell_angle_beta 158.985397
_cell_angle_gamma 90.000000
_cell_volume 2544.135294
_symmetry_space_group_name_H-M "C 2/M"
_symmetry_group_IT_number 12
_symmetry_cell_setting 'monoclinic'
loop_
_space_group_symop_operation_xyz
x,y,z
-x,y,-z
-x,-y,-z
x,-y,z
1/2+x,1/2+y,z
1/2-x,1/2+y,-z
1/2-x,1/2-y,-z
1/2+x,1/2-y,z
loop_
_atom_site_type_symbol
_atom_site_label
_atom_site_fract_x
_atom_site_fract_y
_atom_site_fract_z
Si Si1 0.539045 0.105323 0.328995
Si Si2 0.426783 0.902713 0.001982
Si Si3 0.212292 0.895783 0.331238
Si Si4 0.330110 0.398977 0.981669
Si Si5 0.780532 0.605880 0.633279
Si Si6 0.201226 0.829319 0.182986
Si Si7 0.562205 0.668155 0.624948
O O1 0.639977 0.135257 0.484475
O O2 0.340946 0.139290 0.145032
O O3 0.648937 0.124070 0.369836
O O4 0.527673 0.000000 0.321777
O O5 0.570910 0.860917 0.180410
O O6 0.420343 0.000000 0.020182
O O7 0.500000 0.902455 0.000000
O O8 0.228899 0.873514 0.813548
O O9 0.238112 0.872905 0.283254
O O10 0.208351 0.000000 0.331516
O O11 0.020777 0.861836 0.172959
O O12 0.337803 0.500000 0.005161
O O13 0.303526 0.389990 0.882234
O O14 0.752670 0.500000 0.613684
O O15 0.604216 0.655245 0.486541
O O16 0.352286 0.760110 0.312096
O O17 0.000000 0.793443 0.000000
O O18 0.500000 0.629310 0.500000
#
# Coordination Sequence:
#
# PCOD9200801 Si02
#       7
#     8   8   8   8   8   8   8
#     4   9  19  35  59  90 119 149 191 240 290 349
#     4  10  20  37  60  83 109 143 190 249 301 342
#     4   9  18  35  61  91 121 152 193 240 288 344
#     4   9  18  35  59  86 118 155 196 241 290 340
#     4  10  22  40  62  89 117 150 196 244 292 351
#     4  10  22  37  58  87 122 157 196 243 290 343
#     4  12  24  36  57  85 117 154 193 238 296 350
#
# _framework density 22.011407999999999
#
# number of rings (size 3 to 8) (size 9 to 14) (size 15 to 20)
#    0.000    2.143    1.429    1.286    2.000    3.429 
#    0.000    7.143    0.000    2.571    0.000    0.000 
#    0.000    0.000    0.000    0.000    0.000    0.000 
#
# Total GULP energy -156291.492745 kJ/mol
# GULP energy per Si atom -5581.839027 kJ/mol
# Density = 2.196131 g / cm^3
# Si number density = 22.011408 Si / 1000 Ang^3
#
#
#
# Elastic Constant Matrix: (Units=GPa)
#
#
# Indices 1 2 3 4 5 6 
#
# 1 65.0942 7.5443 25.5042 0.0435 30.8090 -0.0031
# 2 7.5443 31.5288 27.0636 0.0346 11.1604 0.0075
# 3 25.5042 27.0636 124.9063 0.0768 27.3195 -0.0023
# 4 0.0435 0.0346 0.0768 -7.8368 0.0304 23.6192
# 5 30.8090 11.1604 27.3195 0.0304 38.1858 -0.0101
# 6 -0.0031 0.0075 -0.0023 23.6192 -0.0101 6.9491
#
#
#
# Elastic Compliance Matrix: (Units=1/GPa)
#
#
# Indices 1 2 3 4 5 6 
#
# 1 0.025033 0.002106 -0.001204 0.000000 -0.019951 -0.000020
# 2 0.002106 0.040480 -0.007399 -0.000008 -0.008236 -0.000031
# 3 -0.001204 -0.007399 0.010871 0.000006 -0.004643 -0.000014
# 4 0.000000 -0.000008 0.000006 -0.011349 0.000018 0.038573
# 5 -0.019951 -0.008236 -0.004643 0.000018 0.048014 0.000008
# 6 -0.000020 -0.000031 -0.000014 0.038573 0.000008 0.012799
#
#
# Mechanical properties :
#
#
# Convention : Reuss Voigt Hill
#
# Bulk Modulus (GPa) = 15.77584 37.97262 26.87423
# Shear Modulus (GPa) = 31.25552 18.22076 24.73814
#
# Velocity S-wave (km/s) = 3.77234 2.88025 3.35607
# Velocity P-wave (km/s) = 5.11436 5.32446 5.22047
#
# Compressibility (1/GPa) = 0.06338805
#
# Stress axis : x y z
#
# Youngs Moduli (GPa) = 39.94762 24.70356 91.99079
#
# Poissons Ratio (x) = -0.05202 0.11075
# Poissons Ratio (y) = -0.08411 0.68068
# Poissons Ratio (z) = 0.04809 0.18279
#
# Static dielectric constant tensor:
#      x y z
#    x 1.787120 -0.000050 0.007590 
#    y -0.000050 1.859180 -0.000010 
#    z 0.007590 -0.000010 1.850860 
# 
# From -- ./inp_files/322750.got.cif
#   From: 2010.05.17/outbox.cif.g08.bks.cpg/sg12_162_cif.got.tgz:322750.got - 2010.06.03 13:09:07.
