data_PCOD9200015
_publ_section_title
;
Structure prediction by ZEFSAII (Michael W. Deem and Ramdas Pophale) SiO2 
 PCOD9200015
Probable space group: C 2/M
;
_chemical_formula_sum "Si O2"
_cell_formula_units_Z 32
_cell_length_a 10.358112
_cell_length_b 18.227049
_cell_length_c 8.423298
_cell_angle_alpha 90.000000
_cell_angle_beta 132.542420
_cell_angle_gamma 90.000000
_cell_volume 1171.696571
_symmetry_space_group_name_H-M "C 2/M"
_symmetry_group_IT_number 12
_symmetry_cell_setting 'monoclinic'
loop_
_space_group_symop_operation_xyz
x,y,z
-x,y,-z
-x,-y,-z
x,-y,z
1/2+x,1/2+y,z
1/2-x,1/2+y,-z
1/2-x,1/2-y,-z
1/2+x,1/2-y,z
loop_
_atom_site_type_symbol
_atom_site_label
_atom_site_fract_x
_atom_site_fract_y
_atom_site_fract_z
Si Si1 0.156928 0.418606 0.252341
Si Si2 0.849871 0.218287 0.740558
Si Si3 0.598658 0.126238 0.722861
Si Si4 0.582174 0.415243 0.800903
O O1 0.185881 0.500000 0.345746
O O2 0.324416 0.395183 0.289501
O O3 0.060451 0.363461 0.288746
O O4 0.000000 0.428716 0.000000
O O5 0.750000 0.250000 0.500000
O O6 0.688863 0.197819 0.724763
O O7 0.942271 0.143402 0.747399
O O8 0.000000 0.245544 0.000000
O O9 0.500000 0.085159 0.500000
O O10 0.756964 0.086271 0.940738
O O11 0.525520 0.500000 0.744323
#
# Coordination Sequence:
#
# PCOD9200015 Si02
#       4
#     8   8   8   8
#     4   8  15  31  58  97 145 189 234 301 384 460
#     4  10  23  46  74 107 151 201 257 318 381 455
#     4  10  20  36  63 105 146 189 244 307 385 456
#     4   9  19  39  70 107 147 192 247 315 388 458
#
# _framework density 27.310827
#
# number of rings (size 3 to 8) (size 9 to 14) (size 15 to 20)
#    0.000    2.750    0.000    2.250    0.000    7.500 
#    0.000   13.750    0.000    6.750    0.000    0.000 
#    0.000    0.000    0.000    0.000    0.000    0.000 
#
# Total GULP energy -89191.714476 kJ/mol
# GULP energy per Si atom -5574.482155 kJ/mol
# Density = 2.724867 g / cm^3
# Si number density = 27.310827 Si / 1000 Ang^3
#
#
#
# Elastic Constant Matrix: (Units=GPa)
#
#
# Indices 1 2 3 4 5 6 
#
# 1 132.0110 54.6061 114.4705 0.0000 1.3554 0.0000
# 2 54.6061 110.0959 86.8903 0.0000 8.0896 0.0000
# 3 114.4705 86.8903 239.6413 0.0000 29.8451 0.0000
# 4 0.0000 0.0000 0.0000 -102.6914 0.0000 2.1730
# 5 1.3554 8.0896 29.8451 0.0000 56.2900 0.0000
# 6 0.0000 0.0000 0.0000 2.1730 0.0000 20.6797
#
#
#
# Elastic Compliance Matrix: (Units=1/GPa)
#
#
# Indices 1 2 3 4 5 6 
#
# 1 0.013851 -0.002195 -0.006230 0.000000 0.003285 0.000000
# 2 -0.002195 0.013095 -0.003717 0.000000 0.000142 0.000000
# 3 -0.006230 -0.003717 0.009006 0.000000 -0.004091 0.000000
# 4 0.000000 0.000000 0.000000 -0.009716 0.000000 0.001021
# 5 0.003285 0.000142 -0.004091 0.000000 0.019835 0.000000
# 6 0.000000 0.000000 0.000000 0.001021 0.000000 0.048249
#
#
# Mechanical properties :
#
#
# Convention : Reuss Voigt Hill
#
# Bulk Modulus (GPa) = 85.70015 110.40911 98.05463
# Shear Modulus (GPa) = 40.81879 9.90775 25.36327
#
# Velocity S-wave (km/s) = 3.87020 1.90674 3.05075
# Velocity P-wave (km/s) = 7.17070 6.73514 6.95633
#
# Compressibility (1/GPa) = 0.01166859
#
# Stress axis : x y z
#
# Youngs Moduli (GPa) = 72.19601 76.36546 111.03763
#
# Poissons Ratio (x) = 0.16760 0.69173
# Poissons Ratio (y) = 0.15845 0.41276
# Poissons Ratio (z) = 0.44976 0.28387
#
# Static dielectric constant tensor:
#      x y z
#    x 2.151560 0.000000 -0.136070 
#    y 0.000000 2.300830 0.000000 
#    z -0.136070 0.000000 2.239480 
# 
# From -- ./inp_files/51111.got.cif
#   From: 2010.05.17/outbox.cif.g08.bks.cpg/sg12_26_cif.got.tgz:51111.got - 2010.06.03 13:09:07.
