data_PCOD9200432
_publ_section_title
;
Structure prediction by ZEFSAII (Michael W. Deem and Ramdas Pophale) SiO2 
 PCOD9200432
Probable space group: C 2/M
;
_chemical_formula_sum "Si O2"
_cell_formula_units_Z 64
_cell_length_a 11.833716
_cell_length_b 16.696803
_cell_length_c 26.168570
_cell_angle_alpha 90.000000
_cell_angle_beta 138.742417
_cell_angle_gamma 90.000000
_cell_volume 3409.677023
_symmetry_space_group_name_H-M "C 2/M"
_symmetry_group_IT_number 12
_symmetry_cell_setting 'monoclinic'
loop_
_space_group_symop_operation_xyz
x,y,z
-x,y,-z
-x,-y,-z
x,-y,z
1/2+x,1/2+y,z
1/2-x,1/2+y,-z
1/2-x,1/2-y,-z
1/2+x,1/2-y,z
loop_
_atom_site_type_symbol
_atom_site_label
_atom_site_fract_x
_atom_site_fract_y
_atom_site_fract_z
Si Si1 0.568388 0.095430 0.938400
Si Si2 0.892548 0.907268 0.652890
Si Si3 0.777753 0.136758 0.810570
Si Si4 0.132546 0.094987 0.881692
Si Si5 0.296740 0.677784 0.195176
Si Si6 0.689732 0.593267 0.066822
Si Si7 0.626609 0.910441 0.652034
Si Si8 0.129692 0.698467 0.497777
O O1 0.385238 0.134950 0.872387
O O2 0.681906 0.129002 0.930399
O O3 0.542599 0.000000 0.924563
O O4 0.686082 0.106402 0.028264
O O5 0.798403 0.907033 0.676141
O O6 0.761086 0.861092 0.571380
O O7 0.073409 0.862281 0.720221
O O8 0.915428 0.000000 0.645744
O O9 0.739209 0.230475 0.804208
O O10 0.738379 0.098219 0.851863
O O11 0.672348 0.105868 0.726168
O O12 0.975124 0.113632 0.865875
O O13 0.120241 0.157680 0.831529
O O14 0.121752 0.000000 0.862560
O O15 0.670619 0.500000 0.045070
O O16 0.500000 0.630404 0.000000
O O17 0.496680 0.848728 0.582926
O O18 0.556063 0.000000 0.622430
O O19 0.250000 0.750000 0.500000
O O20 0.000000 0.731213 0.500000
#
# Coordination Sequence:
#
# PCOD9200432 Si02
#       8
#     8   8   8   8   8   8   8   8
#     4  10  22  39  60  82 113 160 210 253 307 377
#     4  10  20  38  64  90 121 163 209 250 297 361
#     4  12  24  36  59  87 121 156 201 255 312 362
#     4  11  22  42  63  80 112 164 212 251 304 376
#     4  12  25  36  57  90 124 152 200 263 319 358
#     4  10  20  37  58  80 111 156 203 248 303 373
#     4  10  20  38  65  92 119 161 215 251 287 366
#     4  10  21  39  65  99 131 162 198 259 319 371
#
# _framework density 18.770106999999999
#
# number of rings (size 3 to 8) (size 9 to 14) (size 15 to 20)
#    0.000    1.375    2.500    3.750    1.750    4.000 
#    0.000    1.250    0.000    3.000    0.000    0.000 
#    0.000    0.000    0.000    0.000    0.000    0.000 
#
# Total GULP energy -178502.274396 kJ/mol
# GULP energy per Si atom -5578.196075 kJ/mol
# Density = 1.872739 g / cm^3
# Si number density = 18.770107 Si / 1000 Ang^3
#
#
#
# Elastic Constant Matrix: (Units=GPa)
#
#
# Indices 1 2 3 4 5 6 
#
# 1 57.9926 20.0078 16.3610 0.0000 -1.5336 0.0000
# 2 20.0078 62.7671 6.3942 0.0000 13.8881 0.0000
# 3 16.3610 6.3942 71.0855 0.0000 6.4874 0.0000
# 4 0.0000 0.0000 0.0000 13.7971 0.0000 12.2177
# 5 -1.5336 13.8881 6.4874 0.0000 32.7010 0.0000
# 6 0.0000 0.0000 0.0000 12.2177 0.0000 18.0426
#
#
#
# Elastic Compliance Matrix: (Units=1/GPa)
#
#
# Indices 1 2 3 4 5 6 
#
# 1 0.021262 -0.007424 -0.004690 0.000000 0.005080 0.000000
# 2 -0.007424 0.020235 0.000718 0.000000 -0.009084 0.000000
# 3 -0.004690 0.000718 0.015409 0.000000 -0.003582 0.000000
# 4 0.000000 0.000000 0.000000 0.181037 0.000000 -0.122591
# 5 0.005080 -0.009084 -0.003582 0.000000 0.035387 0.000000
# 6 0.000000 0.000000 0.000000 -0.122591 0.000000 0.138438
#
#
# Mechanical properties :
#
#
# Convention : Reuss Voigt Hill
#
# Bulk Modulus (GPa) = 29.31271 30.81902 30.06586
# Shear Modulus (GPa) = 11.21246 22.84696 17.02971
#
# Velocity S-wave (km/s) = 2.44674 3.49262 3.01537
# Velocity P-wave (km/s) = 4.86134 5.72009 5.30811
#
# Compressibility (1/GPa) = 0.03411490
#
# Stress axis : x y z
#
# Youngs Moduli (GPa) = 47.03162 49.41840 64.89614
#
# Poissons Ratio (x) = 0.36688 0.30434
# Poissons Ratio (y) = 0.34916 -0.04657
# Poissons Ratio (z) = 0.22056 -0.03546
#
# Static dielectric constant tensor:
#      x y z
#    x 1.700700 0.000000 0.001880 
#    y 0.000000 1.645650 0.000000 
#    z 0.001880 0.000000 1.640710 
# 
# From -- ./inp_files/358447.got.cif
#   From: 2010.05.17/outbox.cif.g08.bks.cpg/sg12_180_cif.got.tgz:358447.got - 2010.06.03 13:09:07.
