data_PCOD9200314
_publ_section_title
;
Structure prediction by ZEFSAII (Michael W. Deem and Ramdas Pophale) SiO2 
 PCOD9200314
Probable space group: C 2/M
;
_chemical_formula_sum "Si O2"
_cell_formula_units_Z 56
_cell_length_a 14.856583
_cell_length_b 8.633051
_cell_length_c 23.936362
_cell_angle_alpha 90.000000
_cell_angle_beta 64.314408
_cell_angle_gamma 90.000000
_cell_volume 2766.660322
_symmetry_space_group_name_H-M "C 2/M"
_symmetry_group_IT_number 12
_symmetry_cell_setting 'monoclinic'
loop_
_space_group_symop_operation_xyz
x,y,z
-x,y,-z
-x,-y,-z
x,-y,z
1/2+x,1/2+y,z
1/2-x,1/2+y,-z
1/2-x,1/2-y,-z
1/2+x,1/2-y,z
loop_
_atom_site_type_symbol
_atom_site_label
_atom_site_fract_x
_atom_site_fract_y
_atom_site_fract_z
Si Si1 0.097959 0.813084 0.008176
Si Si2 0.909239 0.684855 0.448520
Si Si3 0.709772 0.313394 0.716578
Si Si4 0.360004 0.813182 0.579761
Si Si5 0.683050 0.185298 0.096280
Si Si6 0.045264 0.185518 0.678943
Si Si7 0.664890 0.685159 0.224175
O O1 0.110274 0.748563 0.067481
O O2 0.094521 0.000000 0.012104
O O3 0.202490 0.768900 0.950109
O O4 0.000000 0.761592 0.000000
O O5 0.896125 0.500000 0.448651
O O6 0.848818 0.745016 0.518922
O O7 0.896612 0.755200 0.390966
O O8 0.025923 0.715105 0.432395
O O9 0.717711 0.500000 0.718716
O O10 0.786084 0.256926 0.647557
O O11 0.602338 0.273545 0.720479
O O12 0.739420 0.241614 0.767266
O O13 0.347698 0.000000 0.580432
O O14 0.659900 0.250317 0.163380
O O15 0.678358 0.000000 0.097921
O O16 0.932023 0.242189 0.714833
O O17 0.044439 0.000000 0.674869
O O18 0.662388 0.500000 0.223024
#
# Coordination Sequence:
#
# PCOD9200314 Si02
#       7
#     8   8   8   8   8   8   8
#     4   9  19  38  63  90 120 149 178 218 265 309
#     4   9  16  30  53  77 100 133 176 221 275 337
#     4  10  20  37  57  75 101 142 186 225 271 333
#     4   8  15  29  52  77  99 131 175 223 275 332
#     4  10  21  37  60  88 115 149 187 218 259 316
#     4  10  22  36  52  77 107 139 179 228 280 324
#     4  11  23  39  55  77 113 148 182 228 272 312
#
# _framework density 20.241009999999999
#
# number of rings (size 3 to 8) (size 9 to 14) (size 15 to 20)
#    0.000    2.429    1.429    1.714    0.000    3.714 
#    0.000    7.857    0.000    0.000    0.000    0.000 
#    0.000    0.000    0.000    0.000    0.000    0.000 
#
# Total GULP energy -156232.297310 kJ/mol
# GULP energy per Si atom -5579.724904 kJ/mol
# Density = 2.019494 g / cm^3
# Si number density = 20.241010 Si / 1000 Ang^3
#
#
#
# Elastic Constant Matrix: (Units=GPa)
#
#
# Indices 1 2 3 4 5 6 
#
# 1 97.2276 23.3753 36.0685 0.0000 33.6210 0.0000
# 2 23.3753 9.7652 17.7592 0.0000 9.2017 0.0000
# 3 36.0685 17.7592 99.0446 0.0000 36.0334 0.0000
# 4 0.0000 0.0000 0.0000 27.9873 0.0000 9.8205
# 5 33.6210 9.2017 36.0334 0.0000 31.2238 0.0000
# 6 0.0000 0.0000 0.0000 9.8205 0.0000 20.8129
#
#
#
# Elastic Compliance Matrix: (Units=1/GPa)
#
#
# Indices 1 2 3 4 5 6 
#
# 1 0.033354 -0.074681 0.010865 0.000000 -0.026445 0.000000
# 2 -0.074681 0.329392 -0.044480 0.000000 0.034674 0.000000
# 3 0.010865 -0.044480 0.023447 0.000000 -0.025650 0.000000
# 4 0.000000 0.000000 0.000000 0.042820 0.000000 -0.020205
# 5 -0.026445 0.034674 -0.025650 0.000000 0.079884 0.000000
# 6 0.000000 0.000000 0.000000 -0.020205 0.000000 0.057581
#
#
# Mechanical properties :
#
#
# Convention : Reuss Voigt Hill
#
# Bulk Modulus (GPa) = 5.89622 40.04926 22.97274
# Shear Modulus (GPa) = 5.95520 24.59375 15.27448
#
# Velocity S-wave (km/s) = 1.71713 3.48953 2.75003
# Velocity P-wave (km/s) = 2.61739 6.00541 4.63226
#
# Compressibility (1/GPa) = 0.16960007
#
# Stress axis : x y z
#
# Youngs Moduli (GPa) = 29.98172 3.03590 42.64976
#
# Poissons Ratio (x) = 0.22672 -0.46340
# Poissons Ratio (y) = 2.23907 1.89707
# Poissons Ratio (z) = -0.32576 0.13504
#
# Static dielectric constant tensor:
#      x y z
#    x 1.747550 0.000000 -0.013440 
#    y 0.000000 1.681570 0.000000 
#    z -0.013440 0.000000 1.723660 
# 
# From -- ./inp_files/337905.got.cif
#   From: 2010.05.17/outbox.cif.g08.bks.cpg/sg12_169_cif.got.tgz:337905.got - 2010.06.03 13:09:07.
