data_PCOD9200589
_publ_section_title
;
Structure prediction by ZEFSAII (Michael W. Deem and Ramdas Pophale) SiO2 
 PCOD9200589
Probable space group: C 2/M
;
_chemical_formula_sum "Si O2"
_cell_formula_units_Z 48
_cell_length_a 19.196431
_cell_length_b 8.444289
_cell_length_c 15.903100
_cell_angle_alpha 90.000000
_cell_angle_beta 89.885688
_cell_angle_gamma 90.000000
_cell_volume 2577.890737
_symmetry_space_group_name_H-M "C 2/M"
_symmetry_group_IT_number 12
_symmetry_cell_setting 'monoclinic'
loop_
_space_group_symop_operation_xyz
x,y,z
-x,y,-z
-x,-y,-z
x,-y,z
1/2+x,1/2+y,z
1/2-x,1/2+y,-z
1/2-x,1/2-y,-z
1/2+x,1/2-y,z
loop_
_atom_site_type_symbol
_atom_site_label
_atom_site_fract_x
_atom_site_fract_y
_atom_site_fract_z
Si Si1 0.794098 0.689510 0.579091
Si Si2 0.550255 0.808138 0.924852
Si Si3 0.293237 0.312345 0.078790
Si Si4 0.046236 0.307571 0.736630
Si Si5 0.707447 0.189631 0.736834
Si Si6 0.454406 0.806341 0.580542
O O1 0.795322 0.500000 0.575652
O O2 0.750000 0.750000 0.500000
O O3 0.756738 0.742159 0.664898
O O4 0.874334 0.746222 0.575685
O O5 0.626794 0.737814 0.934657
O O6 0.524834 0.762919 0.831401
O O7 0.555933 0.000000 0.926804
O O8 0.500000 0.758157 0.000000
O O9 0.286876 0.500000 0.083982
O O10 0.271666 0.240401 0.169095
O O11 0.250000 0.250000 0.000000
O O12 0.046690 0.500000 0.733334
O O13 0.126738 0.257478 0.723400
O O14 0.994165 0.252332 0.664566
O O15 0.708218 0.000000 0.731769
O O16 0.500000 0.758240 0.500000
O O17 0.453605 0.000000 0.581408
#
# Coordination Sequence:
#
# PCOD9200589 Si02
#       6
#     8   8   8   8   8   8
#     4  11  22  35  55  82 111 144 182 226 274 327
#     4   9  18  33  54  80 110 145 183 224 276 337
#     4  11  22  37  57  82 114 150 190 234 280 332
#     4   8  15  30  52  75  99 132 176 221 262 312
#     4  10  20  37  59  81 108 142 181 228 281 335
#     4   9  17  30  50  76 102 134 178 220 259 313
#
# _framework density 18.619872999999998
#
# number of rings (size 3 to 8) (size 9 to 14) (size 15 to 20)
#    0.000    2.333    0.000    4.500    0.000    4.333 
#    0.000    3.333    0.000   17.000    0.000    0.000 
#    0.000    0.000    0.000    0.000    0.000    0.000 
#
# Total GULP energy -133953.075057 kJ/mol
# GULP energy per Si atom -5581.378127 kJ/mol
# Density = 1.857749 g / cm^3
# Si number density = 18.619873 Si / 1000 Ang^3
#
#
#
# Elastic Constant Matrix: (Units=GPa)
#
#
# Indices 1 2 3 4 5 6 
#
# 1 136.3611 25.7338 126.2422 0.0000 1.4930 0.0000
# 2 25.7338 35.2345 29.9258 0.0000 -1.6242 0.0000
# 3 126.2422 29.9258 185.9061 0.0000 5.5281 0.0000
# 4 0.0000 0.0000 0.0000 25.6671 0.0000 -1.1552
# 5 1.4930 -1.6242 5.5281 0.0000 42.3411 0.0000
# 6 0.0000 0.0000 0.0000 -1.1552 0.0000 24.9559
#
#
#
# Elastic Compliance Matrix: (Units=1/GPa)
#
#
# Indices 1 2 3 4 5 6 
#
# 1 0.020164 -0.003516 -0.013153 0.000000 0.000871 0.000000
# 2 -0.003516 0.033652 -0.003084 0.000000 0.001817 0.000000
# 3 -0.013153 -0.003084 0.014854 0.000000 -0.001594 0.000000
# 4 0.000000 0.000000 0.000000 0.039042 0.000000 0.001807
# 5 0.000871 0.001817 -0.001594 0.000000 0.023865 0.000000
# 6 0.000000 0.000000 0.000000 0.001807 0.000000 0.040154
#
#
# Mechanical properties :
#
#
# Convention : Reuss Voigt Hill
#
# Bulk Modulus (GPa) = 34.28642 80.14503 57.21572
# Shear Modulus (GPa) = 22.62880 30.29947 26.46413
#
# Velocity S-wave (km/s) = 3.48990 4.03831 3.77408
# Velocity P-wave (km/s) = 5.89008 8.05482 7.05596
#
# Compressibility (1/GPa) = 0.02916607
#
# Stress axis : x y z
#
# Youngs Moduli (GPa) = 49.59316 29.71604 67.32049
#
# Poissons Ratio (x) = 0.10448 0.88544
# Poissons Ratio (y) = 0.17436 0.20759
# Poissons Ratio (z) = 0.65228 0.09163
#
# Static dielectric constant tensor:
#      x y z
#    x 1.621190 0.000000 -0.003730 
#    y 0.000000 1.641370 0.000000 
#    z -0.003730 0.000000 1.461240 
# 
# From -- ./inp_files/221639.got.cif
#   From: 2010.05.17/outbox.cif.g08.bks.cpg/sg12_111_cif.got.tgz:221639.got - 2010.06.03 13:09:07.
