data_PCOD9200261
_publ_section_title
;
Structure prediction by ZEFSAII (Michael W. Deem and Ramdas Pophale) SiO2 
 PCOD9200261
Probable space group: C 2/M
;
_chemical_formula_sum "Si O2"
_cell_formula_units_Z 64
_cell_length_a 33.847672
_cell_length_b 11.264794
_cell_length_c 9.255552
_cell_angle_alpha 90.000000
_cell_angle_beta 87.502314
_cell_angle_gamma 90.000000
_cell_volume 3525.669508
_symmetry_space_group_name_H-M "C 2/M"
_symmetry_group_IT_number 12
_symmetry_cell_setting 'monoclinic'
loop_
_space_group_symop_operation_xyz
x,y,z
-x,y,-z
-x,-y,-z
x,-y,z
1/2+x,1/2+y,z
1/2-x,1/2+y,-z
1/2-x,1/2-y,-z
1/2+x,1/2-y,z
loop_
_atom_site_type_symbol
_atom_site_label
_atom_site_fract_x
_atom_site_fract_y
_atom_site_fract_z
Si Si1 0.193423 0.702639 0.447902
Si Si2 0.160515 0.858035 0.717548
Si Si3 0.356029 0.135832 0.805975
Si Si4 0.926306 0.141430 0.178976
Si Si5 0.706949 0.216414 0.944657
Si Si6 0.915183 0.857973 0.840249
Si Si7 0.497057 0.643630 0.664481
Si Si8 0.251395 0.879639 0.321583
O O1 0.176617 0.793752 0.571115
O O2 0.161589 0.639776 0.353580
O O3 0.221411 0.772330 0.331915
O O4 0.223414 0.624525 0.536247
O O5 0.115439 0.815601 0.751018
O O6 0.185188 0.821384 0.857463
O O7 0.162033 0.000000 0.700306
O O8 0.384264 0.252367 0.811943
O O9 0.371408 0.000000 0.828954
O O10 0.321872 0.161739 0.930944
O O11 0.965899 0.189111 0.247452
O O12 0.925934 0.000000 0.205386
O O13 0.926029 0.155447 0.007163
O O14 0.718093 0.128408 0.813200
O O15 0.750000 0.250000 0.000000
O O16 0.954518 0.834159 0.741177
O O17 0.903432 0.000000 0.820730
O O18 0.500000 0.686992 0.500000
O O19 0.500270 0.500000 0.660787
O O20 0.227373 0.000000 0.314740
#
# Coordination Sequence:
#
# PCOD9200261 Si02
#       8
#     8   8   8   8   8   8   8   8
#     4  10  22  37  54  80 112 154 200 243 304 363
#     4  10  21  36  59  89 122 154 201 259 309 356
#     4  12  25  41  60  87 123 164 204 251 307 365
#     4   9  17  33  57  87 122 155 188 239 304 359
#     4  11  22  40  56  83 113 158 206 251 301 356
#     4  10  21  38  61  90 121 156 198 246 298 358
#     4   9  18  32  57  93 125 153 190 242 303 363
#     4  10  20  37  56  76 105 146 200 252 299 353
#
# _framework density 18.152581000000001
#
# number of rings (size 3 to 8) (size 9 to 14) (size 15 to 20)
#    0.000    1.875    2.500    1.500    1.750    3.500 
#    0.000    0.000    0.000    1.875    0.000    0.000 
#    0.000    0.000    0.000    0.000    0.000    0.000 
#
# Total GULP energy -178147.814193 kJ/mol
# GULP energy per Si atom -5567.119194 kJ/mol
# Density = 1.811126 g / cm^3
# Si number density = 18.152581 Si / 1000 Ang^3
#
#
#
# Elastic Constant Matrix: (Units=GPa)
#
#
# Indices 1 2 3 4 5 6 
#
# 1 98.4082 39.9536 33.4058 0.0000 -3.3879 0.0000
# 2 39.9536 90.6685 24.5416 0.0000 1.0368 0.0000
# 3 33.4058 24.5416 71.6593 0.0000 -8.4628 0.0000
# 4 0.0000 0.0000 0.0000 69.9590 0.0000 431.4781
# 5 -3.3879 1.0368 -8.4628 0.0000 31.6443 0.0000
# 6 0.0000 0.0000 0.0000 431.4781 0.0000 2840.2830
#
#
#
# Elastic Compliance Matrix: (Units=1/GPa)
#
#
# Indices 1 2 3 4 5 6 
#
# 1 0.013712 -0.004770 -0.004716 0.000000 0.000363 0.000000
# 2 -0.004770 0.013890 -0.002734 0.000000 -0.001697 0.000000
# 3 -0.004716 -0.002734 0.017596 0.000000 0.004291 0.000000
# 4 0.000000 0.000000 0.000000 0.226677 0.000000 -0.034435
# 5 0.000363 -0.001697 0.004291 0.000000 0.032843 0.000000
# 6 0.000000 0.000000 0.000000 -0.034435 0.000000 0.005583
#
#
# Mechanical properties :
#
#
# Convention : Reuss Voigt Hill
#
# Bulk Modulus (GPa) = 48.17068 50.72644 49.44856
# Shear Modulus (GPa) = 14.63440 599.23292 306.93366
#
# Velocity S-wave (km/s) = 2.84243 18.18861 13.01739
# Velocity P-wave (km/s) = 6.11283 21.65885 15.91340
#
# Compressibility (1/GPa) = 0.02075952
#
# Stress axis : x y z
#
# Youngs Moduli (GPa) = 72.93124 71.99180 56.83036
#
# Poissons Ratio (x) = 0.34339 0.26799
# Poissons Ratio (y) = 0.34787 0.15537
# Poissons Ratio (z) = 0.34391 0.19682
#
# Static dielectric constant tensor:
#      x y z
#    x 1.641200 0.000000 0.011520 
#    y 0.000000 1.625740 0.000000 
#    z 0.011520 0.000000 1.641540 
# 
# From -- ./inp_files/110482.got.cif
#   From: 2010.05.17/outbox.cif.g08.bks.cpg/sg12_56_cif.got.tgz:110482.got - 2010.06.03 13:09:07.
