data_PCOD9200407
_publ_section_title
;
Structure prediction by ZEFSAII (Michael W. Deem and Ramdas Pophale) SiO2 
 PCOD9200407
Probable space group: C 2/M
;
_chemical_formula_sum "Si O2"
_cell_formula_units_Z 64
_cell_length_a 29.272209
_cell_length_b 7.594655
_cell_length_c 15.571474
_cell_angle_alpha 90.000000
_cell_angle_beta 52.644919
_cell_angle_gamma 90.000000
_cell_volume 2751.696973
_symmetry_space_group_name_H-M "C 2/M"
_symmetry_group_IT_number 12
_symmetry_cell_setting 'monoclinic'
loop_
_space_group_symop_operation_xyz
x,y,z
-x,y,-z
-x,-y,-z
x,-y,z
1/2+x,1/2+y,z
1/2-x,1/2+y,-z
1/2-x,1/2-y,-z
1/2+x,1/2-y,z
loop_
_atom_site_type_symbol
_atom_site_label
_atom_site_fract_x
_atom_site_fract_y
_atom_site_fract_z
Si Si1 0.340245 0.785184 0.784054
Si Si2 0.336784 0.704990 0.165175
Si Si3 0.683618 0.789983 0.551233
Si Si4 0.653983 0.200360 0.037746
Si Si5 0.787205 0.283904 0.665584
Si Si6 0.522347 0.293461 0.198580
Si Si7 0.973644 0.712705 0.619172
Si Si8 0.418985 0.296274 0.204580
O O1 0.322478 0.722587 0.899449
O O2 0.308276 0.726009 0.735053
O O3 0.406821 0.737090 0.697150
O O4 0.337008 0.000000 0.790583
O O5 0.337200 0.500000 0.188887
O O6 0.278113 0.780370 0.269981
O O7 0.393683 0.781258 0.144835
O O8 0.332767 0.712000 0.067573
O O9 0.750000 0.750000 0.500000
O O10 0.677201 0.732189 0.458967
O O11 0.635262 0.711014 0.668296
O O12 0.676216 0.000000 0.563833
O O13 0.584466 0.203009 0.124632
O O14 0.673906 0.000000 0.007867
O O15 0.787264 0.500000 0.666707
O O16 0.533194 0.500000 0.169044
O O17 0.499546 0.276683 0.322165
O O18 0.475042 0.220001 0.186974
O O19 0.977241 0.500000 0.616157
O O20 0.000000 0.775579 0.500000
O O21 0.434916 0.500000 0.171062
#
# Coordination Sequence:
#
# PCOD9200407 Si02
#       8
#     8   8   8   8   8   8   8   8
#     4   8  16  32  52  77 109 142 178 223 270 320
#     4  10  20  37  58  78 107 145 187 227 277 338
#     4  11  21  35  58  83 114 151 187 228 273 327
#     4  10  21  38  58  81 111 140 181 237 284 329
#     4   9  18  33  55  81 108 146 186 218 264 333
#     4  10  21  37  57  79 111 148 185 229 279 333
#     4   9  18  32  53  80 112 146 184 229 274 326
#     4  10  22  39  56  82 115 148 187 229 276 330
#
# _framework density 23.258375000000001
#
# number of rings (size 3 to 8) (size 9 to 14) (size 15 to 20)
#    0.000    2.375    1.250    1.875    1.750    2.750 
#    0.000    2.500    0.000    5.250    0.000    0.000 
#    0.000    0.000    0.000    0.000    0.000    0.000 
#
# Total GULP energy -178642.969194 kJ/mol
# GULP energy per Si atom -5582.592787 kJ/mol
# Density = 2.320544 g / cm^3
# Si number density = 23.258375 Si / 1000 Ang^3
#
#
#
# Elastic Constant Matrix: (Units=GPa)
#
#
# Indices 1 2 3 4 5 6 
#
# 1 82.5062 -0.1149 -2.3143 -0.0001 30.2979 -0.0003
# 2 -0.1149 59.3468 -7.1705 -0.0001 4.3233 -0.0009
# 3 -2.3143 -7.1705 69.5505 0.0000 23.1961 0.0001
# 4 -0.0001 -0.0001 0.0000 23.0636 0.0000 4.1856
# 5 30.2979 4.3233 23.1961 0.0000 36.9507 0.0000
# 6 -0.0003 -0.0009 0.0001 4.1856 0.0000 11.0511
#
#
#
# Elastic Compliance Matrix: (Units=1/GPa)
#
#
# Indices 1 2 3 4 5 6 
#
# 1 0.020660 0.002713 0.008503 0.000000 -0.022596 0.000001
# 2 0.002713 0.017880 0.004267 0.000000 -0.006996 0.000002
# 3 0.008503 0.004267 0.022251 0.000000 -0.021440 0.000000
# 4 0.000000 0.000000 0.000000 0.046559 0.000000 -0.017634
# 5 -0.022596 -0.006996 -0.021440 0.000000 0.059869 -0.000001
# 6 0.000001 0.000002 0.000000 -0.017634 -0.000001 0.097167
#
#
# Mechanical properties :
#
#
# Convention : Reuss Voigt Hill
#
# Bulk Modulus (GPa) = 10.89805 21.35603 16.12704
# Shear Modulus (GPa) = 18.93895 28.94663 23.94279
#
# Velocity S-wave (km/s) = 2.85666 3.53167 3.21195
# Velocity P-wave (km/s) = 3.94671 5.08255 4.55021
#
# Compressibility (1/GPa) = 0.09175957
#
# Stress axis : x y z
#
# Youngs Moduli (GPa) = 48.40200 55.92689 44.94080
#
# Poissons Ratio (x) = -0.15176 -0.38215
# Poissons Ratio (y) = -0.13134 -0.19175
# Poissons Ratio (z) = -0.41158 -0.23863
#
# Static dielectric constant tensor:
#      x y z
#    x 1.901760 0.000000 0.032400 
#    y 0.000000 1.863500 0.000000 
#    z 0.032400 0.000000 1.877610 
# 
# From -- ./inp_files/249107.got.cif
#   From: 2010.05.17/outbox.cif.g08.bks.cpg/sg12_125_cif.got.tgz:249107.got - 2010.06.03 13:09:07.
