data_PCOD9200173
_publ_section_title
;
Structure prediction by ZEFSAII (Michael W. Deem and Ramdas Pophale) SiO2 
 PCOD9200173
Probable space group: C 2/M
;
_chemical_formula_sum "Si O2"
_cell_formula_units_Z 56
_cell_length_a 23.202254
_cell_length_b 16.012734
_cell_length_c 8.127017
_cell_angle_alpha 90.000000
_cell_angle_beta 118.969690
_cell_angle_gamma 90.000000
_cell_volume 2641.638368
_symmetry_space_group_name_H-M "C 2/M"
_symmetry_group_IT_number 12
_symmetry_cell_setting 'monoclinic'
loop_
_space_group_symop_operation_xyz
x,y,z
-x,y,-z
-x,-y,-z
x,-y,z
1/2+x,1/2+y,z
1/2-x,1/2+y,-z
1/2-x,1/2-y,-z
1/2+x,1/2-y,z
loop_
_atom_site_type_symbol
_atom_site_label
_atom_site_fract_x
_atom_site_fract_y
_atom_site_fract_z
Si Si1 0.198646 0.254206 0.702408
Si Si2 0.270660 0.094912 0.711502
Si Si3 0.881770 0.308862 0.709034
Si Si4 0.062440 0.743491 0.707621
Si Si5 0.499723 0.905403 0.800158
Si Si6 0.785165 0.091949 0.740273
Si Si7 0.932473 0.849357 0.969370
O O1 0.233120 0.164559 0.765033
O O2 0.171363 0.263300 0.478235
O O3 0.133894 0.258939 0.723607
O O4 0.250061 0.330922 0.785312
O O5 0.343428 0.131914 0.782094
O O6 0.238694 0.093467 0.483388
O O7 0.270733 0.000000 0.773644
O O8 0.923557 0.236214 0.851170
O O9 0.927796 0.367384 0.661551
O O10 0.050272 0.657268 0.787714
O O11 0.000000 0.753110 0.500000
O O12 0.060382 0.818994 0.834234
O O13 0.507749 0.000000 0.756979
O O14 0.500000 0.903279 0.000000
O O15 0.863882 0.102892 0.854000
O O16 0.766860 0.000000 0.780512
O O17 0.000000 0.890333 0.000000
#
# Coordination Sequence:
#
# PCOD9200173 Si02
#       7
#     8   8   8   8   8   8   8
#     4  11  21  38  65  91 128 163 201 252 314 370
#     4  10  20  36  65  97 122 158 206 257 308 369
#     4  11  17  39  62  91 119 163 201 254 300 370
#     4  12  24  39  60  91 123 168 203 248 321 375
#     4  11  22  37  59  91 124 158 207 254 298 371
#     4  10  22  40  64  93 122 161 214 258 304 367
#     4  12  21  39  67  86 119 162 214 253 301 364
#
# _framework density 21.198967
#
# number of rings (size 3 to 8) (size 9 to 14) (size 15 to 20)
#    0.000    1.000    7.143    1.286    0.000    2.286 
#    0.000    0.714    0.000    0.857    0.000    0.000 
#    0.000    0.000    0.000    0.000    0.000    0.000 
#
# Total GULP energy -156460.850416 kJ/mol
# GULP energy per Si atom -5587.887515 kJ/mol
# Density = 2.115072 g / cm^3
# Si number density = 21.198967 Si / 1000 Ang^3
#
#
#
# Elastic Constant Matrix: (Units=GPa)
#
#
# Indices 1 2 3 4 5 6 
#
# 1 166.5340 56.4104 6.0496 0.0000 15.3613 0.0000
# 2 56.4104 121.2378 -3.6349 0.0000 1.2076 0.0000
# 3 6.0496 -3.6349 58.8993 0.0000 10.3971 0.0000
# 4 0.0000 0.0000 0.0000 11.1895 0.0000 5.3239
# 5 15.3613 1.2076 10.3971 0.0000 24.5070 0.0000
# 6 0.0000 0.0000 0.0000 5.3239 0.0000 12.9820
#
#
#
# Elastic Compliance Matrix: (Units=1/GPa)
#
#
# Indices 1 2 3 4 5 6 
#
# 1 0.007616 -0.003505 -0.000201 0.000000 -0.004516 0.000000
# 2 -0.003505 0.009887 0.000722 0.000000 0.001403 0.000000
# 3 -0.000201 0.000722 0.018406 0.000000 -0.007718 0.000000
# 4 0.000000 0.000000 0.000000 0.111035 0.000000 -0.045536
# 5 -0.004516 0.001403 -0.007718 0.000000 0.046840 0.000000
# 6 0.000000 0.000000 0.000000 -0.045536 0.000000 0.095704
#
#
# Mechanical properties :
#
#
# Convention : Reuss Voigt Hill
#
# Bulk Modulus (GPa) = 33.39901 51.59124 42.49513
# Shear Modulus (GPa) = 16.37009 28.92544 22.64777
#
# Velocity S-wave (km/s) = 2.78188 3.69789 3.27210
# Velocity P-wave (km/s) = 5.10957 6.52855 5.86216
#
# Compressibility (1/GPa) = 0.02994100
#
# Stress axis : x y z
#
# Youngs Moduli (GPa) = 131.30742 101.14739 54.33070
#
# Poissons Ratio (x) = 0.35448 0.01094
# Poissons Ratio (y) = 0.46017 -0.03925
# Poissons Ratio (z) = 0.02644 -0.07307
#
# Static dielectric constant tensor:
#      x y z
#    x 1.760640 0.000000 0.005980 
#    y 0.000000 1.750740 0.000000 
#    z 0.005980 0.000000 1.820270 
# 
# From -- ./inp_files/97844.got.cif
#   From: 2010.05.17/outbox.cif.g08.bks.cpg/sg12_49_cif.got.tgz:97844.got - 2010.06.03 13:09:07.
