data_PCOD9200216
_publ_section_title
;
Structure prediction by ZEFSAII (Michael W. Deem and Ramdas Pophale) SiO2 
 PCOD9200216
Probable space group: C 2/M
;
_chemical_formula_sum "Si O2"
_cell_formula_units_Z 56
_cell_length_a 23.033609
_cell_length_b 24.801790
_cell_length_c 10.002298
_cell_angle_alpha 90.000000
_cell_angle_beta 30.026289
_cell_angle_gamma 90.000000
_cell_volume 2859.300289
_symmetry_space_group_name_H-M "C 2/M"
_symmetry_group_IT_number 12
_symmetry_cell_setting 'monoclinic'
loop_
_space_group_symop_operation_xyz
x,y,z
-x,y,-z
-x,-y,-z
x,-y,z
1/2+x,1/2+y,z
1/2-x,1/2+y,-z
1/2-x,1/2-y,-z
1/2+x,1/2-y,z
loop_
_atom_site_type_symbol
_atom_site_label
_atom_site_fract_x
_atom_site_fract_y
_atom_site_fract_z
Si Si1 0.019007 0.060076 0.119812
Si Si2 0.725226 0.755798 0.752691
Si Si3 0.424458 0.666908 0.854367
Si Si4 0.262927 0.559317 0.760912
Si Si5 0.683472 0.667830 0.216296
Si Si6 0.361488 0.941068 0.271229
Si Si7 0.864405 0.323076 0.309992
O O1 0.892120 0.059759 0.440770
O O2 0.086121 0.109746 0.050786
O O3 0.931455 0.000000 0.958044
O O4 0.000000 0.068348 0.000000
O O5 0.744574 0.785433 0.854460
O O6 0.830268 0.716824 0.498012
O O7 0.707192 0.800865 0.674948
O O8 0.613867 0.716617 0.977549
O O9 0.556755 0.670632 0.540050
O O10 0.341946 0.670673 0.889498
O O11 0.244243 0.500000 0.859970
O O12 0.258270 0.610430 0.865964
O O13 0.178403 0.564925 0.802859
O O14 0.329098 0.885150 0.407000
O O15 0.316271 0.000000 0.407354
O O16 0.500000 0.943499 0.000000
O O17 0.000000 0.321574 0.000000
#
# Coordination Sequence:
#
# PCOD9200216 Si02
#       7
#     8   8   8   8   8   8   8
#     4   9  19  33  52  78 108 134 164 212 272 323
#     4  11  21  34  53  75 105 141 173 213 256 313
#     4  10  22  34  54  75 103 140 178 217 255 308
#     4   9  17  31  53  76 100 135 170 212 262 311
#     4  10  20  37  51  73 104 140 181 218 254 303
#     4   9  17  31  51  76 102 129 167 210 258 306
#     4  10  21  34  52  80 105 132 169 215 263 310
#
# _framework density 19.585211999999999
#
# number of rings (size 3 to 8) (size 9 to 14) (size 15 to 20)
#    0.000    2.286    1.429    1.286    2.000    2.286 
#    0.000    2.857    0.000    0.000    0.000    0.000 
#    0.000    6.286    0.000    0.000    0.000    0.000 
#
# Total GULP energy -156147.266180 kJ/mol
# GULP energy per Si atom -5576.688078 kJ/mol
# Density = 1.954063 g / cm^3
# Si number density = 19.585212 Si / 1000 Ang^3
#
#
#
# Elastic Constant Matrix: (Units=GPa)
#
#
# Indices 1 2 3 4 5 6 
#
# 1 45.2215 46.3107 0.9451 0.0000 -9.6370 -0.0001
# 2 46.3107 176.2682 16.4138 0.0000 -2.3138 0.0001
# 3 0.9451 16.4138 33.3460 -0.0003 -4.8455 -0.0004
# 4 0.0000 0.0000 -0.0003 17.2503 0.0001 -14.9671
# 5 -9.6370 -2.3138 -4.8455 0.0001 21.2465 0.0003
# 6 -0.0001 0.0001 -0.0004 -14.9671 0.0003 32.5538
#
#
#
# Elastic Compliance Matrix: (Units=1/GPa)
#
#
# Indices 1 2 3 4 5 6 
#
# 1 0.035352 -0.009643 0.006125 0.000000 0.016382 0.000000
# 2 -0.009643 0.008576 -0.004600 0.000000 -0.004489 0.000000
# 3 0.006125 -0.004600 0.033521 0.000001 0.009922 0.000001
# 4 0.000000 0.000000 0.000001 0.096441 -0.000001 0.044340
# 5 0.016382 -0.004489 0.009922 -0.000001 0.056271 -0.000001
# 6 0.000000 0.000000 0.000001 0.044340 -0.000001 0.051104
#
#
# Mechanical properties :
#
#
# Convention : Reuss Voigt Hill
#
# Bulk Modulus (GPa) = 16.33662 42.46389 29.40025
# Shear Modulus (GPa) = 15.72785 26.95454 21.34120
#
# Velocity S-wave (km/s) = 2.83688 3.71384 3.30458
# Velocity P-wave (km/s) = 4.36921 6.33394 5.44099
#
# Compressibility (1/GPa) = 0.06121218
#
# Stress axis : x y z
#
# Youngs Moduli (GPa) = 28.28697 116.60170 29.83184
#
# Poissons Ratio (x) = 1.12443 -0.18272
# Poissons Ratio (y) = 0.27278 0.13724
# Poissons Ratio (z) = -0.17326 0.53642
#
# Static dielectric constant tensor:
#      x y z
#    x 1.662610 0.000000 -0.012820 
#    y 0.000000 1.728280 0.000000 
#    z -0.012820 0.000000 1.682250 
# 
# From -- ./inp_files/178274.got.cif
#   From: 2010.05.17/outbox.cif.g08.bks.cpg/sg12_90_cif.got.tgz:178274.got - 2010.06.03 13:09:07.
