data_PCOD9200197
_publ_section_title
;
Structure prediction by ZEFSAII (Michael W. Deem and Ramdas Pophale) SiO2 
 PCOD9200197
Probable space group: C 2/M
;
_chemical_formula_sum "Si O2"
_cell_formula_units_Z 40
_cell_length_a 11.915844
_cell_length_b 8.717808
_cell_length_c 26.489868
_cell_angle_alpha 90.000000
_cell_angle_beta 45.491898
_cell_angle_gamma 90.000000
_cell_volume 1962.427399
_symmetry_space_group_name_H-M "C 2/M"
_symmetry_group_IT_number 12
_symmetry_cell_setting 'monoclinic'
loop_
_space_group_symop_operation_xyz
x,y,z
-x,y,-z
-x,-y,-z
x,-y,z
1/2+x,1/2+y,z
1/2-x,1/2+y,-z
1/2-x,1/2-y,-z
1/2+x,1/2-y,z
loop_
_atom_site_type_symbol
_atom_site_label
_atom_site_fract_x
_atom_site_fract_y
_atom_site_fract_z
Si Si1 0.628845 0.500000 0.521325
Si Si2 0.686514 0.000000 0.431107
Si Si3 0.019722 0.500000 0.118443
Si Si4 0.861364 0.332251 0.085403
Si Si5 0.120736 0.250451 0.375176
Si Si6 0.815645 0.000000 0.070928
Si Si7 0.551911 0.000000 0.637883
Si Si8 0.132095 0.500000 0.726947
O O1 0.718138 0.500000 0.547318
O O2 0.514830 0.646691 0.556508
O O3 0.764273 0.500000 0.436740
O O4 0.500000 0.000000 0.500000
O O5 0.709763 0.851811 0.388964
O O6 0.207075 0.500000 0.055504
O O7 0.944594 0.356270 0.113132
O O8 0.976756 0.500000 0.190261
O O9 0.775701 0.500000 0.105199
O O10 0.782053 0.165940 0.107249
O O11 0.000000 0.331903 0.000000
O O12 0.032663 0.356620 0.362361
O O13 0.249841 0.143751 0.309100
O O14 0.000000 0.000000 0.000000
O O15 0.545827 0.000000 0.700046
#
# Coordination Sequence:
#
# PCOD9200197 Si02
#       8
#     4   4   4   8   8   4   4   4
#     4  11  21  34  58  85 107 140 188 249 311 347
#     4  11  21  35  59  83 112 137 193 260 305 353
#     4  10  22  41  56  86 126 163 204 241 292 374
#     4   8  18  39  60  94 128 151 195 253 295 345
#     4  10  23  37  56  83 111 148 191 245 304 352
#     4  10  20  36  67  99 123 155 195 250 308 349
#     4  11  22  35  58  81 113 146 192 247 297 346
#     4  11  25  39  57  77 120 163 194 233 286 364
#
# _framework density 20.382919999999999
#
# number of rings (size 3 to 8) (size 9 to 14) (size 15 to 20)
#    0.600    1.400    2.000    1.800    2.800    5.600 
#    1.800    1.000    0.000    0.000    0.000    0.000 
#    0.000    0.000    0.000    0.000    0.000    0.000 
#
# Total GULP energy -111525.302585 kJ/mol
# GULP energy per Si atom -5576.265129 kJ/mol
# Density = 2.033653 g / cm^3
# Si number density = 20.382920 Si / 1000 Ang^3
#
#
#
# Elastic Constant Matrix: (Units=GPa)
#
#
# Indices 1 2 3 4 5 6 
#
# 1 85.8608 40.1178 22.3609 0.0000 20.8566 0.0000
# 2 40.1178 159.2415 13.4456 0.0000 4.5808 0.0000
# 3 22.3609 13.4456 68.4503 0.0000 22.1620 0.0000
# 4 0.0000 0.0000 0.0000 2.7257 0.0000 -10.1955
# 5 20.8566 4.5808 22.1620 0.0000 31.3269 0.0000
# 6 0.0000 0.0000 0.0000 -10.1955 0.0000 47.4824
#
#
#
# Elastic Compliance Matrix: (Units=1/GPa)
#
#
# Indices 1 2 3 4 5 6 
#
# 1 0.015927 -0.003620 -0.001595 0.000000 -0.008946 0.000000
# 2 -0.003620 0.007209 -0.000872 0.000000 0.001973 0.000000
# 3 -0.001595 -0.000872 0.019348 0.000000 -0.012498 0.000000
# 4 0.000000 0.000000 0.000000 1.863871 0.000001 0.400213
# 5 -0.008946 0.001973 -0.012498 0.000001 0.046430 0.000000
# 6 0.000000 0.000000 0.000000 0.400213 0.000000 0.106995
#
#
# Mechanical properties :
#
#
# Convention : Reuss Voigt Hill
#
# Bulk Modulus (GPa) = 32.99504 51.71122 42.35313
# Shear Modulus (GPa) = 2.40147 32.14890 17.27518
#
# Velocity S-wave (km/s) = 1.08662 3.97577 2.91440
# Velocity P-wave (km/s) = 4.21865 6.81913 5.66999
#
# Compressibility (1/GPa) = 0.03030759
#
# Stress axis : x y z
#
# Youngs Moduli (GPa) = 62.78704 138.72052 51.68468
#
# Poissons Ratio (x) = 0.50223 0.08246
# Poissons Ratio (y) = 0.22731 0.04508
# Poissons Ratio (z) = 0.10017 0.12099
#
# Static dielectric constant tensor:
#      x y z
#    x 1.723720 0.000000 0.000820 
#    y 0.000000 1.798990 0.000000 
#    z 0.000820 0.000000 1.703510 
# 
# From -- ./inp_files/373410.got.cif
#   From: 2010.05.17/outbox.cif.g08.bks.cpg/sg12_187_cif.got.tgz:373410.got - 2010.06.03 13:09:07.
