data_PCOD9200234
_publ_section_title
;
Structure prediction by ZEFSAII (Michael W. Deem and Ramdas Pophale) SiO2 
 PCOD9200234
Probable space group: C 2/M
;
_chemical_formula_sum "Si O2"
_cell_formula_units_Z 48
_cell_length_a 18.053147
_cell_length_b 13.527495
_cell_length_c 20.898373
_cell_angle_alpha 90.000000
_cell_angle_beta 32.217687
_cell_angle_gamma 90.000000
_cell_volume 2720.958898
_symmetry_space_group_name_H-M "C 2/M"
_symmetry_group_IT_number 12
_symmetry_cell_setting 'monoclinic'
loop_
_space_group_symop_operation_xyz
x,y,z
-x,y,-z
-x,-y,-z
x,-y,z
1/2+x,1/2+y,z
1/2-x,1/2+y,-z
1/2-x,1/2-y,-z
1/2+x,1/2-y,z
loop_
_atom_site_type_symbol
_atom_site_label
_atom_site_fract_x
_atom_site_fract_y
_atom_site_fract_z
Si Si1 0.909739 0.279888 0.891756
Si Si2 0.576368 0.114127 0.249437
Si Si3 0.667768 0.684253 0.871787
Si Si4 0.635790 0.108827 0.944391
Si Si5 0.929190 0.380676 0.486062
Si Si6 0.362038 0.616783 0.247567
O O1 0.955969 0.328838 0.791723
O O2 0.006516 0.186131 0.835845
O O3 0.750000 0.250000 0.000000
O O4 0.910616 0.354281 0.951489
O O5 0.740933 0.121862 0.145472
O O6 0.499108 0.154594 0.369316
O O7 0.538681 0.000000 0.268659
O O8 0.711124 0.797354 0.856527
O O9 0.696169 0.645531 0.780071
O O10 0.500000 0.676852 0.000000
O O11 0.703646 0.000000 0.897900
O O12 0.500000 0.099308 0.000000
O O13 0.948909 0.500000 0.471952
O O14 0.764646 0.362898 0.611385
O O15 0.000000 0.343282 0.500000
O O16 0.394686 0.500000 0.224612
#
# Coordination Sequence:
#
# PCOD9200234 Si02
#       6
#     8   8   8   8   8   8
#     4  12  23  37  52  84 119 148 189 224 288 347
#     4  11  22  36  57  84 116 148 186 239 283 333
#     4  11  19  35  56  86 110 141 194 231 284 344
#     4  10  20  37  55  75 109 150 188 225 269 337
#     4   9  18  35  59  84 109 147 190 233 289 331
#     4  11  22  37  59  85 116 147 189 242 282 333
#
# _framework density 17.640839
#
# number of rings (size 3 to 8) (size 9 to 14) (size 15 to 20)
#    0.000    1.333    6.667    1.000    0.000    4.667 
#    0.000    0.000    0.000    0.000    0.000    3.500 
#    0.000    0.000    0.000    0.000    0.000    0.000 
#
# Total GULP energy -133744.389753 kJ/mol
# GULP energy per Si atom -5572.682906 kJ/mol
# Density = 1.760069 g / cm^3
# Si number density = 17.640839 Si / 1000 Ang^3
#
#
#
# Elastic Constant Matrix: (Units=GPa)
#
#
# Indices 1 2 3 4 5 6 
#
# 1 108.7089 34.4748 29.6305 0.0001 16.4917 -0.0001
# 2 34.4748 85.3322 25.1452 0.0000 5.7170 -0.0001
# 3 29.6305 25.1452 58.1676 0.0001 8.8995 -0.0002
# 4 0.0001 0.0000 0.0001 20.0904 0.0001 11.0390
# 5 16.4917 5.7170 8.8995 0.0001 24.1529 0.0000
# 6 -0.0001 -0.0001 -0.0002 11.0390 0.0000 5.8222
#
#
#
# Elastic Compliance Matrix: (Units=1/GPa)
#
#
# Indices 1 2 3 4 5 6 
#
# 1 0.012257 -0.003412 -0.003828 -0.000001 -0.006151 0.000001
# 2 -0.003412 0.014407 -0.004583 0.000001 0.000608 -0.000002
# 3 -0.003828 -0.004583 0.021785 0.000009 -0.004329 -0.000017
# 4 -0.000001 0.000001 0.000009 -1.190950 0.000000 2.258058
# 5 -0.006151 0.000608 -0.004329 0.000000 0.047054 0.000000
# 6 0.000001 -0.000002 -0.000017 2.258058 0.000000 -4.109552
#
#
# Mechanical properties :
#
#
# Convention : Reuss Voigt Hill
#
# Bulk Modulus (GPa) = 40.31620 47.85665 44.08642
# Shear Modulus (GPa) = -0.96654 20.87699 9.95522
#
# Velocity S-wave (km/s) = -0.74101 3.44386 2.37814
# Velocity P-wave (km/s) = 4.70865 6.55750 5.70842
#
# Compressibility (1/GPa) = 0.02480393
#
# Stress axis : x y z
#
# Youngs Moduli (GPa) = 81.58290 69.41013 45.90314
#
# Poissons Ratio (x) = 0.23683 0.17571
# Poissons Ratio (y) = 0.27836 0.21037
# Poissons Ratio (z) = 0.31228 0.31811
#
# Static dielectric constant tensor:
#      x y z
#    x 1.618380 0.000000 0.031860 
#    y 0.000000 1.636890 0.000000 
#    z 0.031860 0.000000 1.661260 
# 
# From -- ./inp_files/270134.got.cif
#   From: 2010.05.17/outbox.cif.g08.bks.cpg/sg12_136_cif.got.tgz:270134.got - 2010.06.03 13:09:07.
