data_PCOD9200760
_publ_section_title
;
Structure prediction by ZEFSAII (Michael W. Deem and Ramdas Pophale) SiO2 
 PCOD9200760
Probable space group: C 2/M
;
_chemical_formula_sum "Si O2"
_cell_formula_units_Z 56
_cell_length_a 24.250860
_cell_length_b 14.720725
_cell_length_c 8.921945
_cell_angle_alpha 90.000000
_cell_angle_beta 116.645780
_cell_angle_gamma 90.000000
_cell_volume 2846.783128
_symmetry_space_group_name_H-M "C 2/M"
_symmetry_group_IT_number 12
_symmetry_cell_setting 'monoclinic'
loop_
_space_group_symop_operation_xyz
x,y,z
-x,y,-z
-x,-y,-z
x,-y,z
1/2+x,1/2+y,z
1/2-x,1/2+y,-z
1/2-x,1/2-y,-z
1/2+x,1/2-y,z
loop_
_atom_site_type_symbol
_atom_site_label
_atom_site_fract_x
_atom_site_fract_y
_atom_site_fract_z
Si Si1 0.821812 0.402706 0.301099
Si Si2 0.281976 0.284749 0.389889
Si Si3 0.883963 0.893582 0.684244
Si Si4 0.250859 0.645755 0.049305
Si Si5 0.459613 0.900686 0.599100
Si Si6 0.377185 0.395373 0.029461
Si Si7 0.503510 0.278477 0.827641
O O1 0.795267 0.500000 0.322115
O O2 0.792386 0.311045 0.322659
O O3 0.890380 0.396845 0.449596
O O4 0.807193 0.399605 0.105387
O O5 0.250000 0.250000 0.500000
O O6 0.342559 0.335870 0.521095
O O7 0.250223 0.351141 0.228955
O O8 0.953387 0.858372 0.747538
O O9 0.878439 0.000000 0.647454
O O10 0.864750 0.878894 0.836145
O O11 0.315454 0.610650 0.055462
O O12 0.250000 0.750000 0.000000
O O13 0.500000 0.902038 0.500000
O O14 0.480990 0.812253 0.716256
O O15 0.466715 0.000000 0.685513
O O16 0.400447 0.500000 0.068344
O O17 0.429730 0.320907 0.134597
O O18 0.500000 0.257494 0.000000
#
# Coordination Sequence:
#
# PCOD9200760 Si02
#       7
#     8   8   8   8   8   8   8
#     4  10  21  41  63  85 120 164 203 248 306 364
#     4  11  23  39  59  90 125 158 201 253 310 363
#     4  10  20  37  59  89 127 166 203 247 305 370
#     4  10  22  37  59  88 116 158 202 245 296 363
#     4  10  22  40  63  88 118 160 205 253 310 362
#     4  10  21  38  62  91 127 167 203 246 306 372
#     4  10  21  37  63  92 125 161 205 255 309 365
#
# _framework density 19.671326000000001
#
# number of rings (size 3 to 8) (size 9 to 14) (size 15 to 20)
#    0.000    1.857    1.429    2.571    4.000    4.857 
#    0.000    0.000    0.000    2.571    0.000    0.000 
#    0.000    0.000    0.000    0.000    0.000    0.000 
#
# Total GULP energy -155894.103838 kJ/mol
# GULP energy per Si atom -5567.646566 kJ/mol
# Density = 1.962655 g / cm^3
# Si number density = 19.671326 Si / 1000 Ang^3
#
#
#
# Elastic Constant Matrix: (Units=GPa)
#
#
# Indices 1 2 3 4 5 6 
#
# 1 23.4574 26.6500 19.8647 0.0000 -3.3593 0.0000
# 2 26.6500 132.8227 61.2022 0.0000 6.7676 0.0000
# 3 19.8647 61.2022 110.9261 0.0000 5.2717 0.0000
# 4 0.0000 0.0000 0.0000 15.9244 0.0000 -2.7582
# 5 -3.3593 6.7676 5.2717 0.0000 20.4570 0.0000
# 6 0.0000 0.0000 0.0000 -2.7582 0.0000 24.5242
#
#
#
# Elastic Compliance Matrix: (Units=1/GPa)
#
#
# Indices 1 2 3 4 5 6 
#
# 1 0.061689 -0.010360 -0.006050 0.000000 0.015116 0.000000
# 2 -0.010360 0.011911 -0.004503 0.000000 -0.004481 0.000000
# 3 -0.006050 -0.004503 0.012715 0.000000 -0.002780 0.000000
# 4 0.000000 0.000000 0.000000 0.064044 0.000000 0.007203
# 5 0.015116 -0.004481 -0.002780 0.000000 0.053564 0.000000
# 6 0.000000 0.000000 0.000000 0.007203 0.000000 0.041586
#
#
# Mechanical properties :
#
#
# Convention : Reuss Voigt Hill
#
# Bulk Modulus (GPa) = 22.47774 53.62666 38.05220
# Shear Modulus (GPa) = 16.54724 22.81373 19.68048
#
# Velocity S-wave (km/s) = 2.90347 3.40920 3.16644
# Velocity P-wave (km/s) = 4.76357 6.54350 5.72315
#
# Compressibility (1/GPa) = 0.04448846
#
# Stress axis : x y z
#
# Youngs Moduli (GPa) = 16.21047 83.95625 78.64576
#
# Poissons Ratio (x) = 0.86980 0.47577
# Poissons Ratio (y) = 0.16794 0.35418
# Poissons Ratio (z) = 0.09807 0.37810
#
# Static dielectric constant tensor:
#      x y z
#    x 1.735330 0.000000 0.030450 
#    y 0.000000 1.718820 0.000000 
#    z 0.030450 0.000000 1.875580 
# 
# From -- ./inp_files/96975.got.cif
#   From: 2010.05.17/outbox.cif.g08.bks.cpg/sg12_49_cif.got.tgz:96975.got - 2010.06.03 13:09:07.
