data_PCOD9200149
_publ_section_title
;
Structure prediction by ZEFSAII (Michael W. Deem and Ramdas Pophale) SiO2 
 PCOD9200149
Probable space group: C 2/M
;
_chemical_formula_sum "Si O2"
_cell_formula_units_Z 56
_cell_length_a 17.630712
_cell_length_b 27.612131
_cell_length_c 9.448405
_cell_angle_alpha 90.000000
_cell_angle_beta 141.063528
_cell_angle_gamma 90.000000
_cell_volume 2890.711575
_symmetry_space_group_name_H-M "C 2/M"
_symmetry_group_IT_number 12
_symmetry_cell_setting 'monoclinic'
loop_
_space_group_symop_operation_xyz
x,y,z
-x,y,-z
-x,-y,-z
x,-y,z
1/2+x,1/2+y,z
1/2-x,1/2+y,-z
1/2-x,1/2-y,-z
1/2+x,1/2-y,z
loop_
_atom_site_type_symbol
_atom_site_label
_atom_site_fract_x
_atom_site_fract_y
_atom_site_fract_z
Si Si1 0.278145 0.374308 0.876797
Si Si2 0.404833 0.851751 0.138126
Si Si3 0.355205 0.798601 0.505296
Si Si4 0.961402 0.855803 0.791971
Si Si5 0.242017 0.301463 0.326886
Si Si6 0.184803 0.944835 0.301466
Si Si7 0.960003 0.445986 0.779849
O O1 0.185959 0.365723 0.868679
O O2 0.226740 0.342034 0.672796
O O3 0.292614 0.426948 0.826799
O O4 0.413737 0.358795 0.111217
O O5 0.506847 0.812257 0.327979
O O6 0.476956 0.900726 0.203502
O O7 0.329460 0.830373 0.896874
O O8 0.295597 0.750158 0.356235
O O9 0.342455 0.794649 0.657085
O O10 0.858504 0.829155 0.556712
O O11 0.906955 0.908033 0.756770
O O12 0.000000 0.832540 0.000000
O O13 0.315960 0.940851 0.563793
O O14 0.144392 0.000000 0.249885
O O15 0.989978 0.500000 0.765277
O O16 0.000000 0.444766 0.000000
#
# Coordination Sequence:
#
# PCOD9200149 Si02
#       7
#     8   8   8   8   8   8   8
#     4  11  24  40  59  90 131 165 200 260 321 373
#     4  12  24  41  62  93 136 164 204 268 324 379
#     4  11  23  41  63  89 120 166 215 263 304 373
#     4  10  20  40  62  87 125 157 210 265 297 371
#     4  11  24  40  68  90 116 169 222 256 314 368
#     4  10  20  38  66  95 121 166 218 260 313 379
#     4  10  20  36  64  96 127 164 211 262 318 379
#
# _framework density 19.372394
#
# number of rings (size 3 to 8) (size 9 to 14) (size 15 to 20)
#    0.000    1.286    4.286    2.571    2.000    4.286 
#    2.571    1.429    0.000    0.000    0.000    9.000 
#    0.000    0.000    0.000    0.000    0.000    0.000 
#
# Total GULP energy -156302.800403 kJ/mol
# GULP energy per Si atom -5582.242872 kJ/mol
# Density = 1.932830 g / cm^3
# Si number density = 19.372394 Si / 1000 Ang^3
#
#
#
# Elastic Constant Matrix: (Units=GPa)
#
#
# Indices 1 2 3 4 5 6 
#
# 1 97.4113 22.0514 16.4832 0.0000 26.4519 0.0000
# 2 22.0514 93.9475 20.0882 0.0000 7.5375 0.0000
# 3 16.4832 20.0882 87.4354 0.0000 23.5013 0.0000
# 4 0.0000 0.0000 0.0000 22.2827 0.0000 5.6892
# 5 26.4519 7.5375 23.5013 0.0000 29.0126 0.0000
# 6 0.0000 0.0000 0.0000 5.6892 0.0000 16.2812
#
#
#
# Elastic Compliance Matrix: (Units=1/GPa)
#
#
# Indices 1 2 3 4 5 6 
#
# 1 0.014287 -0.002595 0.001563 0.000000 -0.013618 0.000000
# 2 -0.002595 0.011691 -0.002578 0.000000 0.001417 0.000000
# 3 0.001563 -0.002578 0.015260 0.000000 -0.013117 0.000000
# 4 0.000000 0.000000 0.000000 0.049274 0.000000 -0.017218
# 5 -0.013618 0.001417 -0.013117 0.000000 0.057141 0.000000
# 6 0.000000 0.000000 0.000000 -0.017218 0.000000 0.067437
#
#
# Mechanical properties :
#
#
# Convention : Reuss Voigt Hill
#
# Bulk Modulus (GPa) = 29.39557 44.00443 36.70000
# Shear Modulus (GPa) = 21.39974 28.19338 24.79656
#
# Velocity S-wave (km/s) = 3.32724 3.81903 3.58158
# Velocity P-wave (km/s) = 5.47426 6.49700 6.00743
#
# Compressibility (1/GPa) = 0.03401873
#
# Stress axis : x y z
#
# Youngs Moduli (GPa) = 69.99592 85.53710 65.53029
#
# Poissons Ratio (x) = 0.22197 -0.10243
# Poissons Ratio (y) = 0.18164 0.16890
# Poissons Ratio (z) = -0.10941 0.22047
#
# Static dielectric constant tensor:
#      x y z
#    x 1.683150 0.000000 0.019030 
#    y 0.000000 1.715160 0.000000 
#    z 0.019030 0.000000 1.685270 
# 
# From -- ./inp_files/80068.got.cif
#   From: 2010.05.17/outbox.cif.g08.bks.cpg/sg12_41_cif.got.tgz:80068.got - 2010.06.03 13:09:07.
