data_PCOD9200829
_publ_section_title
;
Structure prediction by ZEFSAII (Michael W. Deem and Ramdas Pophale) SiO2 
 PCOD9200829
Probable space group: C 2/M
;
_chemical_formula_sum "Si O2"
_cell_formula_units_Z 48
_cell_length_a 24.759063
_cell_length_b 16.228300
_cell_length_c 8.884140
_cell_angle_alpha 90.000000
_cell_angle_beta 142.739032
_cell_angle_gamma 90.000000
_cell_volume 2161.216598
_symmetry_space_group_name_H-M "C 2/M"
_symmetry_group_IT_number 12
_symmetry_cell_setting 'monoclinic'
loop_
_space_group_symop_operation_xyz
x,y,z
-x,y,-z
-x,-y,-z
x,-y,z
1/2+x,1/2+y,z
1/2-x,1/2+y,-z
1/2-x,1/2-y,-z
1/2+x,1/2-y,z
loop_
_atom_site_type_symbol
_atom_site_label
_atom_site_fract_x
_atom_site_fract_y
_atom_site_fract_z
Si Si1 0.506005 0.911288 0.195532
Si Si2 0.679745 0.091230 0.036818
Si Si3 0.786119 0.240297 0.748742
Si Si4 0.260741 0.093999 0.143627
Si Si5 0.001369 0.769571 0.824158
Si Si6 0.078672 0.092610 0.552723
O O1 0.538915 0.820023 0.306723
O O2 0.549126 0.000000 0.329747
O O3 0.500000 0.910823 0.000000
O O4 0.410173 0.912167 0.064752
O O5 0.730055 0.172199 0.205574
O O6 0.722196 0.000000 0.150753
O O7 0.665751 0.100673 0.826269
O O8 0.750000 0.250000 0.500000
O O9 0.741281 0.163169 0.733701
O O10 0.893817 0.226979 0.989393
O O11 0.257731 0.000000 0.196283
O O12 0.170150 0.105754 0.845337
O O13 0.944322 0.839850 0.620627
O O14 0.000000 0.778025 0.000000
O O15 0.000000 0.097757 0.500000
O O16 0.077679 0.000000 0.487422
#
# Coordination Sequence:
#
# PCOD9200829 Si02
#       6
#     8   8   8   8   8   8
#     4   8  15  32  58  83 113 152 195 245 301 357
#     4   9  19  36  58  85 115 154 200 249 304 361
#     4  11  23  37  57  88 121 159 200 251 316 372
#     4  10  21  39  62  88 120 160 207 255 307 367
#     4  10  21  36  56  85 118 156 205 252 301 358
#     4  10  20  37  60  83 114 161 206 247 299 358
#
# _framework density 22.209713000000001
#
# number of rings (size 3 to 8) (size 9 to 14) (size 15 to 20)
#    0.000    2.333    1.667    0.500    2.333    1.000 
#    0.000    0.000    0.000    1.500    0.000    0.000 
#    0.000    0.000    0.000    0.000    0.000    0.000 
#
# Total GULP energy -133986.077785 kJ/mol
# GULP energy per Si atom -5582.753241 kJ/mol
# Density = 2.215916 g / cm^3
# Si number density = 22.209713 Si / 1000 Ang^3
#
#
#
# Elastic Constant Matrix: (Units=GPa)
#
#
# Indices 1 2 3 4 5 6 
#
# 1 140.6501 63.6398 34.4191 0.0000 -3.9255 0.0000
# 2 63.6398 240.4647 78.2519 0.0000 -48.1092 0.0000
# 3 34.4191 78.2519 89.2587 0.0000 2.0089 0.0000
# 4 0.0000 0.0000 0.0000 -40.4989 0.0000 -10.7283
# 5 -3.9255 -48.1092 2.0089 0.0000 35.7179 0.0000
# 6 0.0000 0.0000 0.0000 -10.7283 0.0000 30.1651
#
#
#
# Elastic Compliance Matrix: (Units=1/GPa)
#
#
# Indices 1 2 3 4 5 6 
#
# 1 0.008356 -0.002200 -0.001249 0.000000 -0.001975 0.000000
# 2 -0.002200 0.010369 -0.008562 0.000000 0.014207 0.000000
# 3 -0.001249 -0.008562 0.019479 0.000000 -0.012765 0.000000
# 4 0.000000 0.000000 0.000000 -0.022566 0.000000 -0.008026
# 5 -0.001975 0.014207 -0.012765 0.000000 0.047633 0.000000
# 6 0.000000 0.000000 0.000000 -0.008026 0.000000 0.030297
#
#
# Mechanical properties :
#
#
# Convention : Reuss Voigt Hill
#
# Bulk Modulus (GPa) = 70.51348 91.44390 80.97869
# Shear Modulus (GPa) = 40.87748 24.68101 32.77924
#
# Velocity S-wave (km/s) = 4.29479 3.33719 3.84591
# Velocity P-wave (km/s) = 7.51075 7.49076 7.50076
#
# Compressibility (1/GPa) = 0.01418169
#
# Stress axis : x y z
#
# Youngs Moduli (GPa) = 119.67722 96.43749 51.33863
#
# Poissons Ratio (x) = 0.21217 0.06412
# Poissons Ratio (y) = 0.26330 0.43957
# Poissons Ratio (z) = 0.14946 0.82571
#
# Static dielectric constant tensor:
#      x y z
#    x 1.852650 0.000000 0.058010 
#    y 0.000000 1.824920 0.000000 
#    z 0.058010 0.000000 1.824420 
# 
# From -- ./inp_files/105029.got.cif
#   From: 2010.05.17/outbox.cif.g08.bks.cpg/sg12_53_cif.got.tgz:105029.got - 2010.06.03 13:09:07.
