data_PCOD9200417
_publ_section_title
;
Structure prediction by ZEFSAII (Michael W. Deem and Ramdas Pophale) SiO2 
 PCOD9200417
Probable space group: C 2/M
;
_chemical_formula_sum "Si O2"
_cell_formula_units_Z 56
_cell_length_a 19.868696
_cell_length_b 9.307174
_cell_length_c 31.242258
_cell_angle_alpha 90.000000
_cell_angle_beta 147.816071
_cell_angle_gamma 90.000000
_cell_volume 3077.247996
_symmetry_space_group_name_H-M "C 2/M"
_symmetry_group_IT_number 12
_symmetry_cell_setting 'monoclinic'
loop_
_space_group_symop_operation_xyz
x,y,z
-x,y,-z
-x,-y,-z
x,-y,z
1/2+x,1/2+y,z
1/2-x,1/2+y,-z
1/2-x,1/2-y,-z
1/2+x,1/2-y,z
loop_
_atom_site_type_symbol
_atom_site_label
_atom_site_fract_x
_atom_site_fract_y
_atom_site_fract_z
Si Si1 0.989763 0.671246 0.916477
Si Si2 0.046655 0.830270 0.860234
Si Si3 0.106394 0.165576 0.519557
Si Si4 0.075533 0.670462 0.637161
Si Si5 0.731039 0.827794 0.803066
Si Si6 0.281832 0.330776 0.674199
Si Si7 0.252039 0.831070 0.899694
O O1 0.968092 0.500000 0.902746
O O2 0.861961 0.753740 0.859310
O O3 0.037733 0.732090 0.896991
O O4 0.101570 0.697244 0.010742
O O5 0.170629 0.807203 0.898617
O O6 0.924438 0.800447 0.764885
O O7 0.040284 0.000000 0.868993
O O8 0.227414 0.242038 0.605298
O O9 0.000000 0.172841 0.500000
O O10 0.043734 0.245187 0.445668
O O11 0.131242 0.000000 0.523447
O O12 0.050321 0.500000 0.622096
O O13 0.124558 0.709312 0.710613
O O14 0.192428 0.697948 0.667355
O O15 0.703835 0.766566 0.835270
O O16 0.745230 0.000000 0.810645
O O17 0.270041 0.500000 0.658281
O O18 0.239433 0.000000 0.881498
#
# Coordination Sequence:
#
# PCOD9200417 Si02
#       7
#     8   8   8   8   8   8   8
#     4  11  22  36  56  81 109 140 180 228 275 318
#     4  10  20  37  58  79 108 144 183 221 266 323
#     4   9  17  27  44  75 108 134 164 210 264 312
#     4   9  17  31  50  74 102 135 175 215 260 312
#     4  11  22  37  57  80 107 143 185 225 266 320
#     4   9  16  30  51  74 102 137 173 213 260 312
#     4  10  23  39  54  78 111 145 179 223 275 322
#
# _framework density 18.198079
#
# number of rings (size 3 to 8) (size 9 to 14) (size 15 to 20)
#    0.000    2.143    1.429    2.143    0.000    6.857 
#    0.000    0.000    0.000    0.857    0.000    0.000 
#    0.000    0.000    0.000    0.000    0.000    0.000 
#
# Total GULP energy -156294.092376 kJ/mol
# GULP energy per Si atom -5581.931871 kJ/mol
# Density = 1.815666 g / cm^3
# Si number density = 18.198079 Si / 1000 Ang^3
#
#
#
# Elastic Constant Matrix: (Units=GPa)
#
#
# Indices 1 2 3 4 5 6 
#
# 1 25.3867 10.5189 -0.3371 0.0000 -9.4894 0.0000
# 2 10.5189 37.5653 24.3359 0.0000 -11.9798 0.0000
# 3 -0.3371 24.3359 56.1739 0.0001 -11.7987 0.0000
# 4 0.0000 0.0000 0.0001 21.6687 0.0000 -10.0524
# 5 -9.4894 -11.9798 -11.7987 0.0000 18.2218 0.0000
# 6 0.0000 0.0000 0.0000 -10.0524 0.0000 24.0333
#
#
#
# Elastic Compliance Matrix: (Units=1/GPa)
#
#
# Indices 1 2 3 4 5 6 
#
# 1 0.056104 -0.015165 0.012673 0.000000 0.027453 0.000000
# 2 -0.015165 0.045721 -0.017643 0.000000 0.010737 0.000000
# 3 0.012673 -0.017643 0.028323 0.000000 0.013340 0.000000
# 4 0.000000 0.000000 0.000000 0.057260 0.000000 0.023950
# 5 0.027453 0.010737 0.013340 0.000000 0.084873 0.000000
# 6 0.000000 0.000000 0.000000 0.023950 0.000000 0.051627
#
#
# Mechanical properties :
#
#
# Convention : Reuss Voigt Hill
#
# Bulk Modulus (GPa) = 11.12621 20.90681 16.01651
# Shear Modulus (GPa) = 12.68590 18.42530 15.55560
#
# Velocity S-wave (km/s) = 2.64313 3.18541 2.92686
# Velocity P-wave (km/s) = 3.92964 5.00425 4.49915
#
# Compressibility (1/GPa) = 0.08987786
#
# Stress axis : x y z
#
# Youngs Moduli (GPa) = 17.82389 21.87191 35.30674
#
# Poissons Ratio (x) = 0.33169 -0.44743
# Poissons Ratio (y) = 0.27030 0.62292
# Poissons Ratio (z) = -0.22588 0.38589
#
# Static dielectric constant tensor:
#      x y z
#    x 1.617000 0.000000 -0.004510 
#    y 0.000000 1.605160 0.000000 
#    z -0.004510 0.000000 1.614110 
# 
# From -- ./inp_files/280227.got.cif
#   From: 2010.05.17/outbox.cif.g08.bks.cpg/sg12_141_cif.got.tgz:280227.got - 2010.06.03 13:09:07.
