data_PCOD9200734
_publ_section_title
;
Structure prediction by ZEFSAII (Michael W. Deem and Ramdas Pophale) SiO2 
 PCOD9200734
Probable space group: C 2/M
;
_chemical_formula_sum "Si O2"
_cell_formula_units_Z 42
_cell_length_a 14.161486
_cell_length_b 9.947621
_cell_length_c 15.101827
_cell_angle_alpha 90.000000
_cell_angle_beta 56.965234
_cell_angle_gamma 90.000000
_cell_volume 1783.518852
_symmetry_space_group_name_H-M "C 2/M"
_symmetry_group_IT_number 12
_symmetry_cell_setting 'monoclinic'
loop_
_space_group_symop_operation_xyz
x,y,z
-x,y,-z
-x,-y,-z
x,-y,z
1/2+x,1/2+y,z
1/2-x,1/2+y,-z
1/2-x,1/2-y,-z
1/2+x,1/2-y,z
loop_
_atom_site_type_symbol
_atom_site_label
_atom_site_fract_x
_atom_site_fract_y
_atom_site_fract_z
Si Si1 0.500000 0.500000 0.000000
Si Si2 0.990971 0.355394 0.213661
Si Si3 0.582044 0.346260 0.616180
Si Si4 0.147385 0.741810 0.984425
Si Si5 0.166780 0.346522 0.424992
Si Si6 0.249720 0.646276 0.749544
O O1 0.409961 0.381535 0.014888
O O2 0.024459 0.500000 0.236730
O O3 0.000863 0.224000 0.270061
O O4 0.858771 0.361393 0.259420
O O5 0.053644 0.337138 0.088655
O O6 0.554223 0.500000 0.608191
O O7 0.707586 0.352653 0.595603
O O8 0.594064 0.245590 0.527810
O O9 0.198409 0.673666 0.871530
O O10 0.250000 0.750000 0.000000
O O11 0.128979 0.500000 0.435909
O O12 0.179072 0.268522 0.326154
O O13 0.305372 0.500000 0.717585
#
# Coordination Sequence:
#
# PCOD9200734 Si02
#       6
#     2   8   8   8   8   8
#     4  12  28  48  74 106 156 184 262 312 360 444
#     4  10  20  37  59  87 130 179 230 291 359 427
#     4   9  17  29  51  84 122 169 227 288 356 431
#     4  12  27  43  69 101 141 191 238 299 368 432
#     4   9  17  29  51  84 122 169 227 288 356 431
#     4  10  20  37  59  87 130 179 230 291 359 427
#
# _framework density 23.548950000000001
#
# number of rings (size 3 to 8) (size 9 to 14) (size 15 to 20)
#    0.000    1.905    1.905    1.714    5.333    6.095 
#    0.000    0.000    0.000    1.143    0.000    5.333 
#    0.000    0.000    0.000    0.000    0.000    0.000 
#
# Total GULP energy -117119.098213 kJ/mol
# GULP energy per Si atom -5577.099915 kJ/mol
# Density = 2.349535 g / cm^3
# Si number density = 23.548950 Si / 1000 Ang^3
#
#
#
# Elastic Constant Matrix: (Units=GPa)
#
#
# Indices 1 2 3 4 5 6 
#
# 1 101.8068 23.1151 -5.2656 0.0000 -3.9332 0.0000
# 2 23.1151 262.8868 100.1550 0.0000 5.0792 0.0000
# 3 -5.2656 100.1550 140.9235 0.0000 -5.0122 0.0000
# 4 0.0000 0.0000 0.0000 3.7351 0.0000 0.8779
# 5 -3.9332 5.0792 -5.0122 0.0000 23.0378 0.0000
# 6 0.0000 0.0000 0.0000 0.8779 0.0000 -11.4192
#
#
#
# Elastic Compliance Matrix: (Units=1/GPa)
#
#
# Indices 1 2 3 4 5 6 
#
# 1 0.010354 -0.001561 0.001584 0.000000 0.002456 0.000000
# 2 -0.001561 0.005542 -0.004082 0.000000 -0.002376 0.000000
# 3 0.001584 -0.004082 0.010176 0.000000 0.003384 0.000000
# 4 0.000000 0.000000 0.000000 0.262979 0.000000 0.020219
# 5 0.002456 -0.002376 0.003384 0.000000 0.045086 0.000000
# 6 0.000000 0.000000 0.000000 0.020219 0.000000 -0.086018
#
#
# Mechanical properties :
#
#
# Convention : Reuss Voigt Hill
#
# Bulk Modulus (GPa) = 55.69722 82.40292 69.05007
# Shear Modulus (GPa) = 19.06772 28.91159 23.98966
#
# Velocity S-wave (km/s) = 2.84862 3.50769 3.19519
# Velocity P-wave (km/s) = 5.87559 7.17449 6.55728
#
# Compressibility (1/GPa) = 0.01795422
#
# Stress axis : x y z
#
# Youngs Moduli (GPa) = 96.58261 180.43487 98.26572
#
# Poissons Ratio (x) = 0.28171 -0.15564
# Poissons Ratio (y) = 0.15079 0.40109
# Poissons Ratio (z) = -0.15297 0.73648
#
# Static dielectric constant tensor:
#      x y z
#    x 1.933980 0.000000 -0.027150 
#    y 0.000000 1.901660 0.000000 
#    z -0.027150 0.000000 1.878490 
# 
# From -- ./inp_files/221419.got.cif
#   From: 2010.05.17/outbox.cif.g08.bks.cpg/sg12_111_cif.got.tgz:221419.got - 2010.06.03 13:09:07.
