data_PCOD9200695
_publ_section_title
;
Structure prediction by ZEFSAII (Michael W. Deem and Ramdas Pophale) SiO2 
 PCOD9200695
Probable space group: C 2/M
;
_chemical_formula_sum "Si O2"
_cell_formula_units_Z 56
_cell_length_a 29.648029
_cell_length_b 8.421854
_cell_length_c 20.792264
_cell_angle_alpha 90.000000
_cell_angle_beta 31.968398
_cell_angle_gamma 90.000000
_cell_volume 2748.725970
_symmetry_space_group_name_H-M "C 2/M"
_symmetry_group_IT_number 12
_symmetry_cell_setting 'monoclinic'
loop_
_space_group_symop_operation_xyz
x,y,z
-x,y,-z
-x,-y,-z
x,-y,z
1/2+x,1/2+y,z
1/2-x,1/2+y,-z
1/2-x,1/2-y,-z
1/2+x,1/2-y,z
loop_
_atom_site_type_symbol
_atom_site_label
_atom_site_fract_x
_atom_site_fract_y
_atom_site_fract_z
Si Si1 0.943967 0.190464 0.738072
Si Si2 0.232152 0.812594 0.806001
Si Si3 0.131710 0.191992 0.550138
Si Si4 0.810939 0.688595 0.275815
Si Si5 0.614812 0.814026 0.055495
Si Si6 0.911229 0.308095 0.637928
Si Si7 0.934523 0.188529 0.231922
O O1 0.895180 0.256759 0.859142
O O2 0.906327 0.247847 0.716592
O O3 0.043233 0.245022 0.624214
O O4 0.943142 0.000000 0.742314
O O5 0.186142 0.725793 0.803004
O O6 0.329572 0.756087 0.695735
O O7 0.231549 0.000000 0.793525
O O8 0.184963 0.778515 0.929840
O O9 0.218873 0.249447 0.412990
O O10 0.122791 0.232702 0.636364
O O11 0.133017 0.000000 0.544064
O O12 0.815752 0.500000 0.280581
O O13 0.884720 0.769341 0.227854
O O14 0.523597 0.777615 0.132879
O O15 0.633322 0.000000 0.031157
O O16 0.911023 0.500000 0.639032
O O17 0.000000 0.252669 0.500000
O O18 0.951382 0.000000 0.215396
#
# Coordination Sequence:
#
# PCOD9200695 Si02
#       7
#     8   8   8   8   8   8   8
#     4  10  20  37  62  89 118 154 192 234 287 341
#     4  11  24  41  59  82 115 153 192 237 287 339
#     4   8  17  33  55  85 119 151 187 232 281 339
#     4  11  21  35  56  85 118 153 194 237 285 339
#     4  11  23  41  62  85 113 148 194 242 287 337
#     4  10  22  40  62  90 121 152 189 233 283 340
#     4  10  20  37  59  85 117 153 192 235 287 342
#
# _framework density 20.373073999999999
#
# number of rings (size 3 to 8) (size 9 to 14) (size 15 to 20)
#    0.000    1.857    0.000    5.143    0.000    2.571 
#    0.000   10.000    0.000    0.000    0.000    0.000 
#    0.000    0.000    0.000    0.000    0.000    0.000 
#
# Total GULP energy -156508.419056 kJ/mol
# GULP energy per Si atom -5589.586395 kJ/mol
# Density = 2.032670 g / cm^3
# Si number density = 20.373074 Si / 1000 Ang^3
#
#
#
# Elastic Constant Matrix: (Units=GPa)
#
#
# Indices 1 2 3 4 5 6 
#
# 1 80.6860 -3.1385 -16.7454 0.0023 11.5521 -0.0022
# 2 -3.1385 22.2809 -12.9822 0.0031 -2.9160 -0.0044
# 3 -16.7454 -12.9822 44.6750 0.0049 7.2896 -0.0038
# 4 0.0023 0.0031 0.0049 22.2709 -0.0024 4.1050
# 5 11.5521 -2.9160 7.2896 -0.0024 12.7437 0.0019
# 6 -0.0022 -0.0044 -0.0038 4.1050 0.0019 20.6350
#
#
#
# Elastic Compliance Matrix: (Units=1/GPa)
#
#
# Indices 1 2 3 4 5 6 
#
# 1 0.018491 0.007033 0.012626 -0.000010 -0.022375 0.000010
# 2 0.007033 0.056866 0.019939 -0.000017 -0.004769 0.000020
# 3 0.012626 0.019939 0.037537 -0.000019 -0.028354 0.000019
# 4 -0.000010 -0.000017 -0.000019 0.046611 0.000026 -0.009272
# 5 -0.022375 -0.004769 -0.028354 0.000026 0.113881 -0.000024
# 6 0.000010 0.000020 0.000019 -0.009272 -0.000024 0.050306
#
#
# Mechanical properties :
#
#
# Convention : Reuss Voigt Hill
#
# Bulk Modulus (GPa) = 5.20595 9.10107 7.15351
# Shear Modulus (GPa) = 16.20606 23.16378 19.68492
#
# Velocity S-wave (km/s) = 2.82346 3.37557 3.11178
# Velocity P-wave (km/s) = 3.63181 4.43504 4.05337
#
# Compressibility (1/GPa) = 0.19208796
#
# Stress axis : x y z
#
# Youngs Moduli (GPa) = 54.08010 17.58533 26.64045
#
# Poissons Ratio (x) = -0.12367 -0.33635
# Poissons Ratio (y) = -0.38033 -0.53118
# Poissons Ratio (z) = -0.68279 -0.35063
#
# Static dielectric constant tensor:
#      x y z
#    x 1.692490 0.000000 -0.012620 
#    y 0.000000 1.683420 0.000000 
#    z -0.012620 0.000000 1.727940 
# 
# From -- ./inp_files/329529.got.cif
#   From: 2010.05.17/outbox.cif.g08.bks.cpg/sg12_165_cif.got.tgz:329529.got - 2010.06.03 13:09:07.
