data_PCOD9200472
_publ_section_title
;
Structure prediction by ZEFSAII (Michael W. Deem and Ramdas Pophale) SiO2 
 PCOD9200472
Probable space group: C 2/M
;
_chemical_formula_sum "Si O2"
_cell_formula_units_Z 48
_cell_length_a 19.380752
_cell_length_b 9.333677
_cell_length_c 29.256407
_cell_angle_alpha 90.000000
_cell_angle_beta 25.233819
_cell_angle_gamma 90.000000
_cell_volume 2256.177464
_symmetry_space_group_name_H-M "C 2/M"
_symmetry_group_IT_number 12
_symmetry_cell_setting 'monoclinic'
loop_
_space_group_symop_operation_xyz
x,y,z
-x,y,-z
-x,-y,-z
x,-y,z
1/2+x,1/2+y,z
1/2-x,1/2+y,-z
1/2-x,1/2-y,-z
1/2+x,1/2-y,z
loop_
_atom_site_type_symbol
_atom_site_label
_atom_site_fract_x
_atom_site_fract_y
_atom_site_fract_z
Si Si1 0.499812 0.164733 0.336674
Si Si2 0.753425 0.664652 0.569784
Si Si3 0.442517 0.332271 0.982881
Si Si4 0.849147 0.330091 0.901010
Si Si5 0.227660 0.670611 0.671561
Si Si6 0.268693 0.169709 0.227163
O O1 0.397380 0.245222 0.359565
O O2 0.386271 0.165914 0.450009
O O3 0.658814 0.248042 0.256708
O O4 0.532945 0.000000 0.304063
O O5 0.708696 0.500000 0.605174
O O6 0.810369 0.740833 0.581884
O O7 0.476953 0.500000 0.951943
O O8 0.551198 0.230078 0.886571
O O9 0.500000 0.306375 0.000000
O O10 0.255017 0.308089 0.082936
O O11 0.848329 0.500000 0.911555
O O12 0.036449 0.288533 0.785169
O O13 0.750000 0.250000 0.000000
O O14 0.241451 0.500000 0.654544
O O15 0.286194 0.698339 0.687947
O O16 0.263706 0.000000 0.222766
#
# Coordination Sequence:
#
# PCOD9200472 Si02
#       6
#     8   8   8   8   8   8
#     4  10  22  41  63  86 119 154 190 241 297 351
#     4  10  22  40  63  91 116 149 196 240 290 354
#     4  10  22  38  58  85 116 155 199 242 294 349
#     4  10  20  37  58  82 116 155 194 236 288 347
#     4  10  22  38  58  86 121 159 195 238 292 346
#     4  11  23  39  59  87 120 155 200 245 290 344
#
# _framework density 21.274922
#
# number of rings (size 3 to 8) (size 9 to 14) (size 15 to 20)
#    0.000    1.833    1.667    1.500    2.333    5.000 
#    0.000    3.333    0.000    0.000    0.000    0.000 
#    0.000    0.000    0.000    0.000    0.000    0.000 
#
# Total GULP energy -134173.382808 kJ/mol
# GULP energy per Si atom -5590.557617 kJ/mol
# Density = 2.122650 g / cm^3
# Si number density = 21.274922 Si / 1000 Ang^3
#
#
#
# Elastic Constant Matrix: (Units=GPa)
#
#
# Indices 1 2 3 4 5 6 
#
# 1 64.0001 39.4354 3.4976 -0.0029 -0.8949 0.0003
# 2 39.4354 74.1193 15.5891 -0.0013 7.9791 0.0007
# 3 3.4976 15.5891 35.8391 0.0067 -4.2719 0.0001
# 4 -0.0029 -0.0013 0.0067 24.7795 0.0012 6.5012
# 5 -0.8949 7.9791 -4.2719 0.0012 34.6536 -0.0005
# 6 0.0003 0.0007 0.0001 6.5012 -0.0005 30.9404
#
#
#
# Elastic Compliance Matrix: (Units=1/GPa)
#
#
# Indices 1 2 3 4 5 6 
#
# 1 0.024269 -0.014317 0.004391 0.000001 0.004464 0.000000
# 2 -0.014317 0.023948 -0.009866 0.000003 -0.007100 -0.000001
# 3 0.004391 -0.009866 0.032528 -0.000010 0.006395 0.000002
# 4 0.000001 0.000003 -0.000010 0.042711 -0.000003 -0.008974
# 5 0.004464 -0.007100 0.006395 -0.000003 0.031395 0.000001
# 6 0.000000 -0.000001 0.000002 -0.008974 0.000001 0.034206
#
#
# Mechanical properties :
#
#
# Convention : Reuss Voigt Hill
#
# Bulk Modulus (GPa) = 24.29433 32.33363 28.31398
# Shear Modulus (GPa) = 20.63041 25.77045 23.20043
#
# Velocity S-wave (km/s) = 3.11739 3.48416 3.30586
# Velocity P-wave (km/s) = 4.93979 5.60507 5.28291
#
# Compressibility (1/GPa) = 0.04116187
#
# Stress axis : x y z
#
# Youngs Moduli (GPa) = 41.20485 41.75650 30.74306
#
# Poissons Ratio (x) = 0.59781 -0.13499
# Poissons Ratio (y) = 0.58991 0.30331
# Poissons Ratio (z) = -0.18093 0.41197
#
# Static dielectric constant tensor:
#      x y z
#    x 1.775140 0.000000 0.004100 
#    y 0.000000 1.706410 0.000000 
#    z 0.004100 0.000000 1.790770 
# 
# From -- ./inp_files/229960.got.cif
#   From: 2010.05.17/outbox.cif.g08.bks.cpg/sg12_115_cif.got.tgz:229960.got - 2010.06.03 13:09:07.
