data_PCOD9200183
_publ_section_title
;
Structure prediction by ZEFSAII (Michael W. Deem and Ramdas Pophale) SiO2 
 PCOD9200183
Probable space group: C 2/M
;
_chemical_formula_sum "Si O2"
_cell_formula_units_Z 44
_cell_length_a 18.754144
_cell_length_b 9.202947
_cell_length_c 10.472653
_cell_angle_alpha 90.000000
_cell_angle_beta 91.367242
_cell_angle_gamma 90.000000
_cell_volume 1806.996111
_symmetry_space_group_name_H-M "C 2/M"
_symmetry_group_IT_number 12
_symmetry_cell_setting 'monoclinic'
loop_
_space_group_symop_operation_xyz
x,y,z
-x,y,-z
-x,-y,-z
x,-y,z
1/2+x,1/2+y,z
1/2-x,1/2+y,-z
1/2-x,1/2-y,-z
1/2+x,1/2-y,z
loop_
_atom_site_type_symbol
_atom_site_label
_atom_site_fract_x
_atom_site_fract_y
_atom_site_fract_z
Si Si1 0.845764 0.287153 0.447787
Si Si2 0.523806 0.829887 0.702991
Si Si3 0.767493 0.663940 0.178542
Si Si4 0.880162 0.327828 0.812011
Si Si5 0.757866 0.000000 0.447549
Si Si6 0.395203 0.326957 0.067221
O O1 0.928732 0.309431 0.421305
O O2 0.806894 0.346352 0.316637
O O3 0.819437 0.124687 0.455474
O O4 0.806062 0.376600 0.554843
O O5 0.439520 0.802597 0.706171
O O6 0.559615 0.724257 0.808989
O O7 0.532690 0.000000 0.742004
O O8 0.765261 0.500000 0.124668
O O9 0.689958 0.729353 0.197954
O O10 0.814571 0.775678 0.098354
O O11 0.863990 0.500000 0.822432
O O12 0.915517 0.268030 0.945147
O O13 0.400117 0.500000 0.046933
#
# Coordination Sequence:
#
# PCOD9200183 Si02
#       6
#     8   8   8   8   4   8
#     4  10  20  38  62  91 106 143 180 240 278 338
#     4  10  21  38  57  83 119 150 189 231 278 331
#     4  11  22  38  57  83 119 149 189 234 278 330
#     4  11  23  37  56  80 117 161 189 226 278 331
#     4  10  20  36  66  88 108 134 190 230 288 338
#     4  11  22  36  57  84 113 153 199 234 266 323
#
# _framework density 24.349802
#
# number of rings (size 3 to 8) (size 9 to 14) (size 15 to 20)
#    0.000    1.455    1.818    4.909    6.364    3.636 
#    0.000    0.000    0.000    6.545    0.000    0.000 
#    0.000    0.000    0.000    0.000    0.000    0.000 
#
# Total GULP energy -122605.492428 kJ/mol
# GULP energy per Si atom -5572.976929 kJ/mol
# Density = 2.429438 g / cm^3
# Si number density = 24.349802 Si / 1000 Ang^3
#
#
#
# Elastic Constant Matrix: (Units=GPa)
#
#
# Indices 1 2 3 4 5 6 
#
# 1 151.1790 43.4374 -0.1284 0.0000 -32.1659 0.0000
# 2 43.4374 203.0751 16.5623 0.0000 -18.7344 0.0000
# 3 -0.1284 16.5623 71.2198 0.0000 -3.9412 0.0000
# 4 0.0000 0.0000 0.0000 70.2854 0.0000 -7.8878
# 5 -32.1659 -18.7344 -3.9412 0.0000 36.8301 0.0000
# 6 0.0000 0.0000 0.0000 -7.8878 0.0000 28.5204
#
#
#
# Elastic Compliance Matrix: (Units=1/GPa)
#
#
# Indices 1 2 3 4 5 6 
#
# 1 0.008414 -0.001228 0.000677 0.000000 0.006796 0.000000
# 2 -0.001228 0.005427 -0.001178 0.000000 0.001562 0.000000
# 3 0.000677 -0.001178 0.014401 0.000000 0.001533 0.000000
# 4 0.000000 0.000000 0.000000 0.014683 0.000000 0.004061
# 5 0.006796 0.001562 0.001533 0.000000 0.034046 0.000000
# 6 0.000000 0.000000 0.000000 0.004061 0.000000 0.036186
#
#
# Mechanical properties :
#
#
# Convention : Reuss Voigt Hill
#
# Bulk Modulus (GPa) = 40.34822 60.57960 50.46391
# Shear Modulus (GPa) = 40.03942 51.50068 45.77005
#
# Velocity S-wave (km/s) = 4.05945 4.60394 4.34024
# Velocity P-wave (km/s) = 6.21115 7.29346 6.77396
#
# Compressibility (1/GPa) = 0.02478424
#
# Stress axis : x y z
#
# Youngs Moduli (GPa) = 118.84795 184.25970 69.43959
#
# Poissons Ratio (x) = 0.22627 -0.04700
# Poissons Ratio (y) = 0.14594 0.08179
# Poissons Ratio (z) = -0.08044 0.21703
#
# Static dielectric constant tensor:
#      x y z
#    x 1.962270 0.000000 0.033960 
#    y 0.000000 1.838040 0.000000 
#    z 0.033960 0.000000 2.132330 
# 
# From -- ./inp_files/220854.got.cif
#   From: 2010.05.17/outbox.cif.g08.bks.cpg/sg12_111_cif.got.tgz:220854.got - 2010.06.03 13:09:07.
