data_PCOD9200755
_publ_section_title
;
Structure prediction by ZEFSAII (Michael W. Deem and Ramdas Pophale) SiO2 
 PCOD9200755
Probable space group: C 2/M
;
_chemical_formula_sum "Si O2"
_cell_formula_units_Z 48
_cell_length_a 13.197021
_cell_length_b 31.572868
_cell_length_c 7.403652
_cell_angle_alpha 90.000000
_cell_angle_beta 136.510239
_cell_angle_gamma 90.000000
_cell_volume 2123.079924
_symmetry_space_group_name_H-M "C 2/M"
_symmetry_group_IT_number 12
_symmetry_cell_setting 'monoclinic'
loop_
_space_group_symop_operation_xyz
x,y,z
-x,y,-z
-x,-y,-z
x,-y,z
1/2+x,1/2+y,z
1/2-x,1/2+y,-z
1/2-x,1/2-y,-z
1/2+x,1/2-y,z
loop_
_atom_site_type_symbol
_atom_site_label
_atom_site_fract_x
_atom_site_fract_y
_atom_site_fract_z
Si Si1 0.382544 0.365405 0.089363
Si Si2 0.662630 0.796868 0.729173
Si Si3 0.165970 0.045708 0.130778
Si Si4 0.831169 0.546581 0.715832
Si Si5 0.661488 0.223430 0.154315
Si Si6 0.700174 0.638449 0.604599
O O1 0.352927 0.354554 0.259480
O O2 0.557561 0.362371 0.291925
O O3 0.286432 0.331787 0.858251
O O4 0.327834 0.412769 0.981264
O O5 0.500000 0.814836 0.500000
O O6 0.705134 0.757121 0.656897
O O7 0.659934 0.783428 0.936084
O O8 0.288255 0.047496 0.447200
O O9 0.182398 0.000000 0.058427
O O10 0.000000 0.046218 0.000000
O O11 0.770008 0.500000 0.697019
O O12 0.766415 0.591446 0.693119
O O13 0.000000 0.546660 0.000000
O O14 0.694207 0.178456 0.292914
O O15 0.500000 0.239372 0.000000
#
# Coordination Sequence:
#
# PCOD9200755 Si02
#       6
#     8   8   8   8   8   8
#     4  10  22  38  60  89 121 166 203 257 317 372
#     4  10  24  42  61  88 127 159 206 270 316 378
#     4  10  20  37  59  89 125 161 208 262 309 366
#     4  10  21  38  61  89 124 163 203 255 313 371
#     4  10  23  41  63  88 120 166 209 258 322 381
#     4  10  21  38  61  88 124 160 211 258 310 377
#
# _framework density 22.608663
#
# number of rings (size 3 to 8) (size 9 to 14) (size 15 to 20)
#    0.000    2.000    1.667    0.500    7.000    6.000 
#    0.000    1.667    0.000    3.500    0.000    0.000 
#    0.000    0.000    0.000    0.000    0.000    0.000 
#
# Total GULP energy -133882.026243 kJ/mol
# GULP energy per Si atom -5578.417760 kJ/mol
# Density = 2.255721 g / cm^3
# Si number density = 22.608663 Si / 1000 Ang^3
#
#
#
# Elastic Constant Matrix: (Units=GPa)
#
#
# Indices 1 2 3 4 5 6 
#
# 1 52.6898 28.3512 18.6314 0.0000 10.2878 0.0000
# 2 28.3512 113.8369 32.2066 0.0000 17.4591 0.0000
# 3 18.6314 32.2066 127.1910 0.0000 22.9019 0.0000
# 4 0.0000 0.0000 0.0000 14.2316 0.0000 -25.6022
# 5 10.2878 17.4591 22.9019 0.0000 27.8235 0.0000
# 6 0.0000 0.0000 0.0000 -25.6022 0.0000 14.4480
#
#
#
# Elastic Compliance Matrix: (Units=1/GPa)
#
#
# Indices 1 2 3 4 5 6 
#
# 1 0.022810 -0.004615 -0.001380 0.000000 -0.004402 0.000000
# 2 -0.004615 0.010939 -0.001368 0.000000 -0.004032 0.000000
# 3 -0.001380 -0.001368 0.009585 0.000000 -0.006521 0.000000
# 4 0.000000 0.000000 0.000000 -0.032117 0.000000 -0.056912
# 5 -0.004402 -0.004032 -0.006521 0.000000 0.045466 0.000000
# 6 0.000000 0.000000 0.000000 -0.056912 0.000000 -0.031636
#
#
# Mechanical properties :
#
#
# Convention : Reuss Voigt Hill
#
# Bulk Modulus (GPa) = 34.95575 50.23291 42.59433
# Shear Modulus (GPa) = 101.40024 25.60251 63.50138
#
# Velocity S-wave (km/s) = 6.70429 3.36880 5.30548
# Velocity P-wave (km/s) = 8.68475 6.11542 7.51077
#
# Compressibility (1/GPa) = 0.02860760
#
# Stress axis : x y z
#
# Youngs Moduli (GPa) = 43.84075 91.41334 104.33132
#
# Poissons Ratio (x) = 0.42190 0.14398
# Poissons Ratio (y) = 0.20234 0.14272
# Poissons Ratio (z) = 0.06050 0.12505
#
# Static dielectric constant tensor:
#      x y z
#    x 1.843920 0.000000 -0.025920 
#    y 0.000000 1.865700 0.000000 
#    z -0.025920 0.000000 1.879890 
# 
# From -- ./inp_files/67407.got.cif
#   From: 2010.05.17/outbox.cif.g08.bks.cpg/sg12_34_cif.got.tgz:67407.got - 2010.06.03 13:09:07.
