data_PCOD9200548
_publ_section_title
;
Structure prediction by ZEFSAII (Michael W. Deem and Ramdas Pophale) SiO2 
 PCOD9200548
Probable space group: C 2/M
;
_chemical_formula_sum "Si O2"
_cell_formula_units_Z 44
_cell_length_a 25.563696
_cell_length_b 7.421087
_cell_length_c 25.633953
_cell_angle_alpha 90.000000
_cell_angle_beta 20.540388
_cell_angle_gamma 90.000000
_cell_volume 1706.278683
_symmetry_space_group_name_H-M "C 2/M"
_symmetry_group_IT_number 12
_symmetry_cell_setting 'monoclinic'
loop_
_space_group_symop_operation_xyz
x,y,z
-x,y,-z
-x,-y,-z
x,-y,z
1/2+x,1/2+y,z
1/2-x,1/2+y,-z
1/2-x,1/2-y,-z
1/2+x,1/2-y,z
loop_
_atom_site_type_symbol
_atom_site_label
_atom_site_fract_x
_atom_site_fract_y
_atom_site_fract_z
Si Si1 0.084207 0.287822 0.242374
Si Si2 0.847007 0.790663 0.049048
Si Si3 0.040246 0.717791 0.170178
Si Si4 0.500000 0.243473 0.000000
Si Si5 0.728318 0.716018 0.418438
Si Si6 0.675427 0.280436 0.348392
O O1 0.120276 0.500000 0.207706
O O2 0.178235 0.219733 0.204594
O O3 0.100712 0.211162 0.168658
O O4 0.913753 0.267807 0.415782
O O5 0.962115 0.684207 0.976899
O O6 0.872343 0.000000 0.040037
O O7 0.877331 0.772333 0.959332
O O8 0.041639 0.500000 0.172324
O O9 0.873500 0.780577 0.313277
O O10 0.319850 0.293033 0.180318
O O11 0.737841 0.500000 0.406881
O O12 0.708450 0.776490 0.377288
O O13 0.500000 0.231707 0.500000
O O14 0.684347 0.500000 0.334920
#
# Coordination Sequence:
#
# PCOD9200548 Si02
#       6
#     8   8   8   4   8   8
#     4  10  22  39  60  89 121 158 199 249 308 371
#     4  11  24  40  59  87 123 159 205 252 302 367
#     4  10  21  39  62  88 120 154 201 252 304 368
#     4  12  22  40  64  84 125 170 205 254 315 354
#     4  10  20  37  58  88 121 151 198 252 299 369
#     4  10  21  37  60  92 125 161 209 257 305 368
#
# _framework density 25.787115
#
# number of rings (size 3 to 8) (size 9 to 14) (size 15 to 20)
#    0.000    1.636    1.818    2.727    0.000    2.909 
#    0.000    0.000    0.000    3.818    0.000    0.000 
#    0.000    0.000    0.000    0.000    0.000    0.000 
#
# Total GULP energy -122582.196388 kJ/mol
# GULP energy per Si atom -5571.918018 kJ/mol
# Density = 2.572842 g / cm^3
# Si number density = 25.787115 Si / 1000 Ang^3
#
#
#
# Elastic Constant Matrix: (Units=GPa)
#
#
# Indices 1 2 3 4 5 6 
#
# 1 198.7792 31.2403 45.9502 -0.0051 -34.6649 0.0060
# 2 31.2403 104.9255 5.5457 0.0042 -10.1234 -0.0049
# 3 45.9502 5.5457 127.1742 -0.0054 -22.7985 0.0020
# 4 -0.0051 0.0042 -0.0054 12.3015 0.0035 27.6981
# 5 -34.6649 -10.1234 -22.7985 0.0035 61.1007 -0.0033
# 6 0.0060 -0.0049 0.0020 27.6981 -0.0033 -40.3215
#
#
#
# Elastic Compliance Matrix: (Units=1/GPa)
#
#
# Indices 1 2 3 4 5 6 
#
# 1 0.006102 -0.001478 -0.001676 0.000000 0.002592 0.000001
# 2 -0.001478 0.010046 0.000262 0.000000 0.000923 -0.000002
# 3 -0.001676 0.000262 0.008889 0.000001 0.002409 0.000001
# 4 0.000000 0.000000 0.000001 0.031920 0.000000 0.021927
# 5 0.002592 0.000923 0.002409 0.000000 0.018889 -0.000001
# 6 0.000001 -0.000002 0.000001 0.021927 -0.000001 -0.009738
#
#
# Mechanical properties :
#
#
# Convention : Reuss Voigt Hill
#
# Bulk Modulus (GPa) = 51.94079 66.26125 59.10102
# Shear Modulus (GPa) = 63.84800 29.82564 46.83682
#
# Velocity S-wave (km/s) = 4.98131 3.40459 4.26642
# Velocity P-wave (km/s) = 7.29866 6.41921 6.87301
#
# Compressibility (1/GPa) = 0.01925269
#
# Stress axis : x y z
#
# Youngs Moduli (GPa) = 163.86947 99.54242 112.49529
#
# Poissons Ratio (x) = 0.14715 0.18852
# Poissons Ratio (y) = 0.24224 -0.02943
# Poissons Ratio (z) = 0.27461 -0.02604
#
# Static dielectric constant tensor:
#      x y z
#    x 2.117420 -0.000100 -0.034310 
#    y -0.000100 3.397880 -0.000020 
#    z -0.034310 -0.000020 2.127640 
# 
# From -- ./inp_files/369002.got.cif
#   From: 2010.05.17/outbox.cif.g08.bks.cpg/sg12_185_cif.got.tgz:369002.got - 2010.06.03 13:09:07.
