data_PCOD9200019
_publ_section_title
;
Structure prediction by ZEFSAII (Michael W. Deem and Ramdas Pophale) SiO2 
 PCOD9200019
Probable space group: C 2/M
;
_chemical_formula_sum "Si O2"
_cell_formula_units_Z 48
_cell_length_a 16.492920
_cell_length_b 27.526958
_cell_length_c 5.270273
_cell_angle_alpha 90.000000
_cell_angle_beta 119.054314
_cell_angle_gamma 90.000000
_cell_volume 2091.605058
_symmetry_space_group_name_H-M "C 2/M"
_symmetry_group_IT_number 12
_symmetry_cell_setting 'monoclinic'
loop_
_space_group_symop_operation_xyz
x,y,z
-x,y,-z
-x,-y,-z
x,-y,z
1/2+x,1/2+y,z
1/2-x,1/2+y,-z
1/2-x,1/2-y,-z
1/2+x,1/2-y,z
loop_
_atom_site_type_symbol
_atom_site_label
_atom_site_fract_x
_atom_site_fract_y
_atom_site_fract_z
Si Si1 0.105380 0.921405 0.190881
Si Si2 0.179939 0.278297 0.080177
Si Si3 0.280656 0.553264 0.146734
Si Si4 0.562972 0.054140 0.343046
Si Si5 0.831876 0.633550 0.208648
Si Si6 0.325201 0.681616 0.708576
O O1 0.155690 0.943781 0.510232
O O2 0.108385 0.863141 0.251809
O O3 0.160152 0.935770 0.017749
O O4 0.000000 0.937173 0.000000
O O5 0.249041 0.305176 0.380304
O O6 0.130162 0.233074 0.143826
O O7 0.250000 0.250000 0.000000
O O8 0.120065 0.319953 0.849389
O O9 0.239323 0.500000 0.061227
O O10 0.199856 0.592953 0.039538
O O11 0.500000 0.051800 0.500000
O O12 0.624162 0.101636 0.500129
O O13 0.608259 0.000000 0.385489
O O14 0.500000 0.061116 0.000000
O O15 0.737962 0.658363 0.166605
#
# Coordination Sequence:
#
# PCOD9200019 Si02
#       6
#     8   8   8   8   8   8
#     4  11  23  39  59  84 123 162 194 240 299 349
#     4   9  17  34  61  85 112 145 197 245 296 343
#     4  11  23  38  59  90 117 154 207 245 283 344
#     4  10  23  40  60  87 123 162 195 241 309 365
#     4  10  20  36  63  86 116 155 199 249 291 356
#     4   9  19  35  60  88 113 152 202 241 293 354
#
# _framework density 22.948882000000001
#
# number of rings (size 3 to 8) (size 9 to 14) (size 15 to 20)
#    0.000    2.000    1.667    1.500    2.333    2.000 
#    0.000    3.333   11.000    0.000    0.000    0.000 
#    0.000    0.000    0.000    0.000    0.000    0.000 
#
# Total GULP energy -133875.418183 kJ/mol
# GULP energy per Si atom -5578.142424 kJ/mol
# Density = 2.289665 g / cm^3
# Si number density = 22.948882 Si / 1000 Ang^3
#
#
#
# Elastic Constant Matrix: (Units=GPa)
#
#
# Indices 1 2 3 4 5 6 
#
# 1 23.0854 16.2754 11.5708 0.0000 -10.1591 0.0000
# 2 16.2754 209.7251 60.7538 0.0000 1.0219 0.0000
# 3 11.5708 60.7538 138.2428 0.0000 -12.1064 0.0000
# 4 0.0000 0.0000 0.0000 42.6494 0.0000 -8.0342
# 5 -10.1591 1.0219 -12.1064 0.0000 27.4557 0.0000
# 6 0.0000 0.0000 0.0000 -8.0342 0.0000 -6.2379
#
#
#
# Elastic Compliance Matrix: (Units=1/GPa)
#
#
# Indices 1 2 3 4 5 6 
#
# 1 0.055678 -0.004107 -0.001079 0.000000 0.020279 0.000000
# 2 -0.004107 0.005813 -0.002458 0.000000 -0.002820 0.000000
# 3 -0.001079 -0.002458 0.008714 0.000000 0.003534 0.000000
# 4 0.000000 0.000000 0.000000 0.018869 0.000000 -0.024303
# 5 0.020279 -0.002820 0.003534 0.000000 0.045589 0.000000
# 6 0.000000 0.000000 0.000000 -0.024303 0.000000 -0.129009
#
#
# Mechanical properties :
#
#
# Convention : Reuss Voigt Hill
#
# Bulk Modulus (GPa) = 18.20959 60.91702 39.56331
# Shear Modulus (GPa) = 127.40070 31.60367 79.50219
#
# Velocity S-wave (km/s) = 7.45892 3.71500 5.89223
# Velocity P-wave (km/s) = 9.06271 6.70850 7.97298
#
# Compressibility (1/GPa) = 0.05491611
#
# Stress axis : x y z
#
# Youngs Moduli (GPa) = 17.96042 172.04216 114.76371
#
# Poissons Ratio (x) = 0.70656 0.12388
# Poissons Ratio (y) = 0.07376 0.28205
# Poissons Ratio (z) = 0.01939 0.42281
#
# Static dielectric constant tensor:
#      x y z
#    x 2.005640 0.000000 -0.108720 
#    y 0.000000 1.975800 0.000000 
#    z -0.108720 0.000000 1.895510 
# 
# From -- ./inp_files/17507.got.cif
#   From: 2010.05.17/outbox.cif.g08.bks.cpg/sg12_9_cif.got.tgz:17507.got - 2010.06.03 13:09:07.
