data_PCOD9200376
_publ_section_title
;
Structure prediction by ZEFSAII (Michael W. Deem and Ramdas Pophale) SiO2 
 PCOD9200376
Probable space group: C 2/M
;
_chemical_formula_sum "Si O2"
_cell_formula_units_Z 50
_cell_length_a 11.993627
_cell_length_b 12.870655
_cell_length_c 16.540588
_cell_angle_alpha 90.000000
_cell_angle_beta 116.600644
_cell_angle_gamma 90.000000
_cell_volume 2283.032668
_symmetry_space_group_name_H-M "C 2/M"
_symmetry_group_IT_number 12
_symmetry_cell_setting 'monoclinic'
loop_
_space_group_symop_operation_xyz
x,y,z
-x,y,-z
-x,-y,-z
x,-y,z
1/2+x,1/2+y,z
1/2-x,1/2+y,-z
1/2-x,1/2-y,-z
1/2+x,1/2-y,z
loop_
_atom_site_type_symbol
_atom_site_label
_atom_site_fract_x
_atom_site_fract_y
_atom_site_fract_z
Si Si1 0.603758 0.379846 0.727843
Si Si2 0.533453 0.124745 0.885796
Si Si3 0.197668 0.625912 0.080063
Si Si4 0.996960 0.330252 0.687225
Si Si5 0.000000 0.000000 0.500000
Si Si6 0.361685 0.886802 0.417494
Si Si7 0.220515 0.843064 0.596164
O O1 0.562169 0.500000 0.712144
O O2 0.671942 0.351797 0.833969
O O3 0.500136 0.294388 0.676940
O O4 0.702205 0.367309 0.686453
O O5 0.412815 0.163595 0.896331
O O6 0.523627 0.150700 0.789418
O O7 0.529364 0.000000 0.889314
O O8 0.655681 0.157841 0.976545
O O9 0.194519 0.500000 0.080045
O O10 0.861212 0.372768 0.619942
O O11 0.106521 0.375567 0.667592
O O12 0.108553 0.090536 0.523118
O O13 0.500000 0.884538 0.500000
O O14 0.295798 0.780378 0.421630
O O15 0.303898 0.000000 0.415138
#
# Coordination Sequence:
#
# PCOD9200376 Si02
#       7
#     8   8   8   8   2   8   8
#     4  10  20  37  57  85 122 151 188 245 294 342
#     4   9  16  29  53  88 113 149 191 234 289 340
#     4   8  15  29  54  83 119 147 183 240 291 336
#     4  11  23  35  62  88 110 155 200 234 293 348
#     4  12  24  40  66  88 116 144 200 258 292 336
#     4  10  23  43  57  82 117 151 191 238 294 347
#     4  11  23  41  61  86 114 151 196 245 295 345
#
# _framework density 21.900693
#
# number of rings (size 3 to 8) (size 9 to 14) (size 15 to 20)
#    0.000    2.080    3.200    1.440    2.240    1.920 
#    0.000    0.000    0.000    0.000    0.000    2.240 
#    0.000    0.000    0.000    0.000    0.000    0.000 
#
# Total GULP energy -139259.530729 kJ/mol
# GULP energy per Si atom -5570.381229 kJ/mol
# Density = 2.185085 g / cm^3
# Si number density = 21.900693 Si / 1000 Ang^3
#
#
#
# Elastic Constant Matrix: (Units=GPa)
#
#
# Indices 1 2 3 4 5 6 
#
# 1 48.6545 19.2460 12.0654 0.0000 9.0507 0.0000
# 2 19.2460 133.8595 15.7305 0.0000 21.8533 0.0000
# 3 12.0654 15.7305 76.4166 0.0000 -12.0394 0.0000
# 4 0.0000 0.0000 0.0000 24.3910 0.0000 -1.8091
# 5 9.0507 21.8533 -12.0394 0.0000 30.8084 0.0000
# 6 0.0000 0.0000 0.0000 -1.8091 0.0000 5.9172
#
#
#
# Elastic Compliance Matrix: (Units=1/GPa)
#
#
# Indices 1 2 3 4 5 6 
#
# 1 0.023762 -0.001628 -0.004619 0.000000 -0.007631 0.000000
# 2 -0.001628 0.009191 -0.002756 0.000000 -0.007118 0.000000
# 3 -0.004619 -0.002756 0.015882 0.000000 0.009519 0.000000
# 4 0.000000 0.000000 0.000000 0.041950 0.000000 0.012826
# 5 -0.007631 -0.007118 0.009519 0.000000 0.043469 0.000000
# 6 0.000000 0.000000 0.000000 0.012826 0.000000 0.172921
#
#
# Mechanical properties :
#
#
# Convention : Reuss Voigt Hill
#
# Bulk Modulus (GPa) = 32.43723 39.22385 35.83054
# Shear Modulus (GPa) = 14.90502 26.34922 20.62712
#
# Velocity S-wave (km/s) = 2.61161 3.47237 3.07228
# Velocity P-wave (km/s) = 4.89257 5.83311 5.38342
#
# Compressibility (1/GPa) = 0.03082877
#
# Stress axis : x y z
#
# Youngs Moduli (GPa) = 42.08414 108.80765 62.96240
#
# Poissons Ratio (x) = 0.17712 0.29082
# Poissons Ratio (y) = 0.06851 0.17354
# Poissons Ratio (z) = 0.19438 0.29991
#
# Static dielectric constant tensor:
#      x y z
#    x 1.793130 0.000000 -0.027120 
#    y 0.000000 1.808260 0.000000 
#    z -0.027120 0.000000 1.877440 
# 
# From -- ./inp_files/263046.got.cif
#   From: 2010.05.17/outbox.cif.g08.bks.cpg/sg12_132_cif.got.tgz:263046.got - 2010.06.03 13:09:07.
