data_PCOD9200653
_publ_section_title
;
Structure prediction by ZEFSAII (Michael W. Deem and Ramdas Pophale) SiO2 
 PCOD9200653
Probable space group: C 2/M
;
_chemical_formula_sum "Si O2"
_cell_formula_units_Z 48
_cell_length_a 29.051963
_cell_length_b 8.750876
_cell_length_c 10.482920
_cell_angle_alpha 90.000000
_cell_angle_beta 89.937831
_cell_angle_gamma 90.000000
_cell_volume 2665.072501
_symmetry_space_group_name_H-M "C 2/M"
_symmetry_group_IT_number 12
_symmetry_cell_setting 'monoclinic'
loop_
_space_group_symop_operation_xyz
x,y,z
-x,y,-z
-x,-y,-z
x,-y,z
1/2+x,1/2+y,z
1/2-x,1/2+y,-z
1/2-x,1/2-y,-z
1/2+x,1/2-y,z
loop_
_atom_site_type_symbol
_atom_site_label
_atom_site_fract_x
_atom_site_fract_y
_atom_site_fract_z
Si Si1 0.301014 0.817178 0.497898
Si Si2 0.801340 0.816882 0.994730
Si Si3 0.447517 0.184734 0.650608
Si Si4 0.354382 0.184233 0.235768
Si Si5 0.551315 0.814468 0.646964
Si Si6 0.644803 0.682980 0.261612
O O1 0.250000 0.750000 0.500000
O O2 0.325514 0.781159 0.363749
O O3 0.329867 0.749877 0.614668
O O4 0.299572 0.000000 0.509925
O O5 0.827400 0.769855 0.864800
O O6 0.798309 0.000000 0.996161
O O7 0.750000 0.750000 0.000000
O O8 0.830625 0.759895 0.115006
O O9 0.440584 0.228560 0.501295
O O10 0.499663 0.231844 0.684768
O O11 0.407348 0.256708 0.734037
O O12 0.444577 0.000000 0.657249
O O13 0.406701 0.235694 0.264578
O O14 0.354174 0.000000 0.219295
O O15 0.551679 0.000000 0.647209
O O16 0.644972 0.500000 0.268254
#
# Coordination Sequence:
#
# PCOD9200653 Si02
#       6
#     8   8   8   8   8   8
#     4  11  22  36  57  84 112 142 183 234 286 335
#     4  11  25  42  58  79 110 152 193 233 280 334
#     4   9  16  32  59  86 113 147 185 229 279 329
#     4  10  20  37  59  84 112 145 185 232 281 332
#     4   8  15  31  57  87 115 143 182 231 279 329
#     4  11  23  38  55  81 116 149 187 231 279 335
#
# _framework density 18.010767999999999
#
# number of rings (size 3 to 8) (size 9 to 14) (size 15 to 20)
#    0.000    2.000    1.667    3.500    0.000    8.000 
#    0.000    3.333    0.000    5.000    0.000    0.000 
#    0.000    0.000    0.000    0.000    0.000    0.000 
#
# Total GULP energy -133996.739614 kJ/mol
# GULP energy per Si atom -5583.197484 kJ/mol
# Density = 1.796977 g / cm^3
# Si number density = 18.010768 Si / 1000 Ang^3
#
#
#
# Elastic Constant Matrix: (Units=GPa)
#
#
# Indices 1 2 3 4 5 6 
#
# 1 160.4175 29.6887 61.4707 0.0000 -9.3209 0.0000
# 2 29.6887 24.9976 34.0549 0.0000 -9.3959 0.0000
# 3 61.4707 34.0549 105.2746 0.0000 -8.7993 0.0000
# 4 0.0000 0.0000 0.0000 29.5223 0.0000 0.0924
# 5 -9.3209 -9.3959 -8.7993 0.0000 33.6851 0.0000
# 6 0.0000 0.0000 0.0000 0.0924 0.0000 30.5235
#
#
#
# Elastic Compliance Matrix: (Units=1/GPa)
#
#
# Indices 1 2 3 4 5 6 
#
# 1 0.008500 -0.006015 -0.003027 0.000000 -0.000117 0.000000
# 2 -0.006015 0.083124 -0.022060 0.000000 0.015759 0.000000
# 3 -0.003027 -0.022060 0.018216 0.000000 -0.002233 0.000000
# 4 0.000000 0.000000 0.000000 0.033873 0.000000 -0.000103
# 5 -0.000117 0.015759 -0.002233 0.000000 0.033467 0.000000
# 6 0.000000 0.000000 0.000000 -0.000103 0.000000 0.032762
#
#
# Mechanical properties :
#
#
# Convention : Reuss Voigt Hill
#
# Bulk Modulus (GPa) = 20.99265 60.12426 40.55845
# Shear Modulus (GPa) = 17.35954 29.77789 23.56871
#
# Velocity S-wave (km/s) = 3.10795 4.07054 3.62137
# Velocity P-wave (km/s) = 4.95581 7.45300 6.32879
#
# Compressibility (1/GPa) = 0.04763572
#
# Stress axis : x y z
#
# Youngs Moduli (GPa) = 117.64416 12.03018 54.89620
#
# Poissons Ratio (x) = 0.07236 0.16619
# Poissons Ratio (y) = 0.70763 1.21102
# Poissons Ratio (z) = 0.35614 0.26539
#
# Static dielectric constant tensor:
#      x y z
#    x 1.627870 0.000000 -0.001770 
#    y 0.000000 1.610820 0.000000 
#    z -0.001770 0.000000 1.589220 
# 
# From -- ./inp_files/108589.got.cif
#   From: 2010.05.17/outbox.cif.g08.bks.cpg/sg12_55_cif.got.tgz:108589.got - 2010.06.03 13:09:07.
