data_PCOD9200918
_publ_section_title
;
Structure prediction by ZEFSAII (Michael W. Deem and Ramdas Pophale) SiO2 
 PCOD9200918
Probable space group: C 2/M
;
_chemical_formula_sum "Si O2"
_cell_formula_units_Z 56
_cell_length_a 9.920202
_cell_length_b 27.256163
_cell_length_c 18.074745
_cell_angle_alpha 90.000000
_cell_angle_beta 142.334620
_cell_angle_gamma 90.000000
_cell_volume 2986.299352
_symmetry_space_group_name_H-M "C 2/M"
_symmetry_group_IT_number 12
_symmetry_cell_setting 'monoclinic'
loop_
_space_group_symop_operation_xyz
x,y,z
-x,y,-z
-x,-y,-z
x,-y,z
1/2+x,1/2+y,z
1/2-x,1/2+y,-z
1/2-x,1/2-y,-z
1/2+x,1/2-y,z
loop_
_atom_site_type_symbol
_atom_site_label
_atom_site_fract_x
_atom_site_fract_y
_atom_site_fract_z
Si Si1 0.832829 0.442268 0.494986
Si Si2 0.491814 0.194262 0.410716
Si Si3 0.681916 0.102803 0.746293
Si Si4 0.002746 0.807156 0.586233
Si Si5 0.628836 0.442406 0.875924
Si Si6 0.653740 0.398815 0.731797
Si Si7 0.920019 0.443115 0.149863
O O1 0.799796 0.500000 0.482021
O O2 0.596789 0.417484 0.385448
O O3 0.000000 0.431311 0.500000
O O4 0.960308 0.424107 0.622361
O O5 0.500000 0.178631 0.500000
O O6 0.348719 0.157858 0.297966
O O7 0.415890 0.250861 0.375252
O O8 0.746275 0.192697 0.497010
O O9 0.686318 0.092763 0.835445
O O10 0.890630 0.077009 0.798623
O O11 0.142325 0.842886 0.699093
O O12 0.000000 0.824366 0.500000
O O13 0.613710 0.500000 0.846958
O O14 0.707971 0.410439 0.840724
O O15 0.789311 0.439254 0.015794
O O16 0.829040 0.427898 0.758107
O O17 0.903212 0.500000 0.167462
#
# Coordination Sequence:
#
# PCOD9200918 Si02
#       7
#     8   8   8   8   8   8   8
#     4  11  21  33  54  87 121 151 182 233 299 352
#     4  10  20  37  60  86 115 151 191 229 287 359
#     4  12  21  37  61  86 117 147 192 248 291 338
#     4  10  21  37  57  86 120 150 185 233 290 353
#     4  11  23  41  61  81 112 160 208 236 271 342
#     4  12  22  37  61  84 119 154 191 239 287 347
#     4  11  25  40  57  83 117 160 201 235 280 339
#
# _framework density 18.752306000000001
#
# number of rings (size 3 to 8) (size 9 to 14) (size 15 to 20)
#    0.000    1.000    2.857    5.571    0.000    2.286 
#    0.000    1.429    0.000    5.143    0.000    0.000 
#    0.000    0.000    0.000    0.000    0.000    0.000 
#
# Total GULP energy -156443.238966 kJ/mol
# GULP energy per Si atom -5587.258534 kJ/mol
# Density = 1.870963 g / cm^3
# Si number density = 18.752306 Si / 1000 Ang^3
#
#
#
# Elastic Constant Matrix: (Units=GPa)
#
#
# Indices 1 2 3 4 5 6 
#
# 1 80.5798 15.4408 7.3172 -0.0005 -16.6422 -0.0002
# 2 15.4408 129.7364 36.8744 -0.0002 -20.1012 -0.0001
# 3 7.3172 36.8744 56.4884 -0.0017 -5.7985 0.0002
# 4 -0.0005 -0.0002 -0.0017 23.3271 0.0002 -9.1350
# 5 -16.6422 -20.1012 -5.7985 0.0002 31.7833 0.0001
# 6 -0.0002 -0.0001 0.0002 -9.1350 0.0001 25.4961
#
#
#
# Elastic Compliance Matrix: (Units=1/GPa)
#
#
# Indices 1 2 3 4 5 6 
#
# 1 0.013990 -0.000339 -0.000878 0.000000 0.006951 0.000000
# 2 -0.000339 0.010304 -0.006147 0.000000 0.005218 0.000000
# 3 -0.000878 -0.006147 0.021791 0.000002 -0.000371 0.000000
# 4 0.000000 0.000000 0.000002 0.049865 0.000000 0.017866
# 5 0.006951 0.005218 -0.000371 0.000000 0.038335 0.000000
# 6 0.000000 0.000000 0.000000 0.017866 0.000000 0.045623
#
#
# Mechanical properties :
#
#
# Convention : Reuss Voigt Hill
#
# Bulk Modulus (GPa) = 31.88872 42.89657 37.39265
# Shear Modulus (GPa) = 24.37997 29.93279 27.15638
#
# Velocity S-wave (km/s) = 3.60961 3.99961 3.80960
# Velocity P-wave (km/s) = 5.86639 6.65238 6.27171
#
# Compressibility (1/GPa) = 0.03135905
#
# Stress axis : x y z
#
# Youngs Moduli (GPa) = 71.47811 97.05258 45.89128
#
# Poissons Ratio (x) = 0.03286 0.04028
# Poissons Ratio (y) = 0.02420 0.28207
# Poissons Ratio (z) = 0.06273 0.59654
#
# Static dielectric constant tensor:
#      x y z
#    x 1.656460 0.000000 -0.035880 
#    y 0.000000 1.671710 0.000000 
#    z -0.035880 0.000000 1.649090 
# 
# From -- ./inp_files/259870.got.cif
#   From: 2010.05.17/outbox.cif.g08.bks.cpg/sg12_130_cif.got.tgz:259870.got - 2010.06.03 13:09:07.
