data_PCOD9200579
_publ_section_title
;
Structure prediction by ZEFSAII (Michael W. Deem and Ramdas Pophale) SiO2 
 PCOD9200579
Probable space group: C 2/M
;
_chemical_formula_sum "Si O2"
_cell_formula_units_Z 64
_cell_length_a 14.562342
_cell_length_b 9.235398
_cell_length_c 23.447227
_cell_angle_alpha 90.000000
_cell_angle_beta 93.944106
_cell_angle_gamma 90.000000
_cell_volume 3145.926259
_symmetry_space_group_name_H-M "C 2/M"
_symmetry_group_IT_number 12
_symmetry_cell_setting 'monoclinic'
loop_
_space_group_symop_operation_xyz
x,y,z
-x,y,-z
-x,-y,-z
x,-y,z
1/2+x,1/2+y,z
1/2-x,1/2+y,-z
1/2-x,1/2-y,-z
1/2+x,1/2-y,z
loop_
_atom_site_type_symbol
_atom_site_label
_atom_site_fract_x
_atom_site_fract_y
_atom_site_fract_z
Si Si1 0.881758 0.833884 0.544571
Si Si2 0.662752 0.165331 0.566275
Si Si3 0.309177 0.825855 0.918942
Si Si4 0.478036 0.170307 0.859085
Si Si5 0.075308 0.672240 0.339799
Si Si6 0.941496 0.827904 0.245517
Si Si7 0.712058 0.670239 0.679561
Si Si8 0.136894 0.330679 0.951311
O O1 0.771388 0.836495 0.553295
O O2 0.889096 0.760411 0.483127
O O3 0.925275 0.738438 0.596708
O O4 0.913946 0.000000 0.547004
O O5 0.663272 0.236368 0.628400
O O6 0.629976 0.000000 0.565291
O O7 0.375784 0.778631 0.870796
O O8 0.208690 0.758421 0.916508
O O9 0.304656 0.000000 0.916471
O O10 0.352926 0.785044 0.982510
O O11 0.528853 0.257177 0.812278
O O12 0.537000 0.181865 0.919651
O O13 0.474863 0.000000 0.843050
O O14 0.057921 0.500000 0.339924
O O15 0.178909 0.695569 0.319531
O O16 0.005903 0.756582 0.296318
O O17 0.837089 0.800431 0.262404
O O18 0.955120 0.000000 0.243986
O O19 0.697723 0.500000 0.665591
O O20 0.162779 0.500000 0.950121
#
# Coordination Sequence:
#
# PCOD9200579 Si02
#       8
#     8   8   8   8   8   8   8   8
#     4   9  16  28  49  78 110 141 173 214 269 328
#     4   9  16  27  49  80 108 136 174 219 267 323
#     4   9  18  34  57  84 114 146 179 218 267 320
#     4  10  21  37  56  78 108 147 185 221 265 317
#     4  10  20  37  59  80 105 140 181 224 272 325
#     4  11  24  40  56  78 108 142 184 229 271 318
#     4   9  20  38  57  76 104 142 178 219 274 328
#     4   9  18  34  57  85 114 144 180 221 265 316
#
# _framework density 20.343771
#
# number of rings (size 3 to 8) (size 9 to 14) (size 15 to 20)
#    0.000    2.500    0.000    1.875    0.000    8.000 
#    0.000    4.375    0.000    7.500    0.000    0.000 
#    0.000    0.000    0.000    0.000    0.000    0.000 
#
# Total GULP energy -178724.336842 kJ/mol
# GULP energy per Si atom -5585.135526 kJ/mol
# Density = 2.029747 g / cm^3
# Si number density = 20.343771 Si / 1000 Ang^3
#
#
#
# Elastic Constant Matrix: (Units=GPa)
#
#
# Indices 1 2 3 4 5 6 
#
# 1 54.0446 23.6724 18.0234 0.0000 -25.3322 0.0000
# 2 23.6724 52.7847 9.9809 0.0000 -14.7529 0.0000
# 3 18.0234 9.9809 31.2198 0.0000 -21.6845 0.0000
# 4 0.0000 0.0000 0.0000 34.3569 0.0000 1.3316
# 5 -25.3322 -14.7529 -21.6845 0.0000 33.7247 0.0000
# 6 0.0000 0.0000 0.0000 1.3316 0.0000 20.2053
#
#
#
# Elastic Compliance Matrix: (Units=1/GPa)
#
#
# Indices 1 2 3 4 5 6 
#
# 1 0.031800 -0.008610 -0.002947 0.000000 0.018225 0.000000
# 2 -0.008610 0.023922 0.000179 0.000000 0.004112 0.000000
# 3 -0.002947 0.000179 0.058171 0.000000 0.035268 0.000000
# 4 0.000000 0.000000 0.000000 0.029181 0.000000 -0.001923
# 5 0.018225 0.004112 0.035268 0.000000 0.067817 0.000000
# 6 0.000000 0.000000 0.000000 -0.001923 0.000000 0.049619
#
#
# Mechanical properties :
#
#
# Convention : Reuss Voigt Hill
#
# Bulk Modulus (GPa) = 10.97253 26.82251 18.89752
# Shear Modulus (GPa) = 15.94160 23.41554 19.67857
#
# Velocity S-wave (km/s) = 2.80234 3.39631 3.11352
# Velocity P-wave (km/s) = 3.98448 5.34726 4.71536
#
# Compressibility (1/GPa) = 0.09113666
#
# Stress axis : x y z
#
# Youngs Moduli (GPa) = 31.44648 41.80286 17.19064
#
# Poissons Ratio (x) = 0.35994 0.05066
# Poissons Ratio (y) = 0.27077 -0.00308
# Poissons Ratio (z) = 0.09268 -0.00750
#
# Static dielectric constant tensor:
#      x y z
#    x 1.754920 0.000000 -0.022290 
#    y 0.000000 1.676820 0.000000 
#    z -0.022290 0.000000 1.704260 
# 
# From -- ./inp_files/338889.got.cif
#   From: 2010.05.17/outbox.cif.g08.bks.cpg/sg12_170_cif.got.tgz:338889.got - 2010.06.03 13:09:07.
