data_PCOD9200933
_publ_section_title
;
Structure prediction by ZEFSAII (Michael W. Deem and Ramdas Pophale) SiO2 
 PCOD9200933
Probable space group: C 2/M
;
_chemical_formula_sum "Si O2"
_cell_formula_units_Z 56
_cell_length_a 18.905456
_cell_length_b 8.849779
_cell_length_c 18.331398
_cell_angle_alpha 90.000000
_cell_angle_beta 69.617938
_cell_angle_gamma 90.000000
_cell_volume 2874.987645
_symmetry_space_group_name_H-M "C 2/M"
_symmetry_group_IT_number 12
_symmetry_cell_setting 'monoclinic'
loop_
_space_group_symop_operation_xyz
x,y,z
-x,y,-z
-x,-y,-z
x,-y,z
1/2+x,1/2+y,z
1/2-x,1/2+y,-z
1/2-x,1/2-y,-z
1/2+x,1/2-y,z
loop_
_atom_site_type_symbol
_atom_site_label
_atom_site_fract_x
_atom_site_fract_y
_atom_site_fract_z
Si Si1 0.778623 0.179745 0.065079
Si Si2 0.287748 0.181976 0.623496
Si Si3 0.658780 0.818784 0.231972
Si Si4 0.575336 0.317378 0.516199
Si Si5 0.385301 0.683769 0.335331
Si Si6 0.427261 0.828807 0.975569
Si Si7 0.475067 0.319188 0.805928
O O1 0.723743 0.222916 0.150663
O O2 0.778797 0.000000 0.059810
O O3 0.750000 0.250000 0.000000
O O4 0.863015 0.239486 0.041621
O O5 0.313105 0.215367 0.697064
O O6 0.349146 0.256559 0.548953
O O7 0.201521 0.233410 0.640993
O O8 0.289681 0.000000 0.613125
O O9 0.583724 0.732365 0.235021
O O10 0.646121 0.000000 0.231228
O O11 0.500000 0.266345 0.500000
O O12 0.576015 0.500000 0.513678
O O13 0.579271 0.270588 0.599582
O O14 0.384046 0.500000 0.334590
O O15 0.441590 0.730273 0.250186
O O16 0.447683 0.753204 0.891275
O O17 0.400812 0.000000 0.970514
O O18 0.500000 0.832617 0.000000
O O19 0.473898 0.500000 0.813400
#
# Coordination Sequence:
#
# PCOD9200933 Si02
#       7
#     8   8   8   8   8   8   8
#     4  11  22  38  62  88 116 155 200 248 299 353
#     4  10  21  38  59  85 116 152 192 236 286 345
#     4  10  22  38  58  83 118 153 189 244 299 347
#     4  10  20  37  60  86 118 152 188 235 287 342
#     4   9  20  37  58  85 117 151 190 238 291 345
#     4  11  25  42  59  84 122 159 196 248 301 350
#     4  11  22  38  63  87 112 153 200 243 291 355
#
# _framework density 19.478342999999999
#
# number of rings (size 3 to 8) (size 9 to 14) (size 15 to 20)
#    0.000    1.714    1.429    2.571    2.000    3.714 
#    0.000    2.857    0.000    0.000    0.000    0.000 
#    0.000    0.000    0.000    0.000    0.000    0.000 
#
# Total GULP energy -156425.953109 kJ/mol
# GULP energy per Si atom -5586.641182 kJ/mol
# Density = 1.943401 g / cm^3
# Si number density = 19.478343 Si / 1000 Ang^3
#
#
#
# Elastic Constant Matrix: (Units=GPa)
#
#
# Indices 1 2 3 4 5 6 
#
# 1 96.8158 15.9007 7.6972 0.0000 -15.5448 0.0000
# 2 15.9007 23.9226 17.6004 0.0000 -3.1116 0.0000
# 3 7.6972 17.6004 69.9774 0.0000 -15.9490 0.0000
# 4 0.0000 0.0000 0.0000 10.2707 0.0000 -15.3557
# 5 -15.5448 -3.1116 -15.9490 0.0000 38.9064 0.0000
# 6 0.0000 0.0000 0.0000 -15.3557 0.0000 22.6976
#
#
#
# Elastic Compliance Matrix: (Units=1/GPa)
#
#
# Indices 1 2 3 4 5 6 
#
# 1 0.012492 -0.009184 0.002102 0.000002 0.005118 0.000001
# 2 -0.009184 0.058106 -0.014761 -0.000015 -0.005073 -0.000010
# 3 0.002102 -0.014761 0.019518 0.000004 0.007660 0.000003
# 4 0.000002 -0.000015 0.000004 -8.475965 0.000001 -5.734290
# 5 0.005118 -0.005073 0.007660 0.000001 0.030482 0.000000
# 6 0.000001 -0.000010 0.000003 -5.734290 0.000000 -3.835392
#
#
# Mechanical properties :
#
#
# Convention : Reuss Voigt Hill
#
# Bulk Modulus (GPa) = 21.53744 30.34583 25.94163
# Shear Modulus (GPa) = -0.41215 24.34276 11.96531
#
# Velocity S-wave (km/s) = -0.46049 3.53899 2.48117
# Velocity P-wave (km/s) = 3.28609 5.68440 4.64278
#
# Compressibility (1/GPa) = 0.04643078
#
# Stress axis : x y z
#
# Youngs Moduli (GPa) = 80.05168 17.20996 51.23607
#
# Poissons Ratio (x) = 0.15806 -0.10772
# Poissons Ratio (y) = 0.73521 0.75627
# Poissons Ratio (z) = -0.16831 0.25403
#
# Static dielectric constant tensor:
#      x y z
#    x 1.409610 0.000000 0.117450 
#    y 0.000000 1.663500 0.000000 
#    z 0.117450 0.000000 1.603690 
# 
# From -- ./inp_files/275203.got.cif
#   From: 2010.05.17/outbox.cif.g08.bks.cpg/sg12_138_cif.got.tgz:275203.got - 2010.06.03 13:09:07.
