data_PCOD9200509
_publ_section_title
;
Structure prediction by ZEFSAII (Michael W. Deem and Ramdas Pophale) SiO2 
 PCOD9200509
Probable space group: C 2/M
;
_chemical_formula_sum "Si O2"
_cell_formula_units_Z 40
_cell_length_a 16.082586
_cell_length_b 18.248849
_cell_length_c 22.227251
_cell_angle_alpha 90.000000
_cell_angle_beta 161.583369
_cell_angle_gamma 90.000000
_cell_volume 2060.916288
_symmetry_space_group_name_H-M "C 2/M"
_symmetry_group_IT_number 12
_symmetry_cell_setting 'monoclinic'
loop_
_space_group_symop_operation_xyz
x,y,z
-x,y,-z
-x,-y,-z
x,-y,z
1/2+x,1/2+y,z
1/2-x,1/2+y,-z
1/2-x,1/2-y,-z
1/2+x,1/2-y,z
loop_
_atom_site_type_symbol
_atom_site_label
_atom_site_fract_x
_atom_site_fract_y
_atom_site_fract_z
Si Si1 0.045183 0.142643 0.121649
Si Si2 0.089905 0.826233 0.388090
Si Si3 0.605855 0.916431 0.735508
Si Si4 0.285255 0.695101 0.300026
Si Si5 0.766134 0.170235 0.043527
O O1 0.264882 0.092341 0.241624
O O2 0.168879 0.224030 0.205721
O O3 0.943588 0.124865 0.118644
O O4 0.786797 0.134646 0.902387
O O5 0.250000 0.750000 0.500000
O O6 0.309512 0.888853 0.533782
O O7 0.919940 0.833304 0.331892
O O8 0.908222 0.824888 0.204732
O O9 0.632829 0.000000 0.774141
O O10 0.500000 0.701619 0.500000
O O11 0.036032 0.648565 0.152537
O O12 0.750000 0.250000 0.000000
#
# Coordination Sequence:
#
# PCOD9200509 Si02
#       5
#     8   8   8   8   8
#     4  10  20  37  58  84 124 156 204 240 299 355
#     4  12  21  37  62  88 121 159 203 255 302 356
#     4  11  24  40  62  87 123 167 204 244 304 365
#     4  11  21  35  61  96 122 154 202 259 306 351
#     4  10  22  33  56  91 123 155 199 254 302 351
#
# _framework density 19.408842
#
# number of rings (size 3 to 8) (size 9 to 14) (size 15 to 20)
#    0.000    1.200    2.000    7.800    5.600    0.000 
#    0.000    3.000    0.000    9.000    0.000    0.000 
#    0.000    0.000    0.000    0.000    0.000    0.000 
#
# Total GULP energy -111670.464736 kJ/mol
# GULP energy per Si atom -5583.523237 kJ/mol
# Density = 1.936467 g / cm^3
# Si number density = 19.408842 Si / 1000 Ang^3
#
#
#
# Elastic Constant Matrix: (Units=GPa)
#
#
# Indices 1 2 3 4 5 6 
#
# 1 184.6884 26.4809 83.5661 0.0003 11.3663 -0.0057
# 2 26.4809 28.1900 34.7558 -0.0307 -4.3210 -0.0194
# 3 83.5661 34.7558 151.0748 -0.0371 -0.1394 -0.0082
# 4 0.0003 -0.0307 -0.0371 5.7698 -0.0269 2.2817
# 5 11.3663 -4.3210 -0.1394 -0.0269 44.2155 0.0011
# 6 -0.0057 -0.0194 -0.0082 2.2817 0.0011 11.3573
#
#
#
# Elastic Compliance Matrix: (Units=1/GPa)
#
#
# Indices 1 2 3 4 5 6 
#
# 1 0.007578 -0.003205 -0.003456 -0.000053 -0.002272 0.000007
# 2 -0.003205 0.051917 -0.010165 0.000225 0.005866 0.000034
# 3 -0.003456 -0.010165 0.010870 0.000022 -0.000071 -0.000016
# 4 -0.000053 0.000225 0.000022 0.188278 0.000151 -0.037826
# 5 -0.002272 0.005866 -0.000071 0.000151 0.023774 -0.000024
# 6 0.000007 0.000034 -0.000016 -0.037826 -0.000024 0.095649
#
#
# Mechanical properties :
#
#
# Convention : Reuss Voigt Hill
#
# Bulk Modulus (GPa) = 27.24033 72.61766 49.92899
# Shear Modulus (GPa) = 11.79368 26.87854 19.33611
#
# Velocity S-wave (km/s) = 2.46772 3.72541 3.15977
# Velocity P-wave (km/s) = 4.71010 7.48337 6.25243
#
# Compressibility (1/GPa) = 0.03671027
#
# Stress axis : x y z
#
# Youngs Moduli (GPa) = 131.96373 19.26155 91.99945
#
# Poissons Ratio (x) = 0.06174 0.31798
# Poissons Ratio (y) = 0.42300 0.93521
# Poissons Ratio (z) = 0.45611 0.19580
#
# Static dielectric constant tensor:
#      x y z
#    x 1.736280 0.000500 0.031330 
#    y 0.000500 1.556200 -0.000330 
#    z 0.031330 -0.000330 1.685450 
# 
# From -- ./inp_files/312183.got.cif
#   From: 2010.05.17/outbox.cif.g08.bks.cpg/sg12_157_cif.got.tgz:312183.got - 2010.06.03 13:09:07.
