data_PCOD9200323
_publ_section_title
;
Structure prediction by ZEFSAII (Michael W. Deem and Ramdas Pophale) SiO2 
 PCOD9200323
Probable space group: C 2/M
;
_chemical_formula_sum "Si O2"
_cell_formula_units_Z 56
_cell_length_a 14.962529
_cell_length_b 7.922688
_cell_length_c 20.873608
_cell_angle_alpha 90.000000
_cell_angle_beta 85.687185
_cell_angle_gamma 90.000000
_cell_volume 2467.422738
_symmetry_space_group_name_H-M "C 2/M"
_symmetry_group_IT_number 12
_symmetry_cell_setting 'monoclinic'
loop_
_space_group_symop_operation_xyz
x,y,z
-x,y,-z
-x,-y,-z
x,-y,z
1/2+x,1/2+y,z
1/2-x,1/2+y,-z
1/2-x,1/2-y,-z
1/2+x,1/2-y,z
loop_
_atom_site_type_symbol
_atom_site_label
_atom_site_fract_x
_atom_site_fract_y
_atom_site_fract_z
Si Si1 0.117305 0.198000 0.545931
Si Si2 0.533335 0.700888 0.357686
Si Si3 0.294422 0.295288 0.592007
Si Si4 0.451486 0.198762 0.228815
Si Si5 0.901348 0.707120 0.879422
Si Si6 0.794771 0.197225 0.155663
Si Si7 0.350210 0.201840 0.017673
O O1 0.195852 0.219959 0.594070
O O2 0.156962 0.262202 0.476910
O O3 0.027532 0.271968 0.581211
O O4 0.101951 0.000000 0.535205
O O5 0.538203 0.500000 0.367625
O O6 0.636265 0.758970 0.356724
O O7 0.482711 0.729638 0.294543
O O8 0.283950 0.500000 0.592090
O O9 0.519112 0.265197 0.170398
O O10 0.350110 0.228346 0.211536
O O11 0.465656 0.000000 0.232135
O O12 0.900137 0.500000 0.880628
O O13 0.804907 0.763762 0.855789
O O14 0.909356 0.758141 0.953688
O O15 0.784828 0.000000 0.167691
O O16 0.854532 0.224574 0.088327
O O17 0.359243 0.000000 0.023470
O O18 0.250000 0.250000 0.000000
#
# Coordination Sequence:
#
# PCOD9200323 Si02
#       7
#     8   8   8   8   8   8   8
#     4   9  18  34  57  82 108 139 173 212 264 318
#     4  10  21  37  54  75 107 144 177 213 261 315
#     4   9  18  34  57  83 108 136 175 219 260 308
#     4  11  23  38  54  76 104 141 185 220 256 310
#     4   8  18  36  56  75 103 140 174 212 264 321
#     4  10  20  37  57  79 107 139 174 218 271 323
#     4   9  16  31  55  81 105 135 175 220 270 320
#
# _framework density 22.695746
#
# number of rings (size 3 to 8) (size 9 to 14) (size 15 to 20)
#    0.000    2.571    0.000    2.571    0.000    4.571 
#    0.000   15.714    0.000    4.286    0.000    0.000 
#    0.000    0.000    0.000    0.000    0.000    0.000 
#
# Total GULP energy -156250.832496 kJ/mol
# GULP energy per Si atom -5580.386875 kJ/mol
# Density = 2.264409 g / cm^3
# Si number density = 22.695746 Si / 1000 Ang^3
#
#
#
# Elastic Constant Matrix: (Units=GPa)
#
#
# Indices 1 2 3 4 5 6 
#
# 1 85.5706 -1.5378 11.8807 0.0000 20.5032 0.0000
# 2 -1.5378 16.0234 -8.7705 0.0000 -3.8536 0.0000
# 3 11.8807 -8.7705 30.5508 0.0000 21.7082 0.0000
# 4 0.0000 0.0000 0.0000 21.2598 0.0000 3.6836
# 5 20.5032 -3.8536 21.7082 0.0000 37.2531 0.0000
# 6 0.0000 0.0000 0.0000 3.6836 0.0000 16.0279
#
#
#
# Elastic Compliance Matrix: (Units=1/GPa)
#
#
# Indices 1 2 3 4 5 6 
#
# 1 0.013466 -0.000568 -0.000157 0.000000 -0.007379 0.000000
# 2 -0.000568 0.075516 0.027523 0.000000 -0.007914 0.000000
# 3 -0.000157 0.027523 0.065894 0.000000 -0.035465 0.000000
# 4 0.000000 0.000000 0.000000 0.048988 0.000000 -0.011258
# 5 -0.007379 -0.007914 -0.035465 0.000000 0.050752 0.000000
# 6 0.000000 0.000000 0.000000 -0.011258 0.000000 0.064979
#
#
# Mechanical properties :
#
#
# Convention : Reuss Voigt Hill
#
# Bulk Modulus (GPa) = 4.79676 15.03217 9.91447
# Shear Modulus (GPa) = 14.90365 23.61299 19.25832
#
# Velocity S-wave (km/s) = 2.56534 3.22905 2.91614
# Velocity P-wave (km/s) = 3.30041 4.53211 3.96439
#
# Compressibility (1/GPa) = 0.20847385
#
# Stress axis : x y z
#
# Youngs Moduli (GPa) = 74.26229 13.24222 15.17578
#
# Poissons Ratio (x) = 0.00752 0.00238
# Poissons Ratio (y) = 0.04218 -0.41769
# Poissons Ratio (z) = 0.01163 -0.36447
#
# Static dielectric constant tensor:
#      x y z
#    x 1.885400 0.000000 0.004150 
#    y 0.000000 1.834670 0.000000 
#    z 0.004150 0.000000 1.866270 
# 
# From -- ./inp_files/309065.got.cif
#   From: 2010.05.17/outbox.cif.g08.bks.cpg/sg12_155_cif.got.tgz:309065.got - 2010.06.03 13:09:07.
