data_PCOD9200568
_publ_section_title
;
Structure prediction by ZEFSAII (Michael W. Deem and Ramdas Pophale) SiO2 
 PCOD9200568
Probable space group: C 2/M
;
_chemical_formula_sum "Si O2"
_cell_formula_units_Z 56
_cell_length_a 28.224744
_cell_length_b 9.166437
_cell_length_c 10.632432
_cell_angle_alpha 90.000000
_cell_angle_beta 104.543327
_cell_angle_gamma 90.000000
_cell_volume 2662.684491
_symmetry_space_group_name_H-M "C 2/M"
_symmetry_group_IT_number 12
_symmetry_cell_setting 'monoclinic'
loop_
_space_group_symop_operation_xyz
x,y,z
-x,y,-z
-x,-y,-z
x,-y,z
1/2+x,1/2+y,z
1/2-x,1/2+y,-z
1/2-x,1/2-y,-z
1/2+x,1/2-y,z
loop_
_atom_site_type_symbol
_atom_site_label
_atom_site_fract_x
_atom_site_fract_y
_atom_site_fract_z
Si Si1 0.855737 0.665981 0.744621
Si Si2 0.915026 0.335321 0.523152
Si Si3 0.105662 0.329481 0.766399
Si Si4 0.542147 0.834705 0.128953
Si Si5 0.502297 0.668476 0.682573
Si Si6 0.758726 0.172874 0.641261
Si Si7 0.212439 0.677158 0.877365
O O1 0.836549 0.500000 0.744772
O O2 0.881487 0.677643 0.624063
O O3 0.901268 0.684124 0.870691
O O4 0.813223 0.782005 0.720858
O O5 0.934791 0.500000 0.529728
O O6 0.884279 0.316661 0.376779
O O7 0.961811 0.230641 0.558257
O O8 0.097857 0.500000 0.792927
O O9 0.053785 0.248969 0.741906
O O10 0.155769 0.279352 0.864894
O O11 0.527954 0.705022 0.211350
O O12 0.540798 0.000000 0.186240
O O13 0.500000 0.836580 0.000000
O O14 0.511047 0.500000 0.666914
O O15 0.750000 0.250000 0.500000
O O16 0.726384 0.215199 0.741783
O O17 0.753270 0.000000 0.618689
O O18 0.215132 0.500000 0.889001
O O19 0.250000 0.750000 0.000000
#
# Coordination Sequence:
#
# PCOD9200568 Si02
#       7
#     8   8   8   8   8   8   8
#     4   9  18  34  57  85 114 145 186 236 288 340
#     4   9  18  35  58  82 112 150 190 229 273 337
#     4  10  20  37  59  78 105 151 197 233 276 336
#     4   9  19  37  58  78 105 145 190 227 265 332
#     4  11  22  33  50  82 118 144 176 228 286 341
#     4  11  23  40  63  91 120 152 197 249 300 355
#     4  10  24  44  63  86 118 156 201 250 297 352
#
# _framework density 21.031407000000002
#
# number of rings (size 3 to 8) (size 9 to 14) (size 15 to 20)
#    0.000    2.143    0.000    3.857    0.000   10.000 
#    0.000    5.714    0.000    0.000    0.000    0.000 
#    0.000    0.000    0.000    0.000    0.000    0.000 
#
# Total GULP energy -156079.793320 kJ/mol
# GULP energy per Si atom -5574.278333 kJ/mol
# Density = 2.098354 g / cm^3
# Si number density = 21.031407 Si / 1000 Ang^3
#
#
#
# Elastic Constant Matrix: (Units=GPa)
#
#
# Indices 1 2 3 4 5 6 
#
# 1 97.1737 44.6288 22.0552 0.0000 26.2612 0.0000
# 2 44.6288 65.1468 19.6916 0.0000 13.3146 0.0000
# 3 22.0552 19.6916 68.6436 0.0000 29.0914 0.0000
# 4 0.0000 0.0000 0.0000 29.0748 0.0000 7.7687
# 5 26.2612 13.3146 29.0914 0.0000 39.8239 0.0000
# 6 0.0000 0.0000 0.0000 7.7687 0.0000 31.0698
#
#
#
# Elastic Compliance Matrix: (Units=1/GPa)
#
#
# Indices 1 2 3 4 5 6 
#
# 1 0.017099 -0.010284 0.001126 0.000000 -0.008660 0.000000
# 2 -0.010284 0.023250 -0.004266 0.000000 0.002124 0.000000
# 3 0.001126 -0.004266 0.021929 0.000000 -0.015336 0.000000
# 4 0.000000 0.000000 0.000000 0.036856 0.000000 -0.009216
# 5 -0.008660 0.002124 -0.015336 0.000000 0.041314 0.000000
# 6 0.000000 0.000000 0.000000 -0.009216 0.000000 0.034490
#
#
# Mechanical properties :
#
#
# Convention : Reuss Voigt Hill
#
# Bulk Modulus (GPa) = 28.22348 44.85724 36.54036
# Shear Modulus (GPa) = 23.40876 29.63294 26.52085
#
# Velocity S-wave (km/s) = 3.33984 3.75772 3.55493
# Velocity P-wave (km/s) = 5.32180 6.34052 5.85337
#
# Compressibility (1/GPa) = 0.03543149
#
# Stress axis : x y z
#
# Youngs Moduli (GPa) = 58.48422 43.01041 45.60124
#
# Poissons Ratio (x) = 0.44232 -0.05137
# Poissons Ratio (y) = 0.60145 0.19452
# Poissons Ratio (z) = -0.06588 0.18347
#
# Static dielectric constant tensor:
#      x y z
#    x 1.809650 0.000000 -0.018290 
#    y 0.000000 1.724100 0.000000 
#    z -0.018290 0.000000 1.866160 
# 
# From -- ./inp_files/181083.got.cif
#   From: 2010.05.17/outbox.cif.g08.bks.cpg/sg12_91_cif.got.tgz:181083.got - 2010.06.03 13:09:07.
