data_PCOD9200035
_publ_section_title
;
Structure prediction by ZEFSAII (Michael W. Deem and Ramdas Pophale) SiO2 
 PCOD9200035
Probable space group: C 2/M
;
_chemical_formula_sum "Si O2"
_cell_formula_units_Z 40
_cell_length_a 17.505713
_cell_length_b 16.192925
_cell_length_c 13.084603
_cell_angle_alpha 90.000000
_cell_angle_beta 31.155250
_cell_angle_gamma 90.000000
_cell_volume 1918.922717
_symmetry_space_group_name_H-M "C 2/M"
_symmetry_group_IT_number 12
_symmetry_cell_setting 'monoclinic'
loop_
_space_group_symop_operation_xyz
x,y,z
-x,y,-z
-x,-y,-z
x,-y,z
1/2+x,1/2+y,z
1/2-x,1/2+y,-z
1/2-x,1/2-y,-z
1/2+x,1/2-y,z
loop_
_atom_site_type_symbol
_atom_site_label
_atom_site_fract_x
_atom_site_fract_y
_atom_site_fract_z
Si Si1 0.094791 0.192988 0.628526
Si Si2 0.161392 0.219487 0.772887
Si Si3 0.607213 0.402076 0.288045
Si Si4 0.854378 0.674588 0.911543
Si Si5 0.170381 0.593080 0.272534
O O1 0.138428 0.168376 0.693153
O O2 0.228665 0.209555 0.396351
O O3 0.978803 0.129396 0.713915
O O4 0.012889 0.282499 0.735890
O O5 0.238717 0.162847 0.770583
O O6 0.000000 0.244531 0.000000
O O7 0.500000 0.371336 0.500000
O O8 0.615886 0.500000 0.281471
O O9 0.771453 0.364368 0.103045
O O10 0.837929 0.610062 0.838764
O O11 0.750000 0.750000 0.000000
O O12 0.224409 0.500000 0.231494
O O13 0.000000 0.599570 0.500000
#
# Coordination Sequence:
#
# PCOD9200035 Si02
#       5
#     8   8   8   8   8
#     4  10  23  38  60  92 124 162 210 248 304 370
#     4  11  23  39  61  93 122 164 203 252 311 362
#     4  10  22  37  61  91 121 161 204 253 304 358
#     4  10  20  36  63  90 119 161 201 253 298 359
#     4  11  23  40  64  92 124 160 202 255 313 366
#
# _framework density 20.845030999999999
#
# number of rings (size 3 to 8) (size 9 to 14) (size 15 to 20)
#    0.000    1.600    2.000    3.000    8.400    1.200 
#    0.000    0.000    0.000    0.600    0.000    0.000 
#    0.000    0.000    0.000    0.000    0.000    0.000 
#
# Total GULP energy -111533.081417 kJ/mol
# GULP energy per Si atom -5576.654071 kJ/mol
# Density = 2.079759 g / cm^3
# Si number density = 20.845031 Si / 1000 Ang^3
#
#
#
# Elastic Constant Matrix: (Units=GPa)
#
#
# Indices 1 2 3 4 5 6 
#
# 1 54.9595 -0.0337 3.0363 -0.0001 2.1891 0.0000
# 2 -0.0337 32.1857 24.4939 -0.0001 -6.5027 0.0001
# 3 3.0363 24.4939 158.2073 -0.0001 -4.7518 0.0001
# 4 -0.0001 -0.0001 -0.0001 17.8579 0.0001 4.3436
# 5 2.1891 -6.5027 -4.7518 0.0001 31.4896 -0.0001
# 6 0.0000 0.0001 0.0001 4.3436 -0.0001 20.8536
#
#
#
# Elastic Compliance Matrix: (Units=1/GPa)
#
#
# Indices 1 2 3 4 5 6 
#
# 1 0.018270 0.000056 -0.000399 0.000000 -0.001319 0.000000
# 2 0.000056 0.036587 -0.005463 0.000000 0.006727 0.000000
# 3 -0.000399 -0.005463 0.007174 0.000000 -0.000018 0.000000
# 4 0.000000 0.000000 0.000000 0.058986 0.000000 -0.012286
# 5 -0.001319 0.006727 -0.000018 0.000000 0.033235 0.000000
# 6 0.000000 0.000000 0.000000 -0.012286 0.000000 0.050512
#
#
# Mechanical properties :
#
#
# Convention : Reuss Voigt Hill
#
# Bulk Modulus (GPa) = 19.83414 33.37170 26.60292
# Shear Modulus (GPa) = 21.44255 28.56396 25.00326
#
# Velocity S-wave (km/s) = 3.21076 3.70577 3.46711
# Velocity P-wave (km/s) = 4.82504 5.86127 5.36822
#
# Compressibility (1/GPa) = 0.05041811
#
# Stress axis : x y z
#
# Youngs Moduli (GPa) = 54.73513 27.33244 139.39631
#
# Poissons Ratio (x) = -0.00154 0.05561
# Poissons Ratio (y) = -0.00308 0.76158
# Poissons Ratio (z) = 0.02184 0.14933
#
# Static dielectric constant tensor:
#      x y z
#    x 1.796610 0.000000 0.026740 
#    y 0.000000 1.746340 0.000000 
#    z 0.026740 0.000000 1.863170 
# 
# From -- ./inp_files/158430.got.cif
#   From: 2010.05.17/outbox.cif.g08.bks.cpg/sg12_80_cif.got.tgz:158430.got - 2010.06.03 13:09:07.
