data_PCOD9200542
_publ_section_title
;
Structure prediction by ZEFSAII (Michael W. Deem and Ramdas Pophale) SiO2 
 PCOD9200542
Probable space group: C 2/M
;
_chemical_formula_sum "Si O2"
_cell_formula_units_Z 56
_cell_length_a 14.604813
_cell_length_b 17.019085
_cell_length_c 18.777501
_cell_angle_alpha 90.000000
_cell_angle_beta 146.480612
_cell_angle_gamma 90.000000
_cell_volume 2577.397764
_symmetry_space_group_name_H-M "C 2/M"
_symmetry_group_IT_number 12
_symmetry_cell_setting 'monoclinic'
loop_
_space_group_symop_operation_xyz
x,y,z
-x,y,-z
-x,-y,-z
x,-y,z
1/2+x,1/2+y,z
1/2-x,1/2+y,-z
1/2-x,1/2-y,-z
1/2+x,1/2-y,z
loop_
_atom_site_type_symbol
_atom_site_label
_atom_site_fract_x
_atom_site_fract_y
_atom_site_fract_z
Si Si1 0.130203 0.089423 0.253432
Si Si2 0.912610 0.592421 0.795360
Si Si3 0.585147 0.830735 0.634066
Si Si4 0.617622 0.593150 0.514090
Si Si5 0.738014 0.336086 0.461307
Si Si6 0.811511 0.298563 0.859939
Si Si7 0.774516 0.091739 0.063070
O O1 0.267300 0.107405 0.283605
O O2 0.166400 0.154184 0.336678
O O3 0.934196 0.098148 0.115982
O O4 0.157555 0.000000 0.297787
O O5 0.881721 0.500000 0.786446
O O6 0.801495 0.617378 0.657310
O O7 0.851518 0.637148 0.825355
O O8 0.105992 0.604349 0.910414
O O9 0.500000 0.810993 0.500000
O O10 0.428720 0.864060 0.576699
O O11 0.679094 0.760997 0.738001
O O12 0.500000 0.624657 0.500000
O O13 0.598620 0.500000 0.501672
O O14 0.608522 0.619985 0.428040
O O15 0.750000 0.250000 0.500000
O O16 0.739015 0.345371 0.881390
O O17 0.000000 0.265923 0.000000
O O18 0.771620 0.000000 0.088130
#
# Coordination Sequence:
#
# PCOD9200542 Si02
#       7
#     8   8   8   8   8   8   8
#     4  10  22  40  64  86 112 157 207 248 287 346
#     4   9  19  34  57  87 119 157 191 236 296 355
#     4  10  24  41  60  86 117 158 201 251 296 343
#     4  10  23  38  58  87 120 154 191 240 299 360
#     4  11  24  38  59  87 120 155 193 243 301 354
#     4  10  20  37  58  87 122 157 195 240 297 360
#     4   9  18  36  61  88 117 152 198 241 290 356
#
# _framework density 21.727342
#
# number of rings (size 3 to 8) (size 9 to 14) (size 15 to 20)
#    0.000    2.143    0.000    1.714    8.000    4.857 
#    2.571    1.429    0.000    0.857    0.000    0.000 
#    0.000    0.000    0.000    0.000    0.000    0.000 
#
# Total GULP energy -156027.958559 kJ/mol
# GULP energy per Si atom -5572.427091 kJ/mol
# Density = 2.167789 g / cm^3
# Si number density = 21.727342 Si / 1000 Ang^3
#
#
#
# Elastic Constant Matrix: (Units=GPa)
#
#
# Indices 1 2 3 4 5 6 
#
# 1 78.7966 1.8776 6.6023 0.0004 31.4986 0.0002
# 2 1.8776 33.4966 13.9911 0.0007 9.2945 -0.0001
# 3 6.6023 13.9911 73.2367 0.0055 23.1792 0.0050
# 4 0.0004 0.0007 0.0055 9.5191 0.0009 -22.9453
# 5 31.4986 9.2945 23.1792 0.0009 35.8562 0.0004
# 6 0.0002 -0.0001 0.0050 -22.9453 0.0004 -27.0126
#
#
#
# Elastic Compliance Matrix: (Units=1/GPa)
#
#
# Indices 1 2 3 4 5 6 
#
# 1 0.021173 0.003107 0.004576 0.000000 -0.022363 0.000001
# 2 0.003107 0.033797 -0.003897 -0.000001 -0.008971 0.000000
# 3 0.004576 -0.003897 0.018782 0.000000 -0.015151 0.000004
# 4 0.000000 -0.000001 0.000000 0.034471 0.000000 -0.029281
# 5 -0.022363 -0.008971 -0.015151 0.000000 0.059654 -0.000002
# 6 0.000001 0.000000 0.000004 -0.029281 -0.000002 -0.012148
#
#
# Mechanical properties :
#
#
# Convention : Reuss Voigt Hill
#
# Bulk Modulus (GPa) = 12.29678 25.60799 18.95239
# Shear Modulus (GPa) = 28.52810 14.54313 21.53562
#
# Velocity S-wave (km/s) = 3.62747 2.58998 3.15171
# Velocity P-wave (km/s) = 4.81836 4.55584 4.68894
#
# Compressibility (1/GPa) = 0.08132208
#
# Stress axis : x y z
#
# Youngs Moduli (GPa) = 47.22974 29.58870 53.24381
#
# Poissons Ratio (x) = -0.09194 -0.24362
# Poissons Ratio (y) = -0.14675 0.20751
# Poissons Ratio (z) = -0.21610 0.11532
#
# Static dielectric constant tensor:
#      x y z
#    x 1.800200 0.000000 0.010090 
#    y 0.000000 1.812120 0.000000 
#    z 0.010090 0.000000 1.866750 
# 
# From -- ./inp_files/311743.got.cif
#   From: 2010.05.17/outbox.cif.g08.bks.cpg/sg12_156_cif.got.tgz:311743.got - 2010.06.03 13:09:07.
