data_PCOD9200166
_publ_section_title
;
Structure prediction by ZEFSAII (Michael W. Deem and Ramdas Pophale) SiO2 
 PCOD9200166
Probable space group: C 2/M
;
_chemical_formula_sum "Si O2"
_cell_formula_units_Z 58
_cell_length_a 25.541140
_cell_length_b 20.516714
_cell_length_c 5.267777
_cell_angle_alpha 90.000000
_cell_angle_beta 85.548411
_cell_angle_gamma 90.000000
_cell_volume 2752.094451
_symmetry_space_group_name_H-M "C 2/M"
_symmetry_group_IT_number 12
_symmetry_cell_setting 'monoclinic'
loop_
_space_group_symop_operation_xyz
x,y,z
-x,y,-z
-x,-y,-z
x,-y,z
1/2+x,1/2+y,z
1/2-x,1/2+y,-z
1/2-x,1/2-y,-z
1/2+x,1/2-y,z
loop_
_atom_site_type_symbol
_atom_site_label
_atom_site_fract_x
_atom_site_fract_y
_atom_site_fract_z
Si Si1 0.390649 0.235901 0.890078
Si Si2 0.938467 0.137686 0.071684
Si Si3 0.500000 0.000000 0.000000
Si Si4 0.351429 0.073433 0.371194
Si Si5 0.181809 0.811823 0.413904
Si Si6 0.609520 0.576940 0.420992
Si Si7 0.578628 0.098598 0.159841
Si Si8 0.791747 0.697724 0.225026
O O1 0.412739 0.290111 0.072036
O O2 0.335766 0.202333 0.993747
O O3 0.371400 0.276491 0.656770
O O4 0.429420 0.176354 0.832560
O O5 0.928392 0.101942 0.340628
O O6 0.911530 0.098478 0.848414
O O7 0.000000 0.143398 0.000000
O O8 0.526563 0.056762 0.169302
O O9 0.385768 0.081009 0.611917
O O10 0.310509 0.133604 0.374568
O O11 0.328648 0.000000 0.373311
O O12 0.390163 0.079905 0.112505
O O13 0.163919 0.885324 0.462002
O O14 0.201841 0.766687 0.633059
O O15 0.230161 0.810931 0.196305
O O16 0.615014 0.500000 0.427573
#
# Coordination Sequence:
#
# PCOD9200166 Si02
#       8
#     8   8   2   8   8   8   8   8
#     4  10  21  40  61  92 128 164 207 272 307 372
#     4  11  24  41  66  93 125 164 214 258 315 378
#     4  12  24  42  60  94 120 178 214 258 312 390
#     4  11  21  41  57  88 122 163 199 258 308 368
#     4  10  20  38  63  94 119 164 206 256 311 383
#     4  11  24  43  64  92 131 163 204 265 317 381
#     4  11  24  37  62  83 123 162 212 253 310 357
#     4  10  20  36  65  89 123 164 207 251 317 374
#
# _framework density 21.074856
#
# number of rings (size 3 to 8) (size 9 to 14) (size 15 to 20)
#    0.000    1.379    4.138    1.241    0.966    3.310 
#    0.000    0.000    0.000    3.310    0.000    0.000 
#    0.000    0.000    0.000    0.000    0.000    0.000 
#
# Total GULP energy -161516.015001 kJ/mol
# GULP energy per Si atom -5569.517759 kJ/mol
# Density = 2.102689 g / cm^3
# Si number density = 21.074856 Si / 1000 Ang^3
#
#
#
# Elastic Constant Matrix: (Units=GPa)
#
#
# Indices 1 2 3 4 5 6 
#
# 1 47.6365 31.1720 3.4828 0.0000 4.6792 0.0000
# 2 31.1720 165.0918 17.9416 0.0000 13.9159 0.0000
# 3 3.4828 17.9416 83.1559 0.0000 4.0178 0.0000
# 4 0.0000 0.0000 0.0000 18.2871 0.0000 5.3943
# 5 4.6792 13.9159 4.0178 0.0000 26.6340 0.0000
# 6 0.0000 0.0000 0.0000 5.3943 0.0000 23.1892
#
#
#
# Elastic Compliance Matrix: (Units=1/GPa)
#
#
# Indices 1 2 3 4 5 6 
#
# 1 0.024047 -0.004380 0.000032 0.000000 -0.001941 0.000000
# 2 -0.004380 0.007259 -0.001246 0.000000 -0.002835 0.000000
# 3 0.000032 -0.001246 0.012352 0.000000 -0.001218 0.000000
# 4 0.000000 0.000000 0.000000 0.058712 0.000000 -0.013658
# 5 -0.001941 -0.002835 -0.001218 0.000000 0.039552 0.000000
# 6 0.000000 0.000000 0.000000 -0.013658 0.000000 0.046301
#
#
# Mechanical properties :
#
#
# Convention : Reuss Voigt Hill
#
# Bulk Modulus (GPa) = 30.79863 44.56412 37.68137
# Shear Modulus (GPa) = 23.78305 29.84123 26.81214
#
# Velocity S-wave (km/s) = 3.36297 3.76701 3.57071
# Velocity P-wave (km/s) = 5.45207 6.33341 5.90919
#
# Compressibility (1/GPa) = 0.03246898
#
# Stress axis : x y z
#
# Youngs Moduli (GPa) = 41.58525 137.76636 80.95926
#
# Poissons Ratio (x) = 0.60346 -0.00257
# Poissons Ratio (y) = 0.18216 0.10085
# Poissons Ratio (z) = -0.00132 0.17161
#
# Static dielectric constant tensor:
#      x y z
#    x 1.792170 0.000000 -0.042220 
#    y 0.000000 1.817940 0.000000 
#    z -0.042220 0.000000 1.805540 
# 
# From -- ./inp_files/28807.got.cif
#   From: 2010.05.17/outbox.cif.g08.bks.cpg/sg12_15_cif.got.tgz:28807.got - 2010.06.03 13:09:07.
