data_PCOD9200621
_publ_section_title
;
Structure prediction by ZEFSAII (Michael W. Deem and Ramdas Pophale) SiO2 
 PCOD9200621
Probable space group: C 2/M
;
_chemical_formula_sum "Si O2"
_cell_formula_units_Z 58
_cell_length_a 16.690482
_cell_length_b 9.411578
_cell_length_c 16.633385
_cell_angle_alpha 90.000000
_cell_angle_beta 84.338393
_cell_angle_gamma 90.000000
_cell_volume 2600.089205
_symmetry_space_group_name_H-M "C 2/M"
_symmetry_group_IT_number 12
_symmetry_cell_setting 'monoclinic'
loop_
_space_group_symop_operation_xyz
x,y,z
-x,y,-z
-x,-y,-z
x,-y,z
1/2+x,1/2+y,z
1/2-x,1/2+y,-z
1/2-x,1/2-y,-z
1/2+x,1/2-y,z
loop_
_atom_site_type_symbol
_atom_site_label
_atom_site_fract_x
_atom_site_fract_y
_atom_site_fract_z
Si Si1 0.132232 0.669536 0.749999
Si Si2 0.188929 0.159537 0.453849
Si Si3 0.000000 0.500000 0.500000
Si Si4 0.019485 0.171485 0.160068
Si Si5 0.933355 0.765291 0.406053
Si Si6 0.261658 0.163914 0.116867
Si Si7 0.100803 0.837809 0.311322
Si Si8 0.874092 0.335676 0.959619
O O1 0.115537 0.500000 0.750853
O O2 0.128538 0.729046 0.660115
O O3 0.213231 0.689028 0.793732
O O4 0.062419 0.754935 0.803610
O O5 0.250000 0.250000 0.500000
O O6 0.110503 0.152277 0.518589
O O7 0.159786 0.227649 0.372381
O O8 0.220392 0.000000 0.437600
O O9 0.965039 0.622295 0.442905
O O10 0.084462 0.215985 0.223358
O O11 0.053012 0.235941 0.074517
O O12 0.013215 0.000000 0.159706
O O13 0.011486 0.836757 0.359124
O O14 0.201370 0.276586 0.084648
O O15 0.231334 0.000000 0.110911
O O16 0.342430 0.171810 0.054052
O O17 0.127763 0.000000 0.300400
O O18 0.892383 0.500000 0.939691
#
# Coordination Sequence:
#
# PCOD9200621 Si02
#       8
#     8   8   2   8   8   8   8   8
#     4  10  21  37  58  85 113 146 182 227 278 329
#     4  11  24  38  56  79 111 147 185 229 276 327
#     4  12  20  32  62  88 108 146 184 236 268 338
#     4  10  21  36  57  83 113 143 182 230 276 328
#     4  11  21  36  59  84 111 144 186 228 278 326
#     4   9  20  38  59  80 111 149 187 225 272 334
#     4   9  19  38  58  76 102 144 187 225 272 330
#     4  10  20  37  59  83 109 147 189 228 274 329
#
# _framework density 22.306926000000001
#
# number of rings (size 3 to 8) (size 9 to 14) (size 15 to 20)
#    0.000    1.931    2.069    1.241    0.966    4.414 
#    0.000    6.897    0.000    0.000    0.000    0.000 
#    0.000    0.000    0.000    0.000    0.000    0.000 
#
# Total GULP energy -161691.638778 kJ/mol
# GULP energy per Si atom -5575.573751 kJ/mol
# Density = 2.225615 g / cm^3
# Si number density = 22.306926 Si / 1000 Ang^3
#
#
#
# Elastic Constant Matrix: (Units=GPa)
#
#
# Indices 1 2 3 4 5 6 
#
# 1 36.0104 8.8898 25.8764 0.0000 10.7165 0.0000
# 2 8.8898 79.1250 25.2249 0.0000 6.6622 0.0000
# 3 25.8764 25.2249 109.9168 0.0000 20.3353 0.0000
# 4 0.0000 0.0000 0.0000 29.1997 0.0000 -18.5564
# 5 10.7165 6.6622 20.3353 0.0000 53.3412 0.0000
# 6 0.0000 0.0000 0.0000 -18.5564 0.0000 73.9566
#
#
#
# Elastic Compliance Matrix: (Units=1/GPa)
#
#
# Indices 1 2 3 4 5 6 
#
# 1 0.034354 -0.001272 -0.007045 0.000000 -0.004057 0.000000
# 2 -0.001272 0.013698 -0.002770 0.000000 -0.000399 0.000000
# 3 -0.007045 -0.002770 0.011906 0.000000 -0.002778 0.000000
# 4 0.000000 0.000000 0.000000 0.040744 0.000000 0.010223
# 5 -0.004057 -0.000399 -0.002778 0.000000 0.020671 0.000000
# 6 0.000000 0.000000 0.000000 0.010223 0.000000 0.016086
#
#
# Mechanical properties :
#
#
# Convention : Reuss Voigt Hill
#
# Bulk Modulus (GPa) = 26.46707 38.33717 32.40212
# Shear Modulus (GPa) = 29.03137 42.30356 35.66746
#
# Velocity S-wave (km/s) = 3.61148 4.35953 4.00301
# Velocity P-wave (km/s) = 5.41120 6.52412 5.99355
#
# Compressibility (1/GPa) = 0.03778280
#
# Stress axis : x y z
#
# Youngs Moduli (GPa) = 29.10904 73.00388 83.99200
#
# Poissons Ratio (x) = 0.09287 0.59172
# Poissons Ratio (y) = 0.03703 0.23267
# Poissons Ratio (z) = 0.20507 0.20224
#
# Static dielectric constant tensor:
#      x y z
#    x 1.892600 0.000000 -0.013780 
#    y 0.000000 1.759120 0.000000 
#    z -0.013780 0.000000 1.849040 
# 
# From -- ./inp_files/275428.got.cif
#   From: 2010.05.17/outbox.cif.g08.bks.cpg/sg12_138_cif.got.tgz:275428.got - 2010.06.03 13:09:07.
