data_PCOD9200285
_publ_section_title
;
Structure prediction by ZEFSAII (Michael W. Deem and Ramdas Pophale) SiO2 
 PCOD9200285
Probable space group: C 2/M
;
_chemical_formula_sum "Si O2"
_cell_formula_units_Z 56
_cell_length_a 14.837087
_cell_length_b 24.730264
_cell_length_c 11.810973
_cell_angle_alpha 90.000000
_cell_angle_beta 137.969200
_cell_angle_gamma 90.000000
_cell_volume 2901.570393
_symmetry_space_group_name_H-M "C 2/M"
_symmetry_group_IT_number 12
_symmetry_cell_setting 'monoclinic'
loop_
_space_group_symop_operation_xyz
x,y,z
-x,y,-z
-x,-y,-z
x,-y,z
1/2+x,1/2+y,z
1/2-x,1/2+y,-z
1/2-x,1/2-y,-z
1/2+x,1/2-y,z
loop_
_atom_site_type_symbol
_atom_site_label
_atom_site_fract_x
_atom_site_fract_y
_atom_site_fract_z
Si Si1 0.416323 0.359221 0.660074
Si Si2 0.140090 0.645260 0.506223
Si Si3 0.582762 0.562432 0.963195
Si Si4 0.804860 0.697572 0.986760
Si Si5 0.909141 0.265277 0.730223
Si Si6 0.855900 0.198202 0.385155
Si Si7 0.850310 0.618801 0.235750
O O1 0.274227 0.379156 0.578053
O O2 0.529873 0.397889 0.815474
O O3 0.431258 0.297498 0.720960
O O4 0.397384 0.350355 0.508603
O O5 0.106911 0.697813 0.398209
O O6 0.165350 0.654005 0.663384
O O7 0.009122 0.607046 0.377402
O O8 0.557561 0.500000 0.911860
O O9 0.500000 0.576464 0.000000
O O10 0.739812 0.572251 0.136248
O O11 0.704879 0.682971 0.792645
O O12 0.750000 0.750000 0.000000
O O13 0.816803 0.652518 0.093113
O O14 0.955472 0.712300 0.086332
O O15 0.772037 0.273432 0.672819
O O16 0.000000 0.227856 0.500000
#
# Coordination Sequence:
#
# PCOD9200285 Si02
#       7
#     8   8   8   8   8   8   8
#     4  11  22  40  57  83 119 160 199 243 296 347
#     4   9  19  35  58  85 116 155 186 233 291 362
#     4  11  23  40  61  86 115 152 202 258 308 349
#     4  11  23  34  54  83 117 160 197 236 285 350
#     4  10  22  37  54  84 123 162 196 231 288 362
#     4  11  22  36  54  82 121 158 206 236 280 355
#     4  10  20  37  56  82 118 149 192 239 295 351
#
# _framework density 19.299894999999999
#
# number of rings (size 3 to 8) (size 9 to 14) (size 15 to 20)
#    0.000    1.571    1.429    4.714    4.000    2.286 
#    0.000    2.143    0.000    3.857    0.000    0.000 
#    0.000   17.143    0.000    0.000    0.000    0.000 
#
# Total GULP energy -156237.584569 kJ/mol
# GULP energy per Si atom -5579.913735 kJ/mol
# Density = 1.925597 g / cm^3
# Si number density = 19.299895 Si / 1000 Ang^3
#
#
#
# Elastic Constant Matrix: (Units=GPa)
#
#
# Indices 1 2 3 4 5 6 
#
# 1 110.1843 13.1431 56.8745 0.0000 10.1690 0.0000
# 2 13.1431 43.0501 34.6728 0.0000 -4.7522 0.0000
# 3 56.8745 34.6728 158.4451 0.0000 -2.3488 0.0000
# 4 0.0000 0.0000 0.0000 20.8818 0.0000 1.5766
# 5 10.1690 -4.7522 -2.3488 0.0000 51.3482 0.0000
# 6 0.0000 0.0000 0.0000 1.5766 0.0000 13.5452
#
#
#
# Elastic Compliance Matrix: (Units=1/GPa)
#
#
# Indices 1 2 3 4 5 6 
#
# 1 0.011451 -0.000524 -0.004033 0.000000 -0.002501 0.000000
# 2 -0.000524 0.028504 -0.006013 0.000000 0.002467 0.000000
# 3 -0.004033 -0.006013 0.009084 0.000000 0.000658 0.000000
# 4 0.000000 0.000000 0.000000 0.048313 0.000000 -0.005624
# 5 -0.002501 0.002467 0.000658 0.000000 0.020228 0.000000
# 6 0.000000 0.000000 0.000000 -0.005624 0.000000 0.074482
#
#
# Mechanical properties :
#
#
# Convention : Reuss Voigt Hill
#
# Bulk Modulus (GPa) = 35.84251 57.89560 46.86906
# Shear Modulus (GPa) = 22.47180 30.95430 26.71305
#
# Velocity S-wave (km/s) = 3.41596 4.00916 3.72439
# Velocity P-wave (km/s) = 5.84551 7.17595 6.54462
#
# Compressibility (1/GPa) = 0.02789983
#
# Stress axis : x y z
#
# Youngs Moduli (GPa) = 87.33222 35.08295 110.07848
#
# Poissons Ratio (x) = 0.01838 0.44390
# Poissons Ratio (y) = 0.04576 0.66189
# Poissons Ratio (z) = 0.35218 0.21095
#
# Static dielectric constant tensor:
#      x y z
#    x 1.750870 0.000000 0.023450 
#    y 0.000000 1.654470 0.000000 
#    z 0.023450 0.000000 1.719020 
# 
# From -- ./inp_files/149491.got.cif
#   From: 2010.05.17/outbox.cif.g08.bks.cpg/sg12_75_cif.got.tgz:149491.got - 2010.06.03 13:09:07.
