data_PCOD9200120
_publ_section_title
;
Structure prediction by ZEFSAII (Michael W. Deem and Ramdas Pophale) SiO2 
 PCOD9200120
Probable space group: C 2/M
;
_chemical_formula_sum "Si O2"
_cell_formula_units_Z 40
_cell_length_a 18.239381
_cell_length_b 20.645101
_cell_length_c 14.881759
_cell_angle_alpha 90.000000
_cell_angle_beta 162.199199
_cell_angle_gamma 90.000000
_cell_volume 1713.125000
_symmetry_space_group_name_H-M "C 2/M"
_symmetry_group_IT_number 12
_symmetry_cell_setting 'monoclinic'
loop_
_space_group_symop_operation_xyz
x,y,z
-x,y,-z
-x,-y,-z
x,-y,z
1/2+x,1/2+y,z
1/2-x,1/2+y,-z
1/2-x,1/2-y,-z
1/2+x,1/2-y,z
loop_
_atom_site_type_symbol
_atom_site_label
_atom_site_fract_x
_atom_site_fract_y
_atom_site_fract_z
Si Si1 0.369843 0.568530 0.753468
Si Si2 0.129530 0.682843 0.265160
Si Si3 0.878120 0.381560 0.141867
Si Si4 0.907319 0.073436 0.494122
Si Si5 0.430933 0.302145 0.103377
O O1 0.414698 0.500000 0.757472
O O2 0.476802 0.630940 0.830645
O O3 0.084000 0.576862 0.429024
O O4 0.500000 0.566204 0.000000
O O5 0.223204 0.631563 0.301195
O O6 0.378834 0.711907 0.594987
O O7 0.000163 0.641755 0.192004
O O8 0.952994 0.745298 0.055262
O O9 0.633891 0.416137 0.825363
O O10 0.812266 0.321540 0.130253
O O11 0.000000 0.079039 0.500000
O O12 0.811367 0.000000 0.394185
#
# Coordination Sequence:
#
# PCOD9200120 Si02
#       5
#     8   8   8   8   8
#     4  10  22  39  59  89 125 160 208 261 309 371
#     4   9  19  37  62  87 122 160 208 258 312 364
#     4  10  20  36  64  90 120 168 210 256 314 370
#     4  10  22  39  59  92 132 168 210 256 307 377
#     4   9  19  37  61  87 120 160 207 261 311 369
#
# _framework density 23.349143000000002
#
# number of rings (size 3 to 8) (size 9 to 14) (size 15 to 20)
#    0.000    2.400    0.000    1.200    0.000   12.000 
#    3.600    4.000    0.000    0.000    0.000    0.000 
#    0.000    0.000    0.000    0.000    0.000    0.000 
#
# Total GULP energy -111541.337714 kJ/mol
# GULP energy per Si atom -5577.066886 kJ/mol
# Density = 2.329600 g / cm^3
# Si number density = 23.349143 Si / 1000 Ang^3
#
#
#
# Elastic Constant Matrix: (Units=GPa)
#
#
# Indices 1 2 3 4 5 6 
#
# 1 97.9095 70.3561 24.7472 0.0003 15.7560 0.0004
# 2 70.3561 179.5752 31.5397 0.0000 13.2912 0.0001
# 3 24.7472 31.5397 103.0475 0.0021 -9.9529 0.0034
# 4 0.0003 0.0000 0.0021 13.5346 0.0007 23.1216
# 5 15.7560 13.2912 -9.9529 0.0007 24.6549 0.0010
# 6 0.0004 0.0001 0.0034 23.1216 0.0010 67.3686
#
#
#
# Elastic Compliance Matrix: (Units=1/GPa)
#
#
# Indices 1 2 3 4 5 6 
#
# 1 0.016092 -0.005099 -0.003155 0.000000 -0.008809 0.000000
# 2 -0.005099 0.007918 -0.001349 0.000001 -0.001555 0.000000
# 3 -0.003155 -0.001349 0.011592 -0.000002 0.007423 0.000000
# 4 0.000000 0.000001 -0.000002 0.178602 -0.000004 -0.061298
# 5 -0.008809 -0.001555 0.007423 -0.000004 0.050024 0.000000
# 6 0.000000 0.000000 0.000000 -0.061298 0.000000 0.035882
#
#
# Mechanical properties :
#
#
# Convention : Reuss Voigt Hill
#
# Bulk Modulus (GPa) = 60.98756 70.42425 65.70590
# Shear Modulus (GPa) = 15.39491 38.03757 26.71624
#
# Velocity S-wave (km/s) = 2.57054 4.04056 3.38628
# Velocity P-wave (km/s) = 5.91496 7.21076 6.59476
#
# Compressibility (1/GPa) = 0.01639679
#
# Stress axis : x y z
#
# Youngs Moduli (GPa) = 62.14115 126.28763 86.26746
#
# Poissons Ratio (x) = 0.64391 0.27216
# Poissons Ratio (y) = 0.31684 0.11640
# Poissons Ratio (z) = 0.19605 0.17040
#
# Static dielectric constant tensor:
#      x y z
#    x 1.916830 0.000000 -0.018370 
#    y 0.000000 1.943370 0.000000 
#    z -0.018370 0.000000 1.897760 
# 
# From -- ./inp_files/227691.got.cif
#   From: 2010.05.17/outbox.cif.g08.bks.cpg/sg12_114_cif.got.tgz:227691.got - 2010.06.03 13:09:07.
