data_PCOD9200584
_publ_section_title
;
Structure prediction by ZEFSAII (Michael W. Deem and Ramdas Pophale) SiO2 
 PCOD9200584
Probable space group: C 2/M
;
_chemical_formula_sum "Si O2"
_cell_formula_units_Z 58
_cell_length_a 25.232722
_cell_length_b 7.331550
_cell_length_c 23.004285
_cell_angle_alpha 90.000000
_cell_angle_beta 36.595625
_cell_angle_gamma 90.000000
_cell_volume 2537.079511
_symmetry_space_group_name_H-M "C 2/M"
_symmetry_group_IT_number 12
_symmetry_cell_setting 'monoclinic'
loop_
_space_group_symop_operation_xyz
x,y,z
-x,y,-z
-x,-y,-z
x,-y,z
1/2+x,1/2+y,z
1/2-x,1/2+y,-z
1/2-x,1/2-y,-z
1/2+x,1/2-y,z
loop_
_atom_site_type_symbol
_atom_site_label
_atom_site_fract_x
_atom_site_fract_y
_atom_site_fract_z
Si Si1 0.662269 0.222246 0.224316
Si Si2 0.604316 0.780934 0.488077
Si Si3 0.690905 0.284203 0.995156
Si Si4 0.500000 0.500000 0.500000
Si Si5 0.760242 0.718507 0.725345
Si Si6 0.487398 0.793617 0.187194
Si Si7 0.980789 0.720922 0.321385
Si Si8 0.441993 0.209820 0.103182
O O1 0.749975 0.277664 0.111372
O O2 0.675082 0.282688 0.279539
O O3 0.574284 0.282689 0.267751
O O4 0.659046 0.000000 0.227258
O O5 0.533801 0.660061 0.515917
O O6 0.696741 0.736471 0.374494
O O7 0.594637 0.739996 0.564744
O O8 0.587653 0.000000 0.495444
O O9 0.676975 0.500000 0.001104
O O10 0.750000 0.250000 0.000000
O O11 0.594331 0.200036 0.087426
O O12 0.755268 0.500000 0.733717
O O13 0.661413 0.788502 0.820966
O O14 0.467792 0.710046 0.267532
O O15 0.453741 0.707058 0.156904
O O16 0.450755 0.000000 0.221024
O O17 0.988128 0.500000 0.310262
O O18 0.473652 0.000000 0.081116
O O19 0.500000 0.291805 0.000000
#
# Coordination Sequence:
#
# PCOD9200584 Si02
#       8
#     8   8   8   2   8   8   8   8
#     4   9  17  30  52  79 109 149 188 229 289 360
#     4  10  22  39  60  90 127 164 210 255 305 371
#     4  11  20  32  50  79 114 146 185 237 291 357
#     4  12  22  36  64  94 126 176 200 252 312 364
#     4  10  21  38  60  84 114 156 202 248 302 365
#     4  10  20  37  59  80 111 158 199 242 308 365
#     4   9  17  35  58  80 115 156 196 239 296 365
#     4  10  22  39  60  87 119 155 201 258 309 364
#
# _framework density 22.860931999999998
#
# number of rings (size 3 to 8) (size 9 to 14) (size 15 to 20)
#    0.000    2.069    1.379    2.276    0.966    3.034 
#    1.241    1.379    0.000    0.000    0.000    0.000 
#    0.000    0.000    0.000    0.000    0.000    0.000 
#
# Total GULP energy -161766.866043 kJ/mol
# GULP energy per Si atom -5578.167795 kJ/mol
# Density = 2.280890 g / cm^3
# Si number density = 22.860932 Si / 1000 Ang^3
#
#
#
# Elastic Constant Matrix: (Units=GPa)
#
#
# Indices 1 2 3 4 5 6 
#
# 1 113.6050 0.4554 54.7032 -0.0139 31.2182 0.0213
# 2 0.4554 97.4483 10.0147 -0.0199 6.8624 0.0407
# 3 54.7032 10.0147 159.7738 0.0010 40.7770 0.0099
# 4 -0.0139 -0.0199 0.0010 9.6931 0.0084 -12.9424
# 5 31.2182 6.8624 40.7770 0.0084 39.1320 -0.0155
# 6 0.0213 0.0407 0.0099 -12.9424 -0.0155 6.6665
#
#
#
# Elastic Compliance Matrix: (Units=1/GPa)
#
#
# Indices 1 2 3 4 5 6 
#
# 1 0.011878 0.000687 -0.002262 0.000031 -0.007239 0.000004
# 2 0.000687 0.010437 -0.000385 0.000043 -0.001977 0.000014
# 3 -0.002262 -0.000385 0.008964 0.000017 -0.007468 0.000011
# 4 0.000031 0.000043 0.000017 -0.064795 -0.000086 -0.125794
# 5 -0.007239 -0.001977 -0.007468 -0.000086 0.039458 -0.000028
# 6 0.000004 0.000014 0.000011 -0.125794 -0.000028 -0.094212
#
#
# Mechanical properties :
#
#
# Convention : Reuss Voigt Hill
#
# Bulk Modulus (GPa) = 36.55148 55.68595 46.11872
# Shear Modulus (GPa) = -66.46293 31.47524 -17.49384
#
# Velocity S-wave (km/s) = -5.39776 3.71457 -2.76928
# Velocity P-wave (km/s) = 4.77749 6.54284 3.16104
#
# Compressibility (1/GPa) = 0.02735867
#
# Stress axis : x y z
#
# Youngs Moduli (GPa) = 84.18677 95.80899 111.56332
#
# Poissons Ratio (x) = -0.06580 0.25240
# Poissons Ratio (y) = -0.05782 0.04292
# Poissons Ratio (z) = 0.19046 0.03686
#
# Static dielectric constant tensor:
#      x y z
#    x 1.782350 -0.000630 0.052000 
#    y -0.000630 2.427640 0.000240 
#    z 0.052000 0.000240 1.867470 
# 
# From -- ./inp_files/324577.got.cif
#   From: 2010.05.17/outbox.cif.g08.bks.cpg/sg12_163_cif.got.tgz:324577.got - 2010.06.03 13:09:07.
