data_PCOD9200389
_publ_section_title
;
Structure prediction by ZEFSAII (Michael W. Deem and Ramdas Pophale) SiO2 
 PCOD9200389
Probable space group: C 2/M
;
_chemical_formula_sum "Si O2"
_cell_formula_units_Z 56
_cell_length_a 9.130782
_cell_length_b 27.621743
_cell_length_c 11.970367
_cell_angle_alpha 90.000000
_cell_angle_beta 70.014461
_cell_angle_gamma 90.000000
_cell_volume 2837.214798
_symmetry_space_group_name_H-M "C 2/M"
_symmetry_group_IT_number 12
_symmetry_cell_setting 'monoclinic'
loop_
_space_group_symop_operation_xyz
x,y,z
-x,y,-z
-x,-y,-z
x,-y,z
1/2+x,1/2+y,z
1/2-x,1/2+y,-z
1/2-x,1/2-y,-z
1/2+x,1/2-y,z
loop_
_atom_site_type_symbol
_atom_site_label
_atom_site_fract_x
_atom_site_fract_y
_atom_site_fract_z
Si Si1 0.002485 0.055918 0.258376
Si Si2 0.335110 0.623665 0.606574
Si Si3 0.670272 0.269768 0.409056
Si Si4 0.959089 0.144177 0.884382
Si Si5 0.167602 0.412974 0.435384
Si Si6 0.786180 0.675718 0.740203
Si Si7 0.167591 0.697273 0.015196
O O1 0.822233 0.060126 0.347751
O O2 0.119934 0.086070 0.308220
O O3 0.018208 0.087296 0.142118
O O4 0.044063 0.000000 0.240117
O O5 0.500000 0.627605 0.500000
O O6 0.278380 0.677869 0.649540
O O7 0.218202 0.603894 0.544991
O O8 0.500000 0.276330 0.500000
O O9 0.750000 0.250000 0.500000
O O10 0.674744 0.228287 0.316191
O O11 0.097626 0.169052 0.778137
O O12 0.786114 0.163679 0.913597
O O13 0.000000 0.157040 0.000000
O O14 0.146912 0.366772 0.356764
O O15 0.000000 0.437565 0.500000
O O16 0.837300 0.675250 0.856921
O O17 0.250000 0.750000 0.000000
O O18 0.000000 0.700842 0.000000
#
# Coordination Sequence:
#
# PCOD9200389 Si02
#       7
#     8   8   8   8   8   8   8
#     4  10  22  40  64  88 118 165 208 252 307 353
#     4   9  20  35  53  81 119 158 201 243 289 360
#     4  11  22  34  53  86 123 164 201 234 294 363
#     4   9  21  42  62  86 119 151 205 261 301 364
#     4  10  20  37  57  88 123 157 200 250 298 359
#     4  10  21  37  57  83 124 162 198 247 298 369
#     4  11  24  41  60  87 120 162 203 248 310 363
#
# _framework density 19.737666000000001
#
# number of rings (size 3 to 8) (size 9 to 14) (size 15 to 20)
#    0.000    2.000    1.429    1.714    4.000    5.429 
#    0.000    0.000    0.000    0.429    0.000    0.000 
#    0.000    0.000    0.000    0.000    0.000    0.000 
#
# Total GULP energy -156057.781111 kJ/mol
# GULP energy per Si atom -5573.492183 kJ/mol
# Density = 1.969274 g / cm^3
# Si number density = 19.737666 Si / 1000 Ang^3
#
#
#
# Elastic Constant Matrix: (Units=GPa)
#
#
# Indices 1 2 3 4 5 6 
#
# 1 125.1643 17.4763 19.8516 0.0000 -1.3447 0.0000
# 2 17.4763 100.0791 -3.1904 0.0000 -16.1231 0.0000
# 3 19.8516 -3.1904 38.5206 0.0000 -7.4911 0.0000
# 4 0.0000 0.0000 0.0000 18.1399 0.0000 -1.9519
# 5 -1.3447 -16.1231 -7.4911 0.0000 22.9336 0.0000
# 6 0.0000 0.0000 0.0000 -1.9519 0.0000 14.5004
#
#
#
# Elastic Compliance Matrix: (Units=1/GPa)
#
#
# Indices 1 2 3 4 5 6 
#
# 1 0.009131 -0.002219 -0.005434 0.000000 -0.002799 0.000000
# 2 -0.002219 0.012065 0.004022 0.000000 0.009666 0.000000
# 3 -0.005434 0.004022 0.031588 0.000000 0.012827 0.000000
# 4 0.000000 0.000000 0.000000 0.055937 0.000000 0.007530
# 5 -0.002799 0.009666 0.012827 0.000000 0.054425 0.000000
# 6 0.000000 0.000000 0.000000 0.007530 0.000000 0.069977
#
#
# Mechanical properties :
#
#
# Convention : Reuss Voigt Hill
#
# Bulk Modulus (GPa) = 21.96651 36.89321 29.42986
# Shear Modulus (GPa) = 19.56496 26.42321 22.99408
#
# Velocity S-wave (km/s) = 3.15183 3.66282 3.41689
# Velocity P-wave (km/s) = 4.93951 6.05150 5.52356
#
# Compressibility (1/GPa) = 0.04552384
#
# Stress axis : x y z
#
# Youngs Moduli (GPa) = 109.51646 82.88458 31.65743
#
# Poissons Ratio (x) = 0.18390 0.17202
# Poissons Ratio (y) = 0.24299 -0.12734
# Poissons Ratio (z) = 0.59509 -0.33339
#
# Static dielectric constant tensor:
#      x y z
#    x 1.770390 0.000000 0.002220 
#    y 0.000000 1.721370 0.000000 
#    z 0.002220 0.000000 1.734950 
# 
# From -- ./inp_files/124247.got.cif
#   From: 2010.05.17/outbox.cif.g08.bks.cpg/sg12_63_cif.got.tgz:124247.got - 2010.06.03 13:09:07.
