data_PCOD9200327
_publ_section_title
;
Structure prediction by ZEFSAII (Michael W. Deem and Ramdas Pophale) SiO2 
 PCOD9200327
Probable space group: C 2/M
;
_chemical_formula_sum "Si O2"
_cell_formula_units_Z 48
_cell_length_a 14.607350
_cell_length_b 18.928703
_cell_length_c 23.941024
_cell_angle_alpha 90.000000
_cell_angle_beta 21.626105
_cell_angle_gamma 90.000000
_cell_volume 2439.659604
_symmetry_space_group_name_H-M "C 2/M"
_symmetry_group_IT_number 12
_symmetry_cell_setting 'monoclinic'
loop_
_space_group_symop_operation_xyz
x,y,z
-x,y,-z
-x,-y,-z
x,-y,z
1/2+x,1/2+y,z
1/2-x,1/2+y,-z
1/2-x,1/2-y,-z
1/2+x,1/2-y,z
loop_
_atom_site_type_symbol
_atom_site_label
_atom_site_fract_x
_atom_site_fract_y
_atom_site_fract_z
Si Si1 0.295122 0.584705 0.966391
Si Si2 0.077573 0.658377 0.898774
Si Si3 0.233845 0.082203 0.634293
Si Si4 0.245219 0.212195 0.942875
Si Si5 0.724329 0.712048 0.418396
Si Si6 0.337342 0.657021 0.432879
O O1 0.298788 0.500000 0.971498
O O2 0.504765 0.608679 0.801945
O O3 0.334179 0.631595 0.999743
O O4 0.035417 0.612103 0.087430
O O5 0.368652 0.669918 0.730288
O O6 0.000000 0.619872 0.000000
O O7 0.947492 0.734746 0.975503
O O8 0.500000 0.114124 0.500000
O O9 0.196467 0.091726 0.589654
O O10 0.242702 0.000000 0.643059
O O11 0.514699 0.215033 0.761822
O O12 0.250000 0.250000 0.000000
O O13 0.500000 0.706305 0.500000
O O14 0.742799 0.653040 0.457142
O O15 0.709460 0.781111 0.467645
#
# Coordination Sequence:
#
# PCOD9200327 Si02
#       6
#     8   8   8   8   8   8
#     4  10  21  36  60  84 110 151 193 237 285 343
#     4  11  19  35  56  85 114 143 184 241 289 328
#     4  10  21  38  58  83 116 150 188 235 286 343
#     4  10  20  37  57  79 115 149 189 239 288 342
#     4  11  22  36  55  83 116 149 188 239 286 345
#     4  11  22  36  58  87 112 148 192 235 294 340
#
# _framework density 19.674876000000001
#
# number of rings (size 3 to 8) (size 9 to 14) (size 15 to 20)
#    0.000    1.500    3.333    3.500    0.000    3.667 
#    0.000    0.833    0.000    2.500    0.000    0.000 
#    0.000    0.000    0.000    0.000    0.000    0.000 
#
# Total GULP energy -133618.555427 kJ/mol
# GULP energy per Si atom -5567.439809 kJ/mol
# Density = 1.963010 g / cm^3
# Si number density = 19.674876 Si / 1000 Ang^3
#
#
#
# Elastic Constant Matrix: (Units=GPa)
#
#
# Indices 1 2 3 4 5 6 
#
# 1 107.1499 15.7906 55.3677 -0.0539 -1.2839 -0.0140
# 2 15.7906 73.1236 16.5928 -0.0796 -2.7377 -0.0126
# 3 55.3677 16.5928 92.0090 -0.1431 0.0742 0.2096
# 4 -0.0539 -0.0796 -0.1431 14.8167 -0.0432 8.9593
# 5 -1.2839 -2.7377 0.0742 -0.0432 37.7172 0.0836
# 6 -0.0140 -0.0126 0.2096 8.9593 0.0836 17.9955
#
#
#
# Elastic Compliance Matrix: (Units=1/GPa)
#
#
# Indices 1 2 3 4 5 6 
#
# 1 0.013639 -0.001113 -0.008008 -0.000134 0.000399 0.000168
# 2 -0.001113 0.014391 -0.001926 0.000059 0.001011 -0.000003
# 3 -0.008008 -0.001926 0.016036 0.000330 -0.000443 -0.000356
# 4 -0.000134 0.000059 0.000330 0.096569 0.000216 -0.048083
# 5 0.000399 0.001011 -0.000443 0.000216 0.026602 -0.000225
# 6 0.000168 -0.000003 -0.000356 -0.048083 -0.000225 0.079513
#
#
# Mechanical properties :
#
#
# Convention : Reuss Voigt Hill
#
# Bulk Modulus (GPa) = 45.51206 49.75386 47.63296
# Shear Modulus (GPa) = 18.10484 26.40799 22.25642
#
# Velocity S-wave (km/s) = 3.03677 3.66761 3.36700
# Velocity P-wave (km/s) = 5.95636 6.57860 6.27520
#
# Compressibility (1/GPa) = 0.02197220
#
# Stress axis : x y z
#
# Youngs Moduli (GPa) = 73.31687 69.48868 62.35847
#
# Poissons Ratio (x) = 0.07737 0.49936
# Poissons Ratio (y) = 0.08163 0.12010
# Poissons Ratio (z) = 0.58711 0.13383
#
# Static dielectric constant tensor:
#      x y z
#    x 1.684990 0.000020 0.027320 
#    y 0.000020 1.774720 -0.000090 
#    z 0.027320 -0.000090 1.716700 
# 
# From -- ./inp_files/341177.got.cif
#   From: 2010.05.17/outbox.cif.g08.bks.cpg/sg12_171_cif.got.tgz:341177.got - 2010.06.03 13:09:07.
