data_PCOD9200214
_publ_section_title
;
Structure prediction by ZEFSAII (Michael W. Deem and Ramdas Pophale) SiO2 
 PCOD9200214
Probable space group: C 2/M
;
_chemical_formula_sum "Si O2"
_cell_formula_units_Z 40
_cell_length_a 30.105895
_cell_length_b 11.533435
_cell_length_c 18.660651
_cell_angle_alpha 90.000000
_cell_angle_beta 160.287604
_cell_angle_gamma 90.000000
_cell_volume 2185.505885
_symmetry_space_group_name_H-M "C 2/M"
_symmetry_group_IT_number 12
_symmetry_cell_setting 'monoclinic'
loop_
_space_group_symop_operation_xyz
x,y,z
-x,y,-z
-x,-y,-z
x,-y,z
1/2+x,1/2+y,z
1/2-x,1/2+y,-z
1/2-x,1/2-y,-z
1/2+x,1/2-y,z
loop_
_atom_site_type_symbol
_atom_site_label
_atom_site_fract_x
_atom_site_fract_y
_atom_site_fract_z
Si Si1 0.649035 0.767638 0.519847
Si Si2 0.938248 0.268698 0.981512
Si Si3 0.378428 0.860212 0.363233
Si Si4 0.586670 0.636181 0.912589
Si Si5 0.317837 0.127449 0.578879
O O1 0.786619 0.697966 0.737443
O O2 0.613347 0.821101 0.542027
O O3 0.528504 0.693192 0.307613
O O4 0.674551 0.860856 0.495490
O O5 0.933640 0.169374 0.034864
O O6 0.000000 0.230497 0.000000
O O7 0.037119 0.362933 0.165335
O O8 0.500000 0.818013 0.500000
O O9 0.379282 0.000000 0.362930
O O10 0.233936 0.821570 0.116684
O O11 0.582082 0.500000 0.896777
O O12 0.250000 0.250000 0.500000
O O13 0.260641 0.000000 0.511200
#
# Coordination Sequence:
#
# PCOD9200214 Si02
#       5
#     8   8   8   8   8
#     4  10  20  37  55  79 112 145 185 230 280 329
#     4  10  20  37  49  78 108 148 185 230 273 328
#     4   9  18  35  58  81 105 138 181 231 283 335
#     4   9  20  34  53  80 109 142 186 228 276 334
#     4  11  23  38  55  81 113 150 193 233 279 336
#
# _framework density 18.302398
#
# number of rings (size 3 to 8) (size 9 to 14) (size 15 to 20)
#    0.000    2.200    2.000    0.600    0.000    6.400 
#    0.000    0.000    0.000    0.600    0.000    0.000 
#    0.000    0.000    0.000    0.000    0.000    0.000 
#
# Total GULP energy -111417.701539 kJ/mol
# GULP energy per Si atom -5570.885077 kJ/mol
# Density = 1.826074 g / cm^3
# Si number density = 18.302398 Si / 1000 Ang^3
#
#
#
# Elastic Constant Matrix: (Units=GPa)
#
#
# Indices 1 2 3 4 5 6 
#
# 1 100.3268 17.2789 59.4095 0.0000 17.1501 0.0000
# 2 17.2789 74.3511 38.2415 0.0000 8.1530 0.0000
# 3 59.4095 38.2415 157.1246 0.0000 -0.1325 0.0000
# 4 0.0000 0.0000 0.0000 7.3389 0.0000 10.1386
# 5 17.1501 8.1530 -0.1325 0.0000 27.0137 0.0000
# 6 0.0000 0.0000 0.0000 10.1386 0.0000 12.2833
#
#
#
# Elastic Compliance Matrix: (Units=1/GPa)
#
#
# Indices 1 2 3 4 5 6 
#
# 1 0.014965 0.000572 -0.005806 0.000000 -0.009702 0.000000
# 2 0.000572 0.016006 -0.004116 0.000000 -0.005214 0.000000
# 3 -0.005806 -0.004116 0.009566 0.000000 0.004975 0.000000
# 4 0.000000 0.000000 0.000000 -0.971314 0.000000 0.801726
# 5 -0.009702 -0.005214 0.004975 0.000000 0.044776 0.000000
# 6 0.000000 0.000000 0.000000 0.801726 0.000000 -0.580336
#
#
# Mechanical properties :
#
#
# Convention : Reuss Voigt Hill
#
# Bulk Modulus (GPa) = 45.79443 62.40692 54.10068
# Shear Modulus (GPa) = -3.47136 23.78535 10.15700
#
# Velocity S-wave (km/s) = -1.37869 3.60887 2.35830
# Velocity P-wave (km/s) = 4.74773 7.17893 6.08596
#
# Compressibility (1/GPa) = 0.02183671
#
# Stress axis : x y z
#
# Youngs Moduli (GPa) = 66.82056 62.47814 104.54062
#
# Poissons Ratio (x) = -0.03575 0.60696
# Poissons Ratio (y) = -0.03824 0.43031
# Poissons Ratio (z) = 0.38796 0.25718
#
# Static dielectric constant tensor:
#      x y z
#    x 1.629660 0.000000 0.026400 
#    y 0.000000 1.624030 0.000000 
#    z 0.026400 0.000000 1.683980 
# 
# From -- ./inp_files/182786.got.cif
#   From: 2010.05.17/outbox.cif.g08.bks.cpg/sg12_92_cif.got.tgz:182786.got - 2010.06.03 13:09:07.
