data_PCOD9200337
_publ_section_title
;
Structure prediction by ZEFSAII (Michael W. Deem and Ramdas Pophale) SiO2 
 PCOD9200337
Probable space group: C 2/M
;
_chemical_formula_sum "Si O2"
_cell_formula_units_Z 56
_cell_length_a 14.372302
_cell_length_b 12.498804
_cell_length_c 15.119445
_cell_angle_alpha 90.000000
_cell_angle_beta 90.574323
_cell_angle_gamma 90.000000
_cell_volume 2715.869031
_symmetry_space_group_name_H-M "C 2/M"
_symmetry_group_IT_number 12
_symmetry_cell_setting 'monoclinic'
loop_
_space_group_symop_operation_xyz
x,y,z
-x,y,-z
-x,-y,-z
x,-y,z
1/2+x,1/2+y,z
1/2-x,1/2+y,-z
1/2-x,1/2-y,-z
1/2+x,1/2-y,z
loop_
_atom_site_type_symbol
_atom_site_label
_atom_site_fract_x
_atom_site_fract_y
_atom_site_fract_z
Si Si1 0.432706 0.294206 0.710435
Si Si2 0.663416 0.617706 0.436860
Si Si3 0.869366 0.195023 0.196665
Si Si4 0.017500 0.375799 0.605615
Si Si5 0.314498 0.712103 0.378762
Si Si6 0.604579 0.375632 0.995428
Si Si7 0.728099 0.628425 0.159699
O O1 0.429834 0.367444 0.621620
O O2 0.523184 0.309011 0.772281
O O3 0.439160 0.175392 0.668369
O O4 0.344762 0.331391 0.766773
O O5 0.703275 0.500000 0.418239
O O6 0.658466 0.634036 0.541384
O O7 0.725445 0.717877 0.405133
O O8 0.812735 0.157397 0.283021
O O9 0.825540 0.311846 0.175981
O O10 0.861144 0.133691 0.104572
O O11 0.031512 0.500000 0.623951
O O12 0.106245 0.303025 0.626414
O O13 0.000000 0.364364 0.500000
O O14 0.594028 0.500000 0.020002
O O15 0.679693 0.335655 0.067127
O O16 0.500000 0.326902 0.000000
O O17 0.737745 0.500000 0.163941
#
# Coordination Sequence:
#
# PCOD9200337 Si02
#       7
#     8   8   8   8   8   8   8
#     4  11  22  38  61  95 127 162 215 269 308 383
#     4  11  22  39  61  89 132 172 211 265 319 372
#     4  11  23  38  65  95 128 163 214 267 312 379
#     4  10  20  37  57  80 120 169 210 258 313 372
#     4  10  22  38  59  92 125 168 222 259 312 384
#     4  10  21  40  66  96 126 164 209 261 325 386
#     4  11  23  43  69  93 126 169 211 257 326 390
#
# _framework density 20.619551000000001
#
# number of rings (size 3 to 8) (size 9 to 14) (size 15 to 20)
#    0.000    1.429    4.286    1.286    0.000    3.429 
#    0.000    7.857    0.000    1.286    0.000    0.000 
#    0.000    0.000    0.000    0.000    0.000    0.000 
#
# Total GULP energy -156067.676272 kJ/mol
# GULP energy per Si atom -5573.845581 kJ/mol
# Density = 2.057262 g / cm^3
# Si number density = 20.619551 Si / 1000 Ang^3
#
#
#
# Elastic Constant Matrix: (Units=GPa)
#
#
# Indices 1 2 3 4 5 6 
#
# 1 63.1286 15.5985 6.8707 0.0000 17.7650 0.0000
# 2 15.5985 36.0197 -5.8360 0.0000 12.3284 0.0000
# 3 6.8707 -5.8360 133.5298 0.0000 24.3938 0.0000
# 4 0.0000 0.0000 0.0000 18.5188 0.0000 -7.3398
# 5 17.7650 12.3284 24.3938 0.0000 31.1235 0.0000
# 6 0.0000 0.0000 0.0000 -7.3398 0.0000 17.1580
#
#
#
# Elastic Compliance Matrix: (Units=1/GPa)
#
#
# Indices 1 2 3 4 5 6 
#
# 1 0.019778 -0.005181 0.000517 0.000000 -0.009642 0.000000
# 2 -0.005181 0.035796 0.004530 0.000000 -0.014772 0.000000
# 3 0.000517 0.004530 0.009386 0.000000 -0.009446 0.000000
# 4 0.000000 0.000000 0.000000 0.065024 0.000000 0.027816
# 5 -0.009642 -0.014772 -0.009446 0.000000 0.050889 0.000000
# 6 0.000000 0.000000 0.000000 0.027816 0.000000 0.070181
#
#
# Mechanical properties :
#
#
# Convention : Reuss Voigt Hill
#
# Bulk Modulus (GPa) = 15.45764 29.54940 22.50352
# Shear Modulus (GPa) = 18.32271 27.76306 23.04289
#
# Velocity S-wave (km/s) = 2.98419 3.67337 3.34657
# Velocity P-wave (km/s) = 4.40303 5.68801 5.08626
#
# Compressibility (1/GPa) = 0.06469295
#
# Stress axis : x y z
#
# Youngs Moduli (GPa) = 50.56134 27.93595 106.54197
#
# Poissons Ratio (x) = 0.14473 -0.05513
# Poissons Ratio (y) = 0.26195 -0.48261
# Poissons Ratio (z) = -0.02616 -0.12654
#
# Static dielectric constant tensor:
#      x y z
#    x 1.827690 0.000000 0.014710 
#    y 0.000000 1.704470 0.000000 
#    z 0.014710 0.000000 1.796470 
# 
# From -- ./inp_files/213394.got.cif
#   From: 2010.05.17/outbox.cif.g08.bks.cpg/sg12_107_cif.got.tgz:213394.got - 2010.06.03 13:09:07.
