data_PCOD9200025
_publ_section_title
;
Structure prediction by ZEFSAII (Michael W. Deem and Ramdas Pophale) SiO2 
 PCOD9200025
Probable space group: C 2/M
;
_chemical_formula_sum "Si O2"
_cell_formula_units_Z 44
_cell_length_a 9.484027
_cell_length_b 18.747138
_cell_length_c 16.589845
_cell_angle_alpha 90.000000
_cell_angle_beta 129.986205
_cell_angle_gamma 90.000000
_cell_volume 2260.017340
_symmetry_space_group_name_H-M "C 2/M"
_symmetry_group_IT_number 12
_symmetry_cell_setting 'monoclinic'
loop_
_space_group_symop_operation_xyz
x,y,z
-x,y,-z
-x,-y,-z
x,-y,z
1/2+x,1/2+y,z
1/2-x,1/2+y,-z
1/2-x,1/2-y,-z
1/2+x,1/2-y,z
loop_
_atom_site_type_symbol
_atom_site_label
_atom_site_fract_x
_atom_site_fract_y
_atom_site_fract_z
Si Si1 0.422024 0.830399 0.386962
Si Si2 0.347002 0.699534 0.101540
Si Si3 0.026724 0.421455 0.830645
Si Si4 0.848867 0.915368 0.826689
Si Si5 0.868056 0.708651 0.692071
Si Si6 0.500000 0.117444 0.000000
O O1 0.500000 0.857444 0.500000
O O2 0.284575 0.886888 0.293949
O O3 0.309493 0.757646 0.363691
O O4 0.578460 0.811110 0.379372
O O5 0.477705 0.637979 0.112244
O O6 0.467899 0.745454 0.207074
O O7 0.250000 0.750000 0.000000
O O8 0.177452 0.664329 0.085095
O O9 0.973282 0.500000 0.783024
O O10 0.222507 0.405279 0.859811
O O11 0.878551 0.364429 0.746055
O O12 0.046005 0.421191 0.933820
O O13 0.894390 0.000000 0.836632
#
# Coordination Sequence:
#
# PCOD9200025 Si02
#       6
#     8   8   8   8   8   4
#     4  10  20  36  63  88 109 145 190 242 296 343
#     4  11  23  37  59  83 117 156 198 232 281 339
#     4  10  21  37  55  79 114 154 192 232 281 334
#     4   9  22  42  59  82 118 153 190 239 289 343
#     4  10  20  38  56  82 119 146 189 238 287 340
#     4  12  23  34  56  80 113 154 198 236 269 334
#
# _framework density 19.468878
#
# number of rings (size 3 to 8) (size 9 to 14) (size 15 to 20)
#    0.000    1.818    1.818    1.909    5.091    2.545 
#    0.000    1.818    0.000    0.545    0.000    0.000 
#    0.000    0.000    0.000    0.000    0.000    0.000 
#
# Total GULP energy -122824.035341 kJ/mol
# GULP energy per Si atom -5582.910697 kJ/mol
# Density = 1.942457 g / cm^3
# Si number density = 19.468878 Si / 1000 Ang^3
#
#
#
# Elastic Constant Matrix: (Units=GPa)
#
#
# Indices 1 2 3 4 5 6 
#
# 1 82.7750 40.0255 42.2601 0.0000 -18.7059 0.0000
# 2 40.0255 109.3956 24.1246 0.0000 -3.8647 0.0000
# 3 42.2601 24.1246 98.8850 0.0000 -25.4821 0.0000
# 4 0.0000 0.0000 0.0000 9.2166 0.0000 4.0568
# 5 -18.7059 -3.8647 -25.4821 0.0000 30.5403 0.0000
# 6 0.0000 0.0000 0.0000 4.0568 0.0000 18.7050
#
#
#
# Elastic Compliance Matrix: (Units=1/GPa)
#
#
# Indices 1 2 3 4 5 6 
#
# 1 0.018808 -0.005551 -0.004963 0.000000 0.006676 0.000000
# 2 -0.005551 0.011321 -0.001142 0.000000 -0.002920 0.000000
# 3 -0.004963 -0.001142 0.014894 0.000000 0.009243 0.000000
# 4 0.000000 0.000000 0.000000 0.119951 0.000000 -0.026016
# 5 0.006676 -0.002920 0.009243 0.000000 0.044175 0.000000
# 6 0.000000 0.000000 0.000000 -0.026016 0.000000 0.059104
#
#
# Mechanical properties :
#
#
# Convention : Reuss Voigt Hill
#
# Bulk Modulus (GPa) = 46.06095 55.98621 51.02358
# Shear Modulus (GPa) = 16.73346 24.00207 20.36777
#
# Velocity S-wave (km/s) = 2.93490 3.51500 3.23796
# Velocity P-wave (km/s) = 5.93254 6.72999 6.34381
#
# Compressibility (1/GPa) = 0.02171037
#
# Stress axis : x y z
#
# Youngs Moduli (GPa) = 53.16980 88.33278 67.13955
#
# Poissons Ratio (x) = 0.49033 0.33322
# Poissons Ratio (y) = 0.29514 0.07668
# Poissons Ratio (z) = 0.26389 0.10089
#
# Static dielectric constant tensor:
#      x y z
#    x 1.698840 0.000000 -0.009230 
#    y 0.000000 1.715570 0.000000 
#    z -0.009230 0.000000 1.690010 
# 
# From -- ./inp_files/196077.got.cif
#   From: 2010.05.17/outbox.cif.g08.bks.cpg/sg12_99_cif.got.tgz:196077.got - 2010.06.03 13:09:07.
