data_PCOD9200891
_publ_section_title
;
Structure prediction by ZEFSAII (Michael W. Deem and Ramdas Pophale) SiO2 
 PCOD9200891
Probable space group: C 2/M
;
_chemical_formula_sum "Si O2"
_cell_formula_units_Z 56
_cell_length_a 15.092418
_cell_length_b 9.012566
_cell_length_c 24.590580
_cell_angle_alpha 90.000000
_cell_angle_beta 116.911061
_cell_angle_gamma 90.000000
_cell_volume 2982.632702
_symmetry_space_group_name_H-M "C 2/M"
_symmetry_group_IT_number 12
_symmetry_cell_setting 'monoclinic'
loop_
_space_group_symop_operation_xyz
x,y,z
-x,y,-z
-x,-y,-z
x,-y,z
1/2+x,1/2+y,z
1/2-x,1/2+y,-z
1/2-x,1/2-y,-z
1/2+x,1/2-y,z
loop_
_atom_site_type_symbol
_atom_site_label
_atom_site_fract_x
_atom_site_fract_y
_atom_site_fract_z
Si Si1 0.674888 0.176842 0.136501
Si Si2 0.878618 0.677564 0.213343
Si Si3 0.884706 0.168883 0.987868
Si Si4 0.227094 0.822467 0.435636
Si Si5 0.925972 0.676561 0.429054
Si Si6 0.048444 0.322673 0.887760
Si Si7 0.994117 0.177456 0.656683
O O1 0.768680 0.255356 0.189897
O O2 0.568267 0.213451 0.134379
O O3 0.686648 0.000000 0.140817
O O4 0.669684 0.235181 0.072990
O O5 0.875122 0.500000 0.217123
O O6 0.916907 0.714929 0.163188
O O7 0.952431 0.745092 0.278131
O O8 0.888185 0.240253 0.048327
O O9 0.846960 0.000000 0.977947
O O10 0.000000 0.165600 0.000000
O O11 0.250000 0.750000 0.500000
O O12 0.316019 0.788382 0.419301
O O13 0.121016 0.777410 0.382229
O O14 0.225619 0.000000 0.443184
O O15 0.933144 0.500000 0.418829
O O16 0.954565 0.770082 0.384703
O O17 0.000000 0.706334 0.500000
O O18 0.058602 0.500000 0.898479
O O19 0.999513 0.000000 0.664025
#
# Coordination Sequence:
#
# PCOD9200891 Si02
#       7
#     8   8   8   8   8   8   8
#     4  10  20  37  60  85 116 151 193 243 293 342
#     4  11  24  41  59  81 113 154 197 238 287 347
#     4   9  17  31  55  87 117 149 192 240 291 343
#     4  10  21  37  60  89 118 149 185 229 281 336
#     4  10  20  37  62  89 118 151 186 227 281 338
#     4   9  20  38  59  83 114 152 194 240 292 345
#     4  11  24  40  58  85 119 151 192 238 284 339
#
# _framework density 18.775359999999999
#
# number of rings (size 3 to 8) (size 9 to 14) (size 15 to 20)
#    0.000    2.000    1.429    1.714    0.000    6.571 
#    0.000    2.857    0.000    0.000    0.000    0.000 
#    0.000    0.000    0.000    0.000    0.000    0.000 
#
# Total GULP energy -156442.898013 kJ/mol
# GULP energy per Si atom -5587.246358 kJ/mol
# Density = 1.873263 g / cm^3
# Si number density = 18.775360 Si / 1000 Ang^3
#
#
#
# Elastic Constant Matrix: (Units=GPa)
#
#
# Indices 1 2 3 4 5 6 
#
# 1 77.5949 26.7098 28.3505 0.0000 13.7046 0.0000
# 2 26.7098 43.4176 28.6762 0.0000 4.4826 0.0000
# 3 28.3505 28.6762 79.6952 0.0000 15.7888 0.0000
# 4 0.0000 0.0000 0.0000 34.4053 0.0000 0.5121
# 5 13.7046 4.4826 15.7888 0.0000 29.5832 0.0000
# 6 0.0000 0.0000 0.0000 0.5121 0.0000 23.8299
#
#
#
# Elastic Compliance Matrix: (Units=1/GPa)
#
#
# Indices 1 2 3 4 5 6 
#
# 1 0.017724 -0.009051 -0.001894 0.000000 -0.005829 0.000000
# 2 -0.009051 0.034884 -0.010194 0.000000 0.004348 0.000000
# 3 -0.001894 -0.010194 0.018350 0.000000 -0.007372 0.000000
# 4 0.000000 0.000000 0.000000 0.029075 0.000000 -0.000625
# 5 -0.005829 0.004348 -0.007372 0.000000 0.039779 0.000000
# 6 0.000000 0.000000 0.000000 -0.000625 0.000000 0.041977
#
#
# Mechanical properties :
#
#
# Convention : Reuss Voigt Hill
#
# Bulk Modulus (GPa) = 34.86589 40.90895 37.88742
# Shear Modulus (GPa) = 21.40170 25.36176 23.38173
#
# Velocity S-wave (km/s) = 3.37988 3.67931 3.53277
# Velocity P-wave (km/s) = 5.81737 6.31551 6.07155
#
# Compressibility (1/GPa) = 0.02868133
#
# Stress axis : x y z
#
# Youngs Moduli (GPa) = 56.41932 28.66643 54.49680
#
# Poissons Ratio (x) = 0.25947 0.10319
# Poissons Ratio (y) = 0.51067 0.55551
# Poissons Ratio (z) = 0.10683 0.29221
#
# Static dielectric constant tensor:
#      x y z
#    x 1.663250 0.000000 0.018820 
#    y 0.000000 1.630680 0.000000 
#    z 0.018820 0.000000 1.610950 
# 
# From -- ./inp_files/339106.got.cif
#   From: 2010.05.17/outbox.cif.g08.bks.cpg/sg12_170_cif.got.tgz:339106.got - 2010.06.03 13:09:07.
