data_PCOD9200784
_publ_section_title
;
Structure prediction by ZEFSAII (Michael W. Deem and Ramdas Pophale) SiO2 
 PCOD9200784
Probable space group: C 2/M
;
_chemical_formula_sum "Si O2"
_cell_formula_units_Z 64
_cell_length_a 12.368626
_cell_length_b 18.786327
_cell_length_c 18.980206
_cell_angle_alpha 90.000000
_cell_angle_beta 126.703110
_cell_angle_gamma 90.000000
_cell_volume 3535.896500
_symmetry_space_group_name_H-M "C 2/M"
_symmetry_group_IT_number 12
_symmetry_cell_setting 'monoclinic'
loop_
_space_group_symop_operation_xyz
x,y,z
-x,y,-z
-x,-y,-z
x,-y,z
1/2+x,1/2+y,z
1/2-x,1/2+y,-z
1/2-x,1/2-y,-z
1/2+x,1/2-y,z
loop_
_atom_site_type_symbol
_atom_site_label
_atom_site_fract_x
_atom_site_fract_y
_atom_site_fract_z
Si Si1 0.987024 0.414365 0.578868
Si Si2 0.277757 0.172007 0.809192
Si Si3 0.554059 0.583361 0.097625
Si Si4 0.816862 0.843871 0.069708
Si Si5 0.402275 0.414528 0.363340
Si Si6 0.419987 0.184649 0.121079
Si Si7 0.322812 0.168933 0.239603
Si Si8 0.691976 0.413715 0.518039
O O1 0.004569 0.500000 0.599097
O O2 0.092861 0.368773 0.665727
O O3 0.000000 0.403674 0.500000
O O4 0.836321 0.392435 0.544415
O O5 0.255115 0.161240 0.883243
O O6 0.185323 0.116189 0.732861
O O7 0.433623 0.164421 0.849709
O O8 0.224827 0.250200 0.765863
O O9 0.583081 0.500000 0.103819
O O10 0.433672 0.598604 0.105440
O O11 0.687507 0.624683 0.171526
O O12 0.500000 0.608725 0.000000
O O13 0.891316 0.767427 0.090945
O O14 0.702780 0.854533 0.966216
O O15 0.402164 0.500000 0.361918
O O16 0.558553 0.390360 0.423673
O O17 0.335724 0.392377 0.412003
O O18 0.407373 0.171910 0.199584
O O19 0.691327 0.500000 0.516551
#
# Coordination Sequence:
#
# PCOD9200784 Si02
#       8
#     8   8   8   8   8   8   8   8
#     4  10  21  38  58  81 112 153 196 246 297 346
#     4  11  22  35  58  89 119 153 195 242 296 349
#     4  11  22  39  62  88 120 155 199 249 292 346
#     4  10  21  36  58  84 113 159 198 236 284 346
#     4   9  18  35  58  82 108 145 188 237 291 352
#     4  10  20  37  60  80 118 157 194 238 285 353
#     4  11  22  38  59  87 119 154 202 241 293 360
#     4   8  16  35  60  79 103 144 192 230 284 353
#
# _framework density 18.100078
#
# number of rings (size 3 to 8) (size 9 to 14) (size 15 to 20)
#    0.000    2.000    2.500    2.250    0.000    1.500 
#    2.250    3.125    0.000    1.500    0.000    0.000 
#    0.000    0.000    0.000    0.000    0.000    0.000 
#
# Total GULP energy -178529.835006 kJ/mol
# GULP energy per Si atom -5579.057344 kJ/mol
# Density = 1.805888 g / cm^3
# Si number density = 18.100078 Si / 1000 Ang^3
#
#
#
# Elastic Constant Matrix: (Units=GPa)
#
#
# Indices 1 2 3 4 5 6 
#
# 1 84.7312 22.1890 31.3103 0.0000 21.0257 0.0000
# 2 22.1890 31.5273 26.9705 0.0000 1.1001 0.0000
# 3 31.3103 26.9705 96.6619 0.0000 9.7565 0.0000
# 4 0.0000 0.0000 0.0000 19.5788 0.0000 -2.6575
# 5 21.0257 1.1001 9.7565 0.0000 20.4996 0.0000
# 6 0.0000 0.0000 0.0000 -2.6575 0.0000 15.1917
#
#
#
# Elastic Compliance Matrix: (Units=1/GPa)
#
#
# Indices 1 2 3 4 5 6 
#
# 1 0.020456 -0.012803 -0.001056 0.000000 -0.019791 0.000000
# 2 -0.012803 0.049912 -0.011381 0.000000 0.015870 0.000000
# 3 -0.001056 -0.011381 0.014383 0.000000 -0.005151 0.000000
# 4 0.000000 0.000000 0.000000 0.052318 0.000000 0.009152
# 5 -0.019791 0.015870 -0.005151 0.000000 0.070681 0.000000
# 6 0.000000 0.000000 0.000000 0.009152 0.000000 0.067426
#
#
# Mechanical properties :
#
#
# Convention : Reuss Voigt Hill
#
# Bulk Modulus (GPa) = 29.17970 41.54000 35.35985
# Shear Modulus (GPa) = 14.83329 19.88407 17.35868
#
# Velocity S-wave (km/s) = 2.86582 3.31805 3.10019
# Velocity P-wave (km/s) = 5.20643 6.13835 5.69149
#
# Compressibility (1/GPa) = 0.03427040
#
# Stress axis : x y z
#
# Youngs Moduli (GPa) = 48.88478 20.03540 69.52696
#
# Poissons Ratio (x) = 0.25651 0.07343
# Poissons Ratio (y) = 0.62587 0.79129
# Poissons Ratio (z) = 0.05163 0.22802
#
# Static dielectric constant tensor:
#      x y z
#    x 1.895780 0.000000 -0.166330 
#    y 0.000000 1.612010 0.000000 
#    z -0.166330 0.000000 1.690710 
# 
# From -- ./inp_files/265112.got.cif
#   From: 2010.05.17/outbox.cif.g08.bks.cpg/sg12_133_cif.got.tgz:265112.got - 2010.06.03 13:09:07.
