data_PCOD9200777
_publ_section_title
;
Structure prediction by ZEFSAII (Michael W. Deem and Ramdas Pophale) SiO2 
 PCOD9200777
Probable space group: C 2/M
;
_chemical_formula_sum "Si O2"
_cell_formula_units_Z 64
_cell_length_a 16.774642
_cell_length_b 9.019218
_cell_length_c 19.820999
_cell_angle_alpha 90.000000
_cell_angle_beta 97.700686
_cell_angle_gamma 90.000000
_cell_volume 2971.756854
_symmetry_space_group_name_H-M "C 2/M"
_symmetry_group_IT_number 12
_symmetry_cell_setting 'monoclinic'
loop_
_space_group_symop_operation_xyz
x,y,z
-x,y,-z
-x,-y,-z
x,-y,z
1/2+x,1/2+y,z
1/2-x,1/2+y,-z
1/2-x,1/2-y,-z
1/2+x,1/2-y,z
loop_
_atom_site_type_symbol
_atom_site_label
_atom_site_fract_x
_atom_site_fract_y
_atom_site_fract_z
Si Si1 0.946683 0.674474 0.222852
Si Si2 0.133891 0.672995 0.282106
Si Si3 0.560574 0.174283 0.410717
Si Si4 0.089475 0.322807 0.038829
Si Si5 0.340867 0.820554 0.090268
Si Si6 0.184749 0.673433 0.540146
Si Si7 0.312160 0.323168 0.839983
Si Si8 0.396099 0.675348 0.349912
O O1 0.928062 0.500000 0.229840
O O2 0.917987 0.716290 0.145127
O O3 0.898767 0.763994 0.274234
O O4 0.041325 0.691829 0.246417
O O5 0.155823 0.500000 0.279753
O O6 0.126213 0.712839 0.360089
O O7 0.186988 0.764366 0.236143
O O8 0.601857 0.185792 0.487635
O O9 0.482702 0.273214 0.389702
O O10 0.538436 0.000000 0.396842
O O11 0.099114 0.500000 0.050992
O O12 0.112356 0.240054 0.109591
O O13 0.147592 0.268119 0.984637
O O14 0.000000 0.300459 0.000000
O O15 0.264546 0.770955 0.124967
O O16 0.337350 0.000000 0.085063
O O17 0.202736 0.500000 0.550564
O O18 0.250000 0.750000 0.500000
O O19 0.170507 0.751101 0.609894
O O20 0.313191 0.500000 0.839310
O O21 0.388242 0.500000 0.350400
#
# Coordination Sequence:
#
# PCOD9200777 Si02
#       8
#     8   8   8   8   8   8   8   8
#     4   9  18  37  61  80 103 141 187 229 268 315
#     4   9  18  35  58  80 103 138 183 223 261 314
#     4   9  20  39  61  82 107 144 188 232 277 328
#     4  10  20  37  60  79  99 137 186 226 261 314
#     4   9  19  35  55  80 108 139 178 222 270 324
#     4  11  23  39  58  82 114 149 187 232 282 334
#     4  11  22  34  51  80 115 142 168 214 274 327
#     4  11  22  36  57  86 116 146 185 230 276 331
#
# _framework density 21.536080999999999
#
# number of rings (size 3 to 8) (size 9 to 14) (size 15 to 20)
#    0.000    2.125    0.000    4.125    0.000    7.750 
#    0.000    5.000    0.000    0.000    0.000    0.000 
#    0.000    0.000    0.000    0.000    0.000    0.000 
#
# Total GULP energy -178842.460274 kJ/mol
# GULP energy per Si atom -5588.826884 kJ/mol
# Density = 2.148706 g / cm^3
# Si number density = 21.536081 Si / 1000 Ang^3
#
#
#
# Elastic Constant Matrix: (Units=GPa)
#
#
# Indices 1 2 3 4 5 6 
#
# 1 43.9071 22.1383 1.4786 0.0000 -19.4884 0.0000
# 2 22.1383 59.7911 29.2739 0.0000 -20.9018 0.0000
# 3 1.4786 29.2739 97.7578 0.0000 -27.3589 0.0000
# 4 0.0000 0.0000 0.0000 27.0534 0.0000 -11.7293
# 5 -19.4884 -20.9018 -27.3589 0.0000 40.6517 0.0000
# 6 0.0000 0.0000 0.0000 -11.7293 0.0000 20.4702
#
#
#
# Elastic Compliance Matrix: (Units=1/GPa)
#
#
# Indices 1 2 3 4 5 6 
#
# 1 0.035218 -0.010954 0.007265 0.000000 0.016140 0.000000
# 2 -0.010954 0.025085 -0.006414 0.000000 0.003330 0.000000
# 3 0.007265 -0.006414 0.014898 0.000000 0.010211 0.000000
# 4 0.000000 0.000000 0.000000 0.049182 0.000000 0.028181
# 5 0.016140 0.003330 0.010211 0.000000 0.040921 0.000000
# 6 0.000000 0.000000 0.000000 0.028181 0.000000 0.064999
#
#
# Mechanical properties :
#
#
# Convention : Reuss Voigt Hill
#
# Bulk Modulus (GPa) = 18.18397 34.13751 26.16074
# Shear Modulus (GPa) = 18.59828 27.53941 23.06885
#
# Velocity S-wave (km/s) = 2.94187 3.57985 3.27643
# Velocity P-wave (km/s) = 4.47228 5.74220 5.14656
#
# Compressibility (1/GPa) = 0.05499349
#
# Stress axis : x y z
#
# Youngs Moduli (GPa) = 28.39462 39.86396 67.12306
#
# Poissons Ratio (x) = 0.43668 -0.48763
# Poissons Ratio (y) = 0.31104 0.43055
# Poissons Ratio (z) = -0.20628 0.25570
#
# Static dielectric constant tensor:
#      x y z
#    x 1.838680 0.000000 -0.004320 
#    y 0.000000 1.717700 0.000000 
#    z -0.004320 0.000000 1.770350 
# 
# From -- ./inp_files/314108.got.cif
#   From: 2010.05.17/outbox.cif.g08.bks.cpg/sg12_158_cif.got.tgz:314108.got - 2010.06.03 13:09:07.
