data_PCOD9200503
_publ_section_title
;
Structure prediction by ZEFSAII (Michael W. Deem and Ramdas Pophale) SiO2 
 PCOD9200503
Probable space group: C 2/M
;
_chemical_formula_sum "Si O2"
_cell_formula_units_Z 40
_cell_length_a 14.294972
_cell_length_b 16.449868
_cell_length_c 9.068343
_cell_angle_alpha 90.000000
_cell_angle_beta 109.683006
_cell_angle_gamma 90.000000
_cell_volume 2007.827979
_symmetry_space_group_name_H-M "C 2/M"
_symmetry_group_IT_number 12
_symmetry_cell_setting 'monoclinic'
loop_
_space_group_symop_operation_xyz
x,y,z
-x,y,-z
-x,-y,-z
x,-y,z
1/2+x,1/2+y,z
1/2-x,1/2+y,-z
1/2-x,1/2-y,-z
1/2+x,1/2-y,z
loop_
_atom_site_type_symbol
_atom_site_label
_atom_site_fract_x
_atom_site_fract_y
_atom_site_fract_z
Si Si1 0.402771 0.244911 0.045126
Si Si2 0.663047 0.412121 0.881126
Si Si3 0.615039 0.189046 0.514439
Si Si4 0.771660 0.684633 0.718394
Si Si5 0.844513 0.589779 0.195597
O O1 0.398823 0.329582 0.131021
O O2 0.398313 0.165019 0.143874
O O3 0.500000 0.243776 0.000000
O O4 0.312400 0.236021 0.879996
O O5 0.611874 0.500000 0.846153
O O6 0.730773 0.396873 0.772585
O O7 0.737381 0.413566 0.060420
O O8 0.500000 0.198642 0.500000
O O9 0.680184 0.267169 0.596946
O O10 0.642520 0.175265 0.357961
O O11 0.656585 0.114433 0.634394
O O12 0.890036 0.500000 0.199682
#
# Coordination Sequence:
#
# PCOD9200503 Si02
#       5
#     8   8   8   8   8
#     4  11  20  37  62  87 116 152 193 244 293 342
#     4  10  20  38  62  84 114 152 195 243 293 338
#     4  11  21  36  59  86 116 158 193 233 287 349
#     4  10  21  37  58  86 118 154 195 236 289 342
#     4  10  20  37  58  84 117 149 187 238 291 347
#
# _framework density 19.922025000000001
#
# number of rings (size 3 to 8) (size 9 to 14) (size 15 to 20)
#    0.000    1.600    4.000    2.400    0.000    2.000 
#    0.000    4.000    0.000    0.600    0.000    0.000 
#    0.000    0.000    0.000    0.000    0.000    0.000 
#
# Total GULP energy -111495.592542 kJ/mol
# GULP energy per Si atom -5574.779627 kJ/mol
# Density = 1.987668 g / cm^3
# Si number density = 19.922025 Si / 1000 Ang^3
#
#
#
# Elastic Constant Matrix: (Units=GPa)
#
#
# Indices 1 2 3 4 5 6 
#
# 1 44.0886 26.6573 9.9550 0.0000 -21.1907 0.0000
# 2 26.6573 170.1377 22.2978 0.0000 -26.0481 0.0000
# 3 9.9550 22.2978 83.5081 0.0000 -23.4617 0.0000
# 4 0.0000 0.0000 0.0000 8.9653 0.0000 -0.9711
# 5 -21.1907 -26.0481 -23.4617 0.0000 35.0321 0.0000
# 6 0.0000 0.0000 0.0000 -0.9711 0.0000 2.6015
#
#
#
# Elastic Compliance Matrix: (Units=1/GPa)
#
#
# Indices 1 2 3 4 5 6 
#
# 1 0.033144 -0.002469 0.002248 0.000000 0.019719 0.000000
# 2 -0.002469 0.006832 -0.000643 0.000000 0.003156 0.000000
# 3 0.002248 -0.000643 0.014937 0.000000 0.010885 0.000000
# 4 0.000000 0.000000 0.000000 0.116241 0.000000 0.043391
# 5 0.019719 0.003156 0.010885 0.000000 0.050109 0.000000
# 6 0.000000 0.000000 0.000000 0.043391 0.000000 0.400592
#
#
# Mechanical properties :
#
#
# Convention : Reuss Voigt Hill
#
# Bulk Modulus (GPa) = 18.80235 46.17273 32.48754
# Shear Modulus (GPa) = 7.79652 25.24141 16.51897
#
# Velocity S-wave (km/s) = 1.98041 3.56337 2.88267
# Velocity P-wave (km/s) = 3.83247 6.33697 5.23665
#
# Compressibility (1/GPa) = 0.05318485
#
# Stress axis : x y z
#
# Youngs Moduli (GPa) = 30.17115 146.37351 66.94875
#
# Poissons Ratio (x) = 0.36136 -0.15050
# Poissons Ratio (y) = 0.07448 0.04307
# Poissons Ratio (z) = -0.06783 0.09416
#
# Static dielectric constant tensor:
#      x y z
#    x 1.717970 0.000000 0.010460 
#    y 0.000000 1.722970 0.000000 
#    z 0.010460 0.000000 1.759200 
# 
# From -- ./inp_files/59230.got.cif
#   From: 2010.05.17/outbox.cif.g08.bks.cpg/sg12_30_cif.got.tgz:59230.got - 2010.06.03 13:09:07.
