data_PCOD9200885
_publ_section_title
;
Structure prediction by ZEFSAII (Michael W. Deem and Ramdas Pophale) SiO2 
 PCOD9200885
Probable space group: C 2/M
;
_chemical_formula_sum "Si O2"
_cell_formula_units_Z 40
_cell_length_a 21.499999
_cell_length_b 16.120737
_cell_length_c 15.570928
_cell_angle_alpha 90.000000
_cell_angle_beta 22.979425
_cell_angle_gamma 90.000000
_cell_volume 2106.920983
_symmetry_space_group_name_H-M "C 2/M"
_symmetry_group_IT_number 12
_symmetry_cell_setting 'monoclinic'
loop_
_space_group_symop_operation_xyz
x,y,z
-x,y,-z
-x,-y,-z
x,-y,z
1/2+x,1/2+y,z
1/2-x,1/2+y,-z
1/2-x,1/2-y,-z
1/2+x,1/2-y,z
loop_
_atom_site_type_symbol
_atom_site_label
_atom_site_fract_x
_atom_site_fract_y
_atom_site_fract_z
Si Si1 0.424916 0.591486 0.332820
Si Si2 0.940411 0.744567 0.754211
Si Si3 0.500000 0.158461 0.500000
Si Si4 0.120318 0.322060 0.680405
Si Si5 0.672294 0.407792 0.861137
Si Si6 0.000000 0.765125 0.000000
O O1 0.454826 0.500000 0.331012
O O2 0.482523 0.666465 0.320009
O O3 0.237909 0.601642 0.548237
O O4 0.531805 0.598772 0.110517
O O5 0.986955 0.713873 0.601337
O O6 0.006542 0.680771 0.742584
O O7 0.750000 0.750000 0.000000
O O8 0.659595 0.104685 0.306312
O O9 0.250000 0.250000 0.500000
O O10 0.025695 0.292219 0.884845
O O11 0.666734 0.500000 0.828764
O O12 0.643503 0.330469 0.834233
#
# Coordination Sequence:
#
# PCOD9200885 Si02
#       6
#     8   8   4   8   8   4
#     4  10  21  40  59  84 120 154 189 248 297 335
#     4  11  21  40  59  86 116 155 200 234 283 352
#     4  12  23  38  59  82 118 160 198 234 285 350
#     4  10  20  37  60  85 115 149 196 234 284 353
#     4  11  22  35  56  89 121 149 185 240 304 353
#     4  12  19  38  63  88 110 152 192 236 291 352
#
# _framework density 18.985050000000001
#
# number of rings (size 3 to 8) (size 9 to 14) (size 15 to 20)
#    0.000    1.200    6.000    3.000    0.000    0.000 
#    0.000    3.000    0.000    0.000    0.000    0.000 
#    0.000    0.000    0.000    0.000    0.000    0.000 
#
# Total GULP energy -111604.083497 kJ/mol
# GULP energy per Si atom -5580.204175 kJ/mol
# Density = 1.894184 g / cm^3
# Si number density = 18.985050 Si / 1000 Ang^3
#
#
#
# Elastic Constant Matrix: (Units=GPa)
#
#
# Indices 1 2 3 4 5 6 
#
# 1 131.0363 36.4985 60.4956 0.0002 -4.6969 -0.0001
# 2 36.4985 90.4283 31.6352 0.0000 -2.6428 -0.0001
# 3 60.4956 31.6352 89.6196 0.0002 -11.6814 -0.0003
# 4 0.0002 0.0000 0.0002 5.2692 -0.0001 -7.1396
# 5 -4.6969 -2.6428 -11.6814 -0.0001 47.8493 0.0002
# 6 -0.0001 -0.0001 -0.0003 -7.1396 0.0002 19.5832
#
#
#
# Elastic Compliance Matrix: (Units=1/GPa)
#
#
# Indices 1 2 3 4 5 6 
#
# 1 0.011478 -0.002180 -0.007072 0.000000 -0.000720 0.000000
# 2 -0.002180 0.013038 -0.003166 0.000000 -0.000267 0.000000
# 3 -0.007072 -0.003166 0.017493 0.000000 0.003402 0.000000
# 4 0.000000 0.000000 0.000000 0.375054 0.000001 0.136736
# 5 -0.000720 -0.000267 0.003402 0.000001 0.021644 0.000000
# 6 0.000000 0.000000 0.000000 0.136736 0.000000 0.100915
#
#
# Mechanical properties :
#
#
# Convention : Reuss Voigt Hill
#
# Bulk Modulus (GPa) = 58.22929 63.14920 60.68925
# Shear Modulus (GPa) = 8.76913 26.70399 17.73656
#
# Velocity S-wave (km/s) = 2.15151 3.75451 3.05985
# Velocity P-wave (km/s) = 6.07534 7.22011 6.67232
#
# Compressibility (1/GPa) = 0.01717349
#
# Stress axis : x y z
#
# Youngs Moduli (GPa) = 87.12438 76.69936 57.16507
#
# Poissons Ratio (x) = 0.16717 0.40429
# Poissons Ratio (y) = 0.18989 0.18098
# Poissons Ratio (z) = 0.61618 0.24282
#
# Static dielectric constant tensor:
#      x y z
#    x 1.689320 0.000000 -0.031090 
#    y 0.000000 1.696110 0.000000 
#    z -0.031090 0.000000 1.691180 
# 
# From -- ./inp_files/234613.got.cif
#   From: 2010.05.17/outbox.cif.g08.bks.cpg/sg12_118_cif.got.tgz:234613.got - 2010.06.03 13:09:07.
