data_PCOD9200290
_publ_section_title
;
Structure prediction by ZEFSAII (Michael W. Deem and Ramdas Pophale) SiO2 
 PCOD9200290
Probable space group: C 2/M
;
_chemical_formula_sum "Si O2"
_cell_formula_units_Z 48
_cell_length_a 14.461932
_cell_length_b 30.119122
_cell_length_c 7.839697
_cell_angle_alpha 90.000000
_cell_angle_beta 137.472795
_cell_angle_gamma 90.000000
_cell_volume 2308.214572
_symmetry_space_group_name_H-M "C 2/M"
_symmetry_group_IT_number 12
_symmetry_cell_setting 'monoclinic'
loop_
_space_group_symop_operation_xyz
x,y,z
-x,y,-z
-x,-y,-z
x,-y,z
1/2+x,1/2+y,z
1/2-x,1/2+y,-z
1/2-x,1/2-y,-z
1/2+x,1/2-y,z
loop_
_atom_site_type_symbol
_atom_site_label
_atom_site_fract_x
_atom_site_fract_y
_atom_site_fract_z
Si Si1 0.299917 0.622848 0.096611
Si Si2 0.356709 0.902516 0.654290
Si Si3 0.589546 0.737835 0.295193
Si Si4 0.084394 0.135008 0.370120
Si Si5 0.032511 0.674032 0.735216
Si Si6 0.104429 0.448009 0.918088
O O1 0.424265 0.624771 0.133987
O O2 0.368582 0.621612 0.376067
O O3 0.206420 0.579840 0.939695
O O4 0.193662 0.663891 0.968252
O O5 0.199671 0.889072 0.412379
O O6 0.443369 0.856773 0.742542
O O7 0.367050 0.925466 0.856073
O O8 0.446138 0.936599 0.663663
O O9 0.750000 0.750000 0.500000
O O10 0.590510 0.687975 0.364783
O O11 0.514837 0.775638 0.304510
O O12 0.500000 0.737937 0.000000
O O13 0.000000 0.659381 0.500000
O O14 0.128358 0.500000 0.955665
#
# Coordination Sequence:
#
# PCOD9200290 Si02
#       6
#     8   8   8   8   8   8
#     4   9  21  37  58  85 127 161 194 263 315 374
#     4   9  17  33  55  79 116 152 196 244 304 367
#     4  12  26  40  62  88 122 167 226 269 301 369
#     4  10  20  37  56  83 121 164 201 247 319 355
#     4  11  24  38  58  84 121 164 210 253 310 359
#     4   9  17  33  63  93 116 155 206 256 312 381
#
# _framework density 20.795292
#
# number of rings (size 3 to 8) (size 9 to 14) (size 15 to 20)
#    0.000    2.000    1.667    3.000    9.333    0.667 
#    0.000    7.500    0.000   12.500    0.000    0.000 
#    0.000   56.000    0.000    0.000    0.000    0.000 
#
# Total GULP energy -133651.805150 kJ/mol
# GULP energy per Si atom -5568.825215 kJ/mol
# Density = 2.074796 g / cm^3
# Si number density = 20.795292 Si / 1000 Ang^3
#
#
#
# Elastic Constant Matrix: (Units=GPa)
#
#
# Indices 1 2 3 4 5 6 
#
# 1 96.3589 60.4062 62.1909 0.0000 59.3734 0.0000
# 2 60.4062 148.5688 27.1704 0.0000 33.4604 0.0000
# 3 62.1909 27.1704 88.2124 0.0000 32.5613 0.0000
# 4 0.0000 0.0000 0.0000 31.0973 0.0000 -19.5035
# 5 59.3734 33.4604 32.5613 0.0000 60.0242 0.0000
# 6 0.0000 0.0000 0.0000 -19.5035 0.0000 76.2649
#
#
#
# Elastic Compliance Matrix: (Units=1/GPa)
#
#
# Indices 1 2 3 4 5 6 
#
# 1 0.048527 -0.008847 -0.019493 0.000000 -0.032495 0.000000
# 2 -0.008847 0.009379 0.002561 0.000000 0.002134 0.000000
# 3 -0.019493 0.002561 0.022131 0.000000 0.005848 0.000000
# 4 0.000000 0.000000 0.000000 0.038300 0.000000 0.009795
# 5 -0.032495 0.002134 0.005848 0.000000 0.044441 0.000000
# 6 0.000000 0.000000 0.000000 0.009795 0.000000 0.015617
#
#
# Mechanical properties :
#
#
# Convention : Reuss Voigt Hill
#
# Bulk Modulus (GPa) = 35.11238 70.29723 52.70481
# Shear Modulus (GPa) = 20.88145 45.70211 33.29178
#
# Velocity S-wave (km/s) = 3.17226 4.69306 4.00550
# Velocity P-wave (km/s) = 5.50809 7.95263 6.84044
#
# Compressibility (1/GPa) = 0.02847999
#
# Stress axis : x y z
#
# Youngs Moduli (GPa) = 20.60697 106.61922 45.18482
#
# Poissons Ratio (x) = 0.94329 0.88077
# Poissons Ratio (y) = 0.18231 -0.11572
# Poissons Ratio (z) = 0.40168 -0.27305
#
# Static dielectric constant tensor:
#      x y z
#    x 1.549400 0.000000 -0.221730 
#    y 0.000000 1.738380 0.000000 
#    z -0.221730 0.000000 1.671280 
# 
# From -- ./inp_files/68397.got.cif
#   From: 2010.05.17/outbox.cif.g08.bks.cpg/sg12_35_cif.got.tgz:68397.got - 2010.06.03 13:09:07.
