data_PCOD9200459
_publ_section_title
;
Structure prediction by ZEFSAII (Michael W. Deem and Ramdas Pophale) SiO2 
 PCOD9200459
Probable space group: C 2/M
;
_chemical_formula_sum "Si O2"
_cell_formula_units_Z 64
_cell_length_a 11.925454
_cell_length_b 24.465806
_cell_length_c 11.443601
_cell_angle_alpha 90.000000
_cell_angle_beta 79.095809
_cell_angle_gamma 90.000000
_cell_volume 3278.568527
_symmetry_space_group_name_H-M "C 2/M"
_symmetry_group_IT_number 12
_symmetry_cell_setting 'monoclinic'
loop_
_space_group_symop_operation_xyz
x,y,z
-x,y,-z
-x,-y,-z
x,-y,z
1/2+x,1/2+y,z
1/2-x,1/2+y,-z
1/2-x,1/2-y,-z
1/2+x,1/2-y,z
loop_
_atom_site_type_symbol
_atom_site_label
_atom_site_fract_x
_atom_site_fract_y
_atom_site_fract_z
Si Si1 0.372346 0.168408 0.207613
Si Si2 0.964201 0.777479 0.130988
Si Si3 0.500084 0.435464 0.862925
Si Si4 0.186656 0.137013 0.703205
Si Si5 0.617413 0.610849 0.456860
Si Si6 0.628455 0.715699 0.313614
Si Si7 0.237269 0.935663 0.218401
Si Si8 0.061505 0.336611 0.369964
O O1 0.421407 0.215926 0.116153
O O2 0.259463 0.197354 0.282548
O O3 0.332356 0.109626 0.167527
O O4 0.466875 0.160973 0.288368
O O5 0.865510 0.809414 0.222230
O O6 0.072194 0.778787 0.196947
O O7 0.000000 0.802157 0.000000
O O8 0.510145 0.500000 0.847568
O O9 0.606437 0.408488 0.776980
O O10 0.378421 0.420636 0.829335
O O11 0.500000 0.422905 0.000000
O O12 0.169858 0.132441 0.566958
O O13 0.322531 0.133581 0.692549
O O14 0.500000 0.578081 0.500000
O O15 0.577020 0.663427 0.389187
O O16 0.704764 0.576755 0.360143
O O17 0.602332 0.773308 0.379721
O O18 0.263573 0.000000 0.195753
O O19 0.000000 0.356136 0.500000
#
# Coordination Sequence:
#
# PCOD9200459 Si02
#       8
#     8   8   8   8   8   8   8   8
#     4  10  22  41  54  88 120 159 207 249 299 363
#     4  11  23  38  59  87 123 161 203 255 307 357
#     4  10  22  42  68  94 120 155 204 259 309 358
#     4  12  22  38  60  95 127 164 200 246 311 367
#     4  11  19  32  58  92 123 151 195 250 304 362
#     4  10  20  37  58  81 120 161 201 247 297 357
#     4  10  21  40  66  90 118 157 204 257 313 361
#     4  11  23  36  57  85 126 167 202 237 299 370
#
# _framework density 19.520714999999999
#
# number of rings (size 3 to 8) (size 9 to 14) (size 15 to 20)
#    0.000    1.375    3.750    3.000    1.750    2.250 
#    4.500    0.625    0.000    1.875    0.000    0.000 
#    0.000    0.000    0.000    0.000    0.000    0.000 
#
# Total GULP energy -178451.067889 kJ/mol
# GULP energy per Si atom -5576.595872 kJ/mol
# Density = 1.947629 g / cm^3
# Si number density = 19.520715 Si / 1000 Ang^3
#
#
#
# Elastic Constant Matrix: (Units=GPa)
#
#
# Indices 1 2 3 4 5 6 
#
# 1 139.2001 40.3763 30.7911 0.0000 0.1565 0.0000
# 2 40.3763 105.2106 15.9767 0.0000 1.2556 0.0000
# 3 30.7911 15.9767 76.0310 0.0000 6.8526 0.0000
# 4 0.0000 0.0000 0.0000 19.8558 0.0000 -8.5858
# 5 0.1565 1.2556 6.8526 0.0000 6.6763 0.0000
# 6 0.0000 0.0000 0.0000 -8.5858 0.0000 39.0082
#
#
#
# Elastic Compliance Matrix: (Units=1/GPa)
#
#
# Indices 1 2 3 4 5 6 
#
# 1 0.008744 -0.002904 -0.003264 0.000000 0.003691 0.000000
# 2 -0.002904 0.010783 -0.001006 0.000000 -0.000927 0.000000
# 3 -0.003264 -0.001006 0.016156 0.000000 -0.016317 0.000000
# 4 0.000000 0.000000 0.000000 0.055661 0.000000 0.012251
# 5 0.003691 -0.000927 -0.016317 0.000000 0.166621 0.000000
# 6 0.000000 0.000000 0.000000 0.012251 0.000000 0.028332
#
#
# Mechanical properties :
#
#
# Convention : Reuss Voigt Hill
#
# Bulk Modulus (GPa) = 46.87000 54.97000 50.92000
# Shear Modulus (GPa) = 16.24662 28.66122 22.45392
#
# Velocity S-wave (km/s) = 2.88805 3.83593 3.39523
# Velocity P-wave (km/s) = 5.93158 6.91665 6.44297
#
# Compressibility (1/GPa) = 0.02133561
#
# Stress axis : x y z
#
# Youngs Moduli (GPa) = 114.36380 92.73756 61.89532
#
# Poissons Ratio (x) = 0.26932 0.20200
# Poissons Ratio (y) = 0.33213 0.06228
# Poissons Ratio (z) = 0.37323 0.09331
#
# Static dielectric constant tensor:
#      x y z
#    x 1.700360 0.000000 -0.007120 
#    y 0.000000 1.728400 0.000000 
#    z -0.007120 0.000000 1.695210 
# 
# From -- ./inp_files/136629.got.cif
#   From: 2010.05.17/outbox.cif.g08.bks.cpg/sg12_69_cif.got.tgz:136629.got - 2010.06.03 13:09:07.
