data_PCOD9200244
_publ_section_title
;
Structure prediction by ZEFSAII (Michael W. Deem and Ramdas Pophale) SiO2 
 PCOD9200244
Probable space group: C 2/M
;
_chemical_formula_sum "Si O2"
_cell_formula_units_Z 50
_cell_length_a 13.448041
_cell_length_b 12.989004
_cell_length_c 15.093321
_cell_angle_alpha 90.000000
_cell_angle_beta 54.503578
_cell_angle_gamma 90.000000
_cell_volume 2146.471174
_symmetry_space_group_name_H-M "C 2/M"
_symmetry_group_IT_number 12
_symmetry_cell_setting 'monoclinic'
loop_
_space_group_symop_operation_xyz
x,y,z
-x,y,-z
-x,-y,-z
x,-y,z
1/2+x,1/2+y,z
1/2-x,1/2+y,-z
1/2-x,1/2-y,-z
1/2+x,1/2-y,z
loop_
_atom_site_type_symbol
_atom_site_label
_atom_site_fract_x
_atom_site_fract_y
_atom_site_fract_z
Si Si1 0.621918 0.333330 0.155313
Si Si2 0.630751 0.668577 0.504460
Si Si3 0.226767 0.385154 0.751087
Si Si4 0.866776 0.166705 0.196002
Si Si5 0.000000 0.000000 0.500000
Si Si6 0.819182 0.383189 0.559317
Si Si7 0.730399 0.885423 0.096293
O O1 0.678046 0.376248 0.217077
O O2 0.486909 0.362583 0.189754
O O3 0.637114 0.209157 0.158209
O O4 0.711927 0.369313 0.030256
O O5 0.711292 0.633016 0.377526
O O6 0.521601 0.590168 0.561579
O O7 0.709581 0.642602 0.548664
O O8 0.595605 0.787419 0.511990
O O9 0.174784 0.500000 0.777931
O O10 0.134530 0.290695 0.810029
O O11 0.744394 0.132893 0.312912
O O12 0.840798 0.125916 0.110952
O O13 0.863325 0.500000 0.525863
O O14 0.677958 0.000000 0.132236
#
# Coordination Sequence:
#
# PCOD9200244 Si02
#       7
#     8   8   8   8   2   8   8
#     4  10  22  36  56  83 108 140 189 226 273 338
#     4  10  22  34  57  84 114 145 187 228 280 322
#     4  10  20  37  55  81 114 142 181 233 272 323
#     4  10  22  35  57  83 109 145 186 224 279 333
#     4  12  20  36  58  88 108 148 186 242 268 336
#     4  10  20  38  56  81 113 153 183 227 279 336
#     4  10  21  39  55  77 112 145 176 231 281 324
#
# _framework density 23.294048
#
# number of rings (size 3 to 8) (size 9 to 14) (size 15 to 20)
#    0.000    1.920    1.600    1.440    2.240    3.840 
#    0.000    0.400    0.000    5.760    0.000    0.000 
#    0.000    0.000    0.000    0.000    0.000    0.000 
#
# Total GULP energy -139266.461596 kJ/mol
# GULP energy per Si atom -5570.658464 kJ/mol
# Density = 2.324103 g / cm^3
# Si number density = 23.294048 Si / 1000 Ang^3
#
#
#
# Elastic Constant Matrix: (Units=GPa)
#
#
# Indices 1 2 3 4 5 6 
#
# 1 61.2182 -17.5173 -3.9475 0.0000 21.8678 0.0000
# 2 -17.5173 213.0214 -14.6868 0.0000 -6.0533 0.0000
# 3 -3.9475 -14.6868 74.9066 0.0000 29.9537 0.0000
# 4 0.0000 0.0000 0.0000 -56.2169 0.0000 60.2522
# 5 21.8678 -6.0533 29.9537 0.0000 31.8083 0.0000
# 6 0.0000 0.0000 0.0000 60.2522 0.0000 -22.6198
#
#
#
# Elastic Compliance Matrix: (Units=1/GPa)
#
#
# Indices 1 2 3 4 5 6 
#
# 1 0.031513 0.002711 0.017081 0.000000 -0.037234 0.000000
# 2 0.002711 0.004992 0.002385 0.000000 -0.003160 0.000000
# 3 0.017081 0.002385 0.030849 0.000000 -0.040339 0.000000
# 4 0.000000 0.000000 0.000000 0.009590 0.000000 0.025545
# 5 -0.037234 -0.003160 -0.040339 0.000000 0.094422 0.000000
# 6 0.000000 0.000000 0.000000 0.025545 0.000000 0.023834
#
#
# Mechanical properties :
#
#
# Convention : Reuss Voigt Hill
#
# Bulk Modulus (GPa) = 8.95187 30.76034 19.85611
# Shear Modulus (GPa) = 26.58442 16.28084 21.43263
#
# Velocity S-wave (km/s) = 3.38191 2.64659 3.03659
# Velocity P-wave (km/s) = 4.37048 4.75112 4.56477
#
# Compressibility (1/GPa) = 0.11170845
#
# Stress axis : x y z
#
# Youngs Moduli (GPa) = 31.73337 200.32252 32.41619
#
# Poissons Ratio (x) = -0.54307 -0.55371
# Poissons Ratio (y) = -0.08603 -0.07732
# Poissons Ratio (z) = -0.54205 -0.47781
#
# Static dielectric constant tensor:
#      x y z
#    x 1.674670 0.000000 -0.032930 
#    y 0.000000 2.034460 0.000000 
#    z -0.032930 0.000000 1.872780 
# 
# From -- ./inp_files/213339.got.cif
#   From: 2010.05.17/outbox.cif.g08.bks.cpg/sg12_107_cif.got.tgz:213339.got - 2010.06.03 13:09:07.
