data_PCOD9200422
_publ_section_title
;
Structure prediction by ZEFSAII (Michael W. Deem and Ramdas Pophale) SiO2 
 PCOD9200422
Probable space group: C 2/M
;
_chemical_formula_sum "Si O2"
_cell_formula_units_Z 48
_cell_length_a 22.613828
_cell_length_b 14.081257
_cell_length_c 22.199669
_cell_angle_alpha 90.000000
_cell_angle_beta 22.307261
_cell_angle_gamma 90.000000
_cell_volume 2683.229293
_symmetry_space_group_name_H-M "C 2/M"
_symmetry_group_IT_number 12
_symmetry_cell_setting 'monoclinic'
loop_
_space_group_symop_operation_xyz
x,y,z
-x,y,-z
-x,-y,-z
x,-y,z
1/2+x,1/2+y,z
1/2-x,1/2+y,-z
1/2-x,1/2-y,-z
1/2+x,1/2-y,z
loop_
_atom_site_type_symbol
_atom_site_label
_atom_site_fract_x
_atom_site_fract_y
_atom_site_fract_z
Si Si1 0.133454 0.723492 0.288646
Si Si2 0.073661 0.390661 0.754746
Si Si3 0.710602 0.221034 0.415473
Si Si4 0.622446 0.890396 0.937960
Si Si5 0.337116 0.611709 0.187645
Si Si6 0.481051 0.888288 0.708959
O O1 0.237446 0.816573 0.195634
O O2 0.199989 0.648424 0.273465
O O3 0.950169 0.745155 0.468207
O O4 0.139133 0.673557 0.217241
O O5 0.131050 0.500000 0.697810
O O6 0.209881 0.313964 0.632837
O O7 0.980099 0.373016 0.781123
O O8 0.965983 0.382606 0.915058
O O9 0.824343 0.169539 0.261549
O O10 0.647252 0.148916 0.526220
O O11 0.673026 0.000000 0.882536
O O12 0.500000 0.869092 0.000000
O O13 0.320688 0.500000 0.214794
O O14 0.500000 0.628360 0.000000
O O15 0.462000 0.000000 0.714327
#
# Coordination Sequence:
#
# PCOD9200422 Si02
#       6
#     8   8   8   8   8   8
#     4  10  21  33  57  82 110 144 180 230 272 332
#     4  10  20  37  58  79 110 148 190 227 274 329
#     4  10  21  34  57  82 111 146 181 230 273 327
#     4  10  21  38  58  80 111 149 186 231 278 325
#     4  11  22  36  56  82 113 146 182 225 273 331
#     4   9  20  35  55  81 111 148 183 227 277 326
#
# _framework density 17.888891999999998
#
# number of rings (size 3 to 8) (size 9 to 14) (size 15 to 20)
#    1.000    1.000    0.000    4.500    0.000    2.000 
#    0.000    0.000    0.000    5.000    0.000    0.000 
#    0.000    0.000    0.000    0.000    0.000    0.000 
#
# Total GULP energy -133776.740122 kJ/mol
# GULP energy per Si atom -5574.030838 kJ/mol
# Density = 1.784818 g / cm^3
# Si number density = 17.888892 Si / 1000 Ang^3
#
#
#
# Elastic Constant Matrix: (Units=GPa)
#
#
# Indices 1 2 3 4 5 6 
#
# 1 95.7011 43.9238 16.8675 -0.0004 16.1748 0.0003
# 2 43.9238 114.3691 33.1186 -0.0028 -8.5881 0.0017
# 3 16.8675 33.1186 38.3382 -0.0057 0.8852 0.0024
# 4 -0.0004 -0.0028 -0.0057 7.9721 0.0009 -8.8546
# 5 16.1748 -8.5881 0.8852 0.0009 25.3430 -0.0007
# 6 0.0003 0.0017 0.0024 -8.8546 -0.0007 26.4200
#
#
#
# Elastic Compliance Matrix: (Units=1/GPa)
#
#
# Indices 1 2 3 4 5 6 
#
# 1 0.015773 -0.006742 -0.000831 -0.000001 -0.012323 0.000000
# 2 -0.006742 0.015032 -0.010244 -0.000005 0.009755 -0.000001
# 3 -0.000831 -0.010244 0.035395 0.000030 -0.004178 0.000008
# 4 -0.000001 -0.000005 0.000030 0.199819 -0.000007 0.066969
# 5 -0.012323 0.009755 -0.004178 -0.000007 0.050775 -0.000001
# 6 0.000000 -0.000001 0.000008 0.066969 -0.000001 0.060294
#
#
# Mechanical properties :
#
#
# Convention : Reuss Voigt Hill
#
# Bulk Modulus (GPa) = 32.71666 48.46979 40.59322
# Shear Modulus (GPa) = 11.82283 22.24693 17.03488
#
# Velocity S-wave (km/s) = 2.57359 3.53032 3.08922
# Velocity P-wave (km/s) = 5.21150 6.61599 5.95529
#
# Compressibility (1/GPa) = 0.03056547
#
# Stress axis : x y z
#
# Youngs Moduli (GPa) = 63.40023 66.52444 28.25253
#
# Poissons Ratio (x) = 0.44853 0.02347
# Poissons Ratio (y) = 0.42747 0.28943
# Poissons Ratio (z) = 0.05266 0.68150
#
# Static dielectric constant tensor:
#      x y z
#    x 1.611230 0.000000 0.015290 
#    y 0.000000 1.598930 0.000000 
#    z 0.015290 0.000000 1.600300 
# 
# From -- ./inp_files/349610.got.cif
#   From: 2010.05.17/outbox.cif.g08.bks.cpg/sg12_175_cif.got.tgz:349610.got - 2010.06.03 13:09:07.
