data_PCOD9200813
_publ_section_title
;
Structure prediction by ZEFSAII (Michael W. Deem and Ramdas Pophale) SiO2 
 PCOD9200813
Probable space group: C 2/M
;
_chemical_formula_sum "Si O2"
_cell_formula_units_Z 56
_cell_length_a 19.235100
_cell_length_b 8.946085
_cell_length_c 29.938823
_cell_angle_alpha 90.000000
_cell_angle_beta 143.522721
_cell_angle_gamma 90.000000
_cell_volume 3062.788073
_symmetry_space_group_name_H-M "C 2/M"
_symmetry_group_IT_number 12
_symmetry_cell_setting 'monoclinic'
loop_
_space_group_symop_operation_xyz
x,y,z
-x,y,-z
-x,-y,-z
x,-y,z
1/2+x,1/2+y,z
1/2-x,1/2+y,-z
1/2-x,1/2-y,-z
1/2+x,1/2-y,z
loop_
_atom_site_type_symbol
_atom_site_label
_atom_site_fract_x
_atom_site_fract_y
_atom_site_fract_z
Si Si1 0.581013 0.822858 0.127295
Si Si2 0.293120 0.679395 0.568640
Si Si3 0.862587 0.320678 0.425853
Si Si4 0.729617 0.678070 0.128130
Si Si5 0.830025 0.821553 0.003689
Si Si6 0.043787 0.321754 0.696140
Si Si7 0.306555 0.677928 0.303717
O O1 0.635342 0.765690 0.108873
O O2 0.461354 0.738981 0.075221
O O3 0.681310 0.791965 0.215900
O O4 0.561023 0.000000 0.115389
O O5 0.295367 0.500000 0.565880
O O6 0.250000 0.750000 0.500000
O O7 0.206173 0.718948 0.564409
O O8 0.422614 0.741844 0.644459
O O9 0.852603 0.500000 0.414596
O O10 0.811586 0.238887 0.356281
O O11 0.000000 0.284019 0.500000
O O12 0.707543 0.500000 0.121602
O O13 0.856743 0.707924 0.215197
O O14 0.718366 0.717317 0.070594
O O15 0.829195 0.000000 0.007291
O O16 0.750000 0.750000 0.000000
O O17 0.026728 0.500000 0.683767
O O18 0.096881 0.259325 0.677217
O O19 0.326686 0.500000 0.312873
#
# Coordination Sequence:
#
# PCOD9200813 Si02
#       7
#     8   8   8   8   8   8   8
#     4  10  21  37  58  85 114 145 185 231 278 331
#     4  11  23  38  58  85 115 147 186 230 276 330
#     4  10  22  39  58  82 113 148 186 230 279 331
#     4   9  20  38  59  82 109 146 189 230 276 333
#     4  11  23  38  56  81 114 150 189 232 279 331
#     4  10  20  37  60  83 112 148 184 228 281 332
#     4  10  21  37  59  86 114 145 185 231 276 330
#
# _framework density 18.283994
#
# number of rings (size 3 to 8) (size 9 to 14) (size 15 to 20)
#    0.000    1.857    0.000    3.429    0.000    8.857 
#    0.000    4.286    0.000    0.000    0.000    0.000 
#    0.000    0.000    0.000    0.000    0.000    0.000 
#
# Total GULP energy -156480.473912 kJ/mol
# GULP energy per Si atom -5588.588354 kJ/mol
# Density = 1.824238 g / cm^3
# Si number density = 18.283994 Si / 1000 Ang^3
#
#
#
# Elastic Constant Matrix: (Units=GPa)
#
#
# Indices 1 2 3 4 5 6 
#
# 1 187.2724 83.5740 104.3015 0.0000 0.1192 0.0000
# 2 83.5740 65.2612 64.1632 0.0000 -2.1411 -0.0001
# 3 104.3015 64.1632 95.3093 0.0000 -5.7478 0.0000
# 4 0.0000 0.0000 0.0000 33.5221 0.0000 2.1706
# 5 0.1192 -2.1411 -5.7478 0.0000 33.8692 0.0000
# 6 0.0000 -0.0001 0.0000 2.1706 0.0000 35.9079
#
#
#
# Elastic Compliance Matrix: (Units=1/GPa)
#
#
# Indices 1 2 3 4 5 6 
#
# 1 0.015580 -0.009235 -0.010984 0.000000 -0.002503 0.000000
# 2 -0.009235 0.050977 -0.024264 0.000000 -0.000863 0.000000
# 3 -0.010984 -0.024264 0.039158 0.000000 0.005150 0.000000
# 4 0.000000 0.000000 0.000000 0.029948 0.000000 -0.001810
# 5 -0.002503 -0.000863 0.005150 0.000000 0.030354 0.000000
# 6 0.000000 0.000000 0.000000 -0.001810 0.000000 0.027958
#
#
# Mechanical properties :
#
#
# Convention : Reuss Voigt Hill
#
# Bulk Modulus (GPa) = 59.70478 94.65781 77.18130
# Shear Modulus (GPa) = 17.32959 27.04677 22.18818
#
# Velocity S-wave (km/s) = 3.08198 3.85029 3.48736
# Velocity P-wave (km/s) = 6.73720 8.46460 7.64981
#
# Compressibility (1/GPa) = 0.01674908
#
# Stress axis : x y z
#
# Youngs Moduli (GPa) = 64.18324 19.61680 25.53782
#
# Poissons Ratio (x) = 0.18117 0.28051
# Poissons Ratio (y) = 0.59275 0.61964
# Poissons Ratio (z) = 0.70499 0.47597
#
# Static dielectric constant tensor:
#      x y z
#    x 1.589600 0.000000 -0.000090 
#    y 0.000000 1.607620 0.000000 
#    z -0.000090 0.000000 1.623340 
# 
# From -- ./inp_files/363103.got.cif
#   From: 2010.05.17/outbox.cif.g08.bks.cpg/sg12_182_cif.got.tgz:363103.got - 2010.06.03 13:09:07.
