data_PCOD9200005
_publ_section_title
;
Structure prediction by ZEFSAII (Michael W. Deem and Ramdas Pophale) SiO2 
 PCOD9200005
Probable space group: C 2/M
;
_chemical_formula_sum "Si O2"
_cell_formula_units_Z 64
_cell_length_a 12.233123
_cell_length_b 20.510894
_cell_length_c 12.213554
_cell_angle_alpha 90.000000
_cell_angle_beta 111.039990
_cell_angle_gamma 90.000000
_cell_volume 2860.218750
_symmetry_space_group_name_H-M "C 2/M"
_symmetry_group_IT_number 12
_symmetry_cell_setting 'monoclinic'
loop_
_space_group_symop_operation_xyz
x,y,z
-x,y,-z
-x,-y,-z
x,-y,z
1/2+x,1/2+y,z
1/2-x,1/2+y,-z
1/2-x,1/2-y,-z
1/2+x,1/2-y,z
loop_
_atom_site_type_symbol
_atom_site_label
_atom_site_fract_x
_atom_site_fract_y
_atom_site_fract_z
Si Si1 0.832044 0.159538 0.157660
Si Si2 0.607731 0.172255 0.604826
Si Si3 0.904260 0.623691 0.038680
Si Si4 0.384414 0.423707 0.535694
Si Si5 0.525443 0.425130 0.181996
Si Si6 0.761149 0.423060 0.196545
Si Si7 0.273339 0.302338 0.382461
Si Si8 0.511434 0.228824 0.222337
O O1 0.818628 0.169347 0.282328
O O2 0.890407 0.093122 0.140471
O O3 0.939175 0.207336 0.162297
O O4 0.703918 0.160708 0.059456
O O5 0.500000 0.143163 0.500000
O O6 0.690729 0.116577 0.681354
O O7 0.656953 0.236336 0.559971
O O8 0.557945 0.203498 0.697438
O O9 0.840814 0.588848 0.118525
O O10 0.990126 0.677177 0.120670
O O11 0.000000 0.584343 0.000000
O O12 0.500000 0.416392 0.500000
O O13 0.343321 0.500000 0.507559
O O14 0.426779 0.415693 0.676098
O O15 0.295711 0.364559 0.470311
O O16 0.525920 0.500000 0.153411
O O17 0.626817 0.397087 0.138953
O O18 0.763008 0.500000 0.220582
O O19 0.145825 0.273492 0.305997
#
# Coordination Sequence:
#
# PCOD9200005 Si02
#       8
#     8   8   8   8   8   8   8   8
#     4  11  22  39  67  94 128 173 214 273 338 387
#     4  10  23  38  60  93 128 173 219 263 324 397
#     4  11  23  45  69  93 126 164 221 280 337 403
#     4  10  20  36  62  96 137 179 218 267 327 391
#     4  10  22  41  64  94 131 171 219 269 329 395
#     4  10  24  46  65  91 133 174 223 280 334 401
#     4  11  21  37  63  96 136 172 218 276 323 386
#     4  10  23  40  60  94 129 166 213 270 327 393
#
# _framework density 22.375910999999999
#
# number of rings (size 3 to 8) (size 9 to 14) (size 15 to 20)
#    0.000    1.625    2.500    1.500    3.500    2.000 
#    2.250    3.750    0.000    0.000    0.000    0.000 
#    0.000    0.000    0.000    0.000    0.000    0.000 
#
# Total GULP energy -178320.695563 kJ/mol
# GULP energy per Si atom -5572.521736 kJ/mol
# Density = 2.232498 g / cm^3
# Si number density = 22.375911 Si / 1000 Ang^3
#
#
#
# Elastic Constant Matrix: (Units=GPa)
#
#
# Indices 1 2 3 4 5 6 
#
# 1 127.8700 24.3808 21.6974 0.0000 9.6027 0.0000
# 2 24.3808 60.3931 19.9353 0.0000 6.1355 0.0000
# 3 21.6974 19.9353 65.4533 0.0000 10.3843 0.0000
# 4 0.0000 0.0000 0.0000 -60.6855 0.0000 -10.7394
# 5 9.6027 6.1355 10.3843 0.0000 39.7632 0.0000
# 6 0.0000 0.0000 0.0000 -10.7394 0.0000 23.0570
#
#
#
# Elastic Compliance Matrix: (Units=1/GPa)
#
#
# Indices 1 2 3 4 5 6 
#
# 1 0.008760 -0.002801 -0.001861 0.000000 -0.001197 0.000000
# 2 -0.002801 0.019383 -0.004807 0.000000 -0.001059 0.000000
# 3 -0.001861 -0.004807 0.017912 0.000000 -0.003487 0.000000
# 4 0.000000 0.000000 0.000000 -0.015224 0.000000 -0.007091
# 5 -0.001197 -0.001059 -0.003487 0.000000 0.026512 0.000000
# 6 0.000000 0.000000 0.000000 -0.007091 0.000000 0.040068
#
#
# Mechanical properties :
#
#
# Convention : Reuss Voigt Hill
#
# Bulk Modulus (GPa) = 36.87567 42.86036 39.86801
# Shear Modulus (GPa) = 39.87594 12.94048 26.40821
#
# Velocity S-wave (km/s) = 4.22606 2.40744 3.43914
# Velocity P-wave (km/s) = 6.35049 5.18883 5.79882
#
# Compressibility (1/GPa) = 0.02711815
#
# Stress axis : x y z
#
# Youngs Moduli (GPa) = 114.15373 51.59115 55.82760
#
# Poissons Ratio (x) = 0.14448 0.10389
# Poissons Ratio (y) = 0.31969 0.26837
# Poissons Ratio (z) = 0.21244 0.24801
#
# Static dielectric constant tensor:
#      x y z
#    x 1.872520 0.000000 -0.021720 
#    y 0.000000 1.912560 0.000000 
#    z -0.021720 0.000000 1.846340 
# 
# From -- ./inp_files/207700.got.cif
#   From: 2010.05.17/outbox.cif.g08.bks.cpg/sg12_104_cif.got.tgz:207700.got - 2010.06.03 13:09:07.
