data_PCOD9200770
_publ_section_title
;
Structure prediction by ZEFSAII (Michael W. Deem and Ramdas Pophale) SiO2 
 PCOD9200770
Probable space group: C 2/M
;
_chemical_formula_sum "Si O2"
_cell_formula_units_Z 58
_cell_length_a 22.050414
_cell_length_b 9.497516
_cell_length_c 20.618184
_cell_angle_alpha 90.000000
_cell_angle_beta 137.961450
_cell_angle_gamma 90.000000
_cell_volume 2891.428076
_symmetry_space_group_name_H-M "C 2/M"
_symmetry_group_IT_number 12
_symmetry_cell_setting 'monoclinic'
loop_
_space_group_symop_operation_xyz
x,y,z
-x,y,-z
-x,-y,-z
x,-y,z
1/2+x,1/2+y,z
1/2-x,1/2+y,-z
1/2-x,1/2-y,-z
1/2+x,1/2-y,z
loop_
_atom_site_type_symbol
_atom_site_label
_atom_site_fract_x
_atom_site_fract_y
_atom_site_fract_z
Si Si1 0.676828 0.332286 0.983967
Si Si2 0.471964 0.664788 0.627216
Si Si3 0.527600 0.659266 0.221103
Si Si4 0.666140 0.279326 0.120264
Si Si5 0.155181 0.334204 0.570910
Si Si6 0.665857 0.840532 0.255580
Si Si7 0.375370 0.155500 0.305516
Si Si8 0.000000 0.000000 0.000000
O O1 0.698911 0.500000 0.013008
O O2 0.580013 0.331131 0.872069
O O3 0.750000 0.250000 0.000000
O O4 0.664745 0.251761 0.042597
O O5 0.468360 0.500000 0.606878
O O6 0.448995 0.677087 0.684919
O O7 0.404545 0.755843 0.529800
O O8 0.571710 0.727271 0.692530
O O9 0.553281 0.500000 0.219619
O O10 0.577081 0.771704 0.215969
O O11 0.661104 0.166087 0.173692
O O12 0.767381 0.341897 0.210350
O O13 0.580781 0.380195 0.064180
O O14 0.166370 0.500000 0.565760
O O15 0.251328 0.256843 0.654827
O O16 0.109541 0.322853 0.605795
O O17 0.679286 0.000000 0.287770
O O18 0.409777 0.000000 0.314614
#
# Coordination Sequence:
#
# PCOD9200770 Si02
#       8
#     8   8   8   8   8   8   8   2
#     4  11  23  41  64  95 128 172 222 270 329 394
#     4  11  23  39  61  92 132 173 214 270 335 393
#     4  10  24  42  62  88 124 175 223 266 329 402
#     4  11  23  38  68  97 125 170 222 270 325 388
#     4  10  22  40  66  95 125 170 219 266 325 402
#     4  11  25  42  65  97 132 163 216 282 337 389
#     4  10  20  37  59  93 126 160 217 264 323 392
#     4  12  20  40  70  96 122 176 230 266 302 396
#
# _framework density 20.059294000000001
#
# number of rings (size 3 to 8) (size 9 to 14) (size 15 to 20)
#    0.000    1.379    1.379    3.310    3.862    7.172 
#    0.000    2.414    0.000    0.000    0.000    0.000 
#    0.000    0.000    0.000    0.000    0.000    0.000 
#
# Total GULP energy -161681.605403 kJ/mol
# GULP energy per Si atom -5575.227773 kJ/mol
# Density = 2.001364 g / cm^3
# Si number density = 20.059294 Si / 1000 Ang^3
#
#
#
# Elastic Constant Matrix: (Units=GPa)
#
#
# Indices 1 2 3 4 5 6 
#
# 1 80.0133 57.9264 27.5308 0.0000 7.1644 0.0000
# 2 57.9264 124.9694 24.2225 0.0000 -0.4286 0.0000
# 3 27.5308 24.2225 84.6115 0.0000 -2.4632 0.0000
# 4 0.0000 0.0000 0.0000 19.5969 0.0000 11.6053
# 5 7.1644 -0.4286 -2.4632 0.0000 31.2610 0.0000
# 6 0.0000 0.0000 0.0000 11.6053 0.0000 11.6888
#
#
#
# Elastic Compliance Matrix: (Units=1/GPa)
#
#
# Indices 1 2 3 4 5 6 
#
# 1 0.020893 -0.008846 -0.004419 0.000000 -0.005258 0.000000
# 2 -0.008846 0.012218 -0.000557 0.000000 0.002151 0.000000
# 3 -0.004419 -0.000557 0.013476 0.000000 0.002067 0.000000
# 4 0.000000 0.000000 0.000000 0.123846 0.000000 -0.122961
# 5 -0.005258 0.002151 0.002067 0.000000 0.033386 0.000000
# 6 0.000000 0.000000 0.000000 -0.122961 0.000000 0.207633
#
#
# Mechanical properties :
#
#
# Convention : Reuss Voigt Hill
#
# Bulk Modulus (GPa) = 52.78795 56.55038 54.66916
# Shear Modulus (GPa) = 11.22560 24.50366 17.86463
#
# Velocity S-wave (km/s) = 2.36820 3.49888 2.98751
# Velocity P-wave (km/s) = 5.81815 6.67650 6.26205
#
# Compressibility (1/GPa) = 0.01894372
#
# Stress axis : x y z
#
# Youngs Moduli (GPa) = 47.86210 81.84892 74.20565
#
# Poissons Ratio (x) = 0.72405 0.32790
# Poissons Ratio (y) = 0.42339 0.04131
# Poissons Ratio (z) = 0.21150 0.04556
#
# Static dielectric constant tensor:
#      x y z
#    x 1.701330 0.000000 -0.009760 
#    y 0.000000 1.683660 0.000000 
#    z -0.009760 0.000000 1.742770 
# 
# From -- ./inp_files/324651.got.cif
#   From: 2010.05.17/outbox.cif.g08.bks.cpg/sg12_163_cif.got.tgz:324651.got - 2010.06.03 13:09:07.
