data_PCOD9200344
_publ_section_title
;
Structure prediction by ZEFSAII (Michael W. Deem and Ramdas Pophale) SiO2 
 PCOD9200344
Probable space group: C 2/M
;
_chemical_formula_sum "Si O2"
_cell_formula_units_Z 48
_cell_length_a 25.973062
_cell_length_b 12.201703
_cell_length_c 19.596814
_cell_angle_alpha 90.000000
_cell_angle_beta 161.649135
_cell_angle_gamma 90.000000
_cell_volume 1955.295267
_symmetry_space_group_name_H-M "C 2/M"
_symmetry_group_IT_number 12
_symmetry_cell_setting 'monoclinic'
loop_
_space_group_symop_operation_xyz
x,y,z
-x,y,-z
-x,-y,-z
x,-y,z
1/2+x,1/2+y,z
1/2-x,1/2+y,-z
1/2-x,1/2-y,-z
1/2+x,1/2-y,z
loop_
_atom_site_type_symbol
_atom_site_label
_atom_site_fract_x
_atom_site_fract_y
_atom_site_fract_z
Si Si1 0.161082 0.616618 0.964010
Si Si2 0.675140 0.656609 0.691851
Si Si3 0.098788 0.126079 0.195193
Si Si4 0.729377 0.879361 0.344381
Si Si5 0.581399 0.341717 0.820457
Si Si6 0.734602 0.617647 0.149830
O O1 0.090457 0.500000 0.858703
O O2 0.191462 0.626884 0.082662
O O3 0.338575 0.629753 0.151298
O O4 0.058367 0.713045 0.802866
O O5 0.500000 0.617898 0.500000
O O6 0.728952 0.623615 0.684383
O O7 0.674055 0.788215 0.695175
O O8 0.167870 0.253660 0.283818
O O9 0.957071 0.125445 0.073340
O O10 0.178502 0.000000 0.300119
O O11 0.000000 0.123292 0.000000
O O12 0.902630 0.888710 0.600547
O O13 0.643443 0.000000 0.248690
O O14 0.721973 0.371198 0.052290
O O15 0.797784 0.500000 0.249696
#
# Coordination Sequence:
#
# PCOD9200344 Si02
#       6
#     8   8   8   8   8   8
#     4  10  20  37  57  81 121 164 199 237 294 364
#     4  11  22  36  59  93 124 159 200 243 301 364
#     4  10  22  43  65  86 119 162 205 251 304 355
#     4  12  24  39  63  94 125 157 202 253 301 357
#     4  10  22  37  57  88 120 157 198 245 303 358
#     4  10  21  41  63  84 119 162 203 250 303 357
#
# _framework density 24.548721
#
# number of rings (size 3 to 8) (size 9 to 14) (size 15 to 20)
#    0.000    1.500    3.333    2.000    0.000    2.667 
#    0.000    0.833    0.000    0.000    0.000    0.000 
#    0.000    0.000    0.000    0.000    0.000    0.000 
#
# Total GULP energy -133710.515004 kJ/mol
# GULP energy per Si atom -5571.271459 kJ/mol
# Density = 2.449285 g / cm^3
# Si number density = 24.548721 Si / 1000 Ang^3
#
#
#
# Elastic Constant Matrix: (Units=GPa)
#
#
# Indices 1 2 3 4 5 6 
#
# 1 54.8608 3.9939 -0.5614 0.0001 -4.5269 0.0001
# 2 3.9939 284.4893 23.1503 0.0000 18.4441 0.0000
# 3 -0.5614 23.1503 35.8609 0.0000 4.6630 -0.0001
# 4 0.0001 0.0000 0.0000 -20.0420 0.0000 0.7368
# 5 -4.5269 18.4441 4.6630 0.0000 21.5249 0.0000
# 6 0.0001 0.0000 -0.0001 0.7368 0.0000 62.4097
#
#
#
# Elastic Compliance Matrix: (Units=1/GPa)
#
#
# Indices 1 2 3 4 5 6 
#
# 1 0.018630 -0.000552 0.000079 0.000000 0.004374 0.000000
# 2 -0.000552 0.003890 -0.002131 0.000000 -0.002987 0.000000
# 3 0.000079 -0.002131 0.029864 0.000000 -0.004627 0.000000
# 4 0.000000 0.000000 0.000000 -0.049874 0.000000 0.000589
# 5 0.004374 -0.002987 -0.004627 0.000000 0.050940 0.000000
# 6 0.000000 0.000000 0.000000 0.000589 0.000000 0.016016
#
#
# Mechanical properties :
#
#
# Convention : Reuss Voigt Hill
#
# Bulk Modulus (GPa) = 21.19710 47.59741 34.39726
# Shear Modulus (GPa) = 55.30988 36.02039 45.66514
#
# Velocity S-wave (km/s) = 4.75180 3.83469 4.31766
# Velocity P-wave (km/s) = 6.22572 6.24800 6.23687
#
# Compressibility (1/GPa) = 0.04717626
#
# Stress axis : x y z
#
# Youngs Moduli (GPa) = 53.67744 257.07363 33.48479
#
# Poissons Ratio (x) = 0.14178 -0.00264
# Poissons Ratio (y) = 0.02960 0.07137
# Poissons Ratio (z) = -0.00424 0.54792
#
# Static dielectric constant tensor:
#      x y z
#    x 2.269580 0.000000 -0.070670 
#    y 0.000000 2.096840 0.000000 
#    z -0.070670 0.000000 1.961620 
# 
# From -- ./inp_files/330065.got.cif
#   From: 2010.05.17/outbox.cif.g08.bks.cpg/sg12_166_cif.got.tgz:330065.got - 2010.06.03 13:09:07.
