data_PCOD9200841
_publ_section_title
;
Structure prediction by ZEFSAII (Michael W. Deem and Ramdas Pophale) SiO2 
 PCOD9200841
Probable space group: C 2/M
;
_chemical_formula_sum "Si O2"
_cell_formula_units_Z 32
_cell_length_a 14.278435
_cell_length_b 9.202333
_cell_length_c 11.750908
_cell_angle_alpha 90.000000
_cell_angle_beta 92.782277
_cell_angle_gamma 90.000000
_cell_volume 1542.189463
_symmetry_space_group_name_H-M "C 2/M"
_symmetry_group_IT_number 12
_symmetry_cell_setting 'monoclinic'
loop_
_space_group_symop_operation_xyz
x,y,z
-x,y,-z
-x,-y,-z
x,-y,z
1/2+x,1/2+y,z
1/2-x,1/2+y,-z
1/2-x,1/2-y,-z
1/2+x,1/2-y,z
loop_
_atom_site_type_symbol
_atom_site_label
_atom_site_fract_x
_atom_site_fract_y
_atom_site_fract_z
Si Si1 0.199826 0.169262 0.600458
Si Si2 0.851692 0.667520 0.808933
Si Si3 0.060939 0.672685 0.742258
Si Si4 0.390122 0.335106 0.030242
O O1 0.250000 0.250000 0.500000
O O2 0.270894 0.177964 0.711470
O O3 0.105683 0.248200 0.636726
O O4 0.183632 0.000000 0.573336
O O5 0.860231 0.500000 0.848544
O O6 0.950730 0.703656 0.754049
O O7 0.838855 0.767368 0.918409
O O8 0.074167 0.500000 0.734882
O O9 0.110654 0.736017 0.858274
O O10 0.359579 0.500000 0.053900
O O11 0.500000 0.339788 0.000000
#
# Coordination Sequence:
#
# PCOD9200841 Si02
#       4
#     8   8   8   8
#     4  11  24  41  58  80 110 145 189 234 275 324
#     4   9  20  38  59  82 112 149 184 222 273 332
#     4  10  20  37  60  84 112 147 184 224 274 329
#     4   9  17  31  55  87 117 143 178 225 274 326
#
# _framework density 20.749721000000001
#
# number of rings (size 3 to 8) (size 9 to 14) (size 15 to 20)
#    0.000    2.250    0.000    2.250    0.000    8.000 
#    0.000    5.000    0.000    0.000    0.000    0.000 
#    0.000    0.000    0.000    0.000    0.000    0.000 
#
# Total GULP energy -89455.210321 kJ/mol
# GULP energy per Si atom -5590.950645 kJ/mol
# Density = 2.070249 g / cm^3
# Si number density = 20.749721 Si / 1000 Ang^3
#
#
#
# Elastic Constant Matrix: (Units=GPa)
#
#
# Indices 1 2 3 4 5 6 
#
# 1 75.7166 29.9340 12.8716 0.0000 -27.7703 0.0000
# 2 29.9340 99.0640 23.7994 0.0000 -24.8596 0.0000
# 3 12.8716 23.7994 38.2293 0.0000 -33.3276 0.0000
# 4 0.0000 0.0000 0.0000 40.4243 0.0000 -5.2105
# 5 -27.7703 -24.8596 -33.3276 0.0000 38.4675 0.0000
# 6 0.0000 0.0000 0.0000 -5.2105 0.0000 21.3981
#
#
#
# Elastic Compliance Matrix: (Units=1/GPa)
#
#
# Indices 1 2 3 4 5 6 
#
# 1 0.025208 -0.004492 0.031233 0.000000 0.042355 0.000000
# 2 -0.004492 0.012929 -0.008497 0.000000 -0.002249 0.000000
# 3 0.031233 -0.008497 0.146304 0.000000 0.143811 0.000000
# 4 0.000000 0.000000 0.000000 0.025539 0.000000 0.006219
# 5 0.042355 -0.002249 0.143811 0.000000 0.179715 0.000000
# 6 0.000000 0.000000 0.000000 0.006219 0.000000 0.048247
#
#
# Mechanical properties :
#
#
# Convention : Reuss Voigt Hill
#
# Bulk Modulus (GPa) = 4.52635 38.46889 21.49762
# Shear Modulus (GPa) = 10.52419 29.81830 20.17124
#
# Velocity S-wave (km/s) = 2.25455 3.79495 3.12127
# Velocity P-wave (km/s) = 2.99390 6.14670 4.83453
#
# Compressibility (1/GPa) = 0.22092848
#
# Stress axis : x y z
#
# Youngs Moduli (GPa) = 39.67052 77.34746 6.83509
#
# Poissons Ratio (x) = 0.34742 -0.21348
# Poissons Ratio (y) = 0.17819 0.05808
# Poissons Ratio (z) = -1.23903 0.65724
#
# Static dielectric constant tensor:
#      x y z
#    x 1.791850 0.000000 -0.022110 
#    y 0.000000 1.715170 0.000000 
#    z -0.022110 0.000000 1.701380 
# 
# From -- ./inp_files/138333.got.cif
#   From: 2010.05.17/outbox.cif.g08.bks.cpg/sg12_70_cif.got.tgz:138333.got - 2010.06.03 13:09:07.
