data_PCOD9200633
_publ_section_title
;
Structure prediction by ZEFSAII (Michael W. Deem and Ramdas Pophale) SiO2 
 PCOD9200633
Probable space group: C 2/M
;
_chemical_formula_sum "Si O2"
_cell_formula_units_Z 64
_cell_length_a 17.559118
_cell_length_b 14.217642
_cell_length_c 22.864274
_cell_angle_alpha 90.000000
_cell_angle_beta 30.603050
_cell_angle_gamma 90.000000
_cell_volume 2905.894848
_symmetry_space_group_name_H-M "C 2/M"
_symmetry_group_IT_number 12
_symmetry_cell_setting 'monoclinic'
loop_
_space_group_symop_operation_xyz
x,y,z
-x,y,-z
-x,-y,-z
x,-y,z
1/2+x,1/2+y,z
1/2-x,1/2+y,-z
1/2-x,1/2-y,-z
1/2+x,1/2-y,z
loop_
_atom_site_type_symbol
_atom_site_label
_atom_site_fract_x
_atom_site_fract_y
_atom_site_fract_z
Si Si1 0.426685 0.111971 0.612393
Si Si2 0.072378 0.104197 0.516402
Si Si3 0.826583 0.886489 0.125024
Si Si4 0.337028 0.890283 0.169723
Si Si5 0.365028 0.217007 0.845090
Si Si6 0.383703 0.888866 0.259475
Si Si7 0.920741 0.264661 0.402518
Si Si8 0.802230 0.390112 0.065045
O O1 0.500000 0.145273 0.500000
O O2 0.269127 0.141429 0.752049
O O3 0.546045 0.140059 0.583691
O O4 0.411436 0.000000 0.615611
O O5 0.252083 0.115586 0.393572
O O6 0.018853 0.185696 0.593157
O O7 0.000000 0.107582 0.500000
O O8 0.041527 0.000000 0.560236
O O9 0.741529 0.849969 0.123147
O O10 0.826928 0.000000 0.125249
O O11 0.000000 0.854579 0.000000
O O12 0.301789 0.849027 0.255805
O O13 0.276471 0.853964 0.148896
O O14 0.293727 0.000000 0.197638
O O15 0.517916 0.888344 0.053900
O O16 0.462345 0.161831 0.828341
O O17 0.492186 0.244495 0.714875
O O18 0.280127 0.312451 0.919354
O O19 0.414856 0.000000 0.230688
O O20 0.750000 0.250000 0.500000
O O21 0.757921 0.500000 0.085976
#
# Coordination Sequence:
#
# PCOD9200633 Si02
#       8
#     8   8   8   8   8   8   8   8
#     4   9  19  38  64  89 117 158 203 247 301 358
#     4  10  22  38  58  84 113 147 192 245 299 349
#     4   9  19  36  59  89 123 159 206 255 296 352
#     4   8  17  35  58  80 108 147 190 238 283 340
#     4  11  22  34  57  86 117 155 192 241 303 362
#     4  10  20  37  59  83 112 147 192 241 298 356
#     4  11  22  38  55  83 119 150 193 241 295 359
#     4   9  19  36  57  83 113 148 191 234 284 351
#
# _framework density 22.024196
#
# number of rings (size 3 to 8) (size 9 to 14) (size 15 to 20)
#    0.000    2.375    1.250    1.500    3.500    2.000 
#    0.000    0.000    2.750    0.000    0.000    0.875 
#    0.000    0.000    0.000    0.000    0.000    0.000 
#
# Total GULP energy -178214.802118 kJ/mol
# GULP energy per Si atom -5569.212566 kJ/mol
# Density = 2.197407 g / cm^3
# Si number density = 22.024196 Si / 1000 Ang^3
#
#
#
# Elastic Constant Matrix: (Units=GPa)
#
#
# Indices 1 2 3 4 5 6 
#
# 1 57.7364 22.9278 30.5197 0.0051 -12.5737 -0.0008
# 2 22.9278 65.4646 15.2673 0.0093 -3.5644 -0.0015
# 3 30.5197 15.2673 143.5043 0.0208 -15.3285 -0.0037
# 4 0.0051 0.0093 0.0208 -56.2622 -0.0008 7.0855
# 5 -12.5737 -3.5644 -15.3285 -0.0008 38.6465 -0.0005
# 6 -0.0008 -0.0015 -0.0037 7.0855 -0.0005 27.9273
#
#
#
# Elastic Compliance Matrix: (Units=1/GPa)
#
#
# Indices 1 2 3 4 5 6 
#
# 1 0.023190 -0.006983 -0.003605 0.000000 0.005471 0.000000
# 2 -0.006983 0.017792 -0.000496 0.000002 -0.000828 0.000000
# 3 -0.003605 -0.000496 0.007996 0.000003 0.001953 0.000000
# 4 0.000000 0.000002 0.000003 -0.017224 0.000001 0.004370
# 5 0.005471 -0.000828 0.001953 0.000001 0.028354 0.000001
# 6 0.000000 0.000000 0.000000 0.004370 0.000001 0.034699
#
#
# Mechanical properties :
#
#
# Convention : Reuss Voigt Hill
#
# Bulk Modulus (GPa) = 37.29912 44.90389 41.10151
# Shear Modulus (GPa) = 39.71012 15.26168 27.48590
#
# Velocity S-wave (km/s) = 4.25081 2.63525 3.53652
# Velocity P-wave (km/s) = 6.40818 5.44905 5.94798
#
# Compressibility (1/GPa) = 0.02681028
#
# Stress axis : x y z
#
# Youngs Moduli (GPa) = 43.12165 56.20542 125.05559
#
# Poissons Ratio (x) = 0.39251 0.45077
# Poissons Ratio (y) = 0.30114 0.06204
# Poissons Ratio (z) = 0.15544 0.02788
#
# Static dielectric constant tensor:
#      x y z
#    x 1.797320 0.000000 0.051770 
#    y 0.000000 1.841270 0.000020 
#    z 0.051770 0.000020 1.831440 
# 
# From -- ./inp_files/344022.got.cif
#   From: 2010.05.17/outbox.cif.g08.bks.cpg/sg12_173_cif.got.tgz:344022.got - 2010.06.03 13:09:07.
