data_PCOD9200363
_publ_section_title
;
Structure prediction by ZEFSAII (Michael W. Deem and Ramdas Pophale) SiO2 
 PCOD9200363
Probable space group: C 2/M
;
_chemical_formula_sum "Si O2"
_cell_formula_units_Z 44
_cell_length_a 8.557940
_cell_length_b 12.319992
_cell_length_c 25.750456
_cell_angle_alpha 90.000000
_cell_angle_beta 49.980181
_cell_angle_gamma 90.000000
_cell_volume 2079.181754
_symmetry_space_group_name_H-M "C 2/M"
_symmetry_group_IT_number 12
_symmetry_cell_setting 'monoclinic'
loop_
_space_group_symop_operation_xyz
x,y,z
-x,y,-z
-x,-y,-z
x,-y,z
1/2+x,1/2+y,z
1/2-x,1/2+y,-z
1/2-x,1/2-y,-z
1/2+x,1/2-y,z
loop_
_atom_site_type_symbol
_atom_site_label
_atom_site_fract_x
_atom_site_fract_y
_atom_site_fract_z
Si Si1 0.203259 0.826327 0.700940
Si Si2 0.055898 0.213949 0.840555
Si Si3 0.680354 0.623890 0.273720
Si Si4 0.000000 0.288609 0.500000
Si Si5 0.685486 0.623159 0.920107
Si Si6 0.352564 0.879656 0.423180
O O1 0.088648 0.851146 0.779808
O O2 0.236288 0.695621 0.696403
O O3 0.431232 0.870975 0.652265
O O4 0.061206 0.866003 0.684761
O O5 0.219898 0.310922 0.795795
O O6 0.104076 0.140989 0.879308
O O7 0.847653 0.280236 0.892630
O O8 0.741163 0.500000 0.264090
O O9 0.814018 0.209782 0.556137
O O10 0.917342 0.356965 0.469245
O O11 0.769522 0.500000 0.907543
O O12 0.500000 0.633980 0.000000
O O13 0.267908 0.000000 0.435060
#
# Coordination Sequence:
#
# PCOD9200363 Si02
#       6
#     8   8   8   4   8   8
#     4  10  21  37  61  90 114 150 196 242 291 348
#     4  10  20  41  58  85 120 147 194 248 288 343
#     4  10  20  37  57  83 118 149 182 239 297 340
#     4  10  24  40  62  88 120 160 202 230 286 356
#     4  11  23  39  60  84 117 160 197 237 294 351
#     4  11  22  41  62  87 122 156 195 243 290 342
#
# _framework density 21.162172000000002
#
# number of rings (size 3 to 8) (size 9 to 14) (size 15 to 20)
#    1.091    0.545    1.818    3.273    0.000    1.455 
#    0.000    8.182    0.000    3.818    0.000    0.000 
#    0.000    0.000    0.000    0.000    0.000    0.000 
#
# Total GULP energy -122681.285490 kJ/mol
# GULP energy per Si atom -5576.422068 kJ/mol
# Density = 2.111401 g / cm^3
# Si number density = 21.162172 Si / 1000 Ang^3
#
#
#
# Elastic Constant Matrix: (Units=GPa)
#
#
# Indices 1 2 3 4 5 6 
#
# 1 25.0941 -22.3679 -2.3375 0.0000 -9.9425 0.0000
# 2 -22.3679 74.0708 12.9972 0.0000 1.3026 0.0000
# 3 -2.3375 12.9972 59.3851 -0.0001 -12.9416 -0.0001
# 4 0.0000 0.0000 -0.0001 22.8772 0.0000 15.1481
# 5 -9.9425 1.3026 -12.9416 0.0000 30.6433 0.0001
# 6 0.0000 0.0000 -0.0001 15.1481 0.0001 21.8195
#
#
#
# Elastic Compliance Matrix: (Units=1/GPa)
#
#
# Indices 1 2 3 4 5 6 
#
# 1 0.065625 0.018869 0.003215 0.000000 0.021848 0.000000
# 2 0.018869 0.019587 -0.002634 0.000000 0.004177 0.000000
# 3 0.003215 -0.002634 0.019598 0.000000 0.009432 0.000000
# 4 0.000000 0.000000 0.000000 0.080901 0.000000 -0.056165
# 5 0.021848 0.004177 0.009432 0.000000 0.043528 0.000000
# 6 0.000000 0.000000 0.000000 -0.056165 0.000000 0.084823
#
#
# Mechanical properties :
#
#
# Convention : Reuss Voigt Hill
#
# Bulk Modulus (GPa) = 6.95846 15.01486 10.98666
# Shear Modulus (GPa) = 15.47669 26.41854 20.94761
#
# Velocity S-wave (km/s) = 2.70726 3.53708 3.14962
# Velocity P-wave (km/s) = 3.61492 4.87768 4.29299
#
# Compressibility (1/GPa) = 0.14370997
#
# Stress axis : x y z
#
# Youngs Moduli (GPa) = 15.23809 51.05313 51.02653
#
# Poissons Ratio (x) = -0.96333 -0.16403
# Poissons Ratio (y) = -0.28753 0.13440
# Poissons Ratio (z) = -0.04898 0.13447
#
# Static dielectric constant tensor:
#      x y z
#    x 1.773760 0.000000 -0.008190 
#    y 0.000000 1.742560 0.000000 
#    z -0.008190 0.000000 1.788950 
# 
# From -- ./inp_files/355452.got.cif
#   From: 2010.05.17/outbox.cif.g08.bks.cpg/sg12_178_cif.got.tgz:355452.got - 2010.06.03 13:09:07.
