data_PCOD9200052
_publ_section_title
;
Structure prediction by ZEFSAII (Michael W. Deem and Ramdas Pophale) SiO2 
 PCOD9200052
Probable space group: C 2/M
;
_chemical_formula_sum "Si O2"
_cell_formula_units_Z 48
_cell_length_a 24.516594
_cell_length_b 14.731294
_cell_length_c 15.350306
_cell_angle_alpha 90.000000
_cell_angle_beta 158.430424
_cell_angle_gamma 90.000000
_cell_volume 2038.120923
_symmetry_space_group_name_H-M "C 2/M"
_symmetry_group_IT_number 12
_symmetry_cell_setting 'monoclinic'
loop_
_space_group_symop_operation_xyz
x,y,z
-x,y,-z
-x,-y,-z
x,-y,z
1/2+x,1/2+y,z
1/2-x,1/2+y,-z
1/2-x,1/2-y,-z
1/2+x,1/2-y,z
loop_
_atom_site_type_symbol
_atom_site_label
_atom_site_fract_x
_atom_site_fract_y
_atom_site_fract_z
Si Si1 0.081609 0.393562 0.859010
Si Si2 0.873622 0.815645 0.234199
Si Si3 0.604669 0.111051 0.078429
Si Si4 0.940799 0.889099 0.008319
Si Si5 0.079034 0.109326 0.390815
Si Si6 0.612215 0.890811 0.584769
O O1 0.044488 0.500000 0.802219
O O2 0.256365 0.382998 0.105484
O O3 0.045752 0.354599 0.899377
O O4 0.984299 0.352675 0.638119
O O5 0.953558 0.860343 0.271000
O O6 0.000000 0.798921 0.500000
O O7 0.750000 0.750000 0.000000
O O8 0.767741 0.143449 0.342405
O O9 0.607409 0.000000 0.077903
O O10 0.500000 0.137778 0.000000
O O11 0.780179 0.859043 0.811630
O O12 0.931807 0.000000 0.989563
O O13 0.054054 0.864443 0.253627
O O14 0.000000 0.860121 0.000000
O O15 0.081837 0.000000 0.395164
O O16 0.500000 0.875408 0.500000
O O17 0.626432 0.000000 0.607003
#
# Coordination Sequence:
#
# PCOD9200052 Si02
#       6
#     8   8   8   8   8   8
#     4  10  20  36  63  92 118 152 200 254 307 365
#     4  12  26  43  63  90 124 165 208 262 319 377
#     4   9  18  31  56  94 125 149 188 250 311 360
#     4   9  18  30  50  86 130 164 191 237 305 377
#     4  10  20  37  64  93 123 159 206 259 311 368
#     4   9  17  29  47  77 116 154 191 235 292 355
#
# _framework density 23.551105
#
# number of rings (size 3 to 8) (size 9 to 14) (size 15 to 20)
#    0.000    2.167    1.667    1.500    2.333    5.333 
#    0.000    0.000    0.000    2.500    0.000    0.000 
#    0.000    0.000    0.000    0.000    0.000    0.000 
#
# Total GULP energy -133704.826462 kJ/mol
# GULP energy per Si atom -5571.034436 kJ/mol
# Density = 2.349750 g / cm^3
# Si number density = 23.551105 Si / 1000 Ang^3
#
#
#
# Elastic Constant Matrix: (Units=GPa)
#
#
# Indices 1 2 3 4 5 6 
#
# 1 213.7189 -8.6850 56.8999 0.0000 -29.9593 0.0000
# 2 -8.6850 36.3389 -0.2485 0.0000 -11.6244 0.0000
# 3 56.8999 -0.2485 102.5796 0.0000 -27.1470 0.0000
# 4 0.0000 0.0000 0.0000 14.3223 0.0000 -19.6418
# 5 -29.9593 -11.6244 -27.1470 0.0000 48.7620 0.0000
# 6 0.0000 0.0000 0.0000 -19.6418 0.0000 37.0727
#
#
#
# Elastic Compliance Matrix: (Units=1/GPa)
#
#
# Indices 1 2 3 4 5 6 
#
# 1 0.005817 0.002242 -0.002503 0.000000 0.002715 0.000000
# 2 0.002242 0.031120 0.001360 0.000000 0.009553 0.000000
# 3 -0.002503 0.001360 0.012688 0.000000 0.005851 0.000000
# 4 0.000000 0.000000 0.000000 0.255386 0.000000 0.135309
# 5 0.002715 0.009553 0.005851 0.000000 0.027710 0.000000
# 6 0.000000 0.000000 0.000000 0.135309 0.000000 0.098663
#
#
# Mechanical properties :
#
#
# Convention : Reuss Voigt Hill
#
# Bulk Modulus (GPa) = 19.29634 49.84114 34.56874
# Shear Modulus (GPa) = 11.19918 40.34280 25.77099
#
# Velocity S-wave (km/s) = 2.18302 4.14332 3.31155
# Velocity P-wave (km/s) = 3.81645 6.64066 5.41589
#
# Compressibility (1/GPa) = 0.05182330
#
# Stress axis : x y z
#
# Youngs Moduli (GPa) = 171.90843 32.13401 78.81247
#
# Poissons Ratio (x) = -0.07203 0.19724
# Poissons Ratio (y) = -0.38536 -0.10720
# Poissons Ratio (z) = 0.43024 -0.04371
#
# Static dielectric constant tensor:
#      x y z
#    x 1.845270 0.000000 -0.034440 
#    y 0.000000 1.944270 0.000000 
#    z -0.034440 0.000000 1.910430 
# 
# From -- ./inp_files/241877.got.cif
#   From: 2010.05.17/outbox.cif.g08.bks.cpg/sg12_121_cif.got.tgz:241877.got - 2010.06.03 13:09:07.
