data_PCOD9200986
_publ_section_title
;
Structure prediction by ZEFSAII (Michael W. Deem and Ramdas Pophale) SiO2 
 PCOD9200986
Probable space group: C 2/M
;
_chemical_formula_sum "Si O2"
_cell_formula_units_Z 64
_cell_length_a 31.079366
_cell_length_b 8.000505
_cell_length_c 26.782587
_cell_angle_alpha 90.000000
_cell_angle_beta 153.166662
_cell_angle_gamma 90.000000
_cell_volume 3006.080274
_symmetry_space_group_name_H-M "C 2/M"
_symmetry_group_IT_number 12
_symmetry_cell_setting 'monoclinic'
loop_
_space_group_symop_operation_xyz
x,y,z
-x,y,-z
-x,-y,-z
x,-y,z
1/2+x,1/2+y,z
1/2-x,1/2+y,-z
1/2-x,1/2-y,-z
1/2+x,1/2-y,z
loop_
_atom_site_type_symbol
_atom_site_label
_atom_site_fract_x
_atom_site_fract_y
_atom_site_fract_z
Si Si1 0.466944 0.802179 0.246098
Si Si2 0.681641 0.199182 0.474367
Si Si3 0.321546 0.298531 0.417727
Si Si4 0.348148 0.203371 0.826591
Si Si5 0.877304 0.803359 0.050521
Si Si6 0.517263 0.298539 0.574248
Si Si7 0.332108 0.201361 0.194727
Si Si8 0.962236 0.701988 0.038124
O O1 0.574033 0.731978 0.355631
O O2 0.401854 0.732972 0.223243
O O3 0.475569 0.000000 0.264445
O O4 0.414825 0.778505 0.139667
O O5 0.750000 0.250000 0.500000
O O6 0.711792 0.251895 0.561329
O O7 0.677854 0.000000 0.469641
O O8 0.322795 0.500000 0.416473
O O9 0.248573 0.237931 0.299480
O O10 0.428769 0.238243 0.516886
O O11 0.378205 0.258583 0.913187
O O12 0.344452 0.000000 0.824646
O O13 0.437677 0.246973 0.883888
O O14 0.774444 0.736855 0.925962
O O15 0.948361 0.774366 0.078251
O O16 0.868530 0.000000 0.051527
O O17 0.500000 0.239820 0.500000
O O18 0.514595 0.500000 0.570860
O O19 0.617747 0.247988 0.701693
O O20 0.328586 0.000000 0.188662
O O21 0.959326 0.500000 0.038186
#
# Coordination Sequence:
#
# PCOD9200986 Si02
#       8
#     8   8   8   8   8   8   8   8
#     4  10  22  42  63  81 109 152 196 235 282 347
#     4  11  24  41  62  88 119 156 198 240 291 350
#     4  10  20  37  60  88 122 155 194 244 291 342
#     4   8  17  34  58  83 111 151 194 230 273 334
#     4  11  24  37  57  88 117 144 185 241 296 342
#     4  10  22  37  59  92 123 154 196 244 291 341
#     4  10  22  42  61  82 115 152 191 237 290 349
#     4   9  18  36  59  83 112 151 194 232 276 337
#
# _framework density 21.290182000000001
#
# number of rings (size 3 to 8) (size 9 to 14) (size 15 to 20)
#    0.000    2.125    1.250    1.875    3.500    2.750 
#    0.000    1.875    0.000    0.000    0.000    0.000 
#    0.000    0.000    0.000    0.000    0.000    0.000 
#
# Total GULP energy -178741.832218 kJ/mol
# GULP energy per Si atom -5585.682257 kJ/mol
# Density = 2.124172 g / cm^3
# Si number density = 21.290182 Si / 1000 Ang^3
#
#
#
# Elastic Constant Matrix: (Units=GPa)
#
#
# Indices 1 2 3 4 5 6 
#
# 1 46.8154 -4.9262 -19.3766 0.0000 -16.8887 0.0000
# 2 -4.9262 16.7760 -6.5889 0.0000 5.3264 0.0001
# 3 -19.3766 -6.5889 71.7401 0.0000 -13.7707 0.0000
# 4 0.0000 0.0000 0.0000 20.1710 0.0000 -0.4809
# 5 -16.8887 5.3264 -13.7707 0.0000 30.9523 0.0000
# 6 0.0000 0.0001 0.0000 -0.4809 0.0000 14.5974
#
#
#
# Elastic Compliance Matrix: (Units=1/GPa)
#
#
# Indices 1 2 3 4 5 6 
#
# 1 0.038944 0.009366 0.016563 0.000000 0.027006 0.000000
# 2 0.009366 0.066404 0.008109 0.000000 -0.002709 0.000000
# 3 0.016563 0.008109 0.022550 0.000000 0.017674 0.000000
# 4 0.000000 0.000000 0.000000 0.049615 0.000000 0.001635
# 5 0.027006 -0.002709 0.017674 0.000000 0.055373 0.000000
# 6 0.000000 0.000000 0.000000 0.001635 0.000000 0.068559
#
#
# Mechanical properties :
#
#
# Convention : Reuss Voigt Hill
#
# Bulk Modulus (GPa) = 5.10276 8.17202 6.63739
# Shear Modulus (GPa) = 16.73951 24.22569 20.48260
#
# Velocity S-wave (km/s) = 2.80707 3.37691 3.10509
# Velocity P-wave (km/s) = 3.59279 4.36479 3.99747
#
# Compressibility (1/GPa) = 0.19597252
#
# Stress axis : x y z
#
# Youngs Moduli (GPa) = 25.67811 15.05929 44.34585
#
# Poissons Ratio (x) = -0.14105 -0.73448
# Poissons Ratio (y) = -0.24051 -0.35958
# Poissons Ratio (z) = -0.42530 -0.12211
#
# Static dielectric constant tensor:
#      x y z
#    x 1.772140 0.000000 0.018570 
#    y 0.000000 1.761970 0.000000 
#    z 0.018570 0.000000 1.771810 
# 
# From -- ./inp_files/249653.got.cif
#   From: 2010.05.17/outbox.cif.g08.bks.cpg/sg12_125_cif.got.tgz:249653.got - 2010.06.03 13:09:07.
