data_PCOD9200088
_publ_section_title
;
Structure prediction by ZEFSAII (Michael W. Deem and Ramdas Pophale) SiO2 
 PCOD9200088
Probable space group: C 2/M
;
_chemical_formula_sum "Si O2"
_cell_formula_units_Z 56
_cell_length_a 8.728353
_cell_length_b 25.451051
_cell_length_c 19.545325
_cell_angle_alpha 90.000000
_cell_angle_beta 141.637481
_cell_angle_gamma 90.000000
_cell_volume 2694.741867
_symmetry_space_group_name_H-M "C 2/M"
_symmetry_group_IT_number 12
_symmetry_cell_setting 'monoclinic'
loop_
_space_group_symop_operation_xyz
x,y,z
-x,y,-z
-x,-y,-z
x,-y,z
1/2+x,1/2+y,z
1/2-x,1/2+y,-z
1/2-x,1/2-y,-z
1/2+x,1/2-y,z
loop_
_atom_site_type_symbol
_atom_site_label
_atom_site_fract_x
_atom_site_fract_y
_atom_site_fract_z
Si Si1 0.293154 0.559126 0.098261
Si Si2 0.382055 0.825468 0.781102
Si Si3 0.507064 0.161767 0.577718
Si Si4 0.371062 0.651679 0.026518
Si Si5 0.518794 0.395803 0.429132
Si Si6 0.679063 0.441966 0.348373
Si Si7 0.785758 0.723658 0.221723
O O1 0.341839 0.500000 0.088594
O O2 0.405129 0.604299 0.090670
O O3 0.424526 0.562723 0.217448
O O4 0.000000 0.565641 0.000000
O O5 0.230222 0.870445 0.689030
O O6 0.206469 0.785124 0.759528
O O7 0.534014 0.793646 0.776281
O O8 0.584388 0.842967 0.907440
O O9 0.500000 0.187684 0.500000
O O10 0.650005 0.106235 0.615855
O O11 0.638719 0.194141 0.682560
O O12 0.228907 0.149352 0.503543
O O13 0.511882 0.703237 0.104284
O O14 0.500000 0.638676 0.000000
O O15 0.500000 0.415839 0.500000
O O16 0.617413 0.435716 0.406525
O O17 0.782746 0.500000 0.369951
#
# Coordination Sequence:
#
# PCOD9200088 Si02
#       7
#     8   8   8   8   8   8   8
#     4  10  20  36  63  95 125 159 202 251 311 374
#     4  11  25  39  62  90 123 164 212 255 314 370
#     4  10  22  39  64  87 122 161 207 254 306 366
#     4  10  22  41  62  88 127 159 204 260 310 368
#     4  11  23  41  60  90 128 160 204 261 309 361
#     4  10  22  41  66  94 123 164 211 252 308 378
#     4  11  23  41  61  90 121 164 211 258 310 371
#
# _framework density 20.781210999999999
#
# number of rings (size 3 to 8) (size 9 to 14) (size 15 to 20)
#    0.000    1.571    2.857    1.286    4.000    5.429 
#    0.000    0.000    0.000    0.857    0.000    0.000 
#    0.000    0.000    0.000    0.000    0.000    0.000 
#
# Total GULP energy -156412.885843 kJ/mol
# GULP energy per Si atom -5586.174494 kJ/mol
# Density = 2.073391 g / cm^3
# Si number density = 20.781211 Si / 1000 Ang^3
#
#
#
# Elastic Constant Matrix: (Units=GPa)
#
#
# Indices 1 2 3 4 5 6 
#
# 1 32.2364 -5.1585 9.6259 0.0000 -14.6120 0.0000
# 2 -5.1585 28.9156 -4.3222 0.0000 -8.3310 0.0000
# 3 9.6259 -4.3222 119.6112 -0.0001 -3.1422 0.0000
# 4 0.0000 0.0000 -0.0001 15.0026 0.0000 -4.4527
# 5 -14.6120 -8.3310 -3.1422 0.0000 40.3329 0.0000
# 6 0.0000 0.0000 0.0000 -4.4527 0.0000 19.2312
#
#
#
# Elastic Compliance Matrix: (Units=1/GPa)
#
#
# Indices 1 2 3 4 5 6 
#
# 1 0.041543 0.012043 -0.002452 0.000000 0.017347 0.000000
# 2 0.012043 0.040545 0.000832 0.000000 0.012802 0.000000
# 3 -0.002452 0.000832 0.008587 0.000000 -0.000048 0.000000
# 4 0.000000 0.000000 0.000000 0.071574 0.000000 0.016572
# 5 0.017347 0.012802 -0.000048 0.000000 0.033719 0.000000
# 6 0.000000 0.000000 0.000000 0.016572 0.000000 0.055836
#
#
# Mechanical properties :
#
#
# Convention : Reuss Voigt Hill
#
# Bulk Modulus (GPa) = 8.96706 20.11707 14.54207
# Shear Modulus (GPa) = 18.64759 26.95452 22.80106
#
# Velocity S-wave (km/s) = 2.99880 3.60538 3.31599
# Velocity P-wave (km/s) = 4.03915 5.19934 4.65553
#
# Compressibility (1/GPa) = 0.11151925
#
# Stress axis : x y z
#
# Youngs Moduli (GPa) = 24.07143 24.66410 116.46044
#
# Poissons Ratio (x) = -0.29702 0.28560
# Poissons Ratio (y) = -0.28988 -0.09693
# Poissons Ratio (z) = 0.05903 -0.02053
#
# Static dielectric constant tensor:
#      x y z
#    x 1.731780 0.000000 0.027400 
#    y 0.000000 1.737690 0.000000 
#    z 0.027400 0.000000 1.762420 
# 
# From -- ./inp_files/125350.got.cif
#   From: 2010.05.17/outbox.cif.g08.bks.cpg/sg12_63_cif.got.tgz:125350.got - 2010.06.03 13:09:07.
