data_PCOD9200553
_publ_section_title
;
Structure prediction by ZEFSAII (Michael W. Deem and Ramdas Pophale) SiO2 
 PCOD9200553
Probable space group: C 2/M
;
_chemical_formula_sum "Si O2"
_cell_formula_units_Z 40
_cell_length_a 27.075621
_cell_length_b 17.295420
_cell_length_c 7.905374
_cell_angle_alpha 90.000000
_cell_angle_beta 29.986765
_cell_angle_gamma 90.000000
_cell_volume 1850.240400
_symmetry_space_group_name_H-M "C 2/M"
_symmetry_group_IT_number 12
_symmetry_cell_setting 'monoclinic'
loop_
_space_group_symop_operation_xyz
x,y,z
-x,y,-z
-x,-y,-z
x,-y,z
1/2+x,1/2+y,z
1/2-x,1/2+y,-z
1/2-x,1/2-y,-z
1/2+x,1/2-y,z
loop_
_atom_site_type_symbol
_atom_site_label
_atom_site_fract_x
_atom_site_fract_y
_atom_site_fract_z
Si Si1 0.117293 0.632037 0.486390
Si Si2 0.913310 0.214713 0.618224
Si Si3 0.272952 0.798606 0.267138
Si Si4 0.820565 0.909561 0.691435
Si Si5 0.403114 0.086350 0.067646
O O1 0.084253 0.719024 0.532935
O O2 0.127017 0.618726 0.658029
O O3 0.214611 0.604061 0.099556
O O4 0.021132 0.584381 0.715218
O O5 0.901669 0.130981 0.569940
O O6 0.000000 0.218744 0.500000
O O7 0.811512 0.238190 0.014611
O O8 0.250000 0.750000 0.500000
O O9 0.188383 0.854739 0.447074
O O10 0.361925 0.856695 0.048811
O O11 0.835636 0.000000 0.615485
O O12 0.362970 0.000000 0.165302
#
# Coordination Sequence:
#
# PCOD9200553 Si02
#       5
#     8   8   8   8   8
#     4  10  20  37  58  89 121 157 194 237 295 359
#     4  11  22  41  60  84 117 160 203 238 289 354
#     4  11  22  39  60  88 118 156 199 241 294 358
#     4  11  23  39  61  86 119 155 199 248 293 346
#     4  11  20  33  59  92 126 152 187 246 305 349
#
# _framework density 21.618811000000001
#
# number of rings (size 3 to 8) (size 9 to 14) (size 15 to 20)
#    0.000    1.200    2.000    7.800    0.000    0.400 
#    0.000    4.000    0.000    1.200    0.000    0.000 
#    0.000    0.000    0.000    0.000    0.000    0.000 
#
# Total GULP energy -111769.153885 kJ/mol
# GULP energy per Si atom -5588.457694 kJ/mol
# Density = 2.156961 g / cm^3
# Si number density = 21.618811 Si / 1000 Ang^3
#
#
#
# Elastic Constant Matrix: (Units=GPa)
#
#
# Indices 1 2 3 4 5 6 
#
# 1 78.4721 62.1946 -4.3661 0.0000 -8.2551 0.0000
# 2 62.1946 173.3127 16.3804 0.0000 1.4082 0.0000
# 3 -4.3661 16.3804 21.4620 0.0000 6.9544 0.0000
# 4 0.0000 0.0000 0.0000 18.3836 0.0000 -7.1258
# 5 -8.2551 1.4082 6.9544 0.0000 25.0287 0.0000
# 6 0.0000 0.0000 0.0000 -7.1258 0.0000 22.5237
#
#
#
# Elastic Compliance Matrix: (Units=1/GPa)
#
#
# Indices 1 2 3 4 5 6 
#
# 1 0.020134 -0.008091 0.008761 0.000000 0.004662 0.000000
# 2 -0.008091 0.009496 -0.008633 0.000000 -0.000804 0.000000
# 3 0.008761 -0.008633 0.059202 0.000000 -0.013074 0.000000
# 4 0.000000 0.000000 0.000000 0.061999 0.000000 0.019615
# 5 0.004662 -0.000804 -0.013074 0.000000 0.045170 0.000000
# 6 0.000000 0.000000 0.000000 0.019615 0.000000 0.050603
#
#
# Mechanical properties :
#
#
# Convention : Reuss Voigt Hill
#
# Bulk Modulus (GPa) = 13.71650 46.85160 30.28405
# Shear Modulus (GPa) = 17.43179 26.45640 21.94409
#
# Velocity S-wave (km/s) = 2.84267 3.50203 3.18944
# Velocity P-wave (km/s) = 4.13918 6.17017 5.25375
#
# Compressibility (1/GPa) = 0.07290489
#
# Stress axis : x y z
#
# Youngs Moduli (GPa) = 49.66716 105.30805 16.89144
#
# Poissons Ratio (x) = 0.85206 -0.14798
# Poissons Ratio (y) = 0.40186 0.14582
# Poissons Ratio (z) = -0.43512 0.90912
#
# Static dielectric constant tensor:
#      x y z
#    x 1.807770 0.000000 -0.004810 
#    y 0.000000 1.797600 0.000000 
#    z -0.004810 0.000000 1.800360 
# 
# From -- ./inp_files/61371.got.cif
#   From: 2010.05.17/outbox.cif.g08.bks.cpg/sg12_31_cif.got.tgz:61371.got - 2010.06.03 13:09:07.
