data_PCOD9200253
_publ_section_title
;
Structure prediction by ZEFSAII (Michael W. Deem and Ramdas Pophale) SiO2 
 PCOD9200253
Probable space group: C 2/M
;
_chemical_formula_sum "Si O2"
_cell_formula_units_Z 64
_cell_length_a 13.932591
_cell_length_b 27.233031
_cell_length_c 16.075532
_cell_angle_alpha 90.000000
_cell_angle_beta 146.715528
_cell_angle_gamma 90.000000
_cell_volume 3347.375115
_symmetry_space_group_name_H-M "C 2/M"
_symmetry_group_IT_number 12
_symmetry_cell_setting 'monoclinic'
loop_
_space_group_symop_operation_xyz
x,y,z
-x,y,-z
-x,-y,-z
x,-y,z
1/2+x,1/2+y,z
1/2-x,1/2+y,-z
1/2-x,1/2-y,-z
1/2+x,1/2-y,z
loop_
_atom_site_type_symbol
_atom_site_label
_atom_site_fract_x
_atom_site_fract_y
_atom_site_fract_z
Si Si1 0.311311 0.202886 0.846614
Si Si2 0.311967 0.773124 0.654517
Si Si3 0.753312 0.165702 0.548361
Si Si4 0.710024 0.792858 0.885238
Si Si5 0.862248 0.146124 0.147096
Si Si6 0.612915 0.443233 0.161396
Si Si7 0.893313 0.388903 0.283067
Si Si8 0.745757 0.944307 0.978084
O O1 0.289773 0.214908 0.734866
O O2 0.302773 0.251001 0.899265
O O3 0.172214 0.167056 0.786684
O O4 0.500000 0.180051 0.000000
O O5 0.231299 0.814653 0.535761
O O6 0.234635 0.718778 0.581032
O O7 0.516619 0.775519 0.774449
O O8 0.592056 0.128316 0.439943
O O9 0.929969 0.140967 0.708173
O O10 0.693714 0.838674 0.811549
O O11 0.806671 0.814199 0.036198
O O12 0.739601 0.099260 0.040330
O O13 0.665965 0.500000 0.186420
O O14 0.786983 0.410778 0.284158
O O15 0.456233 0.444200 0.113644
O O16 0.500000 0.425722 0.000000
O O17 0.858384 0.426584 0.180390
O O18 0.695423 0.000000 0.962901
#
# Coordination Sequence:
#
# PCOD9200253 Si02
#       8
#     8   8   8   8   8   8   8   8
#     4  12  22  34  61  85 110 161 202 246 292 338
#     4  10  21  39  55  79 123 163 208 234 288 351
#     4  10  21  37  54  81 125 163 191 245 287 356
#     4  10  20  37  55  84 118 157 203 251 282 340
#     4  11  21  37  58  85 119 150 205 249 295 352
#     4   8  14  29  54  85 112 142 191 242 293 353
#     4   9  18  32  55  83 116 155 196 233 297 362
#     4   9  19  37  63  85 113 153 197 259 308 347
#
# _framework density 19.119458000000002
#
# number of rings (size 3 to 8) (size 9 to 14) (size 15 to 20)
#    0.000    2.125    2.500    2.250    0.000    4.000 
#    0.000    4.375    0.000    1.875    0.000    0.875 
#    0.000    0.000    0.000    0.000    0.000    0.000 
#
# Total GULP energy -178288.334783 kJ/mol
# GULP energy per Si atom -5571.510462 kJ/mol
# Density = 1.907594 g / cm^3
# Si number density = 19.119458 Si / 1000 Ang^3
#
#
#
# Elastic Constant Matrix: (Units=GPa)
#
#
# Indices 1 2 3 4 5 6 
#
# 1 71.7800 17.8150 29.1629 0.0000 -5.0161 -0.0001
# 2 17.8150 80.8593 29.7829 0.0000 2.1593 0.0000
# 3 29.1629 29.7829 98.0256 0.0000 2.7916 -0.0001
# 4 0.0000 0.0000 0.0000 23.6586 0.0000 9.7216
# 5 -5.0161 2.1593 2.7916 0.0000 28.0464 0.0000
# 6 -0.0001 0.0000 -0.0001 9.7216 0.0000 18.2606
#
#
#
# Elastic Compliance Matrix: (Units=1/GPa)
#
#
# Indices 1 2 3 4 5 6 
#
# 1 0.016476 -0.002119 -0.004359 0.000000 0.003544 0.000000
# 2 -0.002119 0.014210 -0.003655 0.000000 -0.001109 0.000000
# 3 -0.004359 -0.003655 0.012659 0.000000 -0.001758 0.000000
# 4 0.000000 0.000000 0.000000 0.054104 0.000000 -0.028804
# 5 0.003544 -0.001109 -0.001758 0.000000 0.036549 0.000000
# 6 0.000000 0.000000 0.000000 -0.028804 0.000000 0.070097
#
#
# Mechanical properties :
#
#
# Convention : Reuss Voigt Hill
#
# Bulk Modulus (GPa) = 43.33071 44.90961 44.12016
# Shear Modulus (GPa) = 21.54668 25.58672 23.56670
#
# Velocity S-wave (km/s) = 3.36065 3.66219 3.51465
# Velocity P-wave (km/s) = 6.14581 6.43600 6.29258
#
# Compressibility (1/GPa) = 0.02307832
#
# Stress axis : x y z
#
# Youngs Moduli (GPa) = 60.69468 70.37274 78.99639
#
# Poissons Ratio (x) = 0.14913 0.34432
# Poissons Ratio (y) = 0.12862 0.28876
# Poissons Ratio (z) = 0.26455 0.25724
#
# Static dielectric constant tensor:
#      x y z
#    x 1.708720 0.000000 0.006190 
#    y 0.000000 1.701330 0.000000 
#    z 0.006190 0.000000 1.715730 
# 
# From -- ./inp_files/209881.got.cif
#   From: 2010.05.17/outbox.cif.g08.bks.cpg/sg12_105_cif.got.tgz:209881.got - 2010.06.03 13:09:07.
