data_PCOD9200847
_publ_section_title
;
Structure prediction by ZEFSAII (Michael W. Deem and Ramdas Pophale) SiO2 
 PCOD9200847
Probable space group: C 2/M
;
_chemical_formula_sum "Si O2"
_cell_formula_units_Z 44
_cell_length_a 26.311585
_cell_length_b 14.930476
_cell_length_c 19.880003
_cell_angle_alpha 90.000000
_cell_angle_beta 162.308755
_cell_angle_gamma 90.000000
_cell_volume 2373.285185
_symmetry_space_group_name_H-M "C 2/M"
_symmetry_group_IT_number 12
_symmetry_cell_setting 'monoclinic'
loop_
_space_group_symop_operation_xyz
x,y,z
-x,y,-z
-x,-y,-z
x,-y,z
1/2+x,1/2+y,z
1/2-x,1/2+y,-z
1/2-x,1/2-y,-z
1/2+x,1/2-y,z
loop_
_atom_site_type_symbol
_atom_site_label
_atom_site_fract_x
_atom_site_fract_y
_atom_site_fract_z
Si Si1 0.350022 0.000000 0.982263
Si Si2 0.221236 0.177687 0.051442
Si Si3 0.144481 0.000000 0.585460
Si Si4 0.137264 0.840222 0.347646
Si Si5 0.966583 0.000000 0.877743
Si Si6 0.144311 0.857629 0.798578
Si Si7 0.182219 0.500000 0.759621
Si Si8 0.219279 0.500000 0.386331
O O1 0.233830 0.000000 0.769556
O O2 0.297603 0.915082 0.961313
O O3 0.537887 0.000000 0.192179
O O4 0.345341 0.259724 0.219600
O O5 0.302881 0.087135 0.177120
O O6 0.169688 0.161544 0.909208
O O7 0.051381 0.192304 0.878563
O O8 0.021268 0.914734 0.423540
O O9 0.271078 0.000000 0.682143
O O10 0.250000 0.750000 0.500000
O O11 0.127714 0.909366 0.270411
O O12 0.187046 0.911498 0.468410
O O13 0.000000 0.000000 0.000000
O O14 0.152524 0.000000 0.079176
O O15 0.000000 0.500000 0.500000
#
# Coordination Sequence:
#
# PCOD9200847 Si02
#       8
#     4   8   4   8   4   8   4   4
#     4  11  23  35  57  88 122 149 188 242 294 354
#     4  10  20  38  61  84 114 154 198 249 281 354
#     4  11  21  39  59  84 120 156 186 237 309 350
#     4  10  20  39  66  86 120 163 207 241 304 360
#     4   9  21  43  61  89 126 159 202 263 300 355
#     4  10  20  37  60  84 113 149 203 237 294 339
#     4  10  21  38  58  83 119 157 192 236 311 352
#     4  11  21  39  58  88 120 158 200 242 291 367
#
# _framework density 18.539701000000001
#
# number of rings (size 3 to 8) (size 9 to 14) (size 15 to 20)
#    0.000    1.818    1.818    4.091    0.000    1.455 
#   13.091    5.455    0.000    0.000    0.000    0.000 
#    0.000    0.000    0.000    0.000    0.000    0.000 
#
# Total GULP energy -122550.530471 kJ/mol
# GULP energy per Si atom -5570.478658 kJ/mol
# Density = 1.849750 g / cm^3
# Si number density = 18.539701 Si / 1000 Ang^3
#
#
#
# Elastic Constant Matrix: (Units=GPa)
#
#
# Indices 1 2 3 4 5 6 
#
# 1 47.6354 20.3825 -16.8259 0.0006 -1.1394 0.0008
# 2 20.3825 150.5050 20.4896 -0.0007 -3.0811 0.0009
# 3 -16.8259 20.4896 46.0808 0.0014 3.1493 0.0012
# 4 0.0006 -0.0007 0.0014 99.7924 0.0006 -10.7283
# 5 -1.1394 -3.0811 3.1493 0.0006 28.2216 0.0009
# 6 0.0008 0.0009 0.0012 -10.7283 0.0009 13.5779
#
#
#
# Elastic Compliance Matrix: (Units=1/GPa)
#
#
# Indices 1 2 3 4 5 6 
#
# 1 0.027799 -0.005507 0.012660 -0.000001 -0.000892 -0.000003
# 2 -0.005507 0.008199 -0.005746 0.000000 0.001314 0.000000
# 3 0.012660 -0.005746 0.029109 -0.000001 -0.003364 -0.000003
# 4 -0.000001 0.000000 -0.000001 0.010951 0.000000 0.008653
# 5 -0.000892 0.001314 -0.003364 0.000000 0.035917 -0.000002
# 6 -0.000003 0.000000 -0.000003 0.008653 -0.000002 0.080486
#
#
# Mechanical properties :
#
#
# Convention : Reuss Voigt Hill
#
# Bulk Modulus (GPa) = 14.72280 32.47928 23.60104
# Shear Modulus (GPa) = 23.55301 42.99673 33.27487
#
# Velocity S-wave (km/s) = 3.56815 4.82100 4.24109
# Velocity P-wave (km/s) = 4.99340 6.96751 6.06136
#
# Compressibility (1/GPa) = 0.06792189
#
# Stress axis : x y z
#
# Youngs Moduli (GPa) = 35.97190 121.96278 34.35407
#
# Poissons Ratio (x) = 0.67160 -0.43493
# Poissons Ratio (y) = 0.19808 0.19741
# Poissons Ratio (z) = -0.45541 0.70082
#
# Static dielectric constant tensor:
#      x y z
#    x 1.663330 0.000000 -0.007990 
#    y 0.000000 1.663200 0.000000 
#    z -0.007990 0.000000 1.724630 
# 
# From -- ./inp_files/73176.got.cif
#   From: 2010.05.17/outbox.cif.g08.bks.cpg/sg12_37_cif.got.tgz:73176.got - 2010.06.03 13:09:07.
