data_PCOD9200956
_publ_section_title
;
Structure prediction by ZEFSAII (Michael W. Deem and Ramdas Pophale) SiO2 
 PCOD9200956
Probable space group: C 2/M
;
_chemical_formula_sum "Si O2"
_cell_formula_units_Z 58
_cell_length_a 20.133623
_cell_length_b 7.560356
_cell_length_c 18.495703
_cell_angle_alpha 90.000000
_cell_angle_beta 100.503520
_cell_angle_gamma 90.000000
_cell_volume 2768.191928
_symmetry_space_group_name_H-M "C 2/M"
_symmetry_group_IT_number 12
_symmetry_cell_setting 'monoclinic'
loop_
_space_group_symop_operation_xyz
x,y,z
-x,y,-z
-x,-y,-z
x,-y,z
1/2+x,1/2+y,z
1/2-x,1/2+y,-z
1/2-x,1/2-y,-z
1/2+x,1/2-y,z
loop_
_atom_site_type_symbol
_atom_site_label
_atom_site_fract_x
_atom_site_fract_y
_atom_site_fract_z
Si Si1 0.683924 0.792350 0.707974
Si Si2 0.736509 0.789847 0.414217
Si Si3 0.318030 0.285012 0.815150
Si Si4 0.677448 0.288982 0.020221
Si Si5 0.956541 0.715305 0.258975
Si Si6 0.396918 0.208692 0.689432
Si Si7 0.043094 0.207366 0.910026
Si Si8 0.000000 0.500000 0.000000
O O1 0.705842 0.774547 0.629241
O O2 0.746330 0.720867 0.768031
O O3 0.610686 0.720631 0.713816
O O4 0.681408 0.000000 0.724724
O O5 0.750000 0.750000 0.500000
O O6 0.664655 0.716932 0.370661
O O7 0.734632 0.000000 0.405048
O O8 0.317669 0.500000 0.816281
O O9 0.326320 0.221007 0.898558
O O10 0.374381 0.231841 0.768346
O O11 0.671084 0.500000 0.022129
O O12 0.750000 0.250000 0.000000
O O13 0.614858 0.228768 0.958739
O O14 0.957819 0.500000 0.261060
O O15 0.953286 0.771103 0.174891
O O16 0.027770 0.779985 0.305240
O O17 0.399971 0.000000 0.674514
O O18 0.991607 0.342205 0.936514
O O19 0.030397 0.000000 0.924016
#
# Coordination Sequence:
#
# PCOD9200956 Si02
#       8
#     8   8   8   8   8   8   8   2
#     4   9  18  34  59  85 111 150 192 229 286 354
#     4  10  20  37  60  87 117 148 187 234 283 347
#     4   9  18  33  52  75 105 141 185 234 284 339
#     4  10  22  36  54  80 111 147 197 252 303 359
#     4  10  20  38  60  83 116 156 193 241 302 357
#     4   9  20  35  56  84 109 142 187 230 280 345
#     4  11  25  40  59  88 117 159 212 259 310 371
#     4  12  26  44  60  78 120 168 208 258 324 364
#
# _framework density 20.952304999999999
#
# number of rings (size 3 to 8) (size 9 to 14) (size 15 to 20)
#    0.000    2.207    0.690    1.448    2.897    3.310 
#    0.000    3.448    0.000    4.138    0.000    0.000 
#    0.000    0.000    0.000    0.000    0.000    0.000 
#
# Total GULP energy -161720.172861 kJ/mol
# GULP energy per Si atom -5576.557685 kJ/mol
# Density = 2.090462 g / cm^3
# Si number density = 20.952305 Si / 1000 Ang^3
#
#
#
# Elastic Constant Matrix: (Units=GPa)
#
#
# Indices 1 2 3 4 5 6 
#
# 1 149.4633 7.2728 55.0079 0.0000 -5.6996 0.0000
# 2 7.2728 74.2182 -8.4510 0.0000 -0.1563 0.0000
# 3 55.0079 -8.4510 111.1189 0.0000 5.2779 0.0000
# 4 0.0000 0.0000 0.0000 21.5055 0.0000 -3.9283
# 5 -5.6996 -0.1563 5.2779 0.0000 17.2567 0.0000
# 6 0.0000 0.0000 0.0000 -3.9283 0.0000 11.1748
#
#
#
# Elastic Compliance Matrix: (Units=1/GPa)
#
#
# Indices 1 2 3 4 5 6 
#
# 1 0.008595 -0.001352 -0.004558 0.000000 0.004221 0.000000
# 2 -0.001352 0.013805 0.001760 0.000000 -0.000860 0.000000
# 3 -0.004558 0.001760 0.011629 0.000000 -0.005046 0.000000
# 4 0.000000 0.000000 0.000000 0.049690 0.000000 0.017468
# 5 0.004221 -0.000860 -0.005046 0.000000 0.060878 0.000000
# 6 0.000000 0.000000 0.000000 0.017468 0.000000 0.095628
#
#
# Mechanical properties :
#
#
# Convention : Reuss Voigt Hill
#
# Bulk Modulus (GPa) = 38.86708 49.16219 44.01464
# Shear Modulus (GPa) = 19.44752 28.71879 24.08316
#
# Velocity S-wave (km/s) = 3.04991 3.70628 3.39400
# Velocity P-wave (km/s) = 5.56715 6.46762 6.03421
#
# Compressibility (1/GPa) = 0.02572871
#
# Stress axis : x y z
#
# Youngs Moduli (GPa) = 116.34806 72.43791 85.98930
#
# Poissons Ratio (x) = 0.09796 0.39195
# Poissons Ratio (y) = 0.15734 -0.15136
# Poissons Ratio (z) = 0.53033 -0.12751
#
# Static dielectric constant tensor:
#      x y z
#    x 1.837330 0.000000 0.040180 
#    y 0.000000 1.800040 0.000000 
#    z 0.040180 0.000000 1.690020 
# 
# From -- ./inp_files/275394.got.cif
#   From: 2010.05.17/outbox.cif.g08.bks.cpg/sg12_138_cif.got.tgz:275394.got - 2010.06.03 13:09:07.
