data_PCOD9200059
_publ_section_title
;
Structure prediction by ZEFSAII (Michael W. Deem and Ramdas Pophale) SiO2 
 PCOD9200059
Probable space group: C 2/M
;
_chemical_formula_sum "Si O2"
_cell_formula_units_Z 56
_cell_length_a 9.183202
_cell_length_b 18.254512
_cell_length_c 26.865222
_cell_angle_alpha 90.000000
_cell_angle_beta 38.475114
_cell_angle_gamma 90.000000
_cell_volume 2801.993453
_symmetry_space_group_name_H-M "C 2/M"
_symmetry_group_IT_number 12
_symmetry_cell_setting 'monoclinic'
loop_
_space_group_symop_operation_xyz
x,y,z
-x,y,-z
-x,-y,-z
x,-y,z
1/2+x,1/2+y,z
1/2-x,1/2+y,-z
1/2-x,1/2-y,-z
1/2+x,1/2-y,z
loop_
_atom_site_type_symbol
_atom_site_label
_atom_site_fract_x
_atom_site_fract_y
_atom_site_fract_z
Si Si1 0.857187 0.847366 0.850826
Si Si2 0.270876 0.500000 0.918546
Si Si3 0.639497 0.172720 0.514540
Si Si4 0.034635 0.640255 0.207698
Si Si5 0.613175 0.247162 0.841963
Si Si6 0.140971 0.000000 0.909508
Si Si7 0.214686 0.910388 0.678728
Si Si8 0.540129 0.415726 0.359288
O O1 0.649606 0.806620 0.878053
O O2 0.902237 0.803050 0.889495
O O3 0.086210 0.858240 0.753992
O O4 0.811013 0.929471 0.875439
O O5 0.443738 0.500000 0.919284
O O6 0.000000 0.500000 0.000000
O O7 0.500000 0.181933 0.500000
O O8 0.750000 0.250000 0.500000
O O9 0.460977 0.128479 0.598481
O O10 0.865866 0.125160 0.441934
O O11 0.174027 0.695148 0.207047
O O12 0.198620 0.573933 0.142075
O O13 0.925512 0.693080 0.194251
O O14 0.808675 0.605888 0.293461
O O15 0.000000 0.000000 0.000000
O O16 0.049675 0.904801 0.673711
O O17 0.235194 0.000000 0.684343
O O18 0.514330 0.500000 0.376480
#
# Coordination Sequence:
#
# PCOD9200059 Si02
#       8
#     8   4   8   8   8   4   8   8
#     4  11  22  43  67  98 130 176 221 267 327 388
#     4  12  28  48  72 101 132 169 217 270 325 394
#     4  10  23  37  57  89 129 170 218 275 329 381
#     4  11  22  43  67  98 130 176 221 267 327 388
#     4  10  24  38  67  97 138 168 218 270 324 393
#     4  12  28  48  72 101 132 169 217 270 325 394
#     4  10  20  36  63  92 127 170 226 272 324 382
#     4  10  20  36  63  92 127 170 226 272 324 382
#
# _framework density 19.985772000000001
#
# number of rings (size 3 to 8) (size 9 to 14) (size 15 to 20)
#    0.000    1.429    4.286    0.429    6.000    1.714 
#    0.000    4.286    0.000    0.857    0.000    0.000 
#    0.000    0.000    0.000    0.000    0.000    0.000 
#
# Total GULP energy -155900.662353 kJ/mol
# GULP energy per Si atom -5567.880798 kJ/mol
# Density = 1.994028 g / cm^3
# Si number density = 19.985772 Si / 1000 Ang^3
#
#
#
# Elastic Constant Matrix: (Units=GPa)
#
#
# Indices 1 2 3 4 5 6 
#
# 1 90.7894 57.2275 32.0960 -0.6779 -12.9804 0.0470
# 2 57.2275 146.0081 32.8480 -2.0498 -8.1841 0.1487
# 3 32.0960 32.8480 82.6442 -5.8463 -13.6017 0.4181
# 4 -0.6779 -2.0498 -5.846312152.6264 0.9308 -867.1831
# 5 -12.9804 -8.1841 -13.6017 0.9308 7.7268 -0.0647
# 6 0.0470 0.1487 0.4181 -867.1831 -0.0647 99.5931
#
#
#
# Elastic Compliance Matrix: (Units=1/GPa)
#
#
# Indices 1 2 3 4 5 6 
#
# 1 0.018178 -0.005607 -0.001102 -0.000002 0.022659 0.000000
# 2 -0.005607 0.009331 -0.002048 0.000000 -0.003141 -0.000001
# 3 -0.001102 -0.002048 0.017853 0.000006 0.027405 -0.000002
# 4 -0.000002 0.000000 0.000006 0.000217 -0.000003 0.001892
# 5 0.022659 -0.003141 0.027405 -0.000003 0.212400 -0.000009
# 6 0.000000 -0.000001 -0.000002 0.001892 -0.000009 0.026516
#
#
# Mechanical properties :
#
#
# Convention : Reuss Voigt Hill
#
# Bulk Modulus (GPa) = 35.90940 62.64273 49.27606
# Shear Modulus (GPa) = 16.06210 2465.14062 1240.60136
#
# Velocity S-wave (km/s) = 2.83799 35.15858 24.94173
# Velocity P-wave (km/s) = 5.36148 40.98267 29.22605
#
# Compressibility (1/GPa) = 0.02784786
#
# Stress axis : x y z
#
# Youngs Moduli (GPa) = 55.01215 107.16699 56.01299
#
# Poissons Ratio (x) = 0.60086 0.06173
# Poissons Ratio (y) = 0.30844 0.11473
# Poissons Ratio (z) = 0.06063 0.21951
#
# Static dielectric constant tensor:
#      x y z
#    x 1.738180 0.000000 0.017970 
#    y 0.000000 1.718860 0.000000 
#    z 0.017970 0.000000 1.686270 
# 
# From -- ./inp_files/356692.got.cif
#   From: 2010.05.17/outbox.cif.g08.bks.cpg/sg12_179_cif.got.tgz:356692.got - 2010.06.03 13:09:07.
