data_PCOD9200527
_publ_section_title
;
Structure prediction by ZEFSAII (Michael W. Deem and Ramdas Pophale) SiO2 
 PCOD9200527
Probable space group: C 2/M
;
_chemical_formula_sum "Si O2"
_cell_formula_units_Z 56
_cell_length_a 8.631317
_cell_length_b 27.535023
_cell_length_c 13.647566
_cell_angle_alpha 90.000000
_cell_angle_beta 118.859675
_cell_angle_gamma 90.000000
_cell_volume 2840.696653
_symmetry_space_group_name_H-M "C 2/M"
_symmetry_group_IT_number 12
_symmetry_cell_setting 'monoclinic'
loop_
_space_group_symop_operation_xyz
x,y,z
-x,y,-z
-x,-y,-z
x,-y,z
1/2+x,1/2+y,z
1/2-x,1/2+y,-z
1/2-x,1/2-y,-z
1/2+x,1/2-y,z
loop_
_atom_site_type_symbol
_atom_site_label
_atom_site_fract_x
_atom_site_fract_y
_atom_site_fract_z
Si Si1 0.992767 0.590017 0.611337
Si Si2 0.011452 0.445985 0.185289
Si Si3 0.647237 0.556771 0.960870
Si Si4 0.848475 0.202294 0.369684
Si Si5 0.870511 0.891664 0.243840
Si Si6 0.980175 0.303421 0.376137
Si Si7 0.358991 0.445390 0.541556
O O1 0.043795 0.556615 0.717165
O O2 0.084951 0.641480 0.659296
O O3 0.779763 0.592227 0.547409
O O4 0.000000 0.573939 0.500000
O O5 0.076342 0.500000 0.183618
O O6 0.177711 0.411744 0.217274
O O7 0.841221 0.436362 0.067267
O O8 0.637965 0.500000 0.922020
O O9 0.621720 0.596680 0.868902
O O10 0.500000 0.561370 0.000000
O O11 0.877874 0.161136 0.296470
O O12 0.661943 0.200480 0.370409
O O13 0.000000 0.197307 0.500000
O O14 0.867171 0.255213 0.324479
O O15 0.035373 0.922510 0.336817
O O16 0.000000 0.302975 0.500000
O O17 0.500000 0.451279 0.500000
O O18 0.287202 0.500000 0.539549
#
# Coordination Sequence:
#
# PCOD9200527 Si02
#       7
#     8   8   8   8   8   8   8
#     4  11  23  37  57  91 127 162 197 245 306 365
#     4  11  22  40  63  87 122 164 205 246 297 369
#     4  10  24  44  63  88 119 160 213 258 300 357
#     4  11  21  37  60  92 125 161 204 252 309 362
#     4  12  22  38  62  90 119 161 208 254 304 365
#     4  10  20  37  58  85 124 163 201 249 298 362
#     4  11  21  34  54  85 127 162 194 239 300 369
#
# _framework density 19.713476
#
# number of rings (size 3 to 8) (size 9 to 14) (size 15 to 20)
#    0.000    1.143    2.857    5.143    2.000    3.429 
#    0.000    0.000    0.000    0.857    0.000    0.000 
#    0.000    0.000    0.000    0.000    0.000    0.000 
#
# Total GULP energy -156063.863395 kJ/mol
# GULP energy per Si atom -5573.709407 kJ/mol
# Density = 1.966861 g / cm^3
# Si number density = 19.713476 Si / 1000 Ang^3
#
#
#
# Elastic Constant Matrix: (Units=GPa)
#
#
# Indices 1 2 3 4 5 6 
#
# 1 50.5255 24.0390 10.2834 0.0000 -25.2476 0.0000
# 2 24.0390 102.6370 32.6669 0.0000 -3.6856 0.0000
# 3 10.2834 32.6669 77.0701 0.0000 -13.8917 0.0000
# 4 0.0000 0.0000 0.0000 -11.1253 0.0000 -4.1719
# 5 -25.2476 -3.6856 -13.8917 0.0000 26.2933 0.0000
# 6 0.0000 0.0000 0.0000 -4.1719 0.0000 27.8761
#
#
#
# Elastic Compliance Matrix: (Units=1/GPa)
#
#
# Indices 1 2 3 4 5 6 
#
# 1 0.048168 -0.011879 0.007344 0.000000 0.048468 0.000000
# 2 -0.011879 0.014218 -0.006784 0.000000 -0.012998 0.000000
# 3 0.007344 -0.006784 0.017651 0.000000 0.015427 0.000000
# 4 0.000000 0.000000 0.000000 -0.085109 0.000000 -0.012737
# 5 0.048468 -0.012998 0.015427 0.000000 0.090901 0.000000
# 6 0.000000 0.000000 0.000000 -0.012737 0.000000 0.033967
#
#
# Mechanical properties :
#
#
# Convention : Reuss Voigt Hill
#
# Bulk Modulus (GPa) = 17.42168 40.46792 28.94480
# Shear Modulus (GPa) = 30.94676 19.49168 25.21922
#
# Velocity S-wave (km/s) = 3.96640 3.14785 3.58059
# Velocity P-wave (km/s) = 5.46197 5.81245 5.63993
#
# Compressibility (1/GPa) = 0.05739976
#
# Stress axis : x y z
#
# Youngs Moduli (GPa) = 20.76060 70.33471 56.65249
#
# Poissons Ratio (x) = 0.83548 -0.41606
# Poissons Ratio (y) = 0.24661 0.38434
# Poissons Ratio (z) = -0.15247 0.47716
#
# Static dielectric constant tensor:
#      x y z
#    x 1.756020 0.000000 -0.029860 
#    y 0.000000 1.757370 0.000000 
#    z -0.029860 0.000000 1.692160 
# 
# From -- ./inp_files/199921.got.cif
#   From: 2010.05.17/outbox.cif.g08.bks.cpg/sg12_100_cif.got.tgz:199921.got - 2010.06.03 13:09:07.
