data_PCOD9200578
_publ_section_title
;
Structure prediction by ZEFSAII (Michael W. Deem and Ramdas Pophale) SiO2 
 PCOD9200578
Probable space group: C 2/M
;
_chemical_formula_sum "Si O2"
_cell_formula_units_Z 48
_cell_length_a 9.803139
_cell_length_b 18.899416
_cell_length_c 15.193671
_cell_angle_alpha 90.000000
_cell_angle_beta 77.150567
_cell_angle_gamma 90.000000
_cell_volume 2744.492839
_symmetry_space_group_name_H-M "C 2/M"
_symmetry_group_IT_number 12
_symmetry_cell_setting 'monoclinic'
loop_
_space_group_symop_operation_xyz
x,y,z
-x,y,-z
-x,-y,-z
x,-y,z
1/2+x,1/2+y,z
1/2-x,1/2+y,-z
1/2-x,1/2-y,-z
1/2+x,1/2-y,z
loop_
_atom_site_type_symbol
_atom_site_label
_atom_site_fract_x
_atom_site_fract_y
_atom_site_fract_z
Si Si1 0.260391 0.322690 0.775722
Si Si2 0.805986 0.080431 0.607823
Si Si3 0.363506 0.580198 0.080421
Si Si4 0.359360 0.581391 0.403867
Si Si5 0.408721 0.319209 0.238779
Si Si6 0.336694 0.083355 0.044813
O O1 0.242876 0.368205 0.689113
O O2 0.426285 0.307500 0.765203
O O3 0.171329 0.252009 0.775308
O O4 0.208792 0.369137 0.866246
O O5 0.788441 0.099325 0.507639
O O6 0.973297 0.079961 0.601997
O O7 0.755946 0.000000 0.627486
O O8 0.330023 0.500000 0.113758
O O9 0.394257 0.628250 0.158715
O O10 0.500000 0.577904 0.000000
O O11 0.242897 0.606404 0.032427
O O12 0.321022 0.500000 0.384953
O O13 0.340003 0.639544 0.331487
O O14 0.299785 0.000000 0.066283
O O15 0.500000 0.087597 0.000000
#
# Coordination Sequence:
#
# PCOD9200578 Si02
#       6
#     8   8   8   8   8   8
#     4  11  23  36  53  80 113 146 179 218 268 323
#     4   8  15  31  57  82 104 135 179 227 267 309
#     4  10  20  37  59  80 102 137 184 227 266 311
#     4   8  15  31  56  83 105 133 180 228 264 309
#     4  11  23  35  53  81 113 146 178 218 269 321
#     4  10  22  39  59  81 105 138 181 227 271 315
#
# _framework density 17.489570000000001
#
# number of rings (size 3 to 8) (size 9 to 14) (size 15 to 20)
#    0.000    2.333    1.667    2.000    2.333    3.333 
#    0.000    0.000    0.000    0.000    0.000    2.333 
#    0.000    0.000    0.000    0.000    0.000    0.000 
#
# Total GULP energy -133800.758718 kJ/mol
# GULP energy per Si atom -5575.031613 kJ/mol
# Density = 1.744976 g / cm^3
# Si number density = 17.489570 Si / 1000 Ang^3
#
#
#
# Elastic Constant Matrix: (Units=GPa)
#
#
# Indices 1 2 3 4 5 6 
#
# 1 58.1398 27.2609 31.2381 0.0000 9.3704 0.0000
# 2 27.2609 105.8520 82.7585 0.0000 4.0751 0.0000
# 3 31.2381 82.7585 115.7438 0.0000 7.0524 0.0000
# 4 0.0000 0.0000 0.0000 8.2375 0.0000 13.5741
# 5 9.3704 4.0751 7.0524 0.0000 15.8580 0.0000
# 6 0.0000 0.0000 0.0000 13.5741 0.0000 18.5791
#
#
#
# Elastic Compliance Matrix: (Units=1/GPa)
#
#
# Indices 1 2 3 4 5 6 
#
# 1 0.021992 -0.002544 -0.003458 0.000000 -0.010803 0.000000
# 2 -0.002544 0.021745 -0.015020 0.000000 0.002595 0.000000
# 3 -0.003458 -0.015020 0.020508 0.000000 -0.003218 0.000000
# 4 0.000000 0.000000 0.000000 -0.595255 0.000000 0.434900
# 5 -0.010803 0.002595 -0.003218 0.000000 0.070208 0.000000
# 6 0.000000 0.000000 0.000000 0.434900 0.000000 -0.263919
#
#
# Mechanical properties :
#
#
# Convention : Reuss Voigt Hill
#
# Bulk Modulus (GPa) = 45.04126 62.47227 53.75676
# Shear Modulus (GPa) = -7.40438 17.76678 5.18120
#
# Velocity S-wave (km/s) = -2.05980 3.19070 1.72304
# Velocity P-wave (km/s) = 4.48911 7.02647 5.89591
#
# Compressibility (1/GPa) = 0.02220187
#
# Stress axis : x y z
#
# Youngs Moduli (GPa) = 45.47102 45.98670 48.76049
#
# Poissons Ratio (x) = 0.11701 0.16861
# Poissons Ratio (y) = 0.11569 0.73237
# Poissons Ratio (z) = 0.15724 0.69071
#
# Static dielectric constant tensor:
#      x y z
#    x 1.648450 0.000000 0.019050 
#    y 0.000000 1.592950 0.000000 
#    z 0.019050 0.000000 1.592650 
# 
# From -- ./inp_files/195949.got.cif
#   From: 2010.05.17/outbox.cif.g08.bks.cpg/sg12_98_cif.got.tgz:195949.got - 2010.06.03 13:09:07.
