data_PCOD9200831
_publ_section_title
;
Structure prediction by ZEFSAII (Michael W. Deem and Ramdas Pophale) SiO2 
 PCOD9200831
Probable space group: C 2/M
;
_chemical_formula_sum "Si O2"
_cell_formula_units_Z 56
_cell_length_a 18.093605
_cell_length_b 13.519934
_cell_length_c 26.926259
_cell_angle_alpha 90.000000
_cell_angle_beta 25.785651
_cell_angle_gamma 90.000000
_cell_volume 2865.303007
_symmetry_space_group_name_H-M "C 2/M"
_symmetry_group_IT_number 12
_symmetry_cell_setting 'monoclinic'
loop_
_space_group_symop_operation_xyz
x,y,z
-x,y,-z
-x,-y,-z
x,-y,z
1/2+x,1/2+y,z
1/2-x,1/2+y,-z
1/2-x,1/2-y,-z
1/2+x,1/2-y,z
loop_
_atom_site_type_symbol
_atom_site_label
_atom_site_fract_x
_atom_site_fract_y
_atom_site_fract_z
Si Si1 0.992110 0.682843 0.134695
Si Si2 0.637409 0.114256 0.329833
Si Si3 0.346643 0.746028 0.126720
Si Si4 0.740383 0.182362 0.457437
Si Si5 0.688364 0.277013 0.383569
Si Si6 0.861626 0.890919 0.921850
Si Si7 0.100378 0.108637 0.218835
O O1 0.928120 0.676881 0.117057
O O2 0.835471 0.663971 0.266278
O O3 0.052003 0.797885 0.104095
O O4 0.158201 0.621097 0.047325
O O5 0.747406 0.165309 0.219733
O O6 0.438743 0.125957 0.436300
O O7 0.666108 0.178541 0.362550
O O8 0.679049 0.000000 0.312135
O O9 0.212872 0.804870 0.173952
O O10 0.500000 0.706574 0.000000
O O11 0.750000 0.250000 0.500000
O O12 0.743313 0.247891 0.405425
O O13 0.908698 0.116801 0.354281
O O14 0.500000 0.323360 0.500000
O O15 0.905525 0.882115 0.837093
O O16 0.912452 0.000000 0.908996
O O17 0.171614 0.000000 0.187511
#
# Coordination Sequence:
#
# PCOD9200831 Si02
#       7
#     8   8   8   8   8   8   8
#     4  10  20  37  60  83 120 152 184 239 287 342
#     4  10  22  38  59  87 117 155 196 239 288 346
#     4  11  22  38  57  85 123 157 191 234 293 352
#     4  11  20  37  61  84 120 151 188 242 296 342
#     4   9  20  35  58  86 110 154 190 234 285 341
#     4  10  21  37  62  90 110 145 195 239 287 338
#     4  11  22  37  61  89 115 148 194 247 290 333
#
# _framework density 19.544180000000001
#
# number of rings (size 3 to 8) (size 9 to 14) (size 15 to 20)
#    0.000    1.714    4.286    0.429    0.000    6.571 
#    0.000    0.000    0.000    1.286    0.000    0.000 
#    0.000    0.000    0.000    0.000    0.000    0.000 
#
# Total GULP energy -156327.449107 kJ/mol
# GULP energy per Si atom -5583.123182 kJ/mol
# Density = 1.949970 g / cm^3
# Si number density = 19.544180 Si / 1000 Ang^3
#
#
#
# Elastic Constant Matrix: (Units=GPa)
#
#
# Indices 1 2 3 4 5 6 
#
# 1 60.6682 14.8351 13.7864 -0.0002 6.2469 -0.0005
# 2 14.8351 43.3234 10.9991 0.0009 2.0795 0.0001
# 3 13.7864 10.9991 146.0655 -0.0023 4.9376 -0.0006
# 4 -0.0002 0.0009 -0.0023 11.1543 -0.0003 3.7613
# 5 6.2469 2.0795 4.9376 -0.0003 36.4214 0.0007
# 6 -0.0005 0.0001 -0.0006 3.7613 0.0007 9.4125
#
#
#
# Elastic Compliance Matrix: (Units=1/GPa)
#
#
# Indices 1 2 3 4 5 6 
#
# 1 0.018473 -0.005890 -0.001210 0.000000 -0.002668 0.000001
# 2 -0.005890 0.025455 -0.001352 -0.000003 -0.000260 0.000000
# 3 -0.001210 -0.001352 0.007085 0.000002 -0.000676 0.000000
# 4 0.000000 -0.000003 0.000002 0.103613 0.000002 -0.041404
# 5 -0.002668 -0.000260 -0.000676 0.000002 0.028020 -0.000003
# 6 0.000001 0.000000 0.000000 -0.041404 -0.000003 0.122787
#
#
# Mechanical properties :
#
#
# Convention : Reuss Voigt Hill
#
# Bulk Modulus (GPa) = 29.31821 36.58870 32.95345
# Shear Modulus (GPa) = 14.98316 25.42673 20.20494
#
# Velocity S-wave (km/s) = 2.77181 3.61083 3.21878
# Velocity P-wave (km/s) = 5.02767 6.01214 5.54181
#
# Compressibility (1/GPa) = 0.03410850
#
# Stress axis : x y z
#
# Youngs Moduli (GPa) = 54.13256 39.28496 141.14139
#
# Poissons Ratio (x) = 0.23141 0.17076
# Poissons Ratio (y) = 0.31887 0.19083
# Poissons Ratio (z) = 0.06549 0.05312
#
# Static dielectric constant tensor:
#      x y z
#    x 1.664230 0.000000 -0.018900 
#    y 0.000000 1.717110 0.000000 
#    z -0.018900 0.000000 1.718030 
# 
# From -- ./inp_files/340319.got.cif
#   From: 2010.05.17/outbox.cif.g08.bks.cpg/sg12_171_cif.got.tgz:340319.got - 2010.06.03 13:09:07.
