data_PCOD9200091
_publ_section_title
;
Structure prediction by ZEFSAII (Michael W. Deem and Ramdas Pophale) SiO2 
 PCOD9200091
Probable space group: C 2/M
;
_chemical_formula_sum "Si O2"
_cell_formula_units_Z 40
_cell_length_a 8.696341
_cell_length_b 22.191682
_cell_length_c 7.664317
_cell_angle_alpha 90.000000
_cell_angle_beta 94.347184
_cell_angle_gamma 90.000000
_cell_volume 1474.853883
_symmetry_space_group_name_H-M "C 2/M"
_symmetry_group_IT_number 12
_symmetry_cell_setting 'monoclinic'
loop_
_space_group_symop_operation_xyz
x,y,z
-x,y,-z
-x,-y,-z
x,-y,z
1/2+x,1/2+y,z
1/2-x,1/2+y,-z
1/2-x,1/2-y,-z
1/2+x,1/2-y,z
loop_
_atom_site_type_symbol
_atom_site_label
_atom_site_fract_x
_atom_site_fract_y
_atom_site_fract_z
Si Si1 0.159393 0.432319 0.360507
Si Si2 0.082217 0.335739 0.770370
Si Si3 0.915742 0.931105 0.653537
Si Si4 0.870400 0.224796 0.867554
Si Si5 0.267004 0.570997 0.997666
O O1 0.096426 0.500000 0.328524
O O2 0.245724 0.432392 0.551806
O O3 0.032176 0.381766 0.332769
O O4 0.279470 0.421995 0.208134
O O5 0.251119 0.308723 0.726054
O O6 0.144046 0.377769 0.934864
O O7 0.970367 0.278402 0.792700
O O8 0.892179 0.918680 0.855005
O O9 0.000000 0.896939 0.500000
O O10 0.975245 0.000000 0.661078
O O11 0.500000 0.307647 0.000000
O O12 0.750000 0.250000 0.000000
O O13 0.223387 0.500000 0.969864
#
# Coordination Sequence:
#
# PCOD9200091 Si02
#       5
#     8   8   8   8   8
#     4  10  20  36  65  96 127 165 208 265 320 378
#     4  11  21  38  60  96 131 164 218 266 311 383
#     4   9  20  39  58  89 135 172 208 256 317 386
#     4   9  18  34  57  85 125 169 211 260 309 364
#     4  10  20  36  63  96 126 163 208 258 320 380
#
# _framework density 27.12133
#
# number of rings (size 3 to 8) (size 9 to 14) (size 15 to 20)
#    0.000    2.200    0.000    4.800    0.000    3.200 
#   10.800    7.000    0.000    6.600    0.000    0.000 
#    0.000    0.000    0.000    0.000    0.000    0.000 
#
# Total GULP energy -111404.226824 kJ/mol
# GULP energy per Si atom -5570.211341 kJ/mol
# Density = 2.705960 g / cm^3
# Si number density = 27.121330 Si / 1000 Ang^3
#
#
#
# Elastic Constant Matrix: (Units=GPa)
#
#
# Indices 1 2 3 4 5 6 
#
# 1 167.2214 61.2992 65.3791 0.0000 -11.6469 0.0000
# 2 61.2992 170.1724 38.9156 0.0000 18.3455 0.0000
# 3 65.3791 38.9156 194.7499 0.0000 -4.8156 0.0000
# 4 0.0000 0.0000 0.0000 -3.4763 0.0000 22.8386
# 5 -11.6469 18.3455 -4.8156 0.0000 61.9568 0.0000
# 6 0.0000 0.0000 0.0000 22.8386 0.0000 54.4080
#
#
#
# Elastic Compliance Matrix: (Units=1/GPa)
#
#
# Indices 1 2 3 4 5 6 
#
# 1 0.007888 -0.002591 -0.002079 0.000000 0.002089 0.000000
# 2 -0.002591 0.007246 -0.000644 0.000000 -0.002683 0.000000
# 3 -0.002079 -0.000644 0.005968 0.000000 0.000264 0.000000
# 4 0.000000 0.000000 0.000000 -0.076551 0.000000 0.032134
# 5 0.002089 -0.002683 0.000264 0.000000 0.017348 0.000000
# 6 0.000000 0.000000 0.000000 0.032134 0.000000 0.004891
#
#
# Mechanical properties :
#
#
# Convention : Reuss Voigt Hill
#
# Bulk Modulus (GPa) = 95.47683 95.92570 95.70127
# Shear Modulus (GPa) = -261.92181 47.01435 -107.45373
#
# Velocity S-wave (km/s) = -9.83787 4.16803 -6.30124
# Velocity P-wave (km/s) = 9.68323 7.65566 4.19260
#
# Compressibility (1/GPa) = 0.01047375
#
# Stress axis : x y z
#
# Youngs Moduli (GPa) = 126.77221 137.99930 167.56260
#
# Poissons Ratio (x) = 0.35759 0.34831
# Poissons Ratio (y) = 0.32850 0.10798
# Poissons Ratio (z) = 0.26352 0.08893
#
# Static dielectric constant tensor:
#      x y z
#    x 2.331710 0.000000 -0.063800 
#    y 0.000000 2.167950 0.000000 
#    z -0.063800 0.000000 2.203640 
# 
# From -- ./inp_files/39344.got.cif
#   From: 2010.05.17/outbox.cif.g08.bks.cpg/sg12_20_cif.got.tgz:39344.got - 2010.06.03 13:09:07.
