data_PCOD9200507
_publ_section_title
;
Structure prediction by ZEFSAII (Michael W. Deem and Ramdas Pophale) SiO2 
 PCOD9200507
Probable space group: C 2/M
;
_chemical_formula_sum "Si O2"
_cell_formula_units_Z 64
_cell_length_a 18.358770
_cell_length_b 9.623879
_cell_length_c 30.590656
_cell_angle_alpha 90.000000
_cell_angle_beta 142.181470
_cell_angle_gamma 90.000000
_cell_volume 3314.043142
_symmetry_space_group_name_H-M "C 2/M"
_symmetry_group_IT_number 12
_symmetry_cell_setting 'monoclinic'
loop_
_space_group_symop_operation_xyz
x,y,z
-x,y,-z
-x,-y,-z
x,-y,z
1/2+x,1/2+y,z
1/2-x,1/2+y,-z
1/2-x,1/2-y,-z
1/2+x,1/2-y,z
loop_
_atom_site_type_symbol
_atom_site_label
_atom_site_fract_x
_atom_site_fract_y
_atom_site_fract_z
Si Si1 0.113546 0.217942 0.947738
Si Si2 0.933557 0.833974 0.593779
Si Si3 0.604986 0.159115 0.112814
Si Si4 0.694439 0.343851 0.079766
Si Si5 0.158812 0.665778 0.297673
Si Si6 0.797341 0.832165 0.276334
Si Si7 0.427490 0.659580 0.170452
Si Si8 0.249922 0.662664 0.435708
O O1 0.064968 0.156956 0.879206
O O2 0.016152 0.331896 0.916221
O O3 0.250000 0.250000 0.000000
O O4 0.131049 0.143921 0.002564
O O5 0.846429 0.757212 0.585741
O O6 0.876713 0.810620 0.518727
O O7 0.067809 0.781849 0.662181
O O8 0.931577 0.000000 0.600823
O O9 0.614949 0.262917 0.077108
O O10 0.713281 0.201632 0.195899
O O11 0.619815 0.000000 0.105030
O O12 0.724513 0.500000 0.108687
O O13 0.810848 0.247830 0.127911
O O14 0.129383 0.500000 0.280040
O O15 0.232827 0.709536 0.290297
O O16 0.237215 0.684437 0.378206
O O17 0.040329 0.757868 0.242542
O O18 0.803375 0.000000 0.280402
O O19 0.419990 0.500000 0.182321
O O20 0.222507 0.500000 0.431162
#
# Coordination Sequence:
#
# PCOD9200507 Si02
#       8
#     8   8   8   8   8   8   8   8
#     4  10  23  41  64  88 116 153 197 243 296 355
#     4   9  18  35  58  86 119 156 196 241 290 343
#     4  11  23  41  63  90 123 160 201 245 297 356
#     4  11  25  42  62  88 120 156 195 248 306 357
#     4  10  20  37  58  84 119 157 197 243 297 352
#     4   9  19  36  59  85 117 156 195 240 292 344
#     4  11  23  40  62  89 118 154 202 246 295 360
#     4   9  19  34  57  87 118 154 198 243 289 346
#
# _framework density 19.311758999999999
#
# number of rings (size 3 to 8) (size 9 to 14) (size 15 to 20)
#    0.000    2.000    1.250    1.500    1.750    7.500 
#    0.000    3.125    0.000    0.000    0.000    4.375 
#    0.000    0.000    0.000    0.000    0.000    0.000 
#
# Total GULP energy -178350.891569 kJ/mol
# GULP energy per Si atom -5573.465362 kJ/mol
# Density = 1.926780 g / cm^3
# Si number density = 19.311759 Si / 1000 Ang^3
#
#
#
# Elastic Constant Matrix: (Units=GPa)
#
#
# Indices 1 2 3 4 5 6 
#
# 1 87.1889 40.1434 38.9425 0.0000 2.0601 0.0000
# 2 40.1434 87.3378 35.9989 0.0000 -1.1245 0.0000
# 3 38.9425 35.9989 98.9232 0.0000 8.4578 0.0000
# 4 0.0000 0.0000 0.0000 14.7684 0.0000 4.8508
# 5 2.0601 -1.1245 8.4578 0.0000 31.9257 0.0000
# 6 0.0000 0.0000 0.0000 4.8508 0.0000 16.7750
#
#
#
# Elastic Compliance Matrix: (Units=1/GPa)
#
#
# Indices 1 2 3 4 5 6 
#
# 1 0.015931 -0.005579 -0.004232 0.000000 -0.000103 0.000000
# 2 -0.005579 0.015528 -0.003614 0.000000 0.001864 0.000000
# 3 -0.004232 -0.003614 0.013381 0.000000 -0.003399 0.000000
# 4 0.000000 0.000000 0.000000 0.074819 0.000000 -0.021635
# 5 -0.000103 0.001864 -0.003399 0.000000 0.032295 0.000000
# 6 0.000000 0.000000 0.000000 -0.021635 0.000000 0.065869
#
#
# Mechanical properties :
#
#
# Convention : Reuss Voigt Hill
#
# Bulk Modulus (GPa) = 55.59018 55.95773 55.77396
# Shear Modulus (GPa) = 19.94664 23.25150 21.59907
#
# Velocity S-wave (km/s) = 3.21732 3.47364 3.34794
# Velocity P-wave (km/s) = 6.53068 6.71768 6.62484
#
# Compressibility (1/GPa) = 0.01798879
#
# Stress axis : x y z
#
# Youngs Moduli (GPa) = 62.77109 64.40103 74.73514
#
# Poissons Ratio (x) = 0.35931 0.31630
# Poissons Ratio (y) = 0.35022 0.27007
# Poissons Ratio (z) = 0.26566 0.23272
#
# Static dielectric constant tensor:
#      x y z
#    x 1.682730 0.000000 -0.000890 
#    y 0.000000 1.611900 0.000000 
#    z -0.000890 0.000000 1.708140 
# 
# From -- ./inp_files/378353.got.cif
#   From: 2010.05.17/outbox.cif.g08.bks.cpg/sg12_190_cif.got.tgz:378353.got - 2010.06.03 13:09:07.
