data_PCOD9200915
_publ_section_title
;
Structure prediction by ZEFSAII (Michael W. Deem and Ramdas Pophale) SiO2 
 PCOD9200915
Probable space group: C 2/M
;
_chemical_formula_sum "Si O2"
_cell_formula_units_Z 64
_cell_length_a 27.871892
_cell_length_b 10.158875
_cell_length_c 16.522224
_cell_angle_alpha 90.000000
_cell_angle_beta 46.033757
_cell_angle_gamma 90.000000
_cell_volume 3367.143393
_symmetry_space_group_name_H-M "C 2/M"
_symmetry_group_IT_number 12
_symmetry_cell_setting 'monoclinic'
loop_
_space_group_symop_operation_xyz
x,y,z
-x,y,-z
-x,-y,-z
x,-y,z
1/2+x,1/2+y,z
1/2-x,1/2+y,-z
1/2-x,1/2-y,-z
1/2+x,1/2-y,z
loop_
_atom_site_type_symbol
_atom_site_label
_atom_site_fract_x
_atom_site_fract_y
_atom_site_fract_z
Si Si1 0.934829 0.254109 0.032540
Si Si2 0.129910 0.652638 0.141113
Si Si3 0.178064 0.851067 0.400201
Si Si4 0.996325 0.645146 0.203731
Si Si5 0.171486 0.348384 0.272100
Si Si6 0.173613 0.350342 0.716125
Si Si7 0.824856 0.854128 0.045192
Si Si8 0.123728 0.155183 0.645695
O O1 0.890005 0.328566 0.151322
O O2 0.882626 0.163645 0.044826
O O3 0.965290 0.346262 0.926910
O O4 0.000000 0.192862 0.000000
O O5 0.151814 0.500000 0.106698
O O6 0.052555 0.658347 0.206423
O O7 0.142676 0.691407 0.218485
O O8 0.166735 0.745173 0.033808
O O9 0.151195 0.745922 0.368502
O O10 0.258021 0.837621 0.314544
O O11 0.149984 0.835107 0.523514
O O12 0.163373 0.000000 0.390441
O O13 0.964760 0.500000 0.247886
O O14 0.945578 0.765702 0.267189
O O15 0.152567 0.500000 0.309668
O O16 0.251767 0.343261 0.169012
O O17 0.173054 0.500000 0.683881
O O18 0.170305 0.237483 0.652221
O O19 0.831167 0.000000 0.001815
O O20 0.118857 0.000000 0.672696
#
# Coordination Sequence:
#
# PCOD9200915 Si02
#       8
#     8   8   8   8   8   8   8   8
#     4  11  21  35  56  89 121 151 186 234 280 343
#     4   9  20  37  58  85 116 152 192 237 287 344
#     4  10  23  41  60  85 114 151 198 241 288 339
#     4  10  21  38  59  85 116 153 196 235 282 347
#     4  10  20  37  60  86 115 148 193 244 291 338
#     4  11  22  39  62  85 114 152 195 238 284 342
#     4  10  21  35  54  85 121 155 190 231 286 347
#     4  11  24  40  58  83 117 154 194 241 289 343
#
# _framework density 19.007210000000001
#
# number of rings (size 3 to 8) (size 9 to 14) (size 15 to 20)
#    0.000    1.750    2.500    1.500    0.000    6.250 
#    0.000    0.625    0.000    3.750    0.000    0.000 
#    0.000    0.000    0.000    0.000    0.000    0.000 
#
# Total GULP energy -178558.815809 kJ/mol
# GULP energy per Si atom -5579.962994 kJ/mol
# Density = 1.896395 g / cm^3
# Si number density = 19.007210 Si / 1000 Ang^3
#
#
#
# Elastic Constant Matrix: (Units=GPa)
#
#
# Indices 1 2 3 4 5 6 
#
# 1 75.2164 27.2127 19.9886 0.0000 23.4745 0.0000
# 2 27.2127 121.4229 38.2175 -0.0002 26.9867 0.0001
# 3 19.9886 38.2175 49.7056 -0.0001 13.5069 0.0001
# 4 0.0000 -0.0002 -0.0001 26.1437 0.0000 4.4220
# 5 23.4745 26.9867 13.5069 0.0000 24.9839 0.0000
# 6 0.0000 0.0001 0.0001 4.4220 0.0000 17.7011
#
#
#
# Elastic Compliance Matrix: (Units=1/GPa)
#
#
# Indices 1 2 3 4 5 6 
#
# 1 0.019289 0.000539 -0.003620 0.000000 -0.016749 0.000000
# 2 0.000539 0.012656 -0.007145 0.000000 -0.010314 0.000000
# 3 -0.003620 -0.007145 0.028187 0.000000 -0.004120 0.000000
# 4 0.000000 0.000000 0.000000 0.039938 0.000000 -0.009977
# 5 -0.016749 -0.010314 -0.004120 0.000000 0.069131 0.000000
# 6 0.000000 0.000000 0.000000 -0.009977 0.000000 0.058986
#
#
# Mechanical properties :
#
#
# Convention : Reuss Voigt Hill
#
# Bulk Modulus (GPa) = 25.20129 46.35362 35.77746
# Shear Modulus (GPa) = 19.09370 24.49414 21.79392
#
# Velocity S-wave (km/s) = 3.17290 3.59371 3.38984
# Velocity P-wave (km/s) = 5.16824 6.45445 5.84682
#
# Compressibility (1/GPa) = 0.03968051
#
# Stress axis : x y z
#
# Youngs Moduli (GPa) = 51.84252 79.01297 35.47699
#
# Poissons Ratio (x) = -0.04258 0.12843
# Poissons Ratio (y) = -0.02794 0.25348
# Poissons Ratio (z) = 0.18767 0.56454
#
# Static dielectric constant tensor:
#      x y z
#    x 1.675900 0.000000 -0.005820 
#    y 0.000000 1.663580 0.000000 
#    z -0.005820 0.000000 1.640280 
# 
# From -- ./inp_files/249792.got.cif
#   From: 2010.05.17/outbox.cif.g08.bks.cpg/sg12_125_cif.got.tgz:249792.got - 2010.06.03 13:09:07.
