data_PCOD9200062
_publ_section_title
;
Structure prediction by ZEFSAII (Michael W. Deem and Ramdas Pophale) SiO2 
 PCOD9200062
Probable space group: C 2/M
;
_chemical_formula_sum "Si O2"
_cell_formula_units_Z 60
_cell_length_a 7.750142
_cell_length_b 25.270987
_cell_length_c 17.523462
_cell_angle_alpha 90.000000
_cell_angle_beta 53.691936
_cell_angle_gamma 90.000000
_cell_volume 2765.688509
_symmetry_space_group_name_H-M "C 2/M"
_symmetry_group_IT_number 12
_symmetry_cell_setting 'monoclinic'
loop_
_space_group_symop_operation_xyz
x,y,z
-x,y,-z
-x,-y,-z
x,-y,z
1/2+x,1/2+y,z
1/2-x,1/2+y,-z
1/2-x,1/2-y,-z
1/2+x,1/2-y,z
loop_
_atom_site_type_symbol
_atom_site_label
_atom_site_fract_x
_atom_site_fract_y
_atom_site_fract_z
Si Si1 0.298494 0.558381 0.010436
Si Si2 0.558273 0.858451 0.403704
Si Si3 0.557573 0.562593 0.664962
Si Si4 0.973488 0.500000 0.794449
Si Si5 0.663477 0.698122 0.795905
Si Si6 0.228648 0.120153 0.133729
Si Si7 0.711475 0.096612 0.651380
Si Si8 0.024055 0.318837 0.815209
O O1 0.383352 0.500000 0.961958
O O2 0.119616 0.545050 0.119732
O O3 0.500000 0.584541 0.000000
O O4 0.231312 0.587067 0.952198
O O5 0.500000 0.833480 0.500000
O O6 0.676238 0.819271 0.314200
O O7 0.355655 0.884071 0.414260
O O8 0.727793 0.905220 0.376252
O O9 0.586239 0.500000 0.662987
O O10 0.385022 0.581262 0.774491
O O11 0.446276 0.577588 0.614094
O O12 0.061017 0.547373 0.715528
O O13 0.450361 0.663931 0.840167
O O14 0.610613 0.759678 0.802747
O O15 0.786836 0.684737 0.842247
O O16 0.428210 0.150254 0.119281
O O17 0.659410 0.147482 0.718283
#
# Coordination Sequence:
#
# PCOD9200062 Si02
#       8
#     8   8   8   4   8   8   8   8
#     4   9  21  34  62  96 130 161 208 260 310 348
#     4  10  24  41  63  93 123 164 209 258 317 368
#     4  10  21  36  61  89 125 169 208 243 309 379
#     4  10  21  40  64  93 127 169 205 254 315 363
#     4  10  20  38  67  87 125 162 214 254 314 374
#     4  10  20  37  61  91 128 163 208 254 307 371
#     4  10  22  40  63  89 130 161 208 253 310 377
#     4  10  20  36  63  93 113 166 209 255 304 373
#
# _framework density 21.694414999999999
#
# number of rings (size 3 to 8) (size 9 to 14) (size 15 to 20)
#    0.400    1.733    2.000    0.400    6.533    0.800 
#    0.000    8.667    0.000    3.200    0.000    0.000 
#    0.000    0.000    0.000    0.000    0.000    0.000 
#
# Total GULP energy -167051.587073 kJ/mol
# GULP energy per Si atom -5568.386236 kJ/mol
# Density = 2.164504 g / cm^3
# Si number density = 21.694415 Si / 1000 Ang^3
#
#
#
# Elastic Constant Matrix: (Units=GPa)
#
#
# Indices 1 2 3 4 5 6 
#
# 1 113.9375 16.4016 34.5629 0.0000 34.4766 0.0000
# 2 16.4016 83.9655 14.1862 0.0000 6.8732 0.0000
# 3 34.5629 14.1862 70.2885 0.0000 20.5853 0.0000
# 4 0.0000 0.0000 0.0000 -11.4634 0.0000 -2.7535
# 5 34.4766 6.8732 20.5853 0.0000 28.5637 0.0000
# 6 0.0000 0.0000 0.0000 -2.7535 0.0000 18.4319
#
#
#
# Elastic Compliance Matrix: (Units=1/GPa)
#
#
# Indices 1 2 3 4 5 6 
#
# 1 0.014265 -0.001146 -0.002309 0.000000 -0.015279 0.000000
# 2 -0.001146 0.012472 -0.001876 0.000000 -0.000266 0.000000
# 3 -0.002309 -0.001876 0.018750 0.000000 -0.010275 0.000000
# 4 0.000000 0.000000 0.000000 -0.084212 0.000000 -0.012580
# 5 -0.015279 -0.000266 -0.010275 0.000000 0.060920 0.000000
# 6 0.000000 0.000000 0.000000 -0.012580 0.000000 0.052374
#
#
# Mechanical properties :
#
#
# Convention : Reuss Voigt Hill
#
# Bulk Modulus (GPa) = 28.71349 44.27698 36.49523
# Shear Modulus (GPa) = 51.63197 20.64249 36.13723
#
# Velocity S-wave (km/s) = 4.88378 3.08801 4.08577
# Velocity P-wave (km/s) = 6.71312 5.75917 6.25436
#
# Compressibility (1/GPa) = 0.03482684
#
# Stress axis : x y z
#
# Youngs Moduli (GPa) = 70.10042 80.17840 53.33299
#
# Poissons Ratio (x) = 0.09187 0.12313
# Poissons Ratio (y) = 0.08032 0.10004
# Poissons Ratio (z) = 0.16184 0.15040
#
# Static dielectric constant tensor:
#      x y z
#    x 1.861830 0.000000 -0.014510 
#    y 0.000000 1.765170 0.000000 
#    z -0.014510 0.000000 1.798590 
# 
# From -- ./inp_files/259554.got.cif
#   From: 2010.05.17/outbox.cif.g08.bks.cpg/sg12_130_cif.got.tgz:259554.got - 2010.06.03 13:09:07.
