data_PCOD9200913
_publ_section_title
;
Structure prediction by ZEFSAII (Michael W. Deem and Ramdas Pophale) SiO2 
 PCOD9200913
Probable space group: C 2/M
;
_chemical_formula_sum "Si O2"
_cell_formula_units_Z 48
_cell_length_a 8.122658
_cell_length_b 30.353621
_cell_length_c 14.038076
_cell_angle_alpha 90.000000
_cell_angle_beta 37.578118
_cell_angle_gamma 90.000000
_cell_volume 2110.736282
_symmetry_space_group_name_H-M "C 2/M"
_symmetry_group_IT_number 12
_symmetry_cell_setting 'monoclinic'
loop_
_space_group_symop_operation_xyz
x,y,z
-x,y,-z
-x,-y,-z
x,-y,z
1/2+x,1/2+y,z
1/2-x,1/2+y,-z
1/2-x,1/2-y,-z
1/2+x,1/2-y,z
loop_
_atom_site_type_symbol
_atom_site_label
_atom_site_fract_x
_atom_site_fract_y
_atom_site_fract_z
Si Si1 0.962332 0.357178 0.796905
Si Si2 0.015215 0.952308 0.830844
Si Si3 0.688750 0.636325 0.109942
Si Si4 0.542986 0.047461 0.205176
Si Si5 0.109395 0.794380 0.301888
Si Si6 0.999443 0.302101 0.386710
O O1 0.156470 0.319765 0.750346
O O2 0.893648 0.343233 0.721488
O O3 0.100225 0.405417 0.734694
O O4 0.715456 0.358859 0.984084
O O5 0.981551 0.907418 0.787631
O O6 0.266560 0.950242 0.788338
O O7 0.026550 0.000000 0.775042
O O8 0.749892 0.953375 0.020703
O O9 0.596923 0.680232 0.206473
O O10 0.000000 0.628427 0.000000
O O11 0.399040 0.000000 0.271917
O O12 0.146133 0.742008 0.282543
O O13 0.821893 0.799145 0.485183
O O14 0.000000 0.304664 0.500000
#
# Coordination Sequence:
#
# PCOD9200913 Si02
#       6
#     8   8   8   8   8   8
#     4  10  20  37  60  86 114 149 185 236 282 329
#     4   8  14  27  49  81 119 150 182 222 271 338
#     4   9  19  33  55  85 118 150 183 232 286 330
#     4   8  15  29  53  83 113 149 186 223 275 335
#     4  10  21  39  56  78 116 146 189 233 281 343
#     4  11  23  38  59  80 103 153 198 231 276 341
#
# _framework density 22.740879
#
# number of rings (size 3 to 8) (size 9 to 14) (size 15 to 20)
#    0.000    2.667    0.000    3.500    2.333    1.000 
#    0.000    4.167    0.000    3.500    0.000    0.000 
#    0.000    0.000    0.000    0.000    0.000    0.000 
#
# Total GULP energy -133872.972033 kJ/mol
# GULP energy per Si atom -5578.040501 kJ/mol
# Density = 2.268912 g / cm^3
# Si number density = 22.740879 Si / 1000 Ang^3
#
#
#
# Elastic Constant Matrix: (Units=GPa)
#
#
# Indices 1 2 3 4 5 6 
#
# 1 42.8760 33.7281 14.3237 0.0000 13.3399 0.0000
# 2 33.7281 179.4759 48.6201 0.0000 24.8891 0.0000
# 3 14.3237 48.6201 28.5409 0.0000 14.0836 0.0000
# 4 0.0000 0.0000 0.0000 -49.0610 0.0000 39.0968
# 5 13.3399 24.8891 14.0836 0.0000 41.8356 0.0000
# 6 0.0000 0.0000 0.0000 39.0968 0.0000 -7.0668
#
#
#
# Elastic Compliance Matrix: (Units=1/GPa)
#
#
# Indices 1 2 3 4 5 6 
#
# 1 0.029682 -0.002816 -0.007502 0.000000 -0.005264 0.000000
# 2 -0.002816 0.010616 -0.016787 0.000000 0.000233 0.000000
# 3 -0.007502 -0.016787 0.073500 0.000000 -0.012364 0.000000
# 4 0.000000 0.000000 0.000000 0.005979 0.000000 0.033081
# 5 -0.005264 0.000233 -0.012364 0.000000 0.029605 0.000000
# 6 0.000000 0.000000 0.000000 0.033081 0.000000 0.041512
#
#
# Mechanical properties :
#
#
# Convention : Reuss Voigt Hill
#
# Bulk Modulus (GPa) = 16.78167 49.35963 33.07065
# Shear Modulus (GPa) = 18.87024 7.42297 13.14661
#
# Velocity S-wave (km/s) = 2.88374 1.80866 2.40699
# Velocity P-wave (km/s) = 4.29924 5.11019 4.72215
#
# Compressibility (1/GPa) = 0.05958882
#
# Stress axis : x y z
#
# Youngs Moduli (GPa) = 33.69042 94.19638 13.60537
#
# Poissons Ratio (x) = 0.26522 0.10207
# Poissons Ratio (y) = 0.09486 0.22839
# Poissons Ratio (z) = 0.25276 1.58125
#
# Static dielectric constant tensor:
#      x y z
#    x 1.963290 0.000000 0.001360 
#    y 0.000000 1.902330 0.000000 
#    z 0.001360 0.000000 1.829170 
# 
# From -- ./inp_files/200766.got.cif
#   From: 2010.05.17/outbox.cif.g08.bks.cpg/sg12_101_cif.got.tgz:200766.got - 2010.06.03 13:09:07.
