data_PCOD9200317
_publ_section_title
;
Structure prediction by ZEFSAII (Michael W. Deem and Ramdas Pophale) SiO2 
 PCOD9200317
Probable space group: C 2/M
;
_chemical_formula_sum "Si O2"
_cell_formula_units_Z 64
_cell_length_a 18.896885
_cell_length_b 8.951884
_cell_length_c 33.145460
_cell_angle_alpha 90.000000
_cell_angle_beta 37.990623
_cell_angle_gamma 90.000000
_cell_volume 3451.276119
_symmetry_space_group_name_H-M "C 2/M"
_symmetry_group_IT_number 12
_symmetry_cell_setting 'monoclinic'
loop_
_space_group_symop_operation_xyz
x,y,z
-x,y,-z
-x,-y,-z
x,-y,z
1/2+x,1/2+y,z
1/2-x,1/2+y,-z
1/2-x,1/2-y,-z
1/2+x,1/2-y,z
loop_
_atom_site_type_symbol
_atom_site_label
_atom_site_fract_x
_atom_site_fract_y
_atom_site_fract_z
Si Si1 0.365775 0.679455 0.565936
Si Si2 0.646516 0.319966 0.184485
Si Si3 0.287157 0.819386 0.685118
Si Si4 0.523954 0.681563 0.811070
Si Si5 0.622107 0.168849 0.966399
Si Si6 0.871622 0.823085 0.953879
Si Si7 0.706699 0.819469 0.561394
Si Si8 0.939551 0.680326 0.693850
O O1 0.500000 0.714952 0.500000
O O2 0.354683 0.500000 0.574598
O O3 0.325978 0.755037 0.625003
O O4 0.288670 0.725421 0.562018
O O5 0.641588 0.500000 0.190821
O O6 0.551799 0.272944 0.193582
O O7 0.772581 0.283117 0.109741
O O8 0.617009 0.247500 0.240532
O O9 0.155668 0.770032 0.750904
O O10 0.369306 0.773632 0.685310
O O11 0.289761 0.000000 0.682290
O O12 0.524030 0.500000 0.810832
O O13 0.461935 0.731398 0.879890
O O14 0.653612 0.000000 0.966576
O O15 0.500000 0.159896 0.000000
O O16 0.602207 0.276335 0.012696
O O17 0.864112 0.000000 0.953489
O O18 0.750000 0.750000 0.000000
O O19 0.750000 0.750000 0.500000
O O20 0.573983 0.776807 0.629590
O O21 0.711252 0.000000 0.556088
O O22 0.934645 0.500000 0.698654
#
# Coordination Sequence:
#
# PCOD9200317 Si02
#       8
#     8   8   8   8   8   8   8   8
#     4  10  21  37  57  82 113 145 181 226 269 317
#     4  10  20  37  57  77 107 147 185 224 276 335
#     4  10  21  37  57  81 109 144 182 225 273 324
#     4   9  19  36  56  78 108 142 181 229 276 327
#     4  10  22  39  57  81 116 150 189 241 290 341
#     4  11  21  37  60  84 113 149 191 239 290 345
#     4  10  21  37  57  83 114 146 180 224 272 321
#     4  10  22  37  54  81 115 142 178 230 277 324
#
# _framework density 18.543863999999999
#
# number of rings (size 3 to 8) (size 9 to 14) (size 15 to 20)
#    0.000    2.000    1.250    1.875    1.750    2.500 
#    0.000    1.250    0.000    0.000    0.000    0.000 
#    0.000    0.000    0.000    0.000    0.000    0.000 
#
# Total GULP energy -178611.801363 kJ/mol
# GULP energy per Si atom -5581.618793 kJ/mol
# Density = 1.850166 g / cm^3
# Si number density = 18.543864 Si / 1000 Ang^3
#
#
#
# Elastic Constant Matrix: (Units=GPa)
#
#
# Indices 1 2 3 4 5 6 
#
# 1 177.9643 36.4044 116.3562 0.0002 -0.0400 -0.0011
# 2 36.4044 17.2818 41.2289 -0.0009 4.5131 -0.0006
# 3 116.3562 41.2289 194.9926 0.0004 7.6393 0.0002
# 4 0.0002 -0.0009 0.0004 29.5984 0.0002 16.2380
# 5 -0.0400 4.5131 7.6393 0.0002 36.9345 0.0000
# 6 -0.0011 -0.0006 0.0002 16.2380 0.0000 11.7323
#
#
#
# Elastic Compliance Matrix: (Units=1/GPa)
#
#
# Indices 1 2 3 4 5 6 
#
# 1 0.011087 -0.016182 -0.003299 -0.000003 0.002672 0.000004
# 2 -0.016182 0.143593 -0.020180 0.000004 -0.013389 0.000001
# 3 -0.003299 -0.020180 0.011359 0.000001 0.000113 -0.000002
# 4 -0.000003 0.000004 0.000001 0.140366 -0.000001 -0.194273
# 5 0.002672 -0.013389 0.000113 -0.000001 0.028691 0.000002
# 6 0.000004 0.000001 -0.000002 -0.194273 0.000002 0.354117
#
#
# Mechanical properties :
#
#
# Convention : Reuss Voigt Hill
#
# Bulk Modulus (GPa) = 11.53185 86.46862 49.00023
# Shear Modulus (GPa) = 6.27006 28.73632 17.50319
#
# Velocity S-wave (km/s) = 1.84080 3.94082 3.07560
# Velocity P-wave (km/s) = 3.27876 8.21201 6.25250
#
# Compressibility (1/GPa) = 0.08671636
#
# Stress axis : x y z
#
# Youngs Moduli (GPa) = 90.19766 6.96414 88.03313
#
# Poissons Ratio (x) = 0.11269 0.29041
# Poissons Ratio (y) = 1.45959 1.77653
# Poissons Ratio (z) = 0.29755 0.14054
#
# Static dielectric constant tensor:
#      x y z
#    x 1.533470 0.000000 -0.173660 
#    y 0.000000 1.633340 0.000000 
#    z -0.173660 0.000000 1.367890 
# 
# From -- ./inp_files/378188.got.cif
#   From: 2010.05.17/outbox.cif.g08.bks.cpg/sg12_190_cif.got.tgz:378188.got - 2010.06.03 13:09:07.
