data_PCOD9200196
_publ_section_title
;
Structure prediction by ZEFSAII (Michael W. Deem and Ramdas Pophale) SiO2 
 PCOD9200196
Probable space group: C 2/M
;
_chemical_formula_sum "Si O2"
_cell_formula_units_Z 32
_cell_length_a 8.922710
_cell_length_b 24.144338
_cell_length_c 15.180656
_cell_angle_alpha 90.000000
_cell_angle_beta 29.417831
_cell_angle_gamma 90.000000
_cell_volume 1606.344717
_symmetry_space_group_name_H-M "C 2/M"
_symmetry_group_IT_number 12
_symmetry_cell_setting 'monoclinic'
loop_
_space_group_symop_operation_xyz
x,y,z
-x,y,-z
-x,-y,-z
x,-y,z
1/2+x,1/2+y,z
1/2-x,1/2+y,-z
1/2-x,1/2-y,-z
1/2+x,1/2-y,z
loop_
_atom_site_type_symbol
_atom_site_label
_atom_site_fract_x
_atom_site_fract_y
_atom_site_fract_z
Si Si1 0.635586 0.627401 0.680025
Si Si2 0.689918 0.310628 0.992207
Si Si3 0.270987 0.384776 0.697258
Si Si4 0.955602 0.500000 0.916183
Si Si5 0.141167 0.000000 0.708288
O O1 0.481902 0.654756 0.843537
O O2 0.462701 0.643418 0.678941
O O3 0.571805 0.561563 0.710680
O O4 0.000000 0.636695 0.500000
O O5 0.497752 0.157404 0.187935
O O6 0.500000 0.307339 0.000000
O O7 0.750000 0.250000 0.000000
O O8 0.500000 0.394169 0.500000
O O9 0.112144 0.443979 0.801060
O O10 0.587124 0.500000 0.089449
O O11 0.000000 0.500000 0.000000
O O12 0.500000 0.000000 0.500000
#
# Coordination Sequence:
#
# PCOD9200196 Si02
#       5
#     8   8   8   4   4
#     4  11  22  42  68  96 135 176 217 270 328 388
#     4  12  26  46  69  96 127 171 224 276 334 395
#     4  12  24  41  66 101 138 177 221 270 327 392
#     4  12  19  40  66  97 137 182 217 264 328 389
#     4  10  20  36  67  98 133 176 218 262 325 389
#
# _framework density 19.921004
#
# number of rings (size 3 to 8) (size 9 to 14) (size 15 to 20)
#    0.000    0.500    5.000    4.125    0.000    1.000 
#    0.000   10.000    0.000    0.000    0.000    0.000 
#    0.000    0.000    0.000    0.000    0.000    0.000 
#
# Total GULP energy -89149.716743 kJ/mol
# GULP energy per Si atom -5571.857296 kJ/mol
# Density = 1.987566 g / cm^3
# Si number density = 19.921004 Si / 1000 Ang^3
#
#
#
# Elastic Constant Matrix: (Units=GPa)
#
#
# Indices 1 2 3 4 5 6 
#
# 1 156.6166 46.2101 60.5897 0.0001 -10.3984 0.0001
# 2 46.2101 110.6766 50.1647 0.0000 -13.8095 -0.0001
# 3 60.5897 50.1647 184.7631 0.0003 -12.0038 0.0006
# 4 0.0001 0.0000 0.0003 -0.6744 -0.0003 -8.2751
# 5 -10.3984 -13.8095 -12.0038 -0.0003 35.9520 -0.0006
# 6 0.0001 -0.0001 0.0006 -8.2751 -0.0006 8.6417
#
#
#
# Elastic Compliance Matrix: (Units=1/GPa)
#
#
# Indices 1 2 3 4 5 6 
#
# 1 0.007854 -0.002327 -0.001895 0.000000 0.000745 0.000000
# 2 -0.002327 0.011340 -0.002123 -0.000001 0.002974 0.000000
# 3 -0.001895 -0.002123 0.006666 0.000001 0.000862 0.000000
# 4 0.000000 -0.000001 0.000001 -0.116301 -0.000003 -0.111367
# 5 0.000745 0.002974 0.000862 -0.000003 0.029461 -0.000001
# 6 0.000000 0.000000 0.000000 -0.111367 -0.000001 0.009076
#
#
# Mechanical properties :
#
#
# Convention : Reuss Voigt Hill
#
# Bulk Modulus (GPa) = 75.92885 85.10947 80.51916
# Shear Modulus (GPa) = -143.58471 28.45665 -57.56403
#
# Velocity S-wave (km/s) = -8.49903 3.78362 -5.38135
# Velocity P-wave (km/s) = 7.62323 7.86790 1.37664
#
# Compressibility (1/GPa) = 0.01317022
#
# Stress axis : x y z
#
# Youngs Moduli (GPa) = 127.31636 88.18203 150.01036
#
# Poissons Ratio (x) = 0.20523 0.28433
# Poissons Ratio (y) = 0.29631 0.31840
# Poissons Ratio (z) = 0.24132 0.18717
#
# Static dielectric constant tensor:
#      x y z
#    x 1.743740 0.000000 -0.052150 
#    y 0.000000 1.810570 0.000000 
#    z -0.052150 0.000000 1.718070 
# 
# From -- ./inp_files/198748.got.cif
#   From: 2010.05.17/outbox.cif.g08.bks.cpg/sg12_100_cif.got.tgz:198748.got - 2010.06.03 13:09:07.
