data_PCOD9200104
_publ_section_title
;
Structure prediction by ZEFSAII (Michael W. Deem and Ramdas Pophale) SiO2 
 PCOD9200104
Probable space group: C 2/M
;
_chemical_formula_sum "Si O2"
_cell_formula_units_Z 42
_cell_length_a 9.654989
_cell_length_b 17.375839
_cell_length_c 13.943489
_cell_angle_alpha 90.000000
_cell_angle_beta 62.795049
_cell_angle_gamma 90.000000
_cell_volume 2080.438379
_symmetry_space_group_name_H-M "C 2/M"
_symmetry_group_IT_number 12
_symmetry_cell_setting 'monoclinic'
loop_
_space_group_symop_operation_xyz
x,y,z
-x,y,-z
-x,-y,-z
x,-y,z
1/2+x,1/2+y,z
1/2-x,1/2+y,-z
1/2-x,1/2-y,-z
1/2+x,1/2-y,z
loop_
_atom_site_type_symbol
_atom_site_label
_atom_site_fract_x
_atom_site_fract_y
_atom_site_fract_z
Si Si1 0.896687 0.414830 0.287066
Si Si2 0.174713 0.782873 0.428081
Si Si3 0.838928 0.587988 0.080836
Si Si4 0.509757 0.406848 0.108347
Si Si5 0.815957 0.626570 0.689215
Si Si6 0.000000 0.500000 0.500000
O O1 0.877770 0.500000 0.338440
O O2 0.781703 0.353510 0.366626
O O3 0.853901 0.418381 0.189789
O O4 0.072288 0.389597 0.254746
O O5 0.250000 0.750000 0.500000
O O6 0.168550 0.713303 0.354017
O O7 0.000000 0.810011 0.500000
O O8 0.842397 0.500000 0.038559
O O9 0.674133 0.621252 0.100296
O O10 0.000000 0.628037 0.000000
O O11 0.511083 0.500000 0.108690
O O12 0.361042 0.384929 0.219971
O O13 0.500000 0.382261 0.000000
O O14 0.886104 0.568297 0.586420
#
# Coordination Sequence:
#
# PCOD9200104 Si02
#       6
#     8   8   8   8   8   2
#     4  11  23  43  66  97 129 177 222 271 334 398
#     4  12  26  45  64  95 134 178 221 283 338 393
#     4   9  19  36  61  95 133 168 215 276 335 386
#     4  10  20  36  63  99 134 176 224 276 330 404
#     4  12  23  41  68  96 134 175 229 270 332 399
#     4  12  20  40  66  98 118 180 226 268 306 392
#
# _framework density 20.188051999999999
#
# number of rings (size 3 to 8) (size 9 to 14) (size 15 to 20)
#    0.000    1.143    4.762    1.143    2.667    3.429 
#    0.000    0.952    0.000    4.571    0.000    0.000 
#    0.000    0.000    0.000    0.000    0.000    0.000 
#
# Total GULP energy -116958.832699 kJ/mol
# GULP energy per Si atom -5569.468224 kJ/mol
# Density = 2.014210 g / cm^3
# Si number density = 20.188052 Si / 1000 Ang^3
#
#
#
# Elastic Constant Matrix: (Units=GPa)
#
#
# Indices 1 2 3 4 5 6 
#
# 1 166.8047 29.4936 56.0760 0.0000 -30.6360 0.0000
# 2 29.4936 85.0518 28.3054 0.0000 -9.9722 0.0000
# 3 56.0760 28.3054 107.3096 0.0000 -37.5103 0.0000
# 4 0.0000 0.0000 0.0000 1.1805 0.0000 1.4913
# 5 -30.6360 -9.9722 -37.5103 0.0000 43.7368 0.0000
# 6 0.0000 0.0000 0.0000 1.4913 0.0000 21.5081
#
#
#
# Elastic Compliance Matrix: (Units=1/GPa)
#
#
# Indices 1 2 3 4 5 6 
#
# 1 0.007648 -0.001447 -0.002653 0.000000 0.002752 0.000000
# 2 -0.001447 0.013163 -0.002887 0.000000 -0.000488 0.000000
# 3 -0.002653 -0.002887 0.015120 0.000000 0.010451 0.000000
# 4 0.000000 0.000000 0.000000 0.928396 0.000000 -0.064370
# 5 0.002752 -0.000488 0.010451 0.000000 0.033643 0.000000
# 6 0.000000 0.000000 0.000000 -0.064370 0.000000 0.050957
#
#
# Mechanical properties :
#
#
# Convention : Reuss Voigt Hill
#
# Bulk Modulus (GPa) = 45.54117 65.21292 55.37704
# Shear Modulus (GPa) = 4.67194 29.63782 17.15488
#
# Velocity S-wave (km/s) = 1.52290 3.83572 2.91822
# Velocity P-wave (km/s) = 5.06949 7.21040 6.23256
#
# Compressibility (1/GPa) = 0.02195815
#
# Stress axis : x y z
#
# Youngs Moduli (GPa) = 130.75016 75.97273 66.13888
#
# Poissons Ratio (x) = 0.10990 0.17547
# Poissons Ratio (y) = 0.18914 0.19091
# Poissons Ratio (z) = 0.34690 0.21930
#
# Static dielectric constant tensor:
#      x y z
#    x 1.722980 0.000000 0.025240 
#    y 0.000000 1.763990 0.000000 
#    z 0.025240 0.000000 1.735360 
# 
# From -- ./inp_files/195869.got.cif
#   From: 2010.05.17/outbox.cif.g08.bks.cpg/sg12_98_cif.got.tgz:195869.got - 2010.06.03 13:09:07.
