data_PCOD9200211
_publ_section_title
;
Structure prediction by ZEFSAII (Michael W. Deem and Ramdas Pophale) SiO2 
 PCOD9200211
Probable space group: C 2/M
;
_chemical_formula_sum "Si O2"
_cell_formula_units_Z 34
_cell_length_a 12.293868
_cell_length_b 13.831580
_cell_length_c 11.646029
_cell_angle_alpha 90.000000
_cell_angle_beta 128.586952
_cell_angle_gamma 90.000000
_cell_volume 1547.952034
_symmetry_space_group_name_H-M "C 2/M"
_symmetry_group_IT_number 12
_symmetry_cell_setting 'monoclinic'
loop_
_space_group_symop_operation_xyz
x,y,z
-x,y,-z
-x,-y,-z
x,-y,z
1/2+x,1/2+y,z
1/2-x,1/2+y,-z
1/2-x,1/2-y,-z
1/2+x,1/2-y,z
loop_
_atom_site_type_symbol
_atom_site_label
_atom_site_fract_x
_atom_site_fract_y
_atom_site_fract_z
Si Si1 0.649804 0.000000 0.860272
Si Si2 0.867242 0.831082 0.983216
Si Si3 0.718775 0.500000 0.675046
Si Si4 0.500000 0.000000 0.000000
Si Si5 0.359036 0.000000 0.532889
Si Si6 0.647553 0.690429 0.762421
Si Si7 0.000000 0.662351 0.500000
O O1 0.743109 0.907244 0.895036
O O2 0.509742 0.000000 0.695000
O O3 0.616957 0.000000 0.973123
O O4 0.804609 0.731895 0.888526
O O5 0.905362 0.822320 0.142377
O O6 0.000000 0.862308 0.000000
O O7 0.737849 0.500000 0.548695
O O8 0.650663 0.595305 0.685772
O O9 0.876609 0.500000 0.823569
O O10 0.374079 0.905095 0.463824
O O11 0.556486 0.769619 0.637504
#
# Coordination Sequence:
#
# PCOD9200211 Si02
#       7
#     4   8   4   2   4   8   4
#     4  11  19  43  66 102 135 176 225 285 336 401
#     4  11  24  40  68 103 139 178 226 284 344 399
#     4  11  24  40  65  98 133 182 224 274 343 396
#     4  10  20  36  72  90 138 164 234 278 324 396
#     4  10  24  43  70  97 130 183 222 286 323 412
#     4  11  25  43  66 101 137 179 229 279 336 413
#     4  11  24  47  68  96 140 171 234 279 340 406
#
# _framework density 21.964504999999999
#
# number of rings (size 3 to 8) (size 9 to 14) (size 15 to 20)
#    0.000    1.176    4.706    0.353    4.941    1.412 
#    0.000    0.000    0.000    0.000    0.000    0.000 
#    0.000    0.000    0.000    0.000    0.000    0.000 
#
# Total GULP energy -94801.839669 kJ/mol
# GULP energy per Si atom -5576.578804 kJ/mol
# Density = 2.191451 g / cm^3
# Si number density = 21.964505 Si / 1000 Ang^3
#
#
#
# Elastic Constant Matrix: (Units=GPa)
#
#
# Indices 1 2 3 4 5 6 
#
# 1 121.1289 39.0416 24.8193 0.0000 -23.2334 0.0000
# 2 39.0416 138.0632 25.1303 0.0000 -20.2054 0.0000
# 3 24.8193 25.1303 77.2334 0.0000 -24.6510 0.0000
# 4 0.0000 0.0000 0.0000 -0.5458 0.0000 -39.7981
# 5 -23.2334 -20.2054 -24.6510 0.0000 27.7628 0.0000
# 6 0.0000 0.0000 0.0000 -39.7981 0.0000 45.4772
#
#
#
# Elastic Compliance Matrix: (Units=1/GPa)
#
#
# Indices 1 2 3 4 5 6 
#
# 1 0.010250 -0.001807 -0.000541 0.000000 0.006782 0.000000
# 2 -0.001807 0.008487 -0.000966 0.000000 0.003807 0.000000
# 3 -0.000541 -0.000966 0.018235 0.000000 0.015035 0.000000
# 4 0.000000 0.000000 0.000000 -0.028269 0.000000 -0.024739
# 5 0.006782 0.003807 0.015035 0.000000 0.057815 0.000000
# 6 0.000000 0.000000 0.000000 -0.024739 0.000000 0.000339
#
#
# Mechanical properties :
#
#
# Convention : Reuss Voigt Hill
#
# Bulk Modulus (GPa) = 32.95646 57.15643 45.05645
# Shear Modulus (GPa) = 59.80876 31.03447 45.42161
#
# Velocity S-wave (km/s) = 5.22387 3.76298 4.55241
# Velocity P-wave (km/s) = 7.17092 6.70513 6.94193
#
# Compressibility (1/GPa) = 0.03034307
#
# Stress axis : x y z
#
# Youngs Moduli (GPa) = 97.56181 117.82635 54.84036
#
# Poissons Ratio (x) = 0.21297 0.02968
# Poissons Ratio (y) = 0.17634 0.05296
# Poissons Ratio (z) = 0.05280 0.11378
#
# Static dielectric constant tensor:
#      x y z
#    x 1.772000 0.000000 -0.008340 
#    y 0.000000 1.868920 0.000000 
#    z -0.008340 0.000000 1.803400 
# 
# From -- ./inp_files/128724.got.cif
#   From: 2010.05.17/outbox.cif.g08.bks.cpg/sg12_65_cif.got.tgz:128724.got - 2010.06.03 13:09:07.
