data_PCOD9200176
_publ_section_title
;
Structure prediction by ZEFSAII (Michael W. Deem and Ramdas Pophale) SiO2 
 PCOD9200176
Probable space group: C 2/M
;
_chemical_formula_sum "Si O2"
_cell_formula_units_Z 48
_cell_length_a 10.303959
_cell_length_b 15.697638
_cell_length_c 19.860810
_cell_angle_alpha 90.000000
_cell_angle_beta 40.621806
_cell_angle_gamma 90.000000
_cell_volume 2091.503019
_symmetry_space_group_name_H-M "C 2/M"
_symmetry_group_IT_number 12
_symmetry_cell_setting 'monoclinic'
loop_
_space_group_symop_operation_xyz
x,y,z
-x,y,-z
-x,-y,-z
x,-y,z
1/2+x,1/2+y,z
1/2-x,1/2+y,-z
1/2-x,1/2-y,-z
1/2+x,1/2-y,z
loop_
_atom_site_type_symbol
_atom_site_label
_atom_site_fract_x
_atom_site_fract_y
_atom_site_fract_z
Si Si1 0.884212 0.718317 0.305767
Si Si2 0.844201 0.818168 0.122430
Si Si3 0.896656 0.500000 0.967580
Si Si4 0.193458 0.905289 0.472661
Si Si5 0.345528 0.855230 0.188610
Si Si6 0.410910 0.404923 0.327652
Si Si7 0.454848 0.500000 0.098976
O O1 0.116898 0.706329 0.196621
O O2 0.826801 0.817735 0.328602
O O3 0.834633 0.672714 0.395510
O O4 0.781083 0.660345 0.290203
O O5 0.910931 0.738311 0.140205
O O6 0.846179 0.911098 0.155031
O O7 0.000000 0.820854 0.000000
O O8 0.975926 0.418990 0.895263
O O9 0.660248 0.500000 0.059111
O O10 0.000000 0.500000 0.000000
O O11 0.000000 0.899898 0.500000
O O12 0.143058 0.901919 0.571658
O O13 0.282283 0.000000 0.424807
O O14 0.151074 0.892577 0.228042
O O15 0.356041 0.500000 0.324269
O O16 0.500000 0.500000 0.000000
#
# Coordination Sequence:
#
# PCOD9200176 Si02
#       7
#     8   8   4   8   8   8   4
#     4  11  23  37  68  93 127 177 216 280 337 409
#     4  10  23  41  59  89 128 170 221 269 333 400
#     4  12  26  40  68  98 132 183 236 293 339 404
#     4  10  20  36  65  98 128 164 218 279 342 408
#     4  11  22  39  63  93 125 170 226 277 331 401
#     4  10  21  41  62  96 130 163 215 279 340 410
#     4  10  22  42  62  89 129 176 216 282 339 399
#
# _framework density 22.950002000000001
#
# number of rings (size 3 to 8) (size 9 to 14) (size 15 to 20)
#    0.000    1.500    2.500    3.000    2.333    5.333 
#    1.500    0.000    0.000    0.500    0.000    0.000 
#    0.000    0.000    0.000    0.000    0.000    0.000 
#
# Total GULP energy -133997.871231 kJ/mol
# GULP energy per Si atom -5583.244635 kJ/mol
# Density = 2.289777 g / cm^3
# Si number density = 22.950002 Si / 1000 Ang^3
#
#
#
# Elastic Constant Matrix: (Units=GPa)
#
#
# Indices 1 2 3 4 5 6 
#
# 1 42.2596 21.5725 -4.1830 -0.0013 8.3449 0.0025
# 2 21.5725 190.5237 47.3582 -0.0022 11.3103 0.0031
# 3 -4.1830 47.3582 68.8057 -0.0058 7.1917 0.0071
# 4 -0.0013 -0.0022 -0.0058 32.3619 0.0033 8.0971
# 5 8.3449 11.3103 7.1917 0.0033 15.9549 -0.0046
# 6 0.0025 0.0031 0.0071 8.0971 -0.0046 49.9197
#
#
#
# Elastic Compliance Matrix: (Units=1/GPa)
#
#
# Indices 1 2 3 4 5 6 
#
# 1 0.029281 -0.003918 0.006074 0.000005 -0.015275 -0.000004
# 2 -0.003918 0.006965 -0.004964 -0.000001 -0.000650 0.000001
# 3 0.006074 -0.004964 0.019188 0.000005 -0.008307 -0.000004
# 4 0.000005 -0.000001 0.000005 0.032208 -0.000012 -0.005224
# 5 -0.015275 -0.000650 -0.008307 -0.000012 0.074872 0.000011
# 6 -0.000004 0.000001 -0.000004 -0.005224 0.000011 0.020880
#
#
# Mechanical properties :
#
#
# Convention : Reuss Voigt Hill
#
# Bulk Modulus (GPa) = 20.07377 47.89826 33.98601
# Shear Modulus (GPa) = 24.31724 35.43673 29.87698
#
# Velocity S-wave (km/s) = 3.25864 3.93375 3.61200
# Velocity P-wave (km/s) = 4.78791 6.44581 5.67770
#
# Compressibility (1/GPa) = 0.04981625
#
# Stress axis : x y z
#
# Youngs Moduli (GPa) = 34.15182 143.57759 52.11619
#
# Poissons Ratio (x) = 0.56259 -0.31654
# Poissons Ratio (y) = 0.13382 0.25871
# Poissons Ratio (z) = -0.20743 0.71273
#
# Static dielectric constant tensor:
#      x y z
#    x 3.063850 0.000010 1.028310 
#    y 0.000010 1.819660 0.000010 
#    z 1.028310 0.000010 2.697810 
# 
# From -- ./inp_files/305652.got.cif
#   From: 2010.05.17/outbox.cif.g08.bks.cpg/sg12_153_cif.got.tgz:305652.got - 2010.06.03 13:09:07.
