data_PCOD9200258
_publ_section_title
;
Structure prediction by ZEFSAII (Michael W. Deem and Ramdas Pophale) SiO2 
 PCOD9200258
Probable space group: C 2/M
;
_chemical_formula_sum "Si O2"
_cell_formula_units_Z 56
_cell_length_a 10.857009
_cell_length_b 30.134008
_cell_length_c 9.285577
_cell_angle_alpha 90.000000
_cell_angle_beta 106.675050
_cell_angle_gamma 90.000000
_cell_volume 2910.165704
_symmetry_space_group_name_H-M "C 2/M"
_symmetry_group_IT_number 12
_symmetry_cell_setting 'monoclinic'
loop_
_space_group_symop_operation_xyz
x,y,z
-x,y,-z
-x,-y,-z
x,-y,z
1/2+x,1/2+y,z
1/2-x,1/2+y,-z
1/2-x,1/2-y,-z
1/2+x,1/2-y,z
loop_
_atom_site_type_symbol
_atom_site_label
_atom_site_fract_x
_atom_site_fract_y
_atom_site_fract_z
Si Si1 0.892454 0.301257 0.089227
Si Si2 0.373043 0.608419 0.191841
Si Si3 0.608557 0.551433 0.210795
Si Si4 0.171237 0.395897 0.881853
Si Si5 0.177777 0.048185 0.569987
Si Si6 0.481510 0.049881 0.653212
Si Si7 0.594112 0.295599 0.892161
O O1 0.877019 0.346430 0.173033
O O2 0.928243 0.254206 0.175184
O O3 0.746368 0.296137 0.980961
O O4 0.000000 0.307957 0.000000
O O5 0.471289 0.574984 0.145840
O O6 0.364186 0.589199 0.348063
O O7 0.424003 0.658846 0.201110
O O8 0.236827 0.605937 0.061447
O O9 0.614233 0.500000 0.163368
O O10 0.717171 0.582807 0.178675
O O11 0.635484 0.551020 0.391251
O O12 0.050422 0.426537 0.808363
O O13 0.331013 0.047726 0.626264
O O14 0.133512 0.000000 0.615298
O O15 0.500000 0.070724 0.500000
O O16 0.537296 0.000000 0.661609
O O17 0.500000 0.299051 0.000000
#
# Coordination Sequence:
#
# PCOD9200258 Si02
#       7
#     8   8   8   8   8   8   8
#     4   9  19  34  57  84 115 149 185 233 291 350
#     4  11  22  34  57  88 114 138 187 247 287 320
#     4  11  22  39  58  79 116 162 194 221 278 357
#     4  11  22  34  59  87 111 139 191 241 284 324
#     4  10  22  38  55  78 112 156 193 223 275 344
#     4  10  20  37  56  74 107 154 193 223 272 346
#     4   9  18  36  56  82 117 151 184 228 292 357
#
# _framework density 19.242892000000001
#
# number of rings (size 3 to 8) (size 9 to 14) (size 15 to 20)
#    0.000    1.857    1.429    3.429    4.000    4.000 
#    0.000    1.429    0.000    2.571    0.000    0.000 
#    0.000    0.000    0.000    0.000    0.000    0.000 
#
# Total GULP energy -155976.394589 kJ/mol
# GULP energy per Si atom -5570.585521 kJ/mol
# Density = 1.919909 g / cm^3
# Si number density = 19.242892 Si / 1000 Ang^3
#
#
#
# Elastic Constant Matrix: (Units=GPa)
#
#
# Indices 1 2 3 4 5 6 
#
# 1 98.3044 26.8114 8.3766 0.0000 6.1269 0.0000
# 2 26.8114 167.9162 35.9683 0.0000 -12.4683 0.0000
# 3 8.3766 35.9683 52.3784 0.0000 5.5276 0.0000
# 4 0.0000 0.0000 0.0000 -8.4626 0.0000 -6.6683
# 5 6.1269 -12.4683 5.5276 0.0000 31.6708 0.0000
# 6 0.0000 0.0000 0.0000 -6.6683 0.0000 29.7932
#
#
#
# Elastic Compliance Matrix: (Units=1/GPa)
#
#
# Indices 1 2 3 4 5 6 
#
# 1 0.010884 -0.001923 -0.000120 0.000000 -0.002842 0.000000
# 2 -0.001923 0.007763 -0.005486 0.000000 0.004386 0.000000
# 3 -0.000120 -0.005486 0.023538 0.000000 -0.006245 0.000000
# 4 0.000000 0.000000 0.000000 -0.100450 0.000000 -0.022483
# 5 -0.002842 0.004386 -0.006245 0.000000 0.034941 0.000000
# 6 0.000000 0.000000 0.000000 -0.022483 0.000000 0.028533
#
#
# Mechanical properties :
#
#
# Convention : Reuss Voigt Hill
#
# Bulk Modulus (GPa) = 36.86515 51.21239 44.03877
# Shear Modulus (GPa) = 170.59171 27.09646 98.84408
#
# Velocity S-wave (km/s) = 9.42572 3.75657 7.17482
# Velocity P-wave (km/s) = 11.73279 6.74442 9.56937
#
# Compressibility (1/GPa) = 0.02712589
#
# Stress axis : x y z
#
# Youngs Moduli (GPa) = 91.87484 128.81137 42.48529
#
# Poissons Ratio (x) = 0.24773 0.00510
# Poissons Ratio (y) = 0.17669 0.23309
# Poissons Ratio (z) = 0.01104 0.70670
#
# Static dielectric constant tensor:
#      x y z
#    x 1.716150 0.000000 0.000290 
#    y 0.000000 1.728560 0.000000 
#    z 0.000290 0.000000 1.673750 
# 
# From -- ./inp_files/54318.got.cif
#   From: 2010.05.17/outbox.cif.g08.bks.cpg/sg12_28_cif.got.tgz:54318.got - 2010.06.03 13:09:07.
