data_PCOD9200623
_publ_section_title
;
Structure prediction by ZEFSAII (Michael W. Deem and Ramdas Pophale) SiO2 
 PCOD9200623
Probable space group: C 2/M
;
_chemical_formula_sum "Si O2"
_cell_formula_units_Z 64
_cell_length_a 14.859154
_cell_length_b 8.739919
_cell_length_c 24.102995
_cell_angle_alpha 90.000000
_cell_angle_beta 97.646681
_cell_angle_gamma 90.000000
_cell_volume 3102.367527
_symmetry_space_group_name_H-M "C 2/M"
_symmetry_group_IT_number 12
_symmetry_cell_setting 'monoclinic'
loop_
_space_group_symop_operation_xyz
x,y,z
-x,y,-z
-x,-y,-z
x,-y,z
1/2+x,1/2+y,z
1/2-x,1/2+y,-z
1/2-x,1/2-y,-z
1/2+x,1/2-y,z
loop_
_atom_site_type_symbol
_atom_site_label
_atom_site_fract_x
_atom_site_fract_y
_atom_site_fract_z
Si Si1 0.735090 0.318389 0.411186
Si Si2 0.781480 0.180243 0.299628
Si Si3 0.894413 0.815972 0.499355
Si Si4 0.944656 0.316503 0.257290
Si Si5 0.471400 0.317259 0.903925
Si Si6 0.141130 0.682961 0.866296
Si Si7 0.880218 0.181462 0.776391
Si Si8 0.302391 0.684848 0.951910
O O1 0.736930 0.500000 0.401170
O O2 0.736429 0.230060 0.353623
O O3 0.825511 0.267762 0.451960
O O4 0.648330 0.284471 0.443332
O O5 0.878877 0.261593 0.300486
O O6 0.713116 0.236723 0.246190
O O7 0.793945 0.000000 0.297964
O O8 0.000000 0.773292 0.500000
O O9 0.887361 0.000000 0.489739
O O10 0.953715 0.500000 0.258129
O O11 0.892766 0.264601 0.196450
O O12 0.042717 0.239779 0.259928
O O13 0.484810 0.500000 0.909604
O O14 0.568002 0.238850 0.905250
O O15 0.418946 0.288021 0.841211
O O16 0.404909 0.265637 0.947573
O O17 0.140134 0.500000 0.864416
O O18 0.240273 0.729991 0.894099
O O19 0.866923 0.000000 0.770405
O O20 0.303506 0.500000 0.955670
O O21 0.250000 0.750000 0.000000
#
# Coordination Sequence:
#
# PCOD9200623 Si02
#       8
#     8   8   8   8   8   8   8   8
#     4  10  21  37  57  83 114 147 186 232 280 328
#     4  12  24  37  55  82 118 155 189 230 276 325
#     4   9  19  38  62  84 109 144 186 231 279 331
#     4  10  20  37  59  83 110 143 184 229 278 334
#     4   9  19  36  57  78 104 138 177 220 268 324
#     4   9  19  36  57  78 104 137 175 220 270 325
#     4  10  20  37  59  83 111 145 184 227 277 334
#     4  10  21  36  52  75 105 138 175 218 269 322
#
# _framework density 20.629404999999998
#
# number of rings (size 3 to 8) (size 9 to 14) (size 15 to 20)
#    0.000    2.125    0.000    3.000    0.000    6.250 
#    0.000    7.500    0.000    0.000    0.000    0.000 
#    0.000    0.000    0.000    0.000    0.000    0.000 
#
# Total GULP energy -178734.047974 kJ/mol
# GULP energy per Si atom -5585.438999 kJ/mol
# Density = 2.058245 g / cm^3
# Si number density = 20.629405 Si / 1000 Ang^3
#
#
#
# Elastic Constant Matrix: (Units=GPa)
#
#
# Indices 1 2 3 4 5 6 
#
# 1 105.4011 -1.8400 2.3459 0.0000 -20.7682 0.0000
# 2 -1.8400 12.9455 4.7162 0.0000 -2.2368 0.0000
# 3 2.3459 4.7162 32.5393 0.0000 -12.6637 0.0000
# 4 0.0000 0.0000 0.0000 27.0509 0.0000 -1.7290
# 5 -20.7682 -2.2368 -12.6637 0.0000 22.1864 0.0000
# 6 0.0000 0.0000 0.0000 -1.7290 0.0000 30.4142
#
#
#
# Elastic Compliance Matrix: (Units=1/GPa)
#
#
# Indices 1 2 3 4 5 6 
#
# 1 0.012222 0.002635 0.004233 0.000000 0.014123 0.000000
# 2 0.002635 0.082184 -0.010178 0.000000 0.004943 0.000000
# 3 0.004233 -0.010178 0.042482 0.000000 0.027185 0.000000
# 4 0.000000 0.000000 0.000000 0.037102 0.000000 0.002109
# 5 0.014123 0.004943 0.027185 0.000000 0.074308 0.000000
# 6 0.000000 0.000000 0.000000 0.002109 0.000000 0.032999
#
#
# Mechanical properties :
#
#
# Convention : Reuss Voigt Hill
#
# Bulk Modulus (GPa) = 7.67646 17.92557 12.80101
# Shear Modulus (GPa) = 15.09028 25.64120 20.36574
#
# Velocity S-wave (km/s) = 2.70755 3.52937 3.14541
# Velocity P-wave (km/s) = 3.67473 5.03158 4.40570
#
# Compressibility (1/GPa) = 0.13026840
#
# Stress axis : x y z
#
# Youngs Moduli (GPa) = 81.81896 12.16785 23.53951
#
# Poissons Ratio (x) = -0.03206 -0.09965
# Poissons Ratio (y) = -0.21560 0.23959
# Poissons Ratio (z) = -0.34636 0.12384
#
# Static dielectric constant tensor:
#      x y z
#    x 1.743830 0.000000 -0.011280 
#    y 0.000000 1.686800 0.000000 
#    z -0.011280 0.000000 1.776450 
# 
# From -- ./inp_files/338681.got.cif
#   From: 2010.05.17/outbox.cif.g08.bks.cpg/sg12_170_cif.got.tgz:338681.got - 2010.06.03 13:09:07.
