data_PCOD9200031
_publ_section_title
;
Structure prediction by ZEFSAII (Michael W. Deem and Ramdas Pophale) SiO2 
 PCOD9200031
Probable space group: C 2/M
;
_chemical_formula_sum "Si O2"
_cell_formula_units_Z 40
_cell_length_a 8.349206
_cell_length_b 13.775624
_cell_length_c 21.067407
_cell_angle_alpha 90.000000
_cell_angle_beta 139.408539
_cell_angle_gamma 90.000000
_cell_volume 1576.603020
_symmetry_space_group_name_H-M "C 2/M"
_symmetry_group_IT_number 12
_symmetry_cell_setting 'monoclinic'
loop_
_space_group_symop_operation_xyz
x,y,z
-x,y,-z
-x,-y,-z
x,-y,z
1/2+x,1/2+y,z
1/2-x,1/2+y,-z
1/2-x,1/2-y,-z
1/2+x,1/2-y,z
loop_
_atom_site_type_symbol
_atom_site_label
_atom_site_fract_x
_atom_site_fract_y
_atom_site_fract_z
Si Si1 0.942268 0.105233 0.408218
Si Si2 0.120864 0.602217 0.743940
Si Si3 0.949841 0.761428 0.114470
Si Si4 0.327527 0.617106 0.203072
Si Si5 0.627629 0.828748 0.604477
O O1 0.650438 0.101769 0.311118
O O2 0.978374 0.221573 0.410606
O O3 0.000000 0.097378 0.500000
O O4 0.038698 0.000000 0.409995
O O5 0.245683 0.500000 0.792318
O O6 0.300273 0.680398 0.827040
O O7 0.083235 0.614708 0.656613
O O8 0.077919 0.655852 0.160877
O O9 0.847857 0.829948 0.140337
O O10 0.750000 0.750000 0.000000
O O11 0.334237 0.500000 0.201101
O O12 0.576079 0.656597 0.313290
O O13 0.500000 0.859072 0.500000
#
# Coordination Sequence:
#
# PCOD9200031 Si02
#       5
#     8   8   8   8   8
#     4   9  18  34  56  82 117 160 204 254 319 385
#     4  10  21  39  60  86 124 167 210 263 331 394
#     4  11  23  43  70  97 128 174 230 282 341 402
#     4  11  25  47  70 101 141 179 224 283 345 403
#     4  10  20  36  63  89 128 171 216 264 326 402
#
# _framework density 25.371002000000001
#
# number of rings (size 3 to 8) (size 9 to 14) (size 15 to 20)
#    0.000    1.800    2.000    3.000    0.000    7.200 
#    0.000    6.000    0.000    6.000    0.000    0.000 
#    0.000    0.000    0.000    0.000    0.000    0.000 
#
# Total GULP energy -111539.903747 kJ/mol
# GULP energy per Si atom -5576.995187 kJ/mol
# Density = 2.531326 g / cm^3
# Si number density = 25.371002 Si / 1000 Ang^3
#
#
#
# Elastic Constant Matrix: (Units=GPa)
#
#
# Indices 1 2 3 4 5 6 
#
# 1 45.7131 40.3737 55.2763 0.0000 -1.4398 0.0000
# 2 40.3737 183.0973 57.9529 0.0000 -7.4625 0.0000
# 3 55.2763 57.9529 229.8225 0.0001 -14.0917 0.0000
# 4 0.0000 0.0000 0.0001 -44.9048 0.0000 -0.5161
# 5 -1.4398 -7.4625 -14.0917 0.0000 27.2658 0.0000
# 6 0.0000 0.0000 0.0000 -0.5161 0.0000 34.7530
#
#
#
# Elastic Compliance Matrix: (Units=1/GPa)
#
#
# Indices 1 2 3 4 5 6 
#
# 1 0.035688 -0.005680 -0.007364 0.000000 -0.003476 0.000000
# 2 -0.005680 0.006860 -0.000276 0.000000 0.001435 0.000000
# 3 -0.007364 -0.000276 0.006365 0.000000 0.002825 0.000000
# 4 0.000000 0.000000 0.000000 -0.022266 0.000000 -0.000331
# 5 -0.003476 0.001435 0.002825 0.000000 0.038345 0.000000
# 6 0.000000 0.000000 0.000000 -0.000331 0.000000 0.028770
#
#
# Mechanical properties :
#
#
# Convention : Reuss Voigt Hill
#
# Bulk Modulus (GPa) = 44.89833 85.09319 64.99576
# Shear Modulus (GPa) = 39.11561 23.75814 31.43688
#
# Velocity S-wave (km/s) = 3.93077 3.06343 3.52389
# Velocity P-wave (km/s) = 6.19164 6.79155 6.49852
#
# Compressibility (1/GPa) = 0.02227254
#
# Stress axis : x y z
#
# Youngs Moduli (GPa) = 28.02095 145.77724 157.10451
#
# Poissons Ratio (x) = 0.82802 1.15697
# Poissons Ratio (y) = 0.15916 0.04331
# Poissons Ratio (z) = 0.20636 0.04018
#
# Static dielectric constant tensor:
#      x y z
#    x 2.294540 0.000000 -0.016430 
#    y 0.000000 2.211130 0.000000 
#    z -0.016430 0.000000 1.927060 
# 
# From -- ./inp_files/358096.got.cif
#   From: 2010.05.17/outbox.cif.g08.bks.cpg/sg12_180_cif.got.tgz:358096.got - 2010.06.03 13:09:07.
