data_PCOD9200619
_publ_section_title
;
Structure prediction by ZEFSAII (Michael W. Deem and Ramdas Pophale) SiO2 
 PCOD9200619
Probable space group: C 2/M
;
_chemical_formula_sum "Si O2"
_cell_formula_units_Z 48
_cell_length_a 15.223077
_cell_length_b 16.458404
_cell_length_c 9.775231
_cell_angle_alpha 90.000000
_cell_angle_beta 75.771346
_cell_angle_gamma 90.000000
_cell_volume 2374.026199
_symmetry_space_group_name_H-M "C 2/M"
_symmetry_group_IT_number 12
_symmetry_cell_setting 'monoclinic'
loop_
_space_group_symop_operation_xyz
x,y,z
-x,y,-z
-x,-y,-z
x,-y,z
1/2+x,1/2+y,z
1/2-x,1/2+y,-z
1/2-x,1/2-y,-z
1/2+x,1/2-y,z
loop_
_atom_site_type_symbol
_atom_site_label
_atom_site_fract_x
_atom_site_fract_y
_atom_site_fract_z
Si Si1 0.277104 0.694680 0.220856
Si Si2 0.000000 0.638480 0.000000
Si Si3 0.190144 0.592539 0.480481
Si Si4 0.000000 0.319905 0.500000
Si Si5 0.345285 0.593626 0.939615
Si Si6 0.923108 0.752714 0.794126
Si Si7 0.177487 0.622913 0.800604
O O1 0.258622 0.650824 0.371928
O O2 0.178866 0.723882 0.203345
O O3 0.331331 0.778799 0.207037
O O4 0.319624 0.633471 0.094931
O O5 0.918604 0.592243 0.106498
O O6 0.045328 0.694939 0.096848
O O7 0.199476 0.500000 0.427911
O O8 0.088942 0.625226 0.488017
O O9 0.202050 0.595167 0.639009
O O10 0.983219 0.264728 0.638818
O O11 0.372371 0.500000 0.940553
O O12 0.417963 0.654261 0.843434
O O13 0.256036 0.600058 0.877063
#
# Coordination Sequence:
#
# PCOD9200619 Si02
#       7
#     8   4   8   4   8   8   8
#     4  10  20  38  58  81 109 156 193 218 270 347
#     4  12  18  36  62  84 108 138 198 234 264 332
#     4  11  22  35  54  85 116 144 181 236 288 325
#     4  10  21  36  57  80 116 150 186 222 281 344
#     4  11  21  38  59  84 115 147 187 238 279 322
#     4  10  20  37  59  83 108 153 194 222 273 341
#     4  11  21  37  59  84 110 149 189 233 274 337
#
# _framework density 20.218816
#
# number of rings (size 3 to 8) (size 9 to 14) (size 15 to 20)
#    0.000    1.333    5.000    2.750    0.000    0.000 
#    0.000    4.167    0.000    0.000    0.000    0.000 
#    0.000    0.000    0.000    0.000    0.000    0.000 
#
# Total GULP energy -134140.027180 kJ/mol
# GULP energy per Si atom -5589.167799 kJ/mol
# Density = 2.017280 g / cm^3
# Si number density = 20.218816 Si / 1000 Ang^3
#
#
#
# Elastic Constant Matrix: (Units=GPa)
#
#
# Indices 1 2 3 4 5 6 
#
# 1 22.0165 -2.5964 5.1533 0.0000 -4.3004 0.0000
# 2 -2.5964 142.6431 41.6074 0.0000 -16.4734 0.0000
# 3 5.1533 41.6074 126.5887 0.0000 -12.3113 0.0000
# 4 0.0000 0.0000 0.0000 1.9387 0.0000 16.3942
# 5 -4.3004 -16.4734 -12.3113 0.0000 19.9367 0.0000
# 6 0.0000 0.0000 0.0000 16.3942 0.0000 -2.2790
#
#
#
# Elastic Compliance Matrix: (Units=1/GPa)
#
#
# Indices 1 2 3 4 5 6 
#
# 1 0.048421 0.002731 -0.001738 0.000000 0.011628 0.000000
# 2 0.002731 0.008437 -0.002286 0.000000 0.006149 0.000000
# 3 -0.001738 -0.002286 0.009045 0.000000 0.003321 0.000000
# 4 0.000000 0.000000 0.000000 0.008342 0.000000 0.060011
# 5 0.011628 0.006149 0.003321 0.000000 0.059799 0.000000
# 6 0.000000 0.000000 0.000000 0.060011 0.000000 -0.007097
#
#
# Mechanical properties :
#
#
# Convention : Reuss Voigt Hill
#
# Bulk Modulus (GPa) = 15.79372 42.17521 28.98447
# Shear Modulus (GPa) = 33.19204 20.39155 26.79179
#
# Velocity S-wave (km/s) = 4.05611 3.17920 3.64413
# Velocity P-wave (km/s) = 5.45568 5.86354 5.66328
#
# Compressibility (1/GPa) = 0.06331630
#
# Stress axis : x y z
#
# Youngs Moduli (GPa) = 20.65240 118.52230 110.56023
#
# Poissons Ratio (x) = -0.32371 0.19215
# Poissons Ratio (y) = -0.05641 0.25278
# Poissons Ratio (z) = 0.03589 0.27098
#
# Static dielectric constant tensor:
#      x y z
#    x 1.721840 0.000000 -0.000040 
#    y 0.000000 1.708940 0.000000 
#    z -0.000040 0.000000 1.706620 
# 
# From -- ./inp_files/74512.got.cif
#   From: 2010.05.17/outbox.cif.g08.bks.cpg/sg12_38_cif.got.tgz:74512.got - 2010.06.03 13:09:07.
