data_PCOD9200445
_publ_section_title
;
Structure prediction by ZEFSAII (Michael W. Deem and Ramdas Pophale) SiO2 
 PCOD9200445
Probable space group: C 2/M
;
_chemical_formula_sum "Si O2"
_cell_formula_units_Z 56
_cell_length_a 19.151758
_cell_length_b 8.555257
_cell_length_c 24.988116
_cell_angle_alpha 90.000000
_cell_angle_beta 137.886307
_cell_angle_gamma 90.000000
_cell_volume 2745.625557
_symmetry_space_group_name_H-M "C 2/M"
_symmetry_group_IT_number 12
_symmetry_cell_setting 'monoclinic'
loop_
_space_group_symop_operation_xyz
x,y,z
-x,y,-z
-x,-y,-z
x,-y,z
1/2+x,1/2+y,z
1/2-x,1/2+y,-z
1/2-x,1/2-y,-z
1/2+x,1/2-y,z
loop_
_atom_site_type_symbol
_atom_site_label
_atom_site_fract_x
_atom_site_fract_y
_atom_site_fract_z
Si Si1 0.189852 0.688644 0.414307
Si Si2 0.618384 0.184648 0.078855
Si Si3 0.510162 0.818724 0.834966
Si Si4 0.263018 0.183776 0.676365
Si Si5 0.960649 0.815829 0.261674
Si Si6 0.793844 0.318043 0.247544
Si Si7 0.171857 0.182608 0.999576
O O1 0.180734 0.500000 0.409639
O O2 0.250000 0.750000 0.500000
O O3 0.248419 0.731702 0.392038
O O4 0.074565 0.761161 0.345979
O O5 0.680022 0.271618 0.160416
O O6 0.617430 0.000000 0.090152
O O7 0.500000 0.235614 0.000000
O O8 0.678356 0.221489 0.057953
O O9 0.386739 0.799230 0.758069
O O10 0.558792 0.774890 0.805075
O O11 0.559388 0.712869 0.908769
O O12 0.531738 0.000000 0.860254
O O13 0.202780 0.275393 0.688023
O O14 0.237981 0.000000 0.667110
O O15 0.876188 0.776212 0.258599
O O16 0.961076 0.000000 0.250584
O O17 0.812584 0.500000 0.249860
O O18 0.189404 0.000000 0.019456
O O19 0.250000 0.250000 0.000000
#
# Coordination Sequence:
#
# PCOD9200445 Si02
#       7
#     8   8   8   8   8   8   8
#     4  10  21  40  66  95 125 154 189 232 282 341
#     4  11  24  41  59  80 112 154 197 244 299 352
#     4  10  20  37  58  81 111 146 190 240 290 345
#     4   9  20  38  60  85 115 151 186 226 279 340
#     4  11  22  38  61  87 118 156 196 238 289 345
#     4  12  24  38  58  85 118 153 195 245 291 343
#     4  12  24  37  54  78 109 145 191 243 294 345
#
# _framework density 20.396080000000001
#
# number of rings (size 3 to 8) (size 9 to 14) (size 15 to 20)
#    0.000    1.286    0.000    7.714    0.000    8.000 
#    0.000    0.714    0.000    4.286    0.000    0.000 
#    0.000    0.000    0.000    0.000    0.000    0.000 
#
# Total GULP energy -156650.776148 kJ/mol
# GULP energy per Si atom -5594.670577 kJ/mol
# Density = 2.034966 g / cm^3
# Si number density = 20.396080 Si / 1000 Ang^3
#
#
#
# Elastic Constant Matrix: (Units=GPa)
#
#
# Indices 1 2 3 4 5 6 
#
# 1 83.6039 1.2139 6.7382 0.0000 -17.2386 0.0000
# 2 1.2139 49.7655 -2.1346 0.0000 0.1139 0.0000
# 3 6.7382 -2.1346 70.1709 0.0000 -20.7181 0.0000
# 4 0.0000 0.0000 0.0000 32.8576 0.0000 -1.4353
# 5 -17.2386 0.1139 -20.7181 0.0000 28.3090 0.0000
# 6 0.0000 0.0000 0.0000 -1.4353 0.0000 28.6959
#
#
#
# Elastic Compliance Matrix: (Units=1/GPa)
#
#
# Indices 1 2 3 4 5 6 
#
# 1 0.013802 -0.000296 0.001464 0.000000 0.009477 0.000000
# 2 -0.000296 0.020132 0.000719 0.000000 0.000265 0.000000
# 3 0.001464 0.000719 0.018362 0.000000 0.014327 0.000000
# 4 0.000000 0.000000 0.000000 0.030501 0.000000 0.001526
# 5 0.009477 0.000265 0.014327 0.000000 0.051580 0.000000
# 6 0.000000 0.000000 0.000000 0.001526 0.000000 0.034924
#
#
# Mechanical properties :
#
#
# Convention : Reuss Voigt Hill
#
# Bulk Modulus (GPa) = 17.83479 23.90834 20.87157
# Shear Modulus (GPa) = 27.14206 31.15402 29.14804
#
# Velocity S-wave (km/s) = 3.65190 3.91250 3.78445
# Velocity P-wave (km/s) = 5.15219 5.67078 5.41769
#
# Compressibility (1/GPa) = 0.05607018
#
# Stress axis : x y z
#
# Youngs Moduli (GPa) = 72.45567 49.67293 54.45940
#
# Poissons Ratio (x) = 0.01468 -0.07972
# Poissons Ratio (y) = 0.02141 -0.03916
# Poissons Ratio (z) = -0.10606 -0.03572
#
# Static dielectric constant tensor:
#      x y z
#    x 1.762950 0.000000 0.010690 
#    y 0.000000 1.682650 0.000000 
#    z 0.010690 0.000000 1.724120 
# 
# From -- ./inp_files/342525.got.cif
#   From: 2010.05.17/outbox.cif.g08.bks.cpg/sg12_172_cif.got.tgz:342525.got - 2010.06.03 13:09:07.
