data_PCOD9200335
_publ_section_title
;
Structure prediction by ZEFSAII (Michael W. Deem and Ramdas Pophale) SiO2 
 PCOD9200335
Probable space group: C 2/M
;
_chemical_formula_sum "Si O2"
_cell_formula_units_Z 56
_cell_length_a 24.183564
_cell_length_b 7.596220
_cell_length_c 14.576151
_cell_angle_alpha 90.000000
_cell_angle_beta 71.267083
_cell_angle_gamma 90.000000
_cell_volume 2535.844191
_symmetry_space_group_name_H-M "C 2/M"
_symmetry_group_IT_number 12
_symmetry_cell_setting 'monoclinic'
loop_
_space_group_symop_operation_xyz
x,y,z
-x,y,-z
-x,-y,-z
x,-y,z
1/2+x,1/2+y,z
1/2-x,1/2+y,-z
1/2-x,1/2-y,-z
1/2+x,1/2-y,z
loop_
_atom_site_type_symbol
_atom_site_label
_atom_site_fract_x
_atom_site_fract_y
_atom_site_fract_z
Si Si1 0.578062 0.698915 0.195654
Si Si2 0.020342 0.702221 0.890252
Si Si3 0.682628 0.209096 0.016019
Si Si4 0.343154 0.290922 0.695169
Si Si5 0.816101 0.290301 0.499539
Si Si6 0.373717 0.785206 0.289846
Si Si7 0.217751 0.286286 0.806713
O O1 0.555450 0.500000 0.219793
O O2 0.532645 0.796124 0.154204
O O3 0.637905 0.696545 0.105624
O O4 0.599401 0.776754 0.282170
O O5 0.037681 0.500000 0.902665
O O6 0.073935 0.780002 0.802698
O O7 0.000000 0.778845 0.000000
O O8 0.672451 0.000000 0.029105
O O9 0.750000 0.250000 0.000000
O O10 0.677454 0.266244 0.913047
O O11 0.345004 0.500000 0.711971
O O12 0.333261 0.270445 0.592167
O O13 0.283613 0.217529 0.772386
O O14 0.819608 0.500000 0.499470
O O15 0.750000 0.250000 0.500000
O O16 0.863128 0.224264 0.399127
O O17 0.313878 0.740092 0.269773
O O18 0.378930 0.000000 0.289775
O O19 0.221293 0.500000 0.809295
#
# Coordination Sequence:
#
# PCOD9200335 Si02
#       7
#     8   8   8   8   8   8   8
#     4  11  23  39  57  82 119 159 194 244 303 351
#     4  10  21  40  65  88 111 151 202 244 288 356
#     4  11  20  32  53  82 115 152 192 236 291 355
#     4  10  20  37  57  80 115 155 192 236 292 349
#     4  11  21  35  58  88 120 155 193 241 296 352
#     4   9  18  34  58  84 111 145 191 242 290 340
#     4   9  16  31  54  79 111 149 184 230 289 344
#
# _framework density 22.083373999999999
#
# number of rings (size 3 to 8) (size 9 to 14) (size 15 to 20)
#    0.000    1.857    2.857    2.143    0.000    3.714 
#    0.000    2.143    0.000    4.286    0.000    0.000 
#    0.000    0.000    0.000    0.000    0.000    0.000 
#
# Total GULP energy -156187.491250 kJ/mol
# GULP energy per Si atom -5578.124687 kJ/mol
# Density = 2.203311 g / cm^3
# Si number density = 22.083374 Si / 1000 Ang^3
#
#
#
# Elastic Constant Matrix: (Units=GPa)
#
#
# Indices 1 2 3 4 5 6 
#
# 1 87.8178 -4.6152 42.7568 0.0000 11.4851 0.0000
# 2 -4.6152 60.2111 3.8348 0.0000 0.7651 0.0000
# 3 42.7568 3.8348 146.0014 0.0000 17.1926 0.0000
# 4 0.0000 0.0000 0.0000 19.3427 0.0000 4.7815
# 5 11.4851 0.7651 17.1926 0.0000 39.0234 0.0000
# 6 0.0000 0.0000 0.0000 4.7815 0.0000 16.8794
#
#
#
# Elastic Compliance Matrix: (Units=1/GPa)
#
#
# Indices 1 2 3 4 5 6 
#
# 1 0.013584 0.001309 -0.003732 0.000000 -0.002379 0.000000
# 2 0.001309 0.016763 -0.000780 0.000000 -0.000370 0.000000
# 3 -0.003732 -0.000780 0.008260 0.000000 -0.002525 0.000000
# 4 0.000000 0.000000 0.000000 0.055592 0.000000 -0.015748
# 5 -0.002379 -0.000370 -0.002525 0.000000 0.027446 0.000000
# 6 0.000000 0.000000 0.000000 -0.015748 0.000000 0.063705
#
#
# Mechanical properties :
#
#
# Convention : Reuss Voigt Hill
#
# Bulk Modulus (GPa) = 31.05497 41.99811 36.52654
# Shear Modulus (GPa) = 24.69254 31.85270 28.27262
#
# Velocity S-wave (km/s) = 3.34750 3.80199 3.58196
# Velocity P-wave (km/s) = 5.38834 6.19135 5.80375
#
# Compressibility (1/GPa) = 0.03220096
#
# Stress axis : x y z
#
# Youngs Moduli (GPa) = 73.61363 59.65533 121.06280
#
# Poissons Ratio (x) = -0.07810 0.45186
# Poissons Ratio (y) = -0.09638 0.09444
# Poissons Ratio (z) = 0.27476 0.04654
#
# Static dielectric constant tensor:
#      x y z
#    x 1.854660 0.000000 0.053280 
#    y 0.000000 -28.878430 0.000000 
#    z 0.053280 0.000000 1.871720 
# 
# From -- ./inp_files/237487.got.cif
#   From: 2010.05.17/outbox.cif.g08.bks.cpg/sg12_119_cif.got.tgz:237487.got - 2010.06.03 13:09:07.
