data_PCOD9200793
_publ_section_title
;
Structure prediction by ZEFSAII (Michael W. Deem and Ramdas Pophale) SiO2 
 PCOD9200793
Probable space group: C 2/M
;
_chemical_formula_sum "Si O2"
_cell_formula_units_Z 56
_cell_length_a 19.783545
_cell_length_b 9.179483
_cell_length_c 20.813098
_cell_angle_alpha 90.000000
_cell_angle_beta 124.365956
_cell_angle_gamma 90.000000
_cell_volume 3119.962222
_symmetry_space_group_name_H-M "C 2/M"
_symmetry_group_IT_number 12
_symmetry_cell_setting 'monoclinic'
loop_
_space_group_symop_operation_xyz
x,y,z
-x,y,-z
-x,-y,-z
x,-y,z
1/2+x,1/2+y,z
1/2-x,1/2+y,-z
1/2-x,1/2-y,-z
1/2+x,1/2-y,z
loop_
_atom_site_type_symbol
_atom_site_label
_atom_site_fract_x
_atom_site_fract_y
_atom_site_fract_z
Si Si1 0.627478 0.175034 0.230771
Si Si2 0.442764 0.674548 0.326270
Si Si3 0.331060 0.325399 0.016885
Si Si4 0.311609 0.324799 0.364738
Si Si5 0.431744 0.166993 0.520209
Si Si6 0.403610 0.827357 0.934634
Si Si7 0.532246 0.325445 0.804793
O O1 0.717653 0.216951 0.303332
O O2 0.616952 0.211490 0.149712
O O3 0.554395 0.249821 0.229988
O O4 0.620020 0.000000 0.232040
O O5 0.452629 0.500000 0.336339
O O6 0.366169 0.713444 0.330989
O O7 0.523659 0.750573 0.397913
O O8 0.431933 0.713065 0.245976
O O9 0.322600 0.500000 0.011979
O O10 0.405477 0.285742 0.104926
O O11 0.250000 0.250000 0.000000
O O12 0.352932 0.264779 0.958589
O O13 0.316116 0.500000 0.374516
O O14 0.354298 0.248735 0.448282
O O15 0.500000 0.167821 0.500000
O O16 0.413084 0.000000 0.526364
O O17 0.386462 0.000000 0.934238
O O18 0.500000 0.804632 0.000000
O O19 0.521752 0.500000 0.800872
#
# Coordination Sequence:
#
# PCOD9200793 Si02
#       7
#     8   8   8   8   8   8   8
#     4  10  21  36  57  82 110 146 184 225 270 325
#     4   9  18  34  56  79 105 141 181 220 267 321
#     4  11  24  39  58  83 113 147 186 232 278 327
#     4   9  18  33  56  81 105 139 183 222 262 321
#     4   9  17  31  52  80 111 138 170 219 274 320
#     4  10  20  37  60  82 110 148 187 227 274 326
#     4  10  22  38  56  79 111 146 180 226 275 323
#
# _framework density 17.948934999999999
#
# number of rings (size 3 to 8) (size 9 to 14) (size 15 to 20)
#    0.000    2.286    1.429    0.857    2.000    4.286 
#    0.000    0.714    0.000    0.000    0.000    0.000 
#    0.000    0.000    0.000    0.000    0.000    0.000 
#
# Total GULP energy -156253.838929 kJ/mol
# GULP energy per Si atom -5580.494247 kJ/mol
# Density = 1.790808 g / cm^3
# Si number density = 17.948935 Si / 1000 Ang^3
#
#
#
# Elastic Constant Matrix: (Units=GPa)
#
#
# Indices 1 2 3 4 5 6 
#
# 1 68.8563 23.3307 3.7317 0.0000 15.3281 0.0000
# 2 23.3307 19.5210 3.3601 0.0000 7.7765 0.0000
# 3 3.7317 3.3601 29.3011 0.0000 19.2458 0.0000
# 4 0.0000 0.0000 0.0000 12.7343 0.0000 0.8975
# 5 15.3281 7.7765 19.2458 0.0000 33.0410 0.0000
# 6 0.0000 0.0000 0.0000 0.8975 0.0000 31.2745
#
#
#
# Elastic Compliance Matrix: (Units=1/GPa)
#
#
# Indices 1 2 3 4 5 6 
#
# 1 0.025697 -0.028282 0.005553 0.000000 -0.008499 0.000000
# 2 -0.028282 0.087896 -0.002442 0.000000 -0.006145 0.000000
# 3 0.005553 -0.002442 0.056714 0.000000 -0.035036 0.000000
# 4 0.000000 0.000000 0.000000 0.078687 0.000000 -0.002258
# 5 -0.008499 -0.006145 -0.035036 0.000000 0.056062 0.000000
# 6 0.000000 0.000000 0.000000 -0.002258 0.000000 0.032040
#
#
# Mechanical properties :
#
#
# Convention : Reuss Voigt Hill
#
# Bulk Modulus (GPa) = 8.33567 19.83594 14.08581
# Shear Modulus (GPa) = 11.69792 21.22702 16.46247
#
# Velocity S-wave (km/s) = 2.55568 3.44268 3.03179
# Velocity P-wave (km/s) = 3.65552 5.18440 4.48558
#
# Compressibility (1/GPa) = 0.11996631
#
# Stress axis : x y z
#
# Youngs Moduli (GPa) = 38.91517 11.37703 17.63235
#
# Poissons Ratio (x) = 0.32176 -0.09791
# Poissons Ratio (y) = 1.10060 0.04305
# Poissons Ratio (z) = -0.21610 0.02778
#
# Static dielectric constant tensor:
#      x y z
#    x 1.592190 0.000000 -0.003470 
#    y 0.000000 1.601000 0.000000 
#    z -0.003470 0.000000 1.600650 
# 
# From -- ./inp_files/275337.got.cif
#   From: 2010.05.17/outbox.cif.g08.bks.cpg/sg12_138_cif.got.tgz:275337.got - 2010.06.03 13:09:07.
