data_PCOD9200991
_publ_section_title
;
Structure prediction by ZEFSAII (Michael W. Deem and Ramdas Pophale) SiO2 
 PCOD9200991
Probable space group: C 2/M
;
_chemical_formula_sum "Si O2"
_cell_formula_units_Z 56
_cell_length_a 19.799777
_cell_length_b 14.700582
_cell_length_c 8.780829
_cell_angle_alpha 90.000000
_cell_angle_beta 85.175078
_cell_angle_gamma 90.000000
_cell_volume 2546.763602
_symmetry_space_group_name_H-M "C 2/M"
_symmetry_group_IT_number 12
_symmetry_cell_setting 'monoclinic'
loop_
_space_group_symop_operation_xyz
x,y,z
-x,y,-z
-x,-y,-z
x,-y,z
1/2+x,1/2+y,z
1/2-x,1/2+y,-z
1/2-x,1/2-y,-z
1/2+x,1/2-y,z
loop_
_atom_site_type_symbol
_atom_site_label
_atom_site_fract_x
_atom_site_fract_y
_atom_site_fract_z
Si Si1 0.294628 0.399624 0.779004
Si Si2 0.658176 0.725501 0.837782
Si Si3 0.406158 0.097839 0.670076
Si Si4 0.793939 0.343450 0.910838
Si Si5 0.559523 0.392256 0.682434
Si Si6 0.157337 0.598905 0.650554
Si Si7 0.573820 0.696563 0.345717
O O1 0.325967 0.500000 0.777059
O O2 0.238376 0.397391 0.656524
O O3 0.352415 0.328286 0.730118
O O4 0.250797 0.387619 0.943414
O O5 0.736881 0.694674 0.805581
O O6 0.610142 0.642983 0.803006
O O7 0.634347 0.810718 0.740850
O O8 0.662997 0.768087 0.004525
O O9 0.348596 0.099306 0.810595
O O10 0.367964 0.100501 0.515724
O O11 0.442650 0.195970 0.668029
O O12 0.443882 0.000000 0.671961
O O13 0.564795 0.500000 0.657799
O O14 0.482914 0.361630 0.730495
O O15 0.574414 0.338991 0.520706
O O16 0.136508 0.500000 0.721748
#
# Coordination Sequence:
#
# PCOD9200991 Si02
#       7
#     8   8   8   8   8   8   8
#     4  10  20  37  60  88 124 165 203 252 310 369
#     4  10  20  40  59  88 123 165 201 252 309 364
#     4  11  22  38  62  93 124 160 204 256 310 371
#     4  10  22  38  62  92 130 163 197 250 314 374
#     4  11  24  41  64  93 122 162 212 260 305 360
#     4   9  19  34  58  90 118 154 204 252 310 366
#     4  11  22  40  62  89 128 164 207 262 310 355
#
# _framework density 21.988692
#
# number of rings (size 3 to 8) (size 9 to 14) (size 15 to 20)
#    0.000    1.714    1.429    4.714    2.000    2.857 
#    0.000    7.143    0.000    5.143    0.000    0.000 
#    0.000    0.000    0.000    0.000    0.000    0.000 
#
# Total GULP energy -156110.828547 kJ/mol
# GULP energy per Si atom -5575.386734 kJ/mol
# Density = 2.193864 g / cm^3
# Si number density = 21.988692 Si / 1000 Ang^3
#
#
#
# Elastic Constant Matrix: (Units=GPa)
#
#
# Indices 1 2 3 4 5 6 
#
# 1 37.3111 14.5391 7.8999 0.0000 17.3419 0.0000
# 2 14.5391 158.8213 8.8555 0.0000 11.4520 0.0000
# 3 7.8999 8.8555 20.2480 0.0000 12.6692 0.0000
# 4 0.0000 0.0000 0.0000 -51.9486 0.0000 -60.5262
# 5 17.3419 11.4520 12.6692 0.0000 23.5811 0.0000
# 6 0.0000 0.0000 0.0000 -60.5262 0.0000 -25.0837
#
#
#
# Elastic Compliance Matrix: (Units=1/GPa)
#
#
# Indices 1 2 3 4 5 6 
#
# 1 0.041425 -0.001737 0.004717 0.000000 -0.032156 0.000000
# 2 -0.001737 0.006621 -0.001514 0.000000 -0.001125 0.000000
# 3 0.004717 -0.001514 0.075200 0.000000 -0.043135 0.000000
# 4 0.000000 0.000000 0.000000 0.010627 0.000000 -0.025643
# 5 -0.032156 -0.001125 -0.043135 0.000000 0.089776 0.000000
# 6 0.000000 0.000000 0.000000 -0.025643 0.000000 0.022009
#
#
# Mechanical properties :
#
#
# Convention : Reuss Voigt Hill
#
# Bulk Modulus (GPa) = 7.92531 30.99659 19.46095
# Shear Modulus (GPa) = 17.55709 1.64882 9.60296
#
# Velocity S-wave (km/s) = 2.82877 0.86688 2.09206
# Velocity P-wave (km/s) = 3.77907 3.88962 3.83474
#
# Compressibility (1/GPa) = 0.12617803
#
# Stress axis : x y z
#
# Youngs Moduli (GPa) = 24.13974 151.03700 13.29794
#
# Poissons Ratio (x) = 0.26229 -0.06273
# Poissons Ratio (y) = 0.04192 0.02014
# Poissons Ratio (z) = -0.11387 0.22874
#
# Static dielectric constant tensor:
#      x y z
#    x 1.806650 0.000000 -0.017360 
#    y 0.000000 1.920350 0.000000 
#    z -0.017360 0.000000 1.811400 
# 
# From -- ./inp_files/86315.got.cif
#   From: 2010.05.17/outbox.cif.g08.bks.cpg/sg12_44_cif.got.tgz:86315.got - 2010.06.03 13:09:07.
