data_PCOD9200762
_publ_section_title
;
Structure prediction by ZEFSAII (Michael W. Deem and Ramdas Pophale) SiO2 
 PCOD9200762
Probable space group: C 2/M
;
_chemical_formula_sum "Si O2"
_cell_formula_units_Z 36
_cell_length_a 14.826688
_cell_length_b 10.816040
_cell_length_c 11.871133
_cell_angle_alpha 90.000000
_cell_angle_beta 111.285690
_cell_angle_gamma 90.000000
_cell_volume 1773.858138
_symmetry_space_group_name_H-M "C 2/M"
_symmetry_group_IT_number 12
_symmetry_cell_setting 'monoclinic'
loop_
_space_group_symop_operation_xyz
x,y,z
-x,y,-z
-x,-y,-z
x,-y,z
1/2+x,1/2+y,z
1/2-x,1/2+y,-z
1/2-x,1/2-y,-z
1/2+x,1/2-y,z
loop_
_atom_site_type_symbol
_atom_site_label
_atom_site_fract_x
_atom_site_fract_y
_atom_site_fract_z
Si Si1 0.500000 0.705944 0.000000
Si Si2 0.596206 0.637138 0.817515
Si Si3 0.510422 0.861511 0.638378
Si Si4 0.286377 0.140536 0.596516
Si Si5 0.194433 0.643276 0.138558
O O1 0.530191 0.637641 0.899108
O O2 0.402215 0.782554 0.931123
O O3 0.588139 0.500000 0.760343
O O4 0.564080 0.750556 0.724784
O O5 0.710250 0.655641 0.895245
O O6 0.500000 0.841207 0.500000
O O7 0.402037 0.864035 0.637065
O O8 0.553548 0.000000 0.675190
O O9 0.250000 0.250000 0.500000
O O10 0.266943 0.170890 0.717860
O O11 0.250194 0.000000 0.554011
O O12 0.165761 0.500000 0.124572
#
# Coordination Sequence:
#
# PCOD9200762 Si02
#       5
#     4   8   8   8   8
#     4  12  22  42  64  90 129 172 213 260 315 370
#     4  11  24  41  62  94 131 164 209 265 317 373
#     4  10  21  39  63  92 126 164 212 261 311 378
#     4  10  20  37  59  90 123 159 206 255 308 373
#     4  10  22  40  64  92 124 166 215 260 312 380
#
# _framework density 20.294747000000001
#
# number of rings (size 3 to 8) (size 9 to 14) (size 15 to 20)
#    0.000    1.556    2.222    2.667    0.000    2.222 
#    0.000    2.222    0.000    0.000    0.000    0.000 
#    0.000    0.000    0.000    0.000    0.000    0.000 
#
# Total GULP energy -100395.463575 kJ/mol
# GULP energy per Si atom -5577.525754 kJ/mol
# Density = 2.024856 g / cm^3
# Si number density = 20.294747 Si / 1000 Ang^3
#
#
#
# Elastic Constant Matrix: (Units=GPa)
#
#
# Indices 1 2 3 4 5 6 
#
# 1 109.7163 33.3463 15.6791 0.0000 -8.1190 0.0000
# 2 33.3463 178.2578 79.6122 0.0000 23.9233 0.0000
# 3 15.6791 79.6122 53.8637 0.0000 -0.6647 0.0000
# 4 0.0000 0.0000 0.0000 -38.1032 0.0000 -1.0289
# 5 -8.1190 23.9233 -0.6647 0.0000 33.2926 0.0000
# 6 0.0000 0.0000 0.0000 -1.0289 0.0000 29.3207
#
#
#
# Elastic Compliance Matrix: (Units=1/GPa)
#
#
# Indices 1 2 3 4 5 6 
#
# 1 0.010300 -0.003954 0.002912 0.000000 0.005411 0.000000
# 2 -0.003954 0.025354 -0.036569 0.000000 -0.019913 0.000000
# 3 0.002912 -0.036569 0.072119 0.000000 0.028428 0.000000
# 4 0.000000 0.000000 0.000000 -0.026220 0.000000 -0.000920
# 5 0.005411 -0.019913 0.028428 0.000000 0.046233 0.000000
# 6 0.000000 0.000000 0.000000 -0.000920 0.000000 0.034073
#
#
# Mechanical properties :
#
#
# Convention : Reuss Voigt Hill
#
# Bulk Modulus (GPa) = 30.72026 66.56813 48.64420
# Shear Modulus (GPa) = 20.16686 19.11535 19.64111
#
# Velocity S-wave (km/s) = 3.15572 3.07235 3.11431
# Velocity P-wave (km/s) = 5.33367 6.74223 6.07888
#
# Compressibility (1/GPa) = 0.03255180
#
# Stress axis : x y z
#
# Youngs Moduli (GPa) = 97.08443 39.44138 13.86604
#
# Poissons Ratio (x) = 0.15593 -0.04038
# Poissons Ratio (y) = 0.38383 0.50707
# Poissons Ratio (z) = -0.28271 1.44233
#
# Static dielectric constant tensor:
#      x y z
#    x 1.755750 0.000000 -0.075780 
#    y 0.000000 1.723420 0.000000 
#    z -0.075780 0.000000 1.785610 
# 
# From -- ./inp_files/140561.got.cif
#   From: 2010.05.17/outbox.cif.g08.bks.cpg/sg12_71_cif.got.tgz:140561.got - 2010.06.03 13:09:07.
