data_PCOD9200367
_publ_section_title
;
Structure prediction by ZEFSAII (Michael W. Deem and Ramdas Pophale) SiO2 
 PCOD9200367
Probable space group: C 2/M
;
_chemical_formula_sum "Si O2"
_cell_formula_units_Z 58
_cell_length_a 23.270202
_cell_length_b 7.407286
_cell_length_c 20.761021
_cell_angle_alpha 90.000000
_cell_angle_beta 134.068584
_cell_angle_gamma 90.000000
_cell_volume 2571.221210
_symmetry_space_group_name_H-M "C 2/M"
_symmetry_group_IT_number 12
_symmetry_cell_setting 'monoclinic'
loop_
_space_group_symop_operation_xyz
x,y,z
-x,y,-z
-x,-y,-z
x,-y,z
1/2+x,1/2+y,z
1/2-x,1/2+y,-z
1/2-x,1/2-y,-z
1/2+x,1/2-y,z
loop_
_atom_site_type_symbol
_atom_site_label
_atom_site_fract_x
_atom_site_fract_y
_atom_site_fract_z
Si Si1 0.876729 0.219242 0.364918
Si Si2 0.133740 0.719965 0.376488
Si Si3 0.322344 0.784115 0.008929
Si Si4 0.291101 0.290954 0.429057
Si Si5 0.944833 0.789716 0.897833
Si Si6 0.000000 0.500000 0.500000
Si Si7 0.488291 0.795313 0.185558
Si Si8 0.279841 0.782865 0.833765
O O1 0.836955 0.279560 0.402581
O O2 0.955352 0.339595 0.421948
O O3 0.808140 0.265387 0.259494
O O4 0.890356 0.000000 0.375241
O O5 0.135065 0.500000 0.376113
O O6 0.205596 0.784626 0.385528
O O7 0.154642 0.775882 0.465026
O O8 0.049257 0.785955 0.284259
O O9 0.302356 0.714416 0.922229
O O10 0.334026 0.000000 0.010705
O O11 0.250000 0.750000 0.000000
O O12 0.403416 0.709568 0.103152
O O13 0.276256 0.500000 0.401770
O O14 0.851970 0.772545 0.843154
O O15 0.965890 0.699063 0.847037
O O16 0.965049 0.000000 0.905837
O O17 0.000000 0.719952 0.000000
O O18 0.472851 0.000000 0.195889
O O19 0.280885 0.000000 0.835543
#
# Coordination Sequence:
#
# PCOD9200367 Si02
#       8
#     8   8   8   8   8   2   8   8
#     4  10  23  44  66  94 128 162 211 270 317 381
#     4   9  18  33  57  87 118 153 197 245 300 372
#     4  10  22  40  60  83 115 162 208 253 305 365
#     4   9  18  35  57  84 122 159 191 245 312 369
#     4  11  22  33  55  93 129 157 196 261 309 358
#     4  12  26  44  68  94 118 164 214 264 330 368
#     4  10  20  37  57  84 118 157 204 248 302 367
#     4  10  21  41  66  89 122 166 207 249 317 381
#
# _framework density 22.557376000000001
#
# number of rings (size 3 to 8) (size 9 to 14) (size 15 to 20)
#    0.000    2.069    1.379    1.448    1.931    4.414 
#    2.483    0.000    0.000    0.000    0.000    0.000 
#    0.000    0.000    0.000    0.000    0.000    0.000 
#
# Total GULP energy -161756.854808 kJ/mol
# GULP energy per Si atom -5577.822580 kJ/mol
# Density = 2.250603 g / cm^3
# Si number density = 22.557376 Si / 1000 Ang^3
#
#
#
# Elastic Constant Matrix: (Units=GPa)
#
#
# Indices 1 2 3 4 5 6 
#
# 1 48.7787 -9.9638 16.7438 -0.0001 5.2174 -0.0001
# 2 -9.9638 94.8457 11.4573 -0.0002 9.7782 0.0000
# 3 16.7438 11.4573 145.6501 -0.0001 30.3159 -0.0001
# 4 -0.0001 -0.0002 -0.0001 216.5627 0.0000 126.2880
# 5 5.2174 9.7782 30.3159 0.0000 24.7839 0.0000
# 6 -0.0001 0.0000 -0.0001 126.2880 0.0000 91.1470
#
#
#
# Elastic Compliance Matrix: (Units=1/GPa)
#
#
# Indices 1 2 3 4 5 6 
#
# 1 0.022165 0.002917 -0.002102 0.000000 -0.003246 0.000000
# 2 0.002917 0.011375 -0.000226 0.000000 -0.004826 0.000000
# 3 -0.002102 -0.000226 0.009410 0.000000 -0.010979 0.000000
# 4 0.000000 0.000000 0.000000 0.024047 0.000000 -0.033318
# 5 -0.003246 -0.004826 -0.010979 0.000000 0.056366 0.000000
# 6 0.000000 0.000000 0.000000 -0.033318 0.000000 0.057135
#
#
# Mechanical properties :
#
#
# Convention : Reuss Voigt Hill
#
# Bulk Modulus (GPa) = 22.66065 36.19432 29.42749
# Shear Modulus (GPa) = 25.76934 84.56788 55.16861
#
# Velocity S-wave (km/s) = 3.38359 6.12956 4.95077
# Velocity P-wave (km/s) = 5.03314 8.13484 6.76418
#
# Compressibility (1/GPa) = 0.04412937
#
# Stress axis : x y z
#
# Youngs Moduli (GPa) = 45.11555 87.91460 106.26509
#
# Poissons Ratio (x) = -0.25645 0.22336
# Poissons Ratio (y) = -0.13161 0.02398
# Poissons Ratio (z) = 0.09483 0.01984
#
# Static dielectric constant tensor:
#      x y z
#    x 1.852290 0.000000 0.039760 
#    y 0.000000 1.704910 0.000000 
#    z 0.039760 0.000000 1.855540 
# 
# From -- ./inp_files/324676.got.cif
#   From: 2010.05.17/outbox.cif.g08.bks.cpg/sg12_163_cif.got.tgz:324676.got - 2010.06.03 13:09:07.
