data_PCOD9200752
_publ_section_title
;
Structure prediction by ZEFSAII (Michael W. Deem and Ramdas Pophale) SiO2 
 PCOD9200752
Probable space group: C 2/M
;
_chemical_formula_sum "Si O2"
_cell_formula_units_Z 58
_cell_length_a 15.908583
_cell_length_b 25.914818
_cell_length_c 21.107048
_cell_angle_alpha 90.000000
_cell_angle_beta 161.602323
_cell_angle_gamma 90.000000
_cell_volume 2746.367761
_symmetry_space_group_name_H-M "C 2/M"
_symmetry_group_IT_number 12
_symmetry_cell_setting 'monoclinic'
loop_
_space_group_symop_operation_xyz
x,y,z
-x,y,-z
-x,-y,-z
x,-y,z
1/2+x,1/2+y,z
1/2-x,1/2+y,-z
1/2-x,1/2-y,-z
1/2+x,1/2-y,z
loop_
_atom_site_type_symbol
_atom_site_label
_atom_site_fract_x
_atom_site_fract_y
_atom_site_fract_z
Si Si1 0.872427 0.844523 0.612372
Si Si2 0.780936 0.559517 0.055599
Si Si3 0.565027 0.211503 0.621191
Si Si4 0.000000 0.500000 0.000000
Si Si5 0.588849 0.673666 0.637209
Si Si6 0.418105 0.898519 0.024308
Si Si7 0.744663 0.605478 0.270916
Si Si8 0.966305 0.444479 0.625754
O O1 0.701756 0.802033 0.528988
O O2 0.729838 0.897970 0.526952
O O3 0.867134 0.836150 0.532712
O O4 0.178578 0.856786 0.848299
O O5 0.713754 0.500000 0.992879
O O6 0.516093 0.592624 0.876809
O O7 0.946451 0.584457 0.117498
O O8 0.936412 0.559209 0.232934
O O9 0.500000 0.213724 0.500000
O O10 0.679328 0.267719 0.717903
O O11 0.755614 0.161792 0.762033
O O12 0.119872 0.452740 0.039895
O O13 0.500000 0.671943 0.500000
O O14 0.815605 0.630727 0.807062
O O15 0.000000 0.602996 0.500000
O O16 0.790871 0.563934 0.248886
O O17 0.841124 0.500000 0.525113
#
# Coordination Sequence:
#
# PCOD9200752 Si02
#       8
#     8   8   8   2   8   8   8   8
#     4  11  22  40  64  88 120 158 209 250 302 366
#     4  11  22  37  58  86 124 163 201 251 305 364
#     4   9  20  40  62  89 119 157 198 257 303 356
#     4  12  24  44  62  92 124 156 206 256 304 344
#     4  11  23  42  63  88 124 157 201 251 306 361
#     4  12  24  42  64  92 121 161 207 251 301 367
#     4  10  20  37  59  89 122 160 205 248 300 362
#     4  10  22  36  56  88 123 160 200 250 308 362
#
# _framework density 21.118803
#
# number of rings (size 3 to 8) (size 9 to 14) (size 15 to 20)
#    0.000    1.379    2.069    4.552    0.966    3.310 
#    0.000   13.448    0.000    0.000    0.000    0.000 
#    0.000    0.000    0.000    0.000    0.000    0.000 
#
# Total GULP energy -161551.748518 kJ/mol
# GULP energy per Si atom -5570.749949 kJ/mol
# Density = 2.107074 g / cm^3
# Si number density = 21.118803 Si / 1000 Ang^3
#
#
#
# Elastic Constant Matrix: (Units=GPa)
#
#
# Indices 1 2 3 4 5 6 
#
# 1 143.9283 26.0388 6.4026 -0.0489 17.2004 0.0118
# 2 26.0388 132.3898 18.7959 -0.0105 12.7846 -0.0038
# 3 6.4026 18.7959 28.5743 -0.1066 11.1434 -0.0517
# 4 -0.0489 -0.0105 -0.1066 11.6586 -0.0289 2.9505
# 5 17.2004 12.7846 11.1434 -0.0289 29.9926 -0.0073
# 6 0.0118 -0.0038 -0.0517 2.9505 -0.0073 17.4895
#
#
#
# Elastic Compliance Matrix: (Units=1/GPa)
#
#
# Indices 1 2 3 4 5 6 
#
# 1 0.007626 -0.001200 0.000686 0.000030 -0.004117 -0.000010
# 2 -0.001200 0.008602 -0.004944 -0.000044 -0.001141 -0.000005
# 3 0.000686 -0.004944 0.043770 0.000347 -0.014548 0.000063
# 4 0.000030 -0.000044 0.000347 0.089602 -0.000044 -0.015115
# 5 -0.004117 -0.001141 -0.014548 -0.000044 0.041594 -0.000016
# 6 -0.000010 -0.000005 0.000063 -0.015115 -0.000016 0.059727
#
#
# Mechanical properties :
#
#
# Convention : Reuss Voigt Hill
#
# Bulk Modulus (GPa) = 20.37409 45.26299 32.81854
# Shear Modulus (GPa) = 17.97283 28.73849 23.35566
#
# Velocity S-wave (km/s) = 2.92041 3.69291 3.32914
# Velocity P-wave (km/s) = 4.58695 6.29782 5.50920
#
# Compressibility (1/GPa) = 0.04908194
#
# Stress axis : x y z
#
# Youngs Moduli (GPa) = 131.12197 116.25725 22.84682
#
# Poissons Ratio (x) = 0.13949 -0.01567
# Poissons Ratio (y) = 0.15732 0.11296
# Poissons Ratio (z) = -0.08996 0.57480
#
# Static dielectric constant tensor:
#      x y z
#    x 1.803310 -0.000010 -0.004140 
#    y -0.000010 1.770620 -0.000040 
#    z -0.004140 -0.000040 1.773890 
# 
# From -- ./inp_files/312755.got.cif
#   From: 2010.05.17/outbox.cif.g08.bks.cpg/sg12_157_cif.got.tgz:312755.got - 2010.06.03 13:09:07.
