data_PCOD9200181
_publ_section_title
;
Structure prediction by ZEFSAII (Michael W. Deem and Ramdas Pophale) SiO2 
 PCOD9200181
Probable space group: C 2/M
;
_chemical_formula_sum "Si O2"
_cell_formula_units_Z 38
_cell_length_a 23.992639
_cell_length_b 13.506240
_cell_length_c 4.957506
_cell_angle_alpha 90.000000
_cell_angle_beta 75.787319
_cell_angle_gamma 90.000000
_cell_volume 1557.308769
_symmetry_space_group_name_H-M "C 2/M"
_symmetry_group_IT_number 12
_symmetry_cell_setting 'monoclinic'
loop_
_space_group_symop_operation_xyz
x,y,z
-x,y,-z
-x,-y,-z
x,-y,z
1/2+x,1/2+y,z
1/2-x,1/2+y,-z
1/2-x,1/2-y,-z
1/2+x,1/2-y,z
loop_
_atom_site_type_symbol
_atom_site_label
_atom_site_fract_x
_atom_site_fract_y
_atom_site_fract_z
Si Si1 0.416497 0.834549 0.261286
Si Si2 0.000000 0.500000 0.000000
Si Si3 0.543815 0.500000 0.203641
Si Si4 0.772593 0.886553 0.258755
Si Si5 0.300537 0.836373 0.146391
Si Si6 0.062565 0.789443 0.279583
O O1 0.359240 0.878982 0.195913
O O2 0.402249 0.778322 0.554996
O O3 0.466211 0.914840 0.218422
O O4 0.437652 0.757139 0.012930
O O5 0.500000 0.500000 0.500000
O O6 0.580413 0.401704 0.203392
O O7 0.500000 0.500000 0.000000
O O8 0.750134 0.866750 0.587638
O O9 0.806597 0.784521 0.142747
O O10 0.795562 0.000000 0.213267
O O11 0.718582 0.876981 0.118680
O O12 0.000000 0.790222 0.500000
#
# Coordination Sequence:
#
# PCOD9200181 Si02
#       6
#     8   2   4   8   8   8
#     4  12  25  42  63  93 135 176 221 276 318 390
#     4  12  28  42  64  96 134 186 232 258 324 394
#     4  10  20  36  66  86 109 166 216 264 330 378
#     4  10  21  42  69  96 127 165 217 273 340 407
#     4  10  23  42  65  98 131 169 214 275 333 398
#     4  11  21  42  60  89 127 169 217 272 316 377
#
# _framework density 24.401071000000002
#
# number of rings (size 3 to 8) (size 9 to 14) (size 15 to 20)
#    0.000    1.263    2.105    4.421    2.947    1.684 
#    3.789    0.000    0.000    0.000    0.000    0.000 
#    0.000    0.000    0.000    0.000    0.000    0.000 
#
# Total GULP energy -105890.417498 kJ/mol
# GULP energy per Si atom -5573.179868 kJ/mol
# Density = 2.434553 g / cm^3
# Si number density = 24.401071 Si / 1000 Ang^3
#
#
#
# Elastic Constant Matrix: (Units=GPa)
#
#
# Indices 1 2 3 4 5 6 
#
# 1 47.4914 -2.7352 -0.7942 0.0000 10.0148 0.0000
# 2 -2.7352 211.9837 39.7104 0.0000 -2.9147 0.0000
# 3 -0.7942 39.7104 107.7371 0.0000 21.3498 0.0000
# 4 0.0000 0.0000 0.0000 22.0650 0.0000 4.9989
# 5 10.0148 -2.9147 21.3498 0.0000 32.4863 0.0000
# 6 0.0000 0.0000 0.0000 4.9989 0.0000 -11.8119
#
#
#
# Elastic Compliance Matrix: (Units=1/GPa)
#
#
# Indices 1 2 3 4 5 6 
#
# 1 0.022824 -0.000170 0.001872 0.000000 -0.008282 0.000000
# 2 -0.000170 0.005176 -0.002313 0.000000 0.002037 0.000000
# 3 0.001872 -0.002313 0.011846 0.000000 -0.008570 0.000000
# 4 0.000000 0.000000 0.000000 0.041356 0.000000 0.017502
# 5 -0.008282 0.002037 -0.008570 0.000000 0.039150 0.000000
# 6 0.000000 0.000000 0.000000 0.017502 0.000000 -0.077253
#
#
# Mechanical properties :
#
#
# Convention : Reuss Voigt Hill
#
# Bulk Modulus (GPa) = 25.88951 48.84157 37.36554
# Shear Modulus (GPa) = 87.41808 30.61663 59.01736
#
# Velocity S-wave (km/s) = 5.99194 3.54605 4.92330
# Velocity P-wave (km/s) = 7.64880 6.06841 6.90397
#
# Compressibility (1/GPa) = 0.03862569
#
# Stress axis : x y z
#
# Youngs Moduli (GPa) = 43.81273 193.18394 84.41365
#
# Poissons Ratio (x) = 0.03286 -0.15803
# Poissons Ratio (y) = 0.00745 0.19524
# Poissons Ratio (z) = -0.08202 0.44680
#
# Static dielectric constant tensor:
#      x y z
#    x 2.300050 0.000000 0.039380 
#    y 0.000000 1.997990 0.000000 
#    z 0.039380 0.000000 1.869080 
# 
# From -- ./inp_files/27417.got.cif
#   From: 2010.05.17/outbox.cif.g08.bks.cpg/sg12_14_cif.got.tgz:27417.got - 2010.06.03 13:09:07.
