data_PCOD9200650
_publ_section_title
;
Structure prediction by ZEFSAII (Michael W. Deem and Ramdas Pophale) SiO2 
 PCOD9200650
Probable space group: C 2/M
;
_chemical_formula_sum "Si O2"
_cell_formula_units_Z 64
_cell_length_a 14.249032
_cell_length_b 7.903448
_cell_length_c 24.314232
_cell_angle_alpha 90.000000
_cell_angle_beta 94.153320
_cell_angle_gamma 90.000000
_cell_volume 2730.992330
_symmetry_space_group_name_H-M "C 2/M"
_symmetry_group_IT_number 12
_symmetry_cell_setting 'monoclinic'
loop_
_space_group_symop_operation_xyz
x,y,z
-x,y,-z
-x,-y,-z
x,-y,z
1/2+x,1/2+y,z
1/2-x,1/2+y,-z
1/2-x,1/2-y,-z
1/2+x,1/2-y,z
loop_
_atom_site_type_symbol
_atom_site_label
_atom_site_fract_x
_atom_site_fract_y
_atom_site_fract_z
Si Si1 0.142318 0.805220 0.746561
Si Si2 0.364851 0.704752 0.655908
Si Si3 0.934890 0.701674 0.769186
Si Si4 0.426217 0.297385 0.367202
Si Si5 0.824607 0.686685 0.958960
Si Si6 0.525056 0.205916 0.109549
Si Si7 0.187521 0.303017 0.866782
Si Si8 0.719138 0.200752 0.559373
O O1 0.141261 0.729500 0.684983
O O2 0.186959 0.715278 0.800950
O O3 0.029830 0.796963 0.754647
O O4 0.174052 0.000000 0.748077
O O5 0.362922 0.500000 0.656113
O O6 0.358227 0.762942 0.719058
O O7 0.467874 0.761934 0.638672
O O8 0.290424 0.770928 0.608660
O O9 0.954212 0.500000 0.770174
O O10 0.921410 0.755132 0.831630
O O11 0.426498 0.500000 0.360703
O O12 0.383378 0.255839 0.424308
O O13 0.850859 0.500000 0.979361
O O14 0.920962 0.772685 0.941985
O O15 0.763521 0.690095 0.900501
O O16 0.750000 0.750000 0.000000
O O17 0.415964 0.248818 0.114694
O O18 0.528009 0.000000 0.106635
O O19 0.203301 0.500000 0.881575
O O20 0.750000 0.250000 0.500000
O O21 0.722999 0.000000 0.562572
#
# Coordination Sequence:
#
# PCOD9200650 Si02
#       8
#     8   8   8   8   8   8   8   8
#     4   9  17  32  55  84 116 148 177 215 271 332
#     4   9  20  38  57  80 112 148 177 216 276 333
#     4   9  16  30  55  85 111 140 179 221 264 322
#     4   9  19  37  59  81 110 146 181 217 270 330
#     4  11  23  40  57  78 108 145 189 233 276 328
#     4   8  18  36  57  79 110 147 178 214 272 333
#     4  10  20  37  59  84 111 144 183 225 272 325
#     4  11  24  40  57  79 109 144 189 235 275 321
#
# _framework density 23.434707
#
# number of rings (size 3 to 8) (size 9 to 14) (size 15 to 20)
#    0.000    2.500    0.000    3.375    0.000    5.500 
#    0.000   16.250    0.000    0.000    0.000    0.000 
#    0.000    0.000    0.000    0.000    0.000    0.000 
#
# Total GULP energy -178641.708685 kJ/mol
# GULP energy per Si atom -5582.553396 kJ/mol
# Density = 2.338137 g / cm^3
# Si number density = 23.434707 Si / 1000 Ang^3
#
#
#
# Elastic Constant Matrix: (Units=GPa)
#
#
# Indices 1 2 3 4 5 6 
#
# 1 62.4412 -3.7694 29.0522 0.0000 -17.4173 0.0000
# 2 -3.7694 41.6627 -3.9676 0.0000 -0.5206 0.0000
# 3 29.0522 -3.9676 89.4951 0.0000 -29.2917 0.0000
# 4 0.0000 0.0000 0.0000 30.0537 0.0000 -1.2092
# 5 -17.4173 -0.5206 -29.2917 0.0000 46.6414 0.0000
# 6 0.0000 0.0000 0.0000 -1.2092 0.0000 15.3080
#
#
#
# Elastic Compliance Matrix: (Units=1/GPa)
#
#
# Indices 1 2 3 4 5 6 
#
# 1 0.019561 0.001356 -0.004901 0.000000 0.004241 0.000000
# 2 0.001356 0.024250 0.001119 0.000000 0.001480 0.000000
# 3 -0.004901 0.001119 0.015381 0.000000 0.007842 0.000000
# 4 0.000000 0.000000 0.000000 0.033380 0.000000 0.002637
# 5 0.004241 0.001480 0.007842 0.000000 0.027965 0.000000
# 6 0.000000 0.000000 0.000000 0.002637 0.000000 0.065534
#
#
# Mechanical properties :
#
#
# Convention : Reuss Voigt Hill
#
# Bulk Modulus (GPa) = 18.40288 26.24772 22.32530
# Shear Modulus (GPa) = 23.91930 29.88620 26.90275
#
# Velocity S-wave (km/s) = 3.19827 3.57500 3.39187
# Velocity P-wave (km/s) = 4.63772 5.31654 4.98869
#
# Compressibility (1/GPa) = 0.05433931
#
# Stress axis : x y z
#
# Youngs Moduli (GPa) = 51.12334 41.23701 65.01463
#
# Poissons Ratio (x) = -0.05592 0.31867
# Poissons Ratio (y) = -0.06932 -0.07277
# Poissons Ratio (z) = 0.25058 -0.04616
#
# Static dielectric constant tensor:
#      x y z
#    x 1.933080 0.000000 -0.021040 
#    y 0.000000 1.867880 0.000000 
#    z -0.021040 0.000000 1.944640 
# 
# From -- ./inp_files/338929.got.cif
#   From: 2010.05.17/outbox.cif.g08.bks.cpg/sg12_170_cif.got.tgz:338929.got - 2010.06.03 13:09:07.
