data_PCOD9200283
_publ_section_title
;
Structure prediction by ZEFSAII (Michael W. Deem and Ramdas Pophale) SiO2 
 PCOD9200283
Probable space group: C 2/M
;
_chemical_formula_sum "Si O2"
_cell_formula_units_Z 56
_cell_length_a 16.072236
_cell_length_b 22.716755
_cell_length_c 9.068178
_cell_angle_alpha 90.000000
_cell_angle_beta 67.273251
_cell_angle_gamma 90.000000
_cell_volume 3053.810389
_symmetry_space_group_name_H-M "C 2/M"
_symmetry_group_IT_number 12
_symmetry_cell_setting 'monoclinic'
loop_
_space_group_symop_operation_xyz
x,y,z
-x,y,-z
-x,-y,-z
x,-y,z
1/2+x,1/2+y,z
1/2-x,1/2+y,-z
1/2-x,1/2-y,-z
1/2+x,1/2-y,z
loop_
_atom_site_type_symbol
_atom_site_label
_atom_site_fract_x
_atom_site_fract_y
_atom_site_fract_z
Si Si1 0.721541 0.569895 0.151164
Si Si2 0.222529 0.158940 0.724946
Si Si3 0.398458 0.570409 0.035310
Si Si4 0.531697 0.067674 0.648576
Si Si5 0.107033 0.730629 0.907567
Si Si6 0.799359 0.638028 0.368333
Si Si7 0.634841 0.862007 0.134412
O O1 0.721224 0.500000 0.179079
O O2 0.736194 0.606621 0.289980
O O3 0.636000 0.585864 0.106225
O O4 0.805357 0.589053 0.990486
O O5 0.167984 0.099938 0.801890
O O6 0.162964 0.210582 0.837375
O O7 0.241360 0.165719 0.539758
O O8 0.317431 0.153245 0.744790
O O9 0.393121 0.500000 0.050129
O O10 0.500000 0.589303 0.000000
O O11 0.500000 0.069737 0.500000
O O12 0.632638 0.090296 0.607024
O O13 0.463444 0.110652 0.780020
O O14 0.523234 0.000000 0.704234
O O15 0.137775 0.685835 0.756918
O O16 0.135775 0.696399 0.035569
O O17 0.000000 0.740856 0.000000
#
# Coordination Sequence:
#
# PCOD9200283 Si02
#       7
#     8   8   8   8   8   8   8
#     4   9  19  34  56  84 115 149 186 231 293 359
#     4  11  22  37  59  83 114 153 201 240 299 351
#     4   9  19  38  62  85 112 148 194 245 291 349
#     4  11  21  34  57  88 124 160 194 239 296 355
#     4  11  22  38  59  80 111 154 199 249 294 345
#     4  11  22  37  55  85 123 152 190 245 296 353
#     4  10  20  37  56  82 114 152 201 242 284 347
#
# _framework density 18.337748000000001
#
# number of rings (size 3 to 8) (size 9 to 14) (size 15 to 20)
#    0.000    1.714    2.857    2.143    0.000    1.714 
#    0.000    2.857    0.000    2.571    0.000    0.000 
#    0.000    0.000    0.000    0.000    0.000    0.000 
#
# Total GULP energy -156192.202535 kJ/mol
# GULP energy per Si atom -5578.292948 kJ/mol
# Density = 1.829601 g / cm^3
# Si number density = 18.337748 Si / 1000 Ang^3
#
#
#
# Elastic Constant Matrix: (Units=GPa)
#
#
# Indices 1 2 3 4 5 6 
#
# 1 95.4336 27.7042 27.6636 0.0000 -5.8220 0.0000
# 2 27.7042 56.4458 28.4796 0.0000 -3.2130 0.0000
# 3 27.6636 28.4796 92.1027 0.0000 2.8091 0.0000
# 4 0.0000 0.0000 0.0000 18.5597 0.0000 -3.6345
# 5 -5.8220 -3.2130 2.8091 0.0000 18.0849 0.0000
# 6 0.0000 0.0000 0.0000 -3.6345 0.0000 17.5126
#
#
#
# Elastic Compliance Matrix: (Units=1/GPa)
#
#
# Indices 1 2 3 4 5 6 
#
# 1 0.012821 -0.004841 -0.002465 0.000000 0.003650 0.000000
# 2 -0.004841 0.023235 -0.005837 0.000000 0.003476 0.000000
# 3 -0.002465 -0.005837 0.013523 0.000000 -0.003931 0.000000
# 4 0.000000 0.000000 0.000000 0.056163 0.000000 0.011656
# 5 0.003650 0.003476 -0.003931 0.000000 0.057698 0.000000
# 6 0.000000 0.000000 0.000000 0.011656 0.000000 0.059521
#
#
# Mechanical properties :
#
#
# Convention : Reuss Voigt Hill
#
# Bulk Modulus (GPa) = 42.93200 45.74191 44.33695
# Shear Modulus (GPa) = 19.45448 21.50708 20.48078
#
# Velocity S-wave (km/s) = 3.26068 3.42838 3.34558
# Velocity P-wave (km/s) = 6.13504 6.37730 6.25734
#
# Compressibility (1/GPa) = 0.02329265
#
# Stress axis : x y z
#
# Youngs Moduli (GPa) = 77.99594 43.03874 73.95045
#
# Poissons Ratio (x) = 0.20836 0.18231
# Poissons Ratio (y) = 0.37759 0.43162
# Poissons Ratio (z) = 0.19228 0.25120
#
# Static dielectric constant tensor:
#      x y z
#    x 1.633040 0.000000 0.015230 
#    y 0.000000 1.628650 0.000000 
#    z 0.015230 0.000000 1.616020 
# 
# From -- ./inp_files/65275.got.cif
#   From: 2010.05.17/outbox.cif.g08.bks.cpg/sg12_33_cif.got.tgz:65275.got - 2010.06.03 13:09:07.
