data_PCOD9200625
_publ_section_title
;
Structure prediction by ZEFSAII (Michael W. Deem and Ramdas Pophale) SiO2 
 PCOD9200625
Probable space group: C 2/M
;
_chemical_formula_sum "Si O2"
_cell_formula_units_Z 48
_cell_length_a 9.782598
_cell_length_b 20.808199
_cell_length_c 14.265172
_cell_angle_alpha 90.000000
_cell_angle_beta 63.792364
_cell_angle_gamma 90.000000
_cell_volume 2605.282038
_symmetry_space_group_name_H-M "C 2/M"
_symmetry_group_IT_number 12
_symmetry_cell_setting 'monoclinic'
loop_
_space_group_symop_operation_xyz
x,y,z
-x,y,-z
-x,-y,-z
x,-y,z
1/2+x,1/2+y,z
1/2-x,1/2+y,-z
1/2-x,1/2-y,-z
1/2+x,1/2-y,z
loop_
_atom_site_type_symbol
_atom_site_label
_atom_site_fract_x
_atom_site_fract_y
_atom_site_fract_z
Si Si1 0.816096 0.795493 0.558451
Si Si2 0.117679 0.710034 0.800416
Si Si3 0.725106 0.207281 0.099917
Si Si4 0.270063 0.927084 0.174171
Si Si5 0.833380 0.928354 0.003632
Si Si6 0.826691 0.932570 0.585505
O O1 0.750000 0.750000 0.500000
O O2 0.743602 0.781338 0.681613
O O3 0.761536 0.868955 0.559254
O O4 0.000000 0.793300 0.500000
O O5 0.152999 0.765140 0.864559
O O6 0.132358 0.638776 0.844205
O O7 0.947555 0.717575 0.813640
O O8 0.745599 0.132482 0.071156
O O9 0.750000 0.250000 0.000000
O O10 0.177916 0.926547 0.300133
O O11 0.341905 0.000000 0.148320
O O12 0.172988 0.921588 0.107900
O O13 0.770159 0.000000 0.043416
O O14 0.000000 0.926083 0.000000
O O15 0.000000 0.935261 0.500000
O O16 0.749514 0.000000 0.584417
#
# Coordination Sequence:
#
# PCOD9200625 Si02
#       6
#     8   8   8   8   8   8
#     4  10  20  37  59  83 111 141 178 229 284 334
#     4  11  23  37  58  83 112 145 190 230 280 332
#     4  12  23  37  55  81 112 151 188 231 273 330
#     4   9  18  33  55  80 107 141 186 230 277 327
#     4  10  21  37  55  78 113 153 189 229 277 332
#     4   8  15  30  53  80 105 134 177 228 271 320
#
# _framework density 18.424109000000001
#
# number of rings (size 3 to 8) (size 9 to 14) (size 15 to 20)
#    0.000    2.000    1.667    2.500    0.000    0.667 
#    0.000    1.667    0.000    0.500    0.000    0.000 
#    0.000    0.000    0.000    0.000    0.000    0.000 
#
# Total GULP energy -133602.164828 kJ/mol
# GULP energy per Si atom -5566.756868 kJ/mol
# Density = 1.838217 g / cm^3
# Si number density = 18.424109 Si / 1000 Ang^3
#
#
#
# Elastic Constant Matrix: (Units=GPa)
#
#
# Indices 1 2 3 4 5 6 
#
# 1 62.5202 34.2229 13.8583 0.0000 1.4329 0.0000
# 2 34.2229 147.2457 48.7311 0.0000 18.7150 0.0000
# 3 13.8583 48.7311 45.0389 0.0000 -4.6994 0.0000
# 4 0.0000 0.0000 0.0000 27.6479 0.0000 7.0785
# 5 1.4329 18.7150 -4.6994 0.0000 25.3080 0.0000
# 6 0.0000 0.0000 0.0000 7.0785 0.0000 25.5300
#
#
#
# Elastic Compliance Matrix: (Units=1/GPa)
#
#
# Indices 1 2 3 4 5 6 
#
# 1 0.018471 -0.004243 -0.000892 0.000000 0.001926 0.000000
# 2 -0.004243 0.014922 -0.016282 0.000000 -0.013818 0.000000
# 3 -0.000892 -0.016282 0.042173 0.000000 0.019922 0.000000
# 4 0.000000 0.000000 0.000000 0.038933 0.000000 -0.010795
# 5 0.001926 -0.013818 0.019922 0.000000 0.053322 0.000000
# 6 0.000000 0.000000 0.000000 -0.010795 0.000000 0.042162
#
#
# Mechanical properties :
#
#
# Convention : Reuss Voigt Hill
#
# Bulk Modulus (GPa) = 30.55046 49.82548 40.18797
# Shear Modulus (GPa) = 18.95906 26.23001 22.59454
#
# Velocity S-wave (km/s) = 3.21134 3.77726 3.50574
# Velocity P-wave (km/s) = 5.51072 6.79161 6.18441
#
# Compressibility (1/GPa) = 0.03273273
#
# Stress axis : x y z
#
# Youngs Moduli (GPa) = 54.13964 67.01448 23.71203
#
# Poissons Ratio (x) = 0.28431 0.02115
# Poissons Ratio (y) = 0.22969 0.38607
# Poissons Ratio (z) = 0.04830 1.09112
#
# Static dielectric constant tensor:
#      x y z
#    x 1.603990 0.000000 -0.012640 
#    y 0.000000 1.713980 0.000000 
#    z -0.012640 0.000000 1.643030 
# 
# From -- ./inp_files/196923.got.cif
#   From: 2010.05.17/outbox.cif.g08.bks.cpg/sg12_99_cif.got.tgz:196923.got - 2010.06.03 13:09:07.
