data_PCOD9200785
_publ_section_title
;
Structure prediction by ZEFSAII (Michael W. Deem and Ramdas Pophale) SiO2 
 PCOD9200785
Probable space group: C 2/M
;
_chemical_formula_sum "Si O2"
_cell_formula_units_Z 64
_cell_length_a 16.457026
_cell_length_b 7.570896
_cell_length_c 20.034315
_cell_angle_alpha 90.000000
_cell_angle_beta 99.291004
_cell_angle_gamma 90.000000
_cell_volume 2463.417121
_symmetry_space_group_name_H-M "C 2/M"
_symmetry_group_IT_number 12
_symmetry_cell_setting 'monoclinic'
loop_
_space_group_symop_operation_xyz
x,y,z
-x,y,-z
-x,-y,-z
x,-y,z
1/2+x,1/2+y,z
1/2-x,1/2+y,-z
1/2-x,1/2-y,-z
1/2+x,1/2-y,z
loop_
_atom_site_type_symbol
_atom_site_label
_atom_site_fract_x
_atom_site_fract_y
_atom_site_fract_z
Si Si1 0.925143 0.283615 0.537860
Si Si2 0.910184 0.217773 0.917307
Si Si3 0.622931 0.208168 0.711974
Si Si4 0.763617 0.706052 0.163767
Si Si5 0.309166 0.787116 0.411947
Si Si6 0.981521 0.798975 0.793747
Si Si7 0.840964 0.210074 0.042175
Si Si8 0.630357 0.206886 0.330609
O O1 0.926237 0.500000 0.541369
O O2 0.842695 0.224788 0.487651
O O3 0.923934 0.223780 0.614074
O O4 0.000000 0.232219 0.500000
O O5 0.821220 0.277759 0.876532
O O6 0.971970 0.276399 0.867068
O O7 0.913681 0.000000 0.918975
O O8 0.906077 0.271518 0.994576
O O9 0.697956 0.287671 0.765032
O O10 0.625340 0.270600 0.636542
O O11 0.543416 0.222518 0.747595
O O12 0.638828 0.000000 0.708282
O O13 0.747275 0.500000 0.172883
O O14 0.833559 0.716705 0.115452
O O15 0.222180 0.728987 0.370900
O O16 0.307447 0.000000 0.416584
O O17 0.894225 0.794422 0.742534
O O18 0.007695 0.000000 0.806270
O O19 0.850351 0.000000 0.048969
O O20 0.750000 0.250000 0.000000
O O21 0.614485 0.000000 0.318698
#
# Coordination Sequence:
#
# PCOD9200785 Si02
#       8
#     8   8   8   8   8   8   8   8
#     4   9  18  34  57  82 109 144 181 215 258 314
#     4   8  16  32  53  75  99 133 175 215 257 310
#     4  10  21  37  56  78 107 142 178 220 269 318
#     4   9  17  32  53  76 103 134 171 215 264 317
#     4  10  20  37  60  81 106 144 184 218 260 315
#     4  11  22  37  56  77 105 142 182 221 266 320
#     4   9  16  29  50  75 102 132 171 216 261 311
#     4  11  22  36  56  83 112 139 176 225 268 310
#
# _framework density 25.980170999999999
#
# number of rings (size 3 to 8) (size 9 to 14) (size 15 to 20)
#    0.000    2.375    0.000    3.750    0.000    5.000 
#    0.000   10.000    0.000    6.375    0.000    0.000 
#    0.000    0.000    0.000    0.000    0.000    0.000 
#
# Total GULP energy -178803.895847 kJ/mol
# GULP energy per Si atom -5587.621745 kJ/mol
# Density = 2.592104 g / cm^3
# Si number density = 25.980171 Si / 1000 Ang^3
#
#
#
# Elastic Constant Matrix: (Units=GPa)
#
#
# Indices 1 2 3 4 5 6 
#
# 1 76.8563 -9.8415 10.8773 0.0000 -13.3812 0.0000
# 2 -9.8415 66.6132 3.0634 0.0000 0.2342 0.0000
# 3 10.8773 3.0634 153.8020 0.0000 -12.1906 0.0000
# 4 0.0000 0.0000 0.0000 9.5102 0.0000 1.3918
# 5 -13.3812 0.2342 -12.1906 0.0000 45.6843 0.0000
# 6 0.0000 0.0000 0.0000 1.3918 0.0000 10.6426
#
#
#
# Elastic Compliance Matrix: (Units=1/GPa)
#
#
# Indices 1 2 3 4 5 6 
#
# 1 0.014064 0.002098 -0.000726 0.000000 0.003915 0.000000
# 2 0.002098 0.015340 -0.000420 0.000000 0.000424 0.000000
# 3 -0.000726 -0.000420 0.006686 0.000000 0.001574 0.000000
# 4 0.000000 0.000000 0.000000 0.107202 0.000000 -0.014019
# 5 0.003915 0.000424 0.001574 0.000000 0.023454 0.000000
# 6 0.000000 0.000000 0.000000 -0.014019 0.000000 0.095795
#
#
# Mechanical properties :
#
#
# Convention : Reuss Voigt Hill
#
# Bulk Modulus (GPa) = 26.32099 33.94111 30.13105
# Shear Modulus (GPa) = 18.29470 32.71225 25.50347
#
# Velocity S-wave (km/s) = 2.65652 3.55226 3.13653
# Velocity P-wave (km/s) = 4.42296 5.46968 4.97393
#
# Compressibility (1/GPa) = 0.03799249
#
# Stress axis : x y z
#
# Youngs Moduli (GPa) = 71.10212 65.19005 149.55905
#
# Poissons Ratio (x) = -0.13674 0.10860
# Poissons Ratio (y) = -0.14914 0.06286
# Poissons Ratio (z) = 0.05163 0.02740
#
# Static dielectric constant tensor:
#      x y z
#    x 2.143660 0.000000 -0.009190 
#    y 0.000000 1.983900 0.000000 
#    z -0.009190 0.000000 2.037550 
# 
# From -- ./inp_files/313985.got.cif
#   From: 2010.05.17/outbox.cif.g08.bks.cpg/sg12_157_cif.got.tgz:313985.got - 2010.06.03 13:09:07.
