data_PCOD9200586
_publ_section_title
;
Structure prediction by ZEFSAII (Michael W. Deem and Ramdas Pophale) SiO2 
 PCOD9200586
Probable space group: C 2/M
;
_chemical_formula_sum "Si O2"
_cell_formula_units_Z 48
_cell_length_a 11.651457
_cell_length_b 24.632738
_cell_length_c 9.161305
_cell_angle_alpha 90.000000
_cell_angle_beta 60.660154
_cell_angle_gamma 90.000000
_cell_volume 2292.089769
_symmetry_space_group_name_H-M "C 2/M"
_symmetry_group_IT_number 12
_symmetry_cell_setting 'monoclinic'
loop_
_space_group_symop_operation_xyz
x,y,z
-x,y,-z
-x,-y,-z
x,-y,z
1/2+x,1/2+y,z
1/2-x,1/2+y,-z
1/2-x,1/2-y,-z
1/2+x,1/2-y,z
loop_
_atom_site_type_symbol
_atom_site_label
_atom_site_fract_x
_atom_site_fract_y
_atom_site_fract_z
Si Si1 0.019504 0.224892 0.813167
Si Si2 0.738251 0.664418 0.048811
Si Si3 0.402190 0.856166 0.686262
Si Si4 0.183914 0.120771 0.612265
Si Si5 0.554994 0.438835 0.131091
Si Si6 0.620283 0.844413 0.744407
O O1 0.117070 0.176670 0.708130
O O2 0.078027 0.282649 0.729779
O O3 0.876584 0.206935 0.841467
O O4 0.000000 0.225034 0.000000
O O5 0.665745 0.606629 0.079042
O O6 0.847001 0.659244 0.106192
O O7 0.805677 0.677700 0.851960
O O8 0.500000 0.832368 0.500000
O O9 0.301743 0.892189 0.653255
O O10 0.502698 0.879673 0.745252
O O11 0.249457 0.134283 0.417293
O O12 0.068866 0.076870 0.689885
O O13 0.600479 0.500000 0.128335
O O14 0.500000 0.434481 0.000000
#
# Coordination Sequence:
#
# PCOD9200586 Si02
#       6
#     8   8   8   8   8   8
#     4  11  21  35  59  82 116 169 205 248 290 345
#     4  11  21  40  60  88 126 155 205 260 296 347
#     4  10  20  37  59  80 120 167 196 240 300 356
#     4  10  20  41  57  88 124 154 202 254 294 352
#     4  10  20  39  73  96 110 152 201 255 307 352
#     4  11  25  34  56  87 126 166 202 239 301 361
#
# _framework density 20.941589
#
# number of rings (size 3 to 8) (size 9 to 14) (size 15 to 20)
#    0.000    1.500    3.333    3.000    2.333    4.000 
#    3.000    1.667    0.000   12.000    0.000    0.000 
#    0.000    0.000    0.000    0.000    0.000    0.000 
#
# Total GULP energy -133788.593289 kJ/mol
# GULP energy per Si atom -5574.524720 kJ/mol
# Density = 2.089392 g / cm^3
# Si number density = 20.941589 Si / 1000 Ang^3
#
#
#
# Elastic Constant Matrix: (Units=GPa)
#
#
# Indices 1 2 3 4 5 6 
#
# 1 104.5058 24.0513 19.8088 0.0000 2.3198 0.0000
# 2 24.0513 104.3130 5.4354 0.0000 -12.3541 0.0000
# 3 19.8088 5.4354 99.4173 0.0000 -7.4532 0.0000
# 4 0.0000 0.0000 0.0000 16.0555 0.0000 -3.2839
# 5 2.3198 -12.3541 -7.4532 0.0000 39.0601 0.0000
# 6 0.0000 0.0000 0.0000 -3.2839 0.0000 17.3899
#
#
#
# Elastic Compliance Matrix: (Units=1/GPa)
#
#
# Indices 1 2 3 4 5 6 
#
# 1 0.010597 -0.002551 -0.002110 0.000000 -0.001839 0.000000
# 2 -0.002551 0.010583 0.000195 0.000000 0.003536 0.000000
# 3 -0.002110 0.000195 0.010634 0.000000 0.002216 0.000000
# 4 0.000000 0.000000 0.000000 0.064786 0.000000 0.012234
# 5 -0.001839 0.003536 0.002216 0.000000 0.027252 0.000000
# 6 0.000000 0.000000 0.000000 0.012234 0.000000 0.059815
#
#
# Mechanical properties :
#
#
# Convention : Reuss Voigt Hill
#
# Bulk Modulus (GPa) = 43.70179 45.20302 44.45240
# Shear Modulus (GPa) = 24.97161 31.76381 28.36771
#
# Velocity S-wave (km/s) = 3.45692 3.89881 3.68450
# Velocity P-wave (km/s) = 6.07021 6.47301 6.27484
#
# Compressibility (1/GPa) = 0.02288236
#
# Stress axis : x y z
#
# Youngs Moduli (GPa) = 94.36919 94.48778 94.03387
#
# Poissons Ratio (x) = 0.24105 0.19839
# Poissons Ratio (y) = 0.24075 -0.01832
# Poissons Ratio (z) = 0.19910 -0.01840
#
# Static dielectric constant tensor:
#      x y z
#    x 1.817190 0.000000 -0.011920 
#    y 0.000000 1.722160 0.000000 
#    z -0.011920 0.000000 1.794500 
# 
# From -- ./inp_files/52454.got.cif
#   From: 2010.05.17/outbox.cif.g08.bks.cpg/sg12_27_cif.got.tgz:52454.got - 2010.06.03 13:09:07.
