data_PCOD9200875
_publ_section_title
;
Structure prediction by ZEFSAII (Michael W. Deem and Ramdas Pophale) SiO2 
 PCOD9200875
Probable space group: C 2/M
;
_chemical_formula_sum "Si O2"
_cell_formula_units_Z 40
_cell_length_a 14.228025
_cell_length_b 9.220485
_cell_length_c 16.155323
_cell_angle_alpha 90.000000
_cell_angle_beta 116.003209
_cell_angle_gamma 90.000000
_cell_volume 1904.856891
_symmetry_space_group_name_H-M "C 2/M"
_symmetry_group_IT_number 12
_symmetry_cell_setting 'monoclinic'
loop_
_space_group_symop_operation_xyz
x,y,z
-x,y,-z
-x,-y,-z
x,-y,z
1/2+x,1/2+y,z
1/2-x,1/2+y,-z
1/2-x,1/2-y,-z
1/2+x,1/2-y,z
loop_
_atom_site_type_symbol
_atom_site_label
_atom_site_fract_x
_atom_site_fract_y
_atom_site_fract_z
Si Si1 0.585526 0.665857 0.432641
Si Si2 0.842079 0.672597 0.797829
Si Si3 0.787918 0.333272 0.388207
Si Si4 0.740759 0.330073 0.083606
Si Si5 0.968623 0.332674 0.252275
O O1 0.563404 0.500000 0.445102
O O2 0.688512 0.665427 0.412714
O O3 0.619168 0.758586 0.525087
O O4 0.495958 0.735332 0.341530
O O5 0.828037 0.500000 0.800968
O O6 0.752078 0.741012 0.704882
O O7 0.838327 0.750362 0.884720
O O8 0.949341 0.700662 0.789587
O O9 0.810827 0.500000 0.374021
O O10 0.715728 0.500000 0.063752
O O11 0.853392 0.318886 0.171858
O O12 0.750000 0.250000 0.000000
O O13 0.988092 0.500000 0.283711
#
# Coordination Sequence:
#
# PCOD9200875 Si02
#       5
#     8   8   8   8   8
#     4   9  16  27  49  81 114 148 187 228 269 319
#     4  10  20  37  60  85 113 147 187 230 276 328
#     4   9  16  28  49  79 115 152 186 222 270 327
#     4  11  24  42  61  83 111 144 184 232 285 337
#     4   9  20  38  59  82 113 151 186 224 277 336
#
# _framework density 20.998953
#
# number of rings (size 3 to 8) (size 9 to 14) (size 15 to 20)
#    0.000    2.400    0.000    2.400    0.000    8.000 
#    0.000    5.000    0.000    6.000    0.000    0.000 
#    0.000    0.000    0.000    0.000    0.000    0.000 
#
# Total GULP energy -111852.828051 kJ/mol
# GULP energy per Si atom -5592.641403 kJ/mol
# Density = 2.095116 g / cm^3
# Si number density = 20.998953 Si / 1000 Ang^3
#
#
#
# Elastic Constant Matrix: (Units=GPa)
#
#
# Indices 1 2 3 4 5 6 
#
# 1 67.8722 24.7414 15.2845 0.0000 -22.1557 0.0000
# 2 24.7414 105.2125 26.4615 0.0000 -17.3961 0.0000
# 3 15.2845 26.4615 48.9863 0.0000 -34.8068 0.0000
# 4 0.0000 0.0000 0.0000 42.1978 0.0000 2.0787
# 5 -22.1557 -17.3961 -34.8068 0.0000 33.1750 0.0000
# 6 0.0000 0.0000 0.0000 2.0787 0.0000 13.0016
#
#
#
# Elastic Compliance Matrix: (Units=1/GPa)
#
#
# Indices 1 2 3 4 5 6 
#
# 1 0.022587 -0.004574 0.017435 0.000000 0.030979 0.000000
# 2 -0.004574 0.011954 -0.010792 0.000000 -0.008110 0.000000
# 3 0.017435 -0.010792 0.098450 0.000000 0.109277 0.000000
# 4 0.000000 0.000000 0.000000 0.023886 0.000000 -0.003819
# 5 0.030979 -0.008110 0.109277 0.000000 0.161233 0.000000
# 6 0.000000 0.000000 0.000000 -0.003819 0.000000 0.077524
#
#
# Mechanical properties :
#
#
# Convention : Reuss Voigt Hill
#
# Bulk Modulus (GPa) = 7.29246 39.44953 23.37100
# Shear Modulus (GPa) = 11.43626 28.04712 19.74169
#
# Velocity S-wave (km/s) = 2.33622 3.65861 3.06948
# Velocity P-wave (km/s) = 3.27987 6.05594 4.86991
#
# Compressibility (1/GPa) = 0.13712790
#
# Stress axis : x y z
#
# Youngs Moduli (GPa) = 44.27259 83.65609 10.15746
#
# Poissons Ratio (x) = 0.38268 -0.17710
# Poissons Ratio (y) = 0.20252 0.10962
# Poissons Ratio (z) = -0.77191 0.90286
#
# Static dielectric constant tensor:
#      x y z
#    x 1.815890 0.000000 -0.033670 
#    y 0.000000 1.714020 0.000000 
#    z -0.033670 0.000000 1.706240 
# 
# From -- ./inp_files/211438.got.cif
#   From: 2010.05.17/outbox.cif.g08.bks.cpg/sg12_106_cif.got.tgz:211438.got - 2010.06.03 13:09:07.
