data_PCOD9200980
_publ_section_title
;
Structure prediction by ZEFSAII (Michael W. Deem and Ramdas Pophale) SiO2 
 PCOD9200980
Probable space group: C 2/M
;
_chemical_formula_sum "Si O2"
_cell_formula_units_Z 56
_cell_length_a 32.003393
_cell_length_b 8.900580
_cell_length_c 12.037545
_cell_angle_alpha 90.000000
_cell_angle_beta 55.891255
_cell_angle_gamma 90.000000
_cell_volume 2839.025882
_symmetry_space_group_name_H-M "C 2/M"
_symmetry_group_IT_number 12
_symmetry_cell_setting 'monoclinic'
loop_
_space_group_symop_operation_xyz
x,y,z
-x,y,-z
-x,-y,-z
x,-y,z
1/2+x,1/2+y,z
1/2-x,1/2+y,-z
1/2-x,1/2-y,-z
1/2+x,1/2-y,z
loop_
_atom_site_type_symbol
_atom_site_label
_atom_site_fract_x
_atom_site_fract_y
_atom_site_fract_z
Si Si1 0.318374 0.178713 0.146604
Si Si2 0.387333 0.180754 0.654860
Si Si3 0.194760 0.677873 0.579627
Si Si4 0.604360 0.321612 0.588369
Si Si5 0.512856 0.819188 0.852977
Si Si6 0.914915 0.317336 0.859258
Si Si7 0.730948 0.820924 0.143393
O O1 0.327985 0.199425 0.262686
O O2 0.267476 0.260079 0.184659
O O3 0.311728 0.000000 0.137270
O O4 0.365250 0.231460 0.001510
O O5 0.408674 0.259466 0.514249
O O6 0.411562 0.228345 0.735876
O O7 0.327640 0.216157 0.751127
O O8 0.392647 0.000000 0.635895
O O9 0.198209 0.500000 0.552378
O O10 0.250000 0.750000 0.500000
O O11 0.158053 0.754076 0.545999
O O12 0.606623 0.500000 0.584934
O O13 0.562725 0.261480 0.736023
O O14 0.465582 0.772777 0.846906
O O15 0.519801 0.000000 0.832719
O O16 0.500000 0.787031 0.000000
O O17 0.913562 0.500000 0.862588
O O18 0.734854 0.000000 0.130539
O O19 0.750000 0.750000 0.000000
#
# Coordination Sequence:
#
# PCOD9200980 Si02
#       7
#     8   8   8   8   8   8   8
#     4  10  20  37  60  88 119 153 199 252 302 358
#     4  10  21  39  61  85 119 162 209 254 300 364
#     4  11  23  40  64  91 123 160 204 252 302 366
#     4  12  26  42  61  88 127 165 201 251 309 367
#     4  10  21  41  69  94 117 154 206 255 309 373
#     4   9  18  36  62  89 115 150 201 254 302 359
#     4  11  21  34  56  86 123 163 201 246 297 356
#
# _framework density 19.725073999999999
#
# number of rings (size 3 to 8) (size 9 to 14) (size 15 to 20)
#    0.000    1.571    1.429    3.857    0.000    7.714 
#    0.000    4.286    0.000    0.000    0.000    0.000 
#    0.000    0.000    0.000    0.000    0.000    0.000 
#
# Total GULP energy -156559.335182 kJ/mol
# GULP energy per Si atom -5591.404828 kJ/mol
# Density = 1.968018 g / cm^3
# Si number density = 19.725074 Si / 1000 Ang^3
#
#
#
# Elastic Constant Matrix: (Units=GPa)
#
#
# Indices 1 2 3 4 5 6 
#
# 1 127.4664 36.6228 41.0383 0.0000 10.4574 0.0000
# 2 36.6228 48.8186 51.8959 0.0000 6.2072 0.0000
# 3 41.0383 51.8959 108.0722 0.0000 10.3994 0.0000
# 4 0.0000 0.0000 0.0000 26.1521 0.0000 -4.5653
# 5 10.4574 6.2072 10.3994 0.0000 26.6314 0.0000
# 6 0.0000 0.0000 0.0000 -4.5653 0.0000 22.6372
#
#
#
# Elastic Compliance Matrix: (Units=1/GPa)
#
#
# Indices 1 2 3 4 5 6 
#
# 1 0.010136 -0.007061 -0.000243 0.000000 -0.002239 0.000000
# 2 -0.007061 0.046864 -0.019782 0.000000 -0.000426 0.000000
# 3 -0.000243 -0.019782 0.019110 0.000000 -0.002756 0.000000
# 4 0.000000 0.000000 0.000000 0.039633 0.000000 0.007993
# 5 -0.002239 -0.000426 -0.002756 0.000000 0.039605 0.000000
# 6 0.000000 0.000000 0.000000 0.007993 0.000000 0.045787
#
#
# Mechanical properties :
#
#
# Convention : Reuss Voigt Hill
#
# Bulk Modulus (GPa) = 45.58196 60.38568 52.98382
# Shear Modulus (GPa) = 19.03916 25.40416 22.22166
#
# Velocity S-wave (km/s) = 3.11018 3.59264 3.36008
# Velocity P-wave (km/s) = 6.00470 6.92023 6.47866
#
# Compressibility (1/GPa) = 0.02193850
#
# Stress axis : x y z
#
# Youngs Moduli (GPa) = 98.66061 21.33856 52.32995
#
# Poissons Ratio (x) = 0.15067 0.01270
# Poissons Ratio (y) = 0.69663 1.03517
# Poissons Ratio (z) = 0.02395 0.42211
#
# Static dielectric constant tensor:
#      x y z
#    x 1.680420 0.000000 0.012950 
#    y 0.000000 1.658250 0.000000 
#    z 0.012950 0.000000 1.696850 
# 
# From -- ./inp_files/187180.got.cif
#   From: 2010.05.17/outbox.cif.g08.bks.cpg/sg12_94_cif.got.tgz:187180.got - 2010.06.03 13:09:07.
