data_PCOD9200303
_publ_section_title
;
Structure prediction by ZEFSAII (Michael W. Deem and Ramdas Pophale) SiO2 
 PCOD9200303
Probable space group: C 2/M
;
_chemical_formula_sum "Si O2"
_cell_formula_units_Z 52
_cell_length_a 21.980595
_cell_length_b 12.070854
_cell_length_c 12.066340
_cell_angle_alpha 90.000000
_cell_angle_beta 53.679904
_cell_angle_gamma 90.000000
_cell_volume 2579.511459
_symmetry_space_group_name_H-M "C 2/M"
_symmetry_group_IT_number 12
_symmetry_cell_setting 'monoclinic'
loop_
_space_group_symop_operation_xyz
x,y,z
-x,y,-z
-x,-y,-z
x,-y,z
1/2+x,1/2+y,z
1/2-x,1/2+y,-z
1/2-x,1/2-y,-z
1/2+x,1/2-y,z
loop_
_atom_site_type_symbol
_atom_site_label
_atom_site_fract_x
_atom_site_fract_y
_atom_site_fract_z
Si Si1 0.359429 0.245074 0.412382
Si Si2 0.714203 0.704420 0.719444
Si Si3 0.158825 0.310795 0.990511
Si Si4 0.802408 0.500000 0.724196
Si Si5 0.581698 0.000000 0.191814
Si Si6 0.670223 0.627838 0.150092
Si Si7 0.594315 0.000000 0.603803
Si Si8 0.417205 0.374424 0.539497
O O1 0.343698 0.316104 0.319280
O O2 0.285165 0.250430 0.572233
O O3 0.379165 0.115961 0.368296
O O4 0.420008 0.299427 0.428073
O O5 0.672150 0.786823 0.847876
O O6 0.748543 0.606139 0.758647
O O7 0.239648 0.359868 0.942282
O O8 0.096355 0.395466 0.097408
O O9 0.144015 0.199448 0.075242
O O10 0.854347 0.500000 0.778807
O O11 0.861946 0.500000 0.559830
O O12 0.495065 0.000000 0.322408
O O13 0.648644 0.500000 0.163086
O O14 0.635888 0.669931 0.303631
O O15 0.500000 0.380229 0.500000
O O16 0.391099 0.500000 0.540364
#
# Coordination Sequence:
#
# PCOD9200303 Si02
#       8
#     8   8   8   4   4   8   4   8
#     4  10  22  42  63  88 123 168 210 257 311 373
#     4  10  22  39  62  91 124 163 211 258 310 373
#     4  11  22  35  57  92 123 167 203 253 310 377
#     4  10  21  40  66 102 125 159 214 273 327 357
#     4  12  25  39  64  97 133 169 210 259 323 385
#     4  10  20  37  56  86 124 157 202 257 311 370
#     4  10  25  41  62  93 131 173 208 262 313 385
#     4  10  22  38  62  91 119 157 203 259 317 370
#
# _framework density 20.158856
#
# number of rings (size 3 to 8) (size 9 to 14) (size 15 to 20)
#    0.000    1.692    2.308    2.077    6.462    0.615 
#    1.385    1.538    0.000    0.000    0.000    4.308 
#    0.000    0.000    0.000    0.000    0.000    0.000 
#
# Total GULP energy -144975.882758 kJ/mol
# GULP energy per Si atom -5575.995491 kJ/mol
# Density = 2.011297 g / cm^3
# Si number density = 20.158856 Si / 1000 Ang^3
#
#
#
# Elastic Constant Matrix: (Units=GPa)
#
#
# Indices 1 2 3 4 5 6 
#
# 1 67.3838 22.7684 31.4698 0.0000 11.8040 0.0000
# 2 22.7684 59.9822 39.6783 0.0000 10.5508 0.0000
# 3 31.4698 39.6783 61.2484 0.0000 5.5498 0.0000
# 4 0.0000 0.0000 0.0000 23.5943 0.0000 4.8379
# 5 11.8040 10.5508 5.5498 0.0000 26.2689 0.0000
# 6 0.0000 0.0000 0.0000 4.8379 0.0000 2.2544
#
#
#
# Elastic Compliance Matrix: (Units=1/GPa)
#
#
# Indices 1 2 3 4 5 6 
#
# 1 0.020788 0.000023 -0.010041 0.000000 -0.007229 0.000000
# 2 0.000023 0.030864 -0.019251 0.000000 -0.008340 0.000000
# 3 -0.010041 -0.019251 0.033489 0.000000 0.005169 0.000000
# 4 0.000000 0.000000 0.000000 0.075687 0.000000 -0.162423
# 5 -0.007229 -0.008340 0.005169 0.000000 0.043574 0.000000
# 6 0.000000 0.000000 0.000000 -0.162423 0.000000 0.792138
#
#
# Mechanical properties :
#
#
# Convention : Reuss Voigt Hill
#
# Bulk Modulus (GPa) = 37.58875 41.82750 39.70812
# Shear Modulus (GPa) = 4.69949 16.73670 10.71809
#
# Velocity S-wave (km/s) = 1.52849 2.88452 2.30832
# Velocity P-wave (km/s) = 4.66924 5.64694 5.18120
#
# Compressibility (1/GPa) = 0.02660371
#
# Stress axis : x y z
#
# Youngs Moduli (GPa) = 48.10382 32.39994 29.86085
#
# Poissons Ratio (x) = -0.00073 0.29983
# Poissons Ratio (y) = -0.00109 0.57484
# Poissons Ratio (z) = 0.48300 0.62372
#
# Static dielectric constant tensor:
#      x y z
#    x 1.743610 0.000000 0.001920 
#    y 0.000000 1.858580 0.000000 
#    z 0.001920 0.000000 1.712800 
# 
# From -- ./inp_files/165571.got.cif
#   From: 2010.05.17/outbox.cif.g08.bks.cpg/sg12_83_cif.got.tgz:165571.got - 2010.06.03 13:09:07.
