data_PCOD9200590
_publ_section_title
;
Structure prediction by ZEFSAII (Michael W. Deem and Ramdas Pophale) SiO2 
 PCOD9200590
Probable space group: C 2/M
;
_chemical_formula_sum "Si O2"
_cell_formula_units_Z 64
_cell_length_a 24.049253
_cell_length_b 7.610891
_cell_length_c 30.221561
_cell_angle_alpha 90.000000
_cell_angle_beta 148.623689
_cell_angle_gamma 90.000000
_cell_volume 2880.085865
_symmetry_space_group_name_H-M "C 2/M"
_symmetry_group_IT_number 12
_symmetry_cell_setting 'monoclinic'
loop_
_space_group_symop_operation_xyz
x,y,z
-x,y,-z
-x,-y,-z
x,-y,z
1/2+x,1/2+y,z
1/2-x,1/2+y,-z
1/2-x,1/2-y,-z
1/2+x,1/2-y,z
loop_
_atom_site_type_symbol
_atom_site_label
_atom_site_fract_x
_atom_site_fract_y
_atom_site_fract_z
Si Si1 0.530986 0.200955 0.759219
Si Si2 0.876145 0.711368 0.086771
Si Si3 0.237573 0.798023 0.849178
Si Si4 0.625532 0.788483 0.420195
Si Si5 0.337321 0.786621 0.370336
Si Si6 0.556616 0.785739 0.470046
Si Si7 0.450636 0.212451 0.041929
Si Si8 0.192716 0.205963 0.196664
O O1 0.565949 0.281073 0.829890
O O2 0.637650 0.199755 0.801826
O O3 0.440128 0.282559 0.666516
O O4 0.498125 0.000000 0.746239
O O5 0.884355 0.500000 0.093115
O O6 0.929020 0.773402 0.077255
O O7 0.750000 0.750000 0.000000
O O8 0.244668 0.791205 0.801340
O O9 0.226772 0.000000 0.856553
O O10 0.350252 0.728440 0.944430
O O11 0.750000 0.750000 0.500000
O O12 0.581254 0.723193 0.437421
O O13 0.610661 0.000000 0.410348
O O14 0.440913 0.738029 0.411211
O O15 0.358266 0.726714 0.434702
O O16 0.234427 0.728622 0.272657
O O17 0.335338 0.000000 0.371463
O O18 0.558577 0.000000 0.470257
O O19 0.566921 0.268795 0.105582
O O20 0.450651 0.000000 0.040637
O O21 0.217190 0.000000 0.210702
#
# Coordination Sequence:
#
# PCOD9200590 Si02
#       8
#     8   8   8   8   8   8   8   8
#     4  10  21  37  60  86 111 143 187 235 281 326
#     4  10  20  37  59  81 109 144 184 231 278 328
#     4  11  22  37  57  79 108 145 185 226 276 337
#     4  10  21  36  54  81 114 147 181 223 273 327
#     4   8  15  29  51  78 102 131 173 222 269 316
#     4   8  14  29  53  75 102 137 173 216 268 318
#     4  10  22  38  53  75 109 147 181 220 274 332
#     4  11  22  34  52  81 112 141 182 229 274 325
#
# _framework density 22.221561000000001
#
# number of rings (size 3 to 8) (size 9 to 14) (size 15 to 20)
#    0.000    2.250    1.250    2.625    0.000    6.500 
#    0.000    0.000    0.000    0.750    0.000    5.250 
#    0.000    0.000    0.000    0.000    0.000    0.000 
#
# Total GULP energy -178738.972207 kJ/mol
# GULP energy per Si atom -5585.592881 kJ/mol
# Density = 2.217098 g / cm^3
# Si number density = 22.221561 Si / 1000 Ang^3
#
#
#
# Elastic Constant Matrix: (Units=GPa)
#
#
# Indices 1 2 3 4 5 6 
#
# 1 60.4383 -1.4029 12.6692 -0.0005 -25.0429 0.0008
# 2 -1.4029 50.3461 1.7552 -0.0022 -6.3776 -0.0019
# 3 12.6692 1.7552 140.5797 -0.0002 -30.0301 0.0002
# 4 -0.0005 -0.0022 -0.0002 9.9950 0.0001 3.4842
# 5 -25.0429 -6.3776 -30.0301 0.0001 34.3141 0.0000
# 6 0.0008 -0.0019 0.0002 3.4842 0.0000 11.7343
#
#
#
# Elastic Compliance Matrix: (Units=1/GPa)
#
#
# Indices 1 2 3 4 5 6 
#
# 1 0.024639 0.003199 0.002100 0.000003 0.020414 -0.000002
# 2 0.003199 0.020810 0.000955 0.000004 0.007039 0.000002
# 3 0.002100 0.000955 0.008951 0.000001 0.009544 0.000000
# 4 0.000003 0.000004 0.000001 0.111601 0.000003 -0.033137
# 5 0.020414 0.007039 0.009544 0.000003 0.053702 -0.000001
# 6 -0.000002 0.000002 0.000000 -0.033137 -0.000001 0.095059
#
#
# Mechanical properties :
#
#
# Convention : Reuss Voigt Hill
#
# Bulk Modulus (GPa) = 14.94544 30.82301 22.88422
# Shear Modulus (GPa) = 15.40574 27.09819 21.25196
#
# Velocity S-wave (km/s) = 2.63588 3.49586 3.09587
# Velocity P-wave (km/s) = 4.00050 5.49505 4.80623
#
# Compressibility (1/GPa) = 0.06691004
#
# Stress axis : x y z
#
# Youngs Moduli (GPa) = 40.58670 48.05381 111.72029
#
# Poissons Ratio (x) = -0.15374 -0.23466
# Poissons Ratio (y) = -0.12985 -0.10674
# Poissons Ratio (z) = -0.08525 -0.04591
#
# Static dielectric constant tensor:
#      x y z
#    x 1.781230 0.000000 -0.053460 
#    y 0.000000 1.861540 0.000000 
#    z -0.053460 0.000000 1.836700 
# 
# From -- ./inp_files/382441.got.cif
#   From: 2010.05.17/outbox.cif.g08.bks.cpg/sg12_192_cif.got.tgz:382441.got - 2010.06.03 13:09:07.
