data_PCOD9200265
_publ_section_title
;
Structure prediction by ZEFSAII (Michael W. Deem and Ramdas Pophale) SiO2 
 PCOD9200265
Probable space group: C 2/M
;
_chemical_formula_sum "Si O2"
_cell_formula_units_Z 40
_cell_length_a 26.156866
_cell_length_b 12.771423
_cell_length_c 7.077051
_cell_angle_alpha 90.000000
_cell_angle_beta 133.925470
_cell_angle_gamma 90.000000
_cell_volume 1702.771007
_symmetry_space_group_name_H-M "C 2/M"
_symmetry_group_IT_number 12
_symmetry_cell_setting 'monoclinic'
loop_
_space_group_symop_operation_xyz
x,y,z
-x,y,-z
-x,-y,-z
x,-y,z
1/2+x,1/2+y,z
1/2-x,1/2+y,-z
1/2-x,1/2-y,-z
1/2+x,1/2-y,z
loop_
_atom_site_type_symbol
_atom_site_label
_atom_site_fract_x
_atom_site_fract_y
_atom_site_fract_z
Si Si1 0.607148 0.381977 0.743719
Si Si2 0.587638 0.200366 0.414312
Si Si3 0.715648 0.113851 0.235154
Si Si4 0.934335 0.301407 0.090917
Si Si5 0.236724 0.341183 0.731671
O O1 0.580889 0.500000 0.669758
O O2 0.593849 0.314496 0.522755
O O3 0.573548 0.310018 0.823868
O O4 0.691499 0.384113 0.998183
O O5 0.514238 0.155475 0.308881
O O6 0.661056 0.138619 0.634750
O O7 0.580130 0.210413 0.169638
O O8 0.752930 0.215095 0.243468
O O9 0.731865 0.122165 0.501677
O O10 0.738242 0.000000 0.224552
O O11 0.630812 0.130187 0.999251
#
# Coordination Sequence:
#
# PCOD9200265 Si02
#       5
#     8   8   8   8   8
#     4  11  22  36  57  82 110 147 184 221 272 328
#     4  10  20  37  56  77 110 146 178 223 276 317
#     4   9  17  34  59  82 108 146 183 219 273 327
#     4   9  21  38  56  80 111 143 181 227 269 321
#     4   9  19  34  54  82 114 141 177 230 270 317
#
# _framework density 23.491121
#
# number of rings (size 3 to 8) (size 9 to 14) (size 15 to 20)
#    0.000    2.400    0.000    3.000    0.000    3.200 
#    0.000   11.000    0.000   20.400    0.000    0.000 
#    0.000    0.000    0.000    0.000    0.000    0.000 
#
# Total GULP energy -111832.171767 kJ/mol
# GULP energy per Si atom -5591.608588 kJ/mol
# Density = 2.343765 g / cm^3
# Si number density = 23.491121 Si / 1000 Ang^3
#
#
#
# Elastic Constant Matrix: (Units=GPa)
#
#
# Indices 1 2 3 4 5 6 
#
# 1 109.8402 -3.2148 38.4648 0.0000 16.2662 0.0000
# 2 -3.2148 88.7223 -7.9900 0.0000 2.1830 0.0000
# 3 38.4648 -7.9900 87.6811 0.0000 35.8445 0.0000
# 4 0.0000 0.0000 0.0000 -1.5036 0.0000 -2.7103
# 5 16.2662 2.1830 35.8445 0.0000 44.9110 0.0000
# 6 0.0000 0.0000 0.0000 -2.7103 0.0000 -5.4423
#
#
#
# Elastic Compliance Matrix: (Units=1/GPa)
#
#
# Indices 1 2 3 4 5 6 
#
# 1 0.010758 -0.000024 -0.004645 0.000000 -0.000188 0.000000
# 2 -0.000024 0.011493 0.001904 0.000000 -0.002069 0.000000
# 3 -0.004645 0.001904 0.019245 0.000000 -0.013771 0.000000
# 4 0.000000 0.000000 0.000000 -6.501568 0.000000 3.237856
# 5 -0.000188 -0.002069 -0.013771 0.000000 0.033426 0.000000
# 6 0.000000 0.000000 0.000000 3.237856 0.000000 -1.796235
#
#
# Mechanical properties :
#
#
# Convention : Reuss Voigt Hill
#
# Bulk Modulus (GPa) = 27.80362 37.86261 32.83312
# Shear Modulus (GPa) = -0.60936 24.85859 12.12461
#
# Velocity S-wave (km/s) = -0.50986 3.25655 2.27433
# Velocity P-wave (km/s) = 3.39336 5.50390 4.57208
#
# Compressibility (1/GPa) = 0.03596653
#
# Stress axis : x y z
#
# Youngs Moduli (GPa) = 92.95599 87.01237 51.96028
#
# Poissons Ratio (x) = 0.00207 0.24133
# Poissons Ratio (y) = 0.00222 -0.09892
# Poissons Ratio (z) = 0.43174 -0.16565
#
# Static dielectric constant tensor:
#      x y z
#    x 1.908090 0.000000 0.008090 
#    y 0.000000 1.817590 0.000000 
#    z 0.008090 0.000000 1.939640 
# 
# From -- ./inp_files/83395.got.cif
#   From: 2010.05.17/outbox.cif.g08.bks.cpg/sg12_42_cif.got.tgz:83395.got - 2010.06.03 13:09:07.
