data_PCOD9200571
_publ_section_title
;
Structure prediction by ZEFSAII (Michael W. Deem and Ramdas Pophale) SiO2 
 PCOD9200571
Probable space group: C 2/M
;
_chemical_formula_sum "Si O2"
_cell_formula_units_Z 56
_cell_length_a 13.575812
_cell_length_b 9.812915
_cell_length_c 22.121433
_cell_angle_alpha 90.000000
_cell_angle_beta 107.541733
_cell_angle_gamma 90.000000
_cell_volume 2809.938048
_symmetry_space_group_name_H-M "C 2/M"
_symmetry_group_IT_number 12
_symmetry_cell_setting 'monoclinic'
loop_
_space_group_symop_operation_xyz
x,y,z
-x,y,-z
-x,-y,-z
x,-y,z
1/2+x,1/2+y,z
1/2-x,1/2+y,-z
1/2-x,1/2-y,-z
1/2+x,1/2-y,z
loop_
_atom_site_type_symbol
_atom_site_label
_atom_site_fract_x
_atom_site_fract_y
_atom_site_fract_z
Si Si1 0.576669 0.154986 0.326212
Si Si2 0.763832 0.665628 0.319612
Si Si3 0.614989 0.846954 0.993188
Si Si4 0.465383 0.836207 0.428810
Si Si5 0.374201 0.221946 0.220614
Si Si6 0.040124 0.847826 0.877263
Si Si7 0.180611 0.150194 0.107631
O O1 0.656551 0.265182 0.316377
O O2 0.536123 0.202082 0.384635
O O3 0.476193 0.148082 0.264416
O O4 0.619022 0.000000 0.338113
O O5 0.758857 0.500000 0.307179
O O6 0.846987 0.689430 0.388387
O O7 0.810460 0.744764 0.270296
O O8 0.597387 0.762619 0.929131
O O9 0.654190 0.000000 0.990799
O O10 0.500000 0.856067 0.000000
O O11 0.677290 0.762072 0.054522
O O12 0.500000 0.779909 0.500000
O O13 0.474906 0.000000 0.433092
O O14 0.421605 0.334166 0.184318
O O15 0.287172 0.151128 0.163509
O O16 0.916999 0.825000 0.865133
O O17 0.062767 0.000000 0.903584
O O18 0.162576 0.000000 0.077879
#
# Coordination Sequence:
#
# PCOD9200571 Si02
#       7
#     8   8   8   8   8   8   8
#     4  10  21  37  58  84 115 151 191 233 277 327
#     4  10  21  38  59  83 115 154 192 230 277 331
#     4   9  19  36  57  82 111 141 177 226 284 344
#     4   8  16  34  60  88 118 154 193 229 272 331
#     4  11  22  36  56  80 109 146 190 232 278 336
#     4  10  22  39  60  84 108 140 184 234 285 336
#     4  10  20  37  59  79 105 142 184 230 281 338
#
# _framework density 19.929265000000001
#
# number of rings (size 3 to 8) (size 9 to 14) (size 15 to 20)
#    0.000    2.286    0.000    3.429    0.000    7.429 
#    0.000    5.000    0.000    0.857    0.000    0.000 
#    0.000    0.000    0.000    0.000    0.000    0.000 
#
# Total GULP energy -156053.036082 kJ/mol
# GULP energy per Si atom -5573.322717 kJ/mol
# Density = 1.988390 g / cm^3
# Si number density = 19.929265 Si / 1000 Ang^3
#
#
#
# Elastic Constant Matrix: (Units=GPa)
#
#
# Indices 1 2 3 4 5 6 
#
# 1 136.7180 42.8956 52.5425 0.0000 -0.5926 0.0000
# 2 42.8956 85.0767 48.9627 0.0000 -5.0318 0.0000
# 3 52.5425 48.9627 126.4473 0.0000 -1.8639 0.0000
# 4 0.0000 0.0000 0.0000 74.1612 0.0000 -20.0477
# 5 -0.5926 -5.0318 -1.8639 0.0000 13.7061 0.0000
# 6 0.0000 0.0000 0.0000 -20.0477 0.0000 -1.4178
#
#
#
# Elastic Compliance Matrix: (Units=1/GPa)
#
#
# Indices 1 2 3 4 5 6 
#
# 1 0.009347 -0.003263 -0.002637 0.000000 -0.001152 0.000000
# 2 -0.003263 0.016581 -0.004987 0.000000 0.005268 0.000000
# 3 -0.002637 -0.004987 0.010929 0.000000 -0.000459 0.000000
# 4 0.000000 0.000000 0.000000 0.002796 0.000000 -0.039537
# 5 -0.001152 0.005268 -0.000459 0.000000 0.074782 0.000000
# 6 0.000000 0.000000 0.000000 -0.039537 0.000000 -0.146257
#
#
# Mechanical properties :
#
#
# Convention : Reuss Voigt Hill
#
# Bulk Modulus (GPa) = 66.30526 70.78262 68.54394
# Shear Modulus (GPa) = -995.71116 30.87932 -482.41592
#
# Velocity S-wave (km/s) = -22.37649 3.94057 -15.57529
# Velocity P-wave (km/s) = 25.18466 7.50321 16.99954
#
# Compressibility (1/GPa) = 0.01508176
#
# Stress axis : x y z
#
# Youngs Moduli (GPa) = 106.99045 60.31045 91.50314
#
# Poissons Ratio (x) = 0.19679 0.24132
# Poissons Ratio (y) = 0.34910 0.45632
# Poissons Ratio (z) = 0.28217 0.30076
#
# Static dielectric constant tensor:
#      x y z
#    x 1.729230 0.000000 -0.012840 
#    y 0.000000 1.694220 0.000000 
#    z -0.012840 0.000000 1.715140 
# 
# From -- ./inp_files/338180.got.cif
#   From: 2010.05.17/outbox.cif.g08.bks.cpg/sg12_170_cif.got.tgz:338180.got - 2010.06.03 13:09:07.
