data_PCOD9200245
_publ_section_title
;
Structure prediction by ZEFSAII (Michael W. Deem and Ramdas Pophale) SiO2 
 PCOD9200245
Probable space group: C 2/M
;
_chemical_formula_sum "Si O2"
_cell_formula_units_Z 48
_cell_length_a 13.362252
_cell_length_b 23.659213
_cell_length_c 12.198675
_cell_angle_alpha 90.000000
_cell_angle_beta 45.180306
_cell_angle_gamma 90.000000
_cell_volume 2735.520785
_symmetry_space_group_name_H-M "C 2/M"
_symmetry_group_IT_number 12
_symmetry_cell_setting 'monoclinic'
loop_
_space_group_symop_operation_xyz
x,y,z
-x,y,-z
-x,-y,-z
x,-y,z
1/2+x,1/2+y,z
1/2-x,1/2+y,-z
1/2-x,1/2-y,-z
1/2+x,1/2-y,z
loop_
_atom_site_type_symbol
_atom_site_label
_atom_site_fract_x
_atom_site_fract_y
_atom_site_fract_z
Si Si1 0.464875 0.364677 0.412107
Si Si2 0.129814 0.329018 0.136960
Si Si3 0.264914 0.565794 0.148362
Si Si4 0.191879 0.705669 0.634181
Si Si5 0.942702 0.064815 0.212181
Si Si6 0.227989 0.218388 0.183641
O O1 0.500000 0.394620 0.500000
O O2 0.305113 0.344125 0.542972
O O3 0.473053 0.400131 0.296364
O O4 0.576013 0.312372 0.318008
O O5 0.166405 0.389113 0.163479
O O6 0.207813 0.279436 0.144551
O O7 0.964891 0.314776 0.269392
O O8 0.185346 0.320676 0.969136
O O9 0.215317 0.500000 0.189232
O O10 0.314199 0.584212 0.232638
O O11 0.412630 0.565756 0.968396
O O12 0.250000 0.750000 0.500000
O O13 0.199734 0.726486 0.754142
O O14 0.911827 0.000000 0.264204
#
# Coordination Sequence:
#
# PCOD9200245 Si02
#       6
#     8   8   8   8   8   8
#     4  10  20  37  55  81 119 148 185 227 276 345
#     4  11  21  37  60  83 113 149 188 238 282 334
#     4   9  19  35  60  86 110 144 192 242 280 324
#     4  11  23  37  53  82 121 149 180 228 291 342
#     4   9  18  36  59  86 112 144 193 235 275 330
#     4  10  22  37  56  85 111 146 196 229 274 344
#
# _framework density 17.546932000000002
#
# number of rings (size 3 to 8) (size 9 to 14) (size 15 to 20)
#    0.000    2.000    3.333    1.500    2.333    0.333 
#    3.000    0.833    0.000    5.000    0.000    0.000 
#    0.000    0.000    0.000    0.000    0.000    0.000 
#
# Total GULP energy -133736.149928 kJ/mol
# GULP energy per Si atom -5572.339580 kJ/mol
# Density = 1.750699 g / cm^3
# Si number density = 17.546932 Si / 1000 Ang^3
#
#
#
# Elastic Constant Matrix: (Units=GPa)
#
#
# Indices 1 2 3 4 5 6 
#
# 1 124.8969 64.1468 42.5964 0.0000 16.5858 0.0000
# 2 64.1468 65.6478 25.6571 0.0000 12.4647 0.0000
# 3 42.5964 25.6571 59.0369 0.0000 6.9085 0.0000
# 4 0.0000 0.0000 0.0000 20.0613 0.0000 -1.1714
# 5 16.5858 12.4647 6.9085 0.0000 44.4896 0.0000
# 6 0.0000 0.0000 0.0000 -1.1714 0.0000 20.9346
#
#
#
# Elastic Compliance Matrix: (Units=1/GPa)
#
#
# Indices 1 2 3 4 5 6 
#
# 1 0.017977 -0.014780 -0.006363 0.000000 -0.001573 0.000000
# 2 -0.014780 0.031219 -0.002571 0.000000 -0.002837 0.000000
# 3 -0.006363 -0.002571 0.022698 0.000000 -0.000432 0.000000
# 4 0.000000 0.000000 0.000000 0.050011 0.000000 0.002798
# 5 -0.001573 -0.002837 -0.000432 0.000000 0.023925 0.000000
# 6 0.000000 0.000000 0.000000 0.002798 0.000000 0.047924
#
#
# Mechanical properties :
#
#
# Convention : Reuss Voigt Hill
#
# Bulk Modulus (GPa) = 40.87650 57.15359 49.01505
# Shear Modulus (GPa) = 20.05317 24.90918 22.48117
#
# Velocity S-wave (km/s) = 3.38425 3.77181 3.58327
# Velocity P-wave (km/s) = 6.21425 7.18410 6.71670
#
# Compressibility (1/GPa) = 0.02446393
#
# Stress axis : x y z
#
# Youngs Moduli (GPa) = 55.62773 32.03221 44.05731
#
# Poissons Ratio (x) = 0.47344 0.28034
# Poissons Ratio (y) = 0.82218 0.11328
# Poissons Ratio (z) = 0.35397 0.08236
#
# Static dielectric constant tensor:
#      x y z
#    x 1.626250 0.000000 0.034690 
#    y 0.000000 1.593820 0.000000 
#    z 0.034690 0.000000 1.624480 
# 
# From -- ./inp_files/51307.got.cif
#   From: 2010.05.17/outbox.cif.g08.bks.cpg/sg12_26_cif.got.tgz:51307.got - 2010.06.03 13:09:07.
