data_PCOD9200990
_publ_section_title
;
Structure prediction by ZEFSAII (Michael W. Deem and Ramdas Pophale) SiO2 
 PCOD9200990
Probable space group: C 2/M
;
_chemical_formula_sum "Si O2"
_cell_formula_units_Z 58
_cell_length_a 9.366569
_cell_length_b 18.041962
_cell_length_c 18.057621
_cell_angle_alpha 90.000000
_cell_angle_beta 81.829109
_cell_angle_gamma 90.000000
_cell_volume 3020.602602
_symmetry_space_group_name_H-M "C 2/M"
_symmetry_group_IT_number 12
_symmetry_cell_setting 'monoclinic'
loop_
_space_group_symop_operation_xyz
x,y,z
-x,y,-z
-x,-y,-z
x,-y,z
1/2+x,1/2+y,z
1/2-x,1/2+y,-z
1/2-x,1/2-y,-z
1/2+x,1/2-y,z
loop_
_atom_site_type_symbol
_atom_site_label
_atom_site_fract_x
_atom_site_fract_y
_atom_site_fract_z
Si Si1 0.795875 0.583921 0.851672
Si Si2 0.110169 0.718050 0.051541
Si Si3 0.985032 0.417098 0.295126
Si Si4 0.000000 0.000000 0.000000
Si Si5 0.083673 0.156916 0.425684
Si Si6 0.421970 0.188410 0.431216
Si Si7 0.831631 0.086479 0.737076
Si Si8 0.466561 0.376506 0.882136
O O1 0.812912 0.500000 0.882488
O O2 0.850603 0.651690 0.896861
O O3 0.627627 0.596691 0.852536
O O4 0.880071 0.586201 0.768606
O O5 0.038463 0.791194 0.092486
O O6 0.250000 0.750000 0.000000
O O7 0.000000 0.686764 0.000000
O O8 0.973384 0.500000 0.328240
O O9 0.985238 0.357420 0.358714
O O10 0.840424 0.405030 0.258182
O O11 0.072949 0.933579 0.048364
O O12 0.247326 0.179638 0.439810
O O13 0.103028 0.118231 0.344545
O O14 0.000000 0.116166 0.500000
O O15 0.980743 0.227991 0.420385
O O16 0.500000 0.160055 0.500000
O O17 0.879310 0.119060 0.812050
O O18 0.867899 0.000000 0.736965
#
# Coordination Sequence:
#
# PCOD9200990 Si02
#       8
#     8   8   8   2   8   8   8   8
#     4  11  24  45  65  94 129 168 213 266 323 389
#     4  12  26  45  64  98 128 161 214 272 325 392
#     4   9  22  41  61  90 127 161 207 259 313 378
#     4  12  20  44  68  94 120 168 216 270 314 376
#     4  10  21  37  60  90 125 161 210 256 310 374
#     4  10  20  37  60  88 123 164 206 254 311 372
#     4  10  22  41  63  92 124 169 210 256 321 384
#     4  12  24  42  69  93 128 170 217 268 324 384
#
# _framework density 19.201466
#
# number of rings (size 3 to 8) (size 9 to 14) (size 15 to 20)
#    0.000    1.379    3.448    1.655    3.862    3.034 
#    0.000    0.000    0.000    0.000    0.000    0.000 
#    0.000    0.000    0.000    0.000    0.000    0.000 
#
# Total GULP energy -161484.432180 kJ/mol
# GULP energy per Si atom -5568.428696 kJ/mol
# Density = 1.915776 g / cm^3
# Si number density = 19.201466 Si / 1000 Ang^3
#
#
#
# Elastic Constant Matrix: (Units=GPa)
#
#
# Indices 1 2 3 4 5 6 
#
# 1 39.3396 7.7185 5.1738 0.0000 -11.8905 0.0000
# 2 7.7185 78.5880 22.7986 0.0000 -1.3472 0.0000
# 3 5.1738 22.7986 62.6600 0.0000 2.6515 0.0000
# 4 0.0000 0.0000 0.0000 33.9577 0.0000 7.1288
# 5 -11.8905 -1.3472 2.6515 0.0000 29.4489 0.0000
# 6 0.0000 0.0000 0.0000 7.1288 0.0000 28.7411
#
#
#
# Elastic Compliance Matrix: (Units=1/GPa)
#
#
# Indices 1 2 3 4 5 6 
#
# 1 0.029785 -0.002074 -0.002218 0.000000 0.012131 0.000000
# 2 -0.002074 0.014408 -0.005083 0.000000 0.000279 0.000000
# 3 -0.002218 -0.005083 0.018108 0.000000 -0.002759 0.000000
# 4 0.000000 0.000000 0.000000 0.031066 0.000000 -0.007705
# 5 0.012131 0.000279 -0.002759 0.000000 0.039116 0.000000
# 6 0.000000 0.000000 0.000000 -0.007705 0.000000 0.036705
#
#
# Mechanical properties :
#
#
# Convention : Reuss Voigt Hill
#
# Bulk Modulus (GPa) = 22.96133 27.99659 25.47896
# Shear Modulus (GPa) = 24.69690 28.08930 26.39310
#
# Velocity S-wave (km/s) = 3.59025 3.82890 3.71150
# Velocity P-wave (km/s) = 5.40098 5.84461 5.62717
#
# Compressibility (1/GPa) = 0.04355149
#
# Stress axis : x y z
#
# Youngs Moduli (GPa) = 33.57401 69.40786 55.22313
#
# Poissons Ratio (x) = 0.14395 0.12249
# Poissons Ratio (y) = 0.06963 0.28068
# Poissons Ratio (z) = 0.07447 0.35278
#
# Static dielectric constant tensor:
#      x y z
#    x 1.663480 0.000000 -0.021360 
#    y 0.000000 1.668800 0.000000 
#    z -0.021360 0.000000 1.716200 
# 
# From -- ./inp_files/257109.got.cif
#   From: 2010.05.17/outbox.cif.g08.bks.cpg/sg12_129_cif.got.tgz:257109.got - 2010.06.03 13:09:07.
