data_PCOD9200545
_publ_section_title
;
Structure prediction by ZEFSAII (Michael W. Deem and Ramdas Pophale) SiO2 
 PCOD9200545
Probable space group: C 2/M
;
_chemical_formula_sum "Si O2"
_cell_formula_units_Z 48
_cell_length_a 25.611207
_cell_length_b 13.443415
_cell_length_c 15.515590
_cell_angle_alpha 90.000000
_cell_angle_beta 155.462586
_cell_angle_gamma 90.000000
_cell_volume 2218.485814
_symmetry_space_group_name_H-M "C 2/M"
_symmetry_group_IT_number 12
_symmetry_cell_setting 'monoclinic'
loop_
_space_group_symop_operation_xyz
x,y,z
-x,y,-z
-x,-y,-z
x,-y,z
1/2+x,1/2+y,z
1/2-x,1/2+y,-z
1/2-x,1/2-y,-z
1/2+x,1/2-y,z
loop_
_atom_site_type_symbol
_atom_site_label
_atom_site_fract_x
_atom_site_fract_y
_atom_site_fract_z
Si Si1 0.108313 0.164532 0.856793
Si Si2 0.758874 0.763558 0.664854
Si Si3 0.261196 0.887822 0.524758
Si Si4 0.691004 0.113271 0.977538
Si Si5 0.040203 0.890647 0.944837
Si Si6 0.901719 0.812240 0.422278
O O1 0.236391 0.129685 0.004082
O O2 0.090477 0.122784 0.923988
O O3 0.995360 0.128512 0.625781
O O4 0.107677 0.286102 0.860086
O O5 0.692220 0.827644 0.488997
O O6 0.787296 0.662394 0.655844
O O7 0.675239 0.753577 0.624925
O O8 0.887884 0.812025 0.889481
O O9 0.109605 0.884089 0.286534
O O10 0.305281 0.000000 0.588416
O O11 0.798765 0.127912 0.212757
O O12 0.640305 0.000000 0.906265
O O13 0.075482 0.000000 0.030559
O O14 0.000000 0.765392 0.500000
#
# Coordination Sequence:
#
# PCOD9200545 Si02
#       6
#     8   8   8   8   8   8
#     4  10  20  37  58  87 125 156 199 248 298 352
#     4  11  21  39  63  90 123 153 195 257 303 346
#     4  10  23  41  65  89 116 157 206 250 297 356
#     4  10  21  37  60  86 119 163 205 244 294 353
#     4  11  21  37  63  91 116 153 202 249 299 354
#     4  10  21  37  61  88 124 157 199 243 297 350
#
# _framework density 21.636379999999999
#
# number of rings (size 3 to 8) (size 9 to 14) (size 15 to 20)
#    0.000    1.667    3.333    1.500    0.000    5.667 
#    0.000    1.667    0.000   13.500    0.000    0.000 
#    0.000    0.000    0.000    0.000    0.000    0.000 
#
# Total GULP energy -133909.582749 kJ/mol
# GULP energy per Si atom -5579.565948 kJ/mol
# Density = 2.158713 g / cm^3
# Si number density = 21.636380 Si / 1000 Ang^3
#
#
#
# Elastic Constant Matrix: (Units=GPa)
#
#
# Indices 1 2 3 4 5 6 
#
# 1 146.6228 33.2764 9.4209 0.0000 -21.7969 0.0000
# 2 33.2764 113.7341 -4.8592 0.0000 -6.4435 0.0000
# 3 9.4209 -4.8592 44.0229 0.0000 -15.9803 0.0000
# 4 0.0000 0.0000 0.0000 21.2365 0.0000 -2.9204
# 5 -21.7969 -6.4435 -15.9803 0.0000 29.3359 0.0000
# 6 0.0000 0.0000 0.0000 -2.9204 0.0000 1.1357
#
#
#
# Elastic Compliance Matrix: (Units=1/GPa)
#
#
# Indices 1 2 3 4 5 6 
#
# 1 0.008117 -0.002053 0.000077 0.000000 0.005622 0.000000
# 2 -0.002053 0.009583 0.002128 0.000000 0.001739 0.000000
# 3 0.000077 0.002128 0.028824 0.000000 0.016226 0.000000
# 4 0.000000 0.000000 0.000000 0.072849 0.000000 0.187324
# 5 0.005622 0.001739 0.016226 0.000000 0.047486 0.000000
# 6 0.000000 0.000000 0.000000 0.187324 0.000000 1.362190
#
#
# Mechanical properties :
#
#
# Convention : Reuss Voigt Hill
#
# Bulk Modulus (GPa) = 21.35466 42.22842 31.79154
# Shear Modulus (GPa) = 3.23760 28.11108 15.67434
#
# Velocity S-wave (km/s) = 1.22459 3.60842 2.69447
# Velocity P-wave (km/s) = 3.44829 6.07624 4.94021
#
# Compressibility (1/GPa) = 0.04682818
#
# Stress axis : x y z
#
# Youngs Moduli (GPa) = 123.19830 104.35641 34.69331
#
# Poissons Ratio (x) = 0.21425 -0.00268
# Poissons Ratio (y) = 0.25293 -0.07383
# Poissons Ratio (z) = -0.00951 -0.22209
#
# Static dielectric constant tensor:
#      x y z
#    x 1.821670 0.000000 0.012290 
#    y 0.000000 1.821060 0.000000 
#    z 0.012290 0.000000 1.778680 
# 
# From -- ./inp_files/213243.got.cif
#   From: 2010.05.17/outbox.cif.g08.bks.cpg/sg12_107_cif.got.tgz:213243.got - 2010.06.03 13:09:07.
