data_PCOD9200723
_publ_section_title
;
Structure prediction by ZEFSAII (Michael W. Deem and Ramdas Pophale) SiO2 
 PCOD9200723
Probable space group: C 2/M
;
_chemical_formula_sum "Si O2"
_cell_formula_units_Z 64
_cell_length_a 33.843856
_cell_length_b 8.800556
_cell_length_c 16.878121
_cell_angle_alpha 90.000000
_cell_angle_beta 137.467307
_cell_angle_gamma 90.000000
_cell_volume 3398.346611
_symmetry_space_group_name_H-M "C 2/M"
_symmetry_group_IT_number 12
_symmetry_cell_setting 'monoclinic'
loop_
_space_group_symop_operation_xyz
x,y,z
-x,y,-z
-x,-y,-z
x,-y,z
1/2+x,1/2+y,z
1/2-x,1/2+y,-z
1/2-x,1/2-y,-z
1/2+x,1/2-y,z
loop_
_atom_site_type_symbol
_atom_site_label
_atom_site_fract_x
_atom_site_fract_y
_atom_site_fract_z
Si Si1 0.911978 0.821843 0.664576
Si Si2 0.857366 0.318589 0.304322
Si Si3 0.990611 0.681942 0.078100
Si Si4 0.716110 0.817940 0.524462
Si Si5 0.253181 0.315116 0.754380
Si Si6 0.905973 0.183195 0.224107
Si Si7 0.380327 0.315897 0.004788
Si Si8 0.460596 0.678489 0.558094
O O1 0.850765 0.735558 0.576516
O O2 0.939442 0.808948 0.617531
O O3 0.957452 0.753019 0.793601
O O4 0.902613 0.000000 0.667237
O O5 0.855207 0.500000 0.296433
O O6 0.800883 0.264680 0.270592
O O7 0.862118 0.249841 0.223860
O O8 0.915414 0.268093 0.437132
O O9 0.991220 0.500000 0.087011
O O10 0.930092 0.746473 0.022779
O O11 0.000000 0.720696 0.000000
O O12 0.750000 0.750000 0.500000
O O13 0.742995 0.766714 0.648613
O O14 0.718988 0.000000 0.525638
O O15 0.252106 0.500000 0.753008
O O16 0.315899 0.268922 0.881095
O O17 0.972153 0.229920 0.344970
O O18 0.904346 0.000000 0.224707
O O19 0.892078 0.228490 0.113432
O O20 0.384274 0.500000 0.006633
O O21 0.458474 0.500000 0.532178
#
# Coordination Sequence:
#
# PCOD9200723 Si02
#       8
#     8   8   8   8   8   8   8   8
#     4  11  22  40  66  93 119 162 207 246 300 362
#     4  11  22  37  58  88 120 157 198 242 303 363
#     4  11  25  42  61  92 128 158 193 251 310 357
#     4  11  23  41  62  92 127 162 203 253 304 358
#     4   9  21  40  61  85 119 159 200 246 297 354
#     4  10  21  38  59  86 117 153 199 252 300 351
#     4  10  21  42  65  85 115 161 208 247 293 362
#     4  10  20  37  59  87 120 154 198 247 298 353
#
# _framework density 18.832687
#
# number of rings (size 3 to 8) (size 9 to 14) (size 15 to 20)
#    0.000    1.625    2.500    1.875    1.750    4.500 
#    0.000    1.875    0.000    0.000    0.000    0.000 
#    0.000    0.000    0.000    0.000    0.000    0.000 
#
# Total GULP energy -178835.528440 kJ/mol
# GULP energy per Si atom -5588.610264 kJ/mol
# Density = 1.878982 g / cm^3
# Si number density = 18.832687 Si / 1000 Ang^3
#
#
#
# Elastic Constant Matrix: (Units=GPa)
#
#
# Indices 1 2 3 4 5 6 
#
# 1 463.1693 67.5237 52.2458 0.0000 77.6118 0.0000
# 2 67.5237 38.8264 34.0267 0.0000 -0.3787 0.0000
# 3 52.2458 34.0267 141.3257 0.0000 -7.2165 0.0000
# 4 0.0000 0.0000 0.0000 24.4869 0.0000 -0.4832
# 5 77.6118 -0.3787 -7.2165 0.0000 57.0084 0.0000
# 6 0.0000 0.0000 0.0000 -0.4832 0.0000 35.7067
#
#
#
# Elastic Compliance Matrix: (Units=1/GPa)
#
#
# Indices 1 2 3 4 5 6 
#
# 1 0.004198 -0.007273 -0.000096 0.000000 -0.005776 0.000000
# 2 -0.007273 0.045280 -0.007742 0.000000 0.009223 0.000000
# 3 -0.000096 -0.007742 0.009038 0.000000 0.001223 0.000000
# 4 0.000000 0.000000 0.000000 0.040849 0.000000 0.000553
# 5 -0.005776 0.009223 0.001223 0.000000 0.025620 0.000000
# 6 0.000000 0.000000 0.000000 0.000553 0.000000 0.028013
#
#
# Mechanical properties :
#
#
# Convention : Reuss Voigt Hill
#
# Bulk Modulus (GPa) = 35.34416 105.65708 70.50062
# Shear Modulus (GPa) = 25.95363 56.07542 41.01452
#
# Velocity S-wave (km/s) = 3.71633 5.46262 4.67179
# Velocity P-wave (km/s) = 6.10106 9.79856 8.16195
#
# Compressibility (1/GPa) = 0.02829322
#
# Stress axis : x y z
#
# Youngs Moduli (GPa) = 238.21074 22.08498 110.64732
#
# Poissons Ratio (x) = 0.16063 0.01059
# Poissons Ratio (y) = 1.73256 0.85665
# Poissons Ratio (z) = 0.02279 0.17099
#
# Static dielectric constant tensor:
#      x y z
#    x 1.636480 0.000000 -0.007840 
#    y 0.000000 1.640760 0.000000 
#    z -0.007840 0.000000 1.630720 
# 
# From -- ./inp_files/250054.got.cif
#   From: 2010.05.17/outbox.cif.g08.bks.cpg/sg12_126_cif.got.tgz:250054.got - 2010.06.03 13:09:07.
