data_PCOD9200024
_publ_section_title
;
Structure prediction by ZEFSAII (Michael W. Deem and Ramdas Pophale) SiO2 
 PCOD9200024
Probable space group: C 2/M
;
_chemical_formula_sum "Si O2"
_cell_formula_units_Z 44
_cell_length_a 14.615060
_cell_length_b 28.656298
_cell_length_c 6.040875
_cell_angle_alpha 90.000000
_cell_angle_beta 116.376433
_cell_angle_gamma 90.000000
_cell_volume 2266.613350
_symmetry_space_group_name_H-M "C 2/M"
_symmetry_group_IT_number 12
_symmetry_cell_setting 'monoclinic'
loop_
_space_group_symop_operation_xyz
x,y,z
-x,y,-z
-x,-y,-z
x,-y,z
1/2+x,1/2+y,z
1/2-x,1/2+y,-z
1/2-x,1/2-y,-z
1/2+x,1/2-y,z
loop_
_atom_site_type_symbol
_atom_site_label
_atom_site_fract_x
_atom_site_fract_y
_atom_site_fract_z
Si Si1 0.204578 0.447185 0.336457
Si Si2 0.299402 0.199896 0.524616
Si Si3 0.000000 0.323301 0.500000
Si Si4 0.126701 0.635968 0.006407
Si Si5 0.594166 0.446645 0.761491
Si Si6 0.791128 0.884682 0.809290
O O1 0.168791 0.500000 0.321122
O O2 0.124904 0.411706 0.142123
O O3 0.304707 0.447069 0.284958
O O4 0.238920 0.424902 0.605362
O O5 0.250000 0.250000 0.500000
O O6 0.396416 0.202849 0.461010
O O7 0.344344 0.178223 0.799388
O O8 0.215515 0.161847 0.348349
O O9 0.030967 0.353329 0.747942
O O10 0.219218 0.629292 0.935022
O O11 0.500000 0.435470 0.500000
O O12 0.580867 0.500000 0.832044
O O13 0.611038 0.408921 0.973483
#
# Coordination Sequence:
#
# PCOD9200024 Si02
#       6
#     8   8   4   8   8   8
#     4   9  17  31  53  80 110 150 193 229 276 332
#     4  10  21  38  64  81 110 145 189 232 287 340
#     4  10  20  36  63  88 108 146 185 230 284 344
#     4   9  19  36  58  81 111 144 185 230 277 331
#     4   9  17  29  49  75 109 151 193 233 278 337
#     4   9  18  32  53  76 109 150 185 231 282 330
#
# _framework density 19.412222
#
# number of rings (size 3 to 8) (size 9 to 14) (size 15 to 20)
#    0.000    2.727    0.000    1.091    0.000    4.364 
#    0.000    3.182   48.000   15.273    0.000    0.000 
#    0.000    0.000    0.000    0.000    0.000    0.000 
#
# Total GULP energy -122570.466392 kJ/mol
# GULP energy per Si atom -5571.384836 kJ/mol
# Density = 1.936804 g / cm^3
# Si number density = 19.412222 Si / 1000 Ang^3
#
#
#
# Elastic Constant Matrix: (Units=GPa)
#
#
# Indices 1 2 3 4 5 6 
#
# 1 58.5800 41.1570 29.9271 0.0000 8.6986 0.0000
# 2 41.1570 168.3229 88.0476 0.0000 16.5262 0.0000
# 3 29.9271 88.0476 135.9465 0.0000 16.4780 0.0000
# 4 0.0000 0.0000 0.0000 11.7625 0.0000 -1.7598
# 5 8.6986 16.5262 16.4780 0.0000 30.9825 0.0000
# 6 0.0000 0.0000 0.0000 -1.7598 0.0000 19.9151
#
#
#
# Elastic Compliance Matrix: (Units=1/GPa)
#
#
# Indices 1 2 3 4 5 6 
#
# 1 0.021189 -0.003993 -0.001727 0.000000 -0.002901 0.000000
# 2 -0.003993 0.009834 -0.005334 0.000000 -0.001287 0.000000
# 3 -0.001727 -0.005334 0.011530 0.000000 -0.002802 0.000000
# 4 0.000000 0.000000 0.000000 0.086155 0.000000 0.007613
# 5 -0.002901 -0.001287 -0.002802 0.000000 0.035268 0.000000
# 6 0.000000 0.000000 0.000000 0.007613 0.000000 0.050886
#
#
# Mechanical properties :
#
#
# Convention : Reuss Voigt Hill
#
# Bulk Modulus (GPa) = 48.91023 75.67921 62.29472
# Shear Modulus (GPa) = 20.50996 26.11320 23.31158
#
# Velocity S-wave (km/s) = 3.25399 3.67167 3.46912
# Velocity P-wave (km/s) = 6.27441 7.55280 6.94309
#
# Compressibility (1/GPa) = 0.02044562
#
# Stress axis : x y z
#
# Youngs Moduli (GPa) = 47.19450 101.69008 86.72819
#
# Poissons Ratio (x) = 0.40603 0.14977
# Poissons Ratio (y) = 0.18844 0.46260
# Poissons Ratio (z) = 0.08150 0.54241
#
# Static dielectric constant tensor:
#      x y z
#    x 1.704120 0.000000 -0.002010 
#    y 0.000000 1.661980 0.000000 
#    z -0.002010 0.000000 1.700290 
# 
# From -- ./inp_files/17031.got.cif
#   From: 2010.05.17/outbox.cif.g08.bks.cpg/sg12_9_cif.got.tgz:17031.got - 2010.06.03 13:09:07.
