data_PCOD9200686
_publ_section_title
;
Structure prediction by ZEFSAII (Michael W. Deem and Ramdas Pophale) SiO2 
 PCOD9200686
Probable space group: C 2/M
;
_chemical_formula_sum "Si O2"
_cell_formula_units_Z 58
_cell_length_a 21.201669
_cell_length_b 12.392961
_cell_length_c 23.114586
_cell_angle_alpha 90.000000
_cell_angle_beta 147.913677
_cell_angle_gamma 90.000000
_cell_volume 3226.163205
_symmetry_space_group_name_H-M "C 2/M"
_symmetry_group_IT_number 12
_symmetry_cell_setting 'monoclinic'
loop_
_space_group_symop_operation_xyz
x,y,z
-x,y,-z
-x,-y,-z
x,-y,z
1/2+x,1/2+y,z
1/2-x,1/2+y,-z
1/2-x,1/2-y,-z
1/2+x,1/2-y,z
loop_
_atom_site_type_symbol
_atom_site_label
_atom_site_fract_x
_atom_site_fract_y
_atom_site_fract_z
Si Si1 0.132797 0.371156 0.954256
Si Si2 0.500000 0.500000 0.500000
Si Si3 0.636538 0.760648 0.832881
Si Si4 0.181984 0.278971 0.532770
Si Si5 0.603175 0.628087 0.370723
Si Si6 0.930557 0.376285 0.334571
Si Si7 0.069582 0.370463 0.111762
Si Si8 0.171456 0.796431 0.656287
O O1 0.152285 0.500000 0.971252
O O2 0.123550 0.329894 0.881344
O O3 0.013654 0.346870 0.897730
O O4 0.243153 0.308262 0.068683
O O5 0.592544 0.404333 0.594062
O O6 0.524754 0.680313 0.740267
O O7 0.630862 0.836679 0.772368
O O8 0.303210 0.330742 0.604173
O O9 0.151385 0.175518 0.468974
O O10 0.186290 0.243759 0.602181
O O11 0.072152 0.360004 0.437376
O O12 0.596758 0.500000 0.367289
O O13 0.902758 0.500000 0.325865
O O14 0.891406 0.295190 0.354544
O O15 0.084239 0.500000 0.120359
O O16 0.198507 0.319377 0.217337
O O17 0.000000 0.336101 0.000000
#
# Coordination Sequence:
#
# PCOD9200686 Si02
#       8
#     8   2   8   8   8   8   8   8
#     4  10  20  37  59  85 113 151 195 245 299 345
#     4  12  24  40  60  96 116 160 192 260 304 352
#     4  10  21  37  58  85 114 150 200 244 292 355
#     4  10  22  37  55  86 115 155 198 237 295 360
#     4  10  21  36  57  83 117 154 193 244 297 351
#     4  11  23  39  58  84 119 160 196 240 295 364
#     4  10  21  36  58  86 116 151 190 243 299 353
#     4  12  23  40  61  87 122 154 200 248 304 355
#
# _framework density 17.978012
#
# number of rings (size 3 to 8) (size 9 to 14) (size 15 to 20)
#    0.000    1.517    2.069    2.897    0.966    1.655 
#    1.241    2.069    0.000    4.552    0.000    0.000 
#    0.000    0.000    0.000    0.000    0.000    0.000 
#
# Total GULP energy -161767.100036 kJ/mol
# GULP energy per Si atom -5578.175863 kJ/mol
# Density = 1.793709 g / cm^3
# Si number density = 17.978012 Si / 1000 Ang^3
#
#
#
# Elastic Constant Matrix: (Units=GPa)
#
#
# Indices 1 2 3 4 5 6 
#
# 1 75.6335 46.3168 26.7436 0.0000 -4.0345 0.0000
# 2 46.3168 133.3531 42.4204 0.0000 2.1503 0.0000
# 3 26.7436 42.4204 93.1437 -0.0001 3.5443 0.0000
# 4 0.0000 0.0000 -0.0001 15.9697 0.0000 2.3832
# 5 -4.0345 2.1503 3.5443 0.0000 34.7339 0.0000
# 6 0.0000 0.0000 0.0000 2.3832 0.0000 6.5092
#
#
#
# Elastic Compliance Matrix: (Units=1/GPa)
#
#
# Indices 1 2 3 4 5 6 
#
# 1 0.017559 -0.005269 -0.002743 0.000000 0.002646 0.000000
# 2 -0.005269 0.010351 -0.003166 0.000000 -0.000930 0.000000
# 3 -0.002743 -0.003166 0.013021 0.000000 -0.001451 0.000000
# 4 0.000000 0.000000 0.000000 0.066238 0.000000 -0.024252
# 5 0.002646 -0.000930 -0.001451 0.000000 0.029303 0.000000
# 6 0.000000 0.000000 0.000000 -0.024252 0.000000 0.162508
#
#
# Mechanical properties :
#
#
# Convention : Reuss Voigt Hill
#
# Bulk Modulus (GPa) = 53.83360 59.23244 56.53302
# Shear Modulus (GPa) = 15.26591 23.88584 19.57588
#
# Velocity S-wave (km/s) = 2.91717 3.64897 3.30340
# Velocity P-wave (km/s) = 6.43083 7.12545 6.78703
#
# Compressibility (1/GPa) = 0.01857576
#
# Stress axis : x y z
#
# Youngs Moduli (GPa) = 56.95015 96.60879 76.80094
#
# Poissons Ratio (x) = 0.50903 0.21064
# Poissons Ratio (y) = 0.30007 0.24315
# Poissons Ratio (z) = 0.15620 0.30586
#
# Static dielectric constant tensor:
#      x y z
#    x 1.617870 0.000000 -0.003150 
#    y 0.000000 1.576130 0.000000 
#    z -0.003150 0.000000 1.600620 
# 
# From -- ./inp_files/315980.got.cif
#   From: 2010.05.17/outbox.cif.g08.bks.cpg/sg12_158_cif.got.tgz:315980.got - 2010.06.03 13:09:07.
