data_PCOD9200260
_publ_section_title
;
Structure prediction by ZEFSAII (Michael W. Deem and Ramdas Pophale) SiO2 
 PCOD9200260
Probable space group: C 2/M
;
_chemical_formula_sum "Si O2"
_cell_formula_units_Z 56
_cell_length_a 24.617739
_cell_length_b 12.838895
_cell_length_c 8.378853
_cell_angle_alpha 90.000000
_cell_angle_beta 68.009702
_cell_angle_gamma 90.000000
_cell_volume 2455.590511
_symmetry_space_group_name_H-M "C 2/M"
_symmetry_group_IT_number 12
_symmetry_cell_setting 'monoclinic'
loop_
_space_group_symop_operation_xyz
x,y,z
-x,y,-z
-x,-y,-z
x,-y,z
1/2+x,1/2+y,z
1/2-x,1/2+y,-z
1/2-x,1/2-y,-z
1/2+x,1/2-y,z
loop_
_atom_site_type_symbol
_atom_site_label
_atom_site_fract_x
_atom_site_fract_y
_atom_site_fract_z
Si Si1 0.356250 0.788867 0.100322
Si Si2 0.321614 0.668128 0.562263
Si Si3 0.294481 0.882194 0.475370
Si Si4 0.973458 0.167696 0.700250
Si Si5 0.421483 0.612976 0.223863
Si Si6 0.531604 0.116316 0.139064
Si Si7 0.664069 0.383194 0.103932
O O1 0.322360 0.849416 0.274802
O O2 0.400474 0.706447 0.136285
O O3 0.398794 0.867994 0.963157
O O4 0.318375 0.712505 0.030022
O O5 0.317389 0.793434 0.568704
O O6 0.274655 0.631288 0.481485
O O7 0.383704 0.630624 0.427256
O O8 0.308495 0.625383 0.750552
O O9 0.308594 0.000000 0.503087
O O10 0.983863 0.290608 0.724196
O O11 0.905726 0.136408 0.789425
O O12 0.000000 0.139464 0.500000
O O13 0.011500 0.116622 0.798279
O O14 0.406843 0.500000 0.172800
O O15 0.517493 0.000000 0.210663
O O16 0.500000 0.128478 0.000000
O O17 0.674915 0.500000 0.030608
#
# Coordination Sequence:
#
# PCOD9200260 Si02
#       7
#     8   8   8   8   8   8   8
#     4  10  22  37  57  85 113 150 197 233 277 345
#     4  10  22  38  60  89 114 147 194 237 283 348
#     4  10  21  41  64  84 113 152 192 239 288 334
#     4  11  22  35  54  86 117 146 191 229 278 346
#     4  11  20  35  57  83 116 153 187 229 280 337
#     4  10  20  37  56  75 107 151 191 233 280 326
#     4  11  22  37  58  87 123 152 183 238 291 337
#
# _framework density 22.805105000000001
#
# number of rings (size 3 to 8) (size 9 to 14) (size 15 to 20)
#    0.000    1.571    2.857    2.571    0.000    1.429 
#    0.000    6.429    0.000    0.000    0.000    0.000 
#    0.000    0.000    0.000    0.000    0.000    0.000 
#
# Total GULP energy -156531.550091 kJ/mol
# GULP energy per Si atom -5590.412503 kJ/mol
# Density = 2.275320 g / cm^3
# Si number density = 22.805105 Si / 1000 Ang^3
#
#
#
# Elastic Constant Matrix: (Units=GPa)
#
#
# Indices 1 2 3 4 5 6 
#
# 1 43.6084 4.6203 -9.7447 0.0000 -0.6442 0.0000
# 2 4.6203 153.7260 -6.3582 0.0000 2.4325 0.0000
# 3 -9.7447 -6.3582 34.6370 0.0000 7.5153 0.0000
# 4 0.0000 0.0000 0.0000 7.6597 0.0000 2.7704
# 5 -0.6442 2.4325 7.5153 0.0000 27.2092 0.0000
# 6 0.0000 0.0000 0.0000 2.7704 0.0000 17.4458
#
#
#
# Elastic Compliance Matrix: (Units=1/GPa)
#
#
# Indices 1 2 3 4 5 6 
#
# 1 0.024547 -0.000422 0.007121 0.000000 -0.001348 0.000000
# 2 -0.000422 0.006587 0.001298 0.000000 -0.000957 0.000000
# 3 0.007121 0.001298 0.033084 0.000000 -0.009085 0.000000
# 4 0.000000 0.000000 0.000000 0.138509 0.000000 -0.021995
# 5 -0.001348 -0.000957 -0.009085 0.000000 0.039315 0.000000
# 6 0.000000 0.000000 0.000000 -0.021995 0.000000 0.060813
#
#
# Mechanical properties :
#
#
# Convention : Reuss Voigt Hill
#
# Bulk Modulus (GPa) = 12.46686 23.22292 17.84489
# Shear Modulus (GPa) = 15.94395 26.69320 21.31858
#
# Velocity S-wave (km/s) = 2.64699 3.42496 3.06079
# Velocity P-wave (km/s) = 3.84976 5.08387 4.50924
#
# Compressibility (1/GPa) = 0.08021264
#
# Stress axis : x y z
#
# Youngs Moduli (GPa) = 40.73746 151.82340 30.22616
#
# Poissons Ratio (x) = 0.06406 -0.21525
# Poissons Ratio (y) = 0.01719 -0.03924
# Poissons Ratio (z) = -0.29010 -0.19708
#
# Static dielectric constant tensor:
#      x y z
#    x 1.862650 0.000000 -0.008450 
#    y 0.000000 1.838180 0.000000 
#    z -0.008450 0.000000 1.867790 
# 
# From -- ./inp_files/103119.got.cif
#   From: 2010.05.17/outbox.cif.g08.bks.cpg/sg12_52_cif.got.tgz:103119.got - 2010.06.03 13:09:07.
