data_PCOD9200973
_publ_section_title
;
Structure prediction by ZEFSAII (Michael W. Deem and Ramdas Pophale) SiO2 
 PCOD9200973
Probable space group: C 2/M
;
_chemical_formula_sum "Si O2"
_cell_formula_units_Z 64
_cell_length_a 30.964693
_cell_length_b 8.296982
_cell_length_c 11.440575
_cell_angle_alpha 90.000000
_cell_angle_beta 94.401347
_cell_angle_gamma 90.000000
_cell_volume 2930.570205
_symmetry_space_group_name_H-M "C 2/M"
_symmetry_group_IT_number 12
_symmetry_cell_setting 'monoclinic'
loop_
_space_group_symop_operation_xyz
x,y,z
-x,y,-z
-x,-y,-z
x,-y,z
1/2+x,1/2+y,z
1/2-x,1/2+y,-z
1/2-x,1/2-y,-z
1/2+x,1/2-y,z
loop_
_atom_site_type_symbol
_atom_site_label
_atom_site_fract_x
_atom_site_fract_y
_atom_site_fract_z
Si Si1 0.049233 0.314785 0.523874
Si Si2 0.848609 0.183248 0.865902
Si Si3 0.894989 0.309777 0.101913
Si Si4 0.868254 0.810985 0.330809
Si Si5 0.991113 0.686000 0.135571
Si Si6 0.756899 0.316355 0.869011
Si Si7 0.922444 0.686150 0.734453
Si Si8 0.722919 0.693965 0.608135
O O1 0.045524 0.500000 0.567144
O O2 0.084305 0.223023 0.607877
O O3 0.070160 0.318635 0.400713
O O4 0.000000 0.252242 0.500000
O O5 0.808173 0.301608 0.859227
O O6 0.880742 0.217784 0.766129
O O7 0.832659 0.000000 0.861071
O O8 0.876290 0.217088 0.987829
O O9 0.898533 0.500000 0.074561
O O10 0.865478 0.283748 0.208479
O O11 0.943229 0.246964 0.142297
O O12 0.828394 0.764869 0.407140
O O13 0.863836 0.000000 0.304707
O O14 0.989689 0.500000 0.178032
O O15 0.033258 0.759588 0.203736
O O16 0.000000 0.684282 0.000000
O O17 0.741351 0.500000 0.871102
O O18 0.737665 0.247178 0.741942
O O19 0.750000 0.250000 0.000000
O O20 0.917926 0.500000 0.777140
O O21 0.727367 0.500000 0.610227
O O22 0.750000 0.750000 0.500000
#
# Coordination Sequence:
#
# PCOD9200973 Si02
#       8
#     8   8   8   8   8   8   8   8
#     4  10  22  41  65  92 124 169 223 266 308 376
#     4  12  25  39  59  92 131 167 206 260 323 386
#     4  11  21  38  65  93 123 166 217 263 316 383
#     4  11  24  42  64  95 133 166 204 264 331 390
#     4   9  16  31  57  86 118 157 205 260 311 365
#     4  11  24  45  71  99 130 170 217 270 329 398
#     4  10  20  37  60  87 121 162 212 264 313 376
#     4  10  25  46  69  97 132 171 218 271 330 395
#
# _framework density 21.838754999999999
#
# number of rings (size 3 to 8) (size 9 to 14) (size 15 to 20)
#    0.000    1.500    1.250    3.750    1.750    5.750 
#    0.000    3.125    0.000    0.000    0.000    0.000 
#    0.000    0.000    0.000    0.000    0.000    0.000 
#
# Total GULP energy -178663.745579 kJ/mol
# GULP energy per Si atom -5583.242049 kJ/mol
# Density = 2.178905 g / cm^3
# Si number density = 21.838755 Si / 1000 Ang^3
#
#
#
# Elastic Constant Matrix: (Units=GPa)
#
#
# Indices 1 2 3 4 5 6 
#
# 1 113.9326 1.2097 38.6341 0.0000 -15.4663 0.0000
# 2 1.2097 32.8944 17.0989 0.0000 -0.4346 0.0000
# 3 38.6341 17.0989 122.1848 0.0000 -21.7166 0.0000
# 4 0.0000 0.0000 0.0000 24.8403 0.0000 -3.5948
# 5 -15.4663 -0.4346 -21.7166 0.0000 31.0308 0.0000
# 6 0.0000 0.0000 0.0000 -3.5948 0.0000 18.9464
#
#
#
# Elastic Compliance Matrix: (Units=1/GPa)
#
#
# Indices 1 2 3 4 5 6 
#
# 1 0.010140 0.001130 -0.002813 0.000000 0.003101 0.000000
# 2 0.001130 0.033182 -0.005503 0.000000 -0.002823 0.000000
# 3 -0.002813 -0.005503 0.010942 0.000000 0.006178 0.000000
# 4 0.000000 0.000000 0.000000 0.041394 0.000000 0.007854
# 5 0.003101 -0.002823 0.006178 0.000000 0.038056 0.000000
# 6 0.000000 0.000000 0.000000 0.007854 0.000000 0.054271
#
#
# Mechanical properties :
#
#
# Convention : Reuss Voigt Hill
#
# Bulk Modulus (GPa) = 25.06716 42.54413 33.80565
# Shear Modulus (GPa) = 23.18540 29.10145 26.14342
#
# Velocity S-wave (km/s) = 3.26185 3.65438 3.46368
# Velocity P-wave (km/s) = 5.06848 6.10978 5.61332
#
# Compressibility (1/GPa) = 0.03989283
#
# Stress axis : x y z
#
# Youngs Moduli (GPa) = 98.61892 30.13695 91.39044
#
# Poissons Ratio (x) = -0.03407 0.25711
# Poissons Ratio (y) = -0.11148 0.50290
# Poissons Ratio (z) = 0.27744 0.16584
#
# Static dielectric constant tensor:
#      x y z
#    x 1.811510 0.000000 0.018010 
#    y 0.000000 1.819980 0.000000 
#    z 0.018010 0.000000 1.809140 
# 
# From -- ./inp_files/187554.got.cif
#   From: 2010.05.17/outbox.cif.g08.bks.cpg/sg12_94_cif.got.tgz:187554.got - 2010.06.03 13:09:07.
