data_PCOD9200535
_publ_section_title
;
Structure prediction by ZEFSAII (Michael W. Deem and Ramdas Pophale) SiO2 
 PCOD9200535
Probable space group: C 2/M
;
_chemical_formula_sum "Si O2"
_cell_formula_units_Z 58
_cell_length_a 21.482200
_cell_length_b 7.745942
_cell_length_c 19.609272
_cell_angle_alpha 90.000000
_cell_angle_beta 117.538153
_cell_angle_gamma 90.000000
_cell_volume 2893.295045
_symmetry_space_group_name_H-M "C 2/M"
_symmetry_group_IT_number 12
_symmetry_cell_setting 'monoclinic'
loop_
_space_group_symop_operation_xyz
x,y,z
-x,y,-z
-x,-y,-z
x,-y,z
1/2+x,1/2+y,z
1/2-x,1/2+y,-z
1/2-x,1/2-y,-z
1/2+x,1/2-y,z
loop_
_atom_site_type_symbol
_atom_site_label
_atom_site_fract_x
_atom_site_fract_y
_atom_site_fract_z
Si Si1 0.929168 0.800986 0.395814
Si Si2 0.401655 0.203838 0.235205
Si Si3 0.172726 0.792485 0.531819
Si Si4 0.533173 0.295407 0.946985
Si Si5 0.959025 0.709623 0.772776
Si Si6 0.000000 0.500000 0.500000
Si Si7 0.830945 0.703839 0.620660
Si Si8 0.828841 0.794552 0.061636
O O1 0.892452 0.788319 0.303853
O O2 0.874479 0.749729 0.427586
O O3 0.987520 0.654612 0.435634
O O4 0.952233 0.000000 0.416351
O O5 0.475876 0.265255 0.241571
O O6 0.345663 0.236392 0.147221
O O7 0.405457 0.000000 0.248139
O O8 0.145195 0.726612 0.445408
O O9 0.251916 0.724152 0.582700
O O10 0.175159 0.000000 0.528062
O O11 0.543964 0.500000 0.963429
O O12 0.477647 0.270335 0.857802
O O13 0.608039 0.225591 0.955712
O O14 0.500000 0.223124 0.000000
O O15 0.958684 0.500000 0.773301
O O16 0.887126 0.773585 0.702620
O O17 0.825240 0.500000 0.631488
O O18 0.835397 0.000000 0.064272
O O19 0.750000 0.750000 0.000000
#
# Coordination Sequence:
#
# PCOD9200535 Si02
#       8
#     8   8   8   8   8   2   8   8
#     4  11  24  40  59  87 121 157 202 250 299 353
#     4  10  20  37  58  86 120 153 193 245 298 351
#     4   9  20  36  53  78 112 149 191 240 286 342
#     4   9  19  37  58  81 114 146 183 237 293 351
#     4   9  19  33  56  83 109 142 185 233 284 346
#     4  12  26  40  60  86 116 160 200 246 302 354
#     4   9  18  34  56  78 109 148 189 234 287 344
#     4  10  20  37  61  87 116 156 199 244 303 371
#
# _framework density 20.046347999999998
#
# number of rings (size 3 to 8) (size 9 to 14) (size 15 to 20)
#    0.000    2.345    0.690    1.034    2.897    1.931 
#    2.483    0.000    0.000    0.000    0.000    0.000 
#    0.000    0.000    0.000    0.000    0.000    0.000 
#
# Total GULP energy -161530.852945 kJ/mol
# GULP energy per Si atom -5570.029412 kJ/mol
# Density = 2.000072 g / cm^3
# Si number density = 20.046348 Si / 1000 Ang^3
#
#
#
# Elastic Constant Matrix: (Units=GPa)
#
#
# Indices 1 2 3 4 5 6 
#
# 1 78.8950 21.8936 77.1791 0.0000 -3.5451 0.0000
# 2 21.8936 47.9735 12.0041 0.0000 -7.0164 0.0000
# 3 77.1791 12.0041 157.5216 0.0000 1.7204 0.0000
# 4 0.0000 0.0000 0.0000 30.7512 0.0000 -0.1451
# 5 -3.5451 -7.0164 1.7204 0.0000 29.2969 0.0000
# 6 0.0000 0.0000 0.0000 -0.1451 0.0000 5.5299
#
#
#
# Elastic Compliance Matrix: (Units=1/GPa)
#
#
# Indices 1 2 3 4 5 6 
#
# 1 0.028172 -0.009289 -0.013116 0.000000 0.001955 0.000000
# 2 -0.009289 0.025131 0.002584 0.000000 0.004743 0.000000
# 3 -0.013116 0.002584 0.012597 0.000000 -0.001708 0.000000
# 4 0.000000 0.000000 0.000000 0.032523 0.000000 0.000853
# 5 0.001955 0.004743 -0.001708 0.000000 0.035606 0.000000
# 6 0.000000 0.000000 0.000000 0.000853 0.000000 0.180856
#
#
# Mechanical properties :
#
#
# Convention : Reuss Voigt Hill
#
# Bulk Modulus (GPa) = 38.08477 56.28261 47.18369
# Shear Modulus (GPa) = 13.76352 24.66982 19.21667
#
# Velocity S-wave (km/s) = 2.62312 3.51185 3.09950
# Velocity P-wave (km/s) = 5.31168 6.67693 6.03305
#
# Compressibility (1/GPa) = 0.02625722
#
# Stress axis : x y z
#
# Youngs Moduli (GPa) = 35.49652 39.79144 79.38648
#
# Poissons Ratio (x) = 0.36961 1.04127
# Poissons Ratio (y) = 0.32972 -0.20515
# Poissons Ratio (z) = 0.46559 -0.10283
#
# Static dielectric constant tensor:
#      x y z
#    x 0.793010 0.000000 -1.034530 
#    y 0.000000 1.741420 0.000000 
#    z -1.034530 0.000000 0.561510 
# 
# From -- ./inp_files/282212.got.cif
#   From: 2010.05.17/outbox.cif.g08.bks.cpg/sg12_142_cif.got.tgz:282212.got - 2010.06.03 13:09:07.
