data_PCOD9200799
_publ_section_title
;
Structure prediction by ZEFSAII (Michael W. Deem and Ramdas Pophale) SiO2 
 PCOD9200799
Probable space group: C 2/M
;
_chemical_formula_sum "Si O2"
_cell_formula_units_Z 56
_cell_length_a 13.552861
_cell_length_b 17.080346
_cell_length_c 21.050147
_cell_angle_alpha 90.000000
_cell_angle_beta 35.346745
_cell_angle_gamma 90.000000
_cell_volume 2819.055473
_symmetry_space_group_name_H-M "C 2/M"
_symmetry_group_IT_number 12
_symmetry_cell_setting 'monoclinic'
loop_
_space_group_symop_operation_xyz
x,y,z
-x,y,-z
-x,-y,-z
x,-y,z
1/2+x,1/2+y,z
1/2-x,1/2+y,-z
1/2-x,1/2-y,-z
1/2+x,1/2-y,z
loop_
_atom_site_type_symbol
_atom_site_label
_atom_site_fract_x
_atom_site_fract_y
_atom_site_fract_z
Si Si1 0.984909 0.910110 0.609615
Si Si2 0.126523 0.327605 0.166840
Si Si3 0.307205 0.407448 0.185297
Si Si4 0.557569 0.354146 0.229733
Si Si5 0.693615 0.588184 0.031355
Si Si6 0.185118 0.333936 0.376559
Si Si7 0.759496 0.848134 0.619710
O O1 0.915475 0.875541 0.711538
O O2 0.845101 0.903065 0.627475
O O3 0.144980 0.862408 0.496954
O O4 0.033588 0.000000 0.593707
O O5 0.260702 0.367748 0.143466
O O6 0.107061 0.235602 0.189675
O O7 0.940173 0.361646 0.279534
O O8 0.181961 0.349501 0.066486
O O9 0.267315 0.500000 0.205346
O O10 0.505670 0.400067 0.099750
O O11 0.203599 0.362367 0.294645
O O12 0.663995 0.402386 0.121997
O O13 0.354799 0.366582 0.322486
O O14 0.751205 0.500000 0.986053
O O15 0.203708 0.240282 0.375622
O O16 0.000000 0.357419 0.500000
#
# Coordination Sequence:
#
# PCOD9200799 Si02
#       7
#     8   8   8   8   8   8   8
#     4  11  22  39  59  81 119 156 189 236 290 341
#     4  11  22  36  63  86 115 151 195 239 281 342
#     4  10  22  37  57  88 120 153 188 232 292 344
#     4  10  23  38  60  87 113 154 195 234 289 340
#     4  10  21  41  61  84 118 151 190 241 292 339
#     4  10  20  37  60  82 118 150 188 238 284 339
#     4  10  22  38  59  86 113 151 198 238 281 337
#
# _framework density 19.864809999999999
#
# number of rings (size 3 to 8) (size 9 to 14) (size 15 to 20)
#    0.000    1.714    1.429    3.429    2.000    5.429 
#    0.000    2.143    0.000    1.714    0.000    0.000 
#    0.000    0.000    0.000    0.000    0.000    0.000 
#
# Total GULP energy -156357.096980 kJ/mol
# GULP energy per Si atom -5584.182035 kJ/mol
# Density = 1.981960 g / cm^3
# Si number density = 19.864810 Si / 1000 Ang^3
#
#
#
# Elastic Constant Matrix: (Units=GPa)
#
#
# Indices 1 2 3 4 5 6 
#
# 1 35.0467 -6.5915 9.3160 0.0000 21.2164 -0.0001
# 2 -6.5915 50.5543 16.0694 -0.0001 5.2156 -0.0001
# 3 9.3160 16.0694 56.7409 -0.0001 26.0882 -0.0002
# 4 0.0000 -0.0001 -0.0001 13.1988 0.0006 8.4747
# 5 21.2164 5.2156 26.0882 0.0006 27.8902 0.0000
# 6 -0.0001 -0.0001 -0.0002 8.4747 0.0000 15.6056
#
#
#
# Elastic Compliance Matrix: (Units=1/GPa)
#
#
# Indices 1 2 3 4 5 6 
#
# 1 0.069289 0.010483 0.018933 0.000004 -0.072379 -0.000002
# 2 0.010483 0.023465 -0.004707 0.000001 -0.007960 0.000000
# 3 0.018933 -0.004707 0.038717 0.000003 -0.049738 -0.000001
# 4 0.000004 0.000001 0.000003 0.116326 -0.000009 -0.063171
# 5 -0.072379 -0.007960 -0.049738 -0.000009 0.138928 0.000004
# 6 -0.000002 0.000000 -0.000001 -0.063171 0.000004 0.098385
#
#
# Mechanical properties :
#
#
# Convention : Reuss Voigt Hill
#
# Bulk Modulus (GPa) = 5.52821 19.99219 12.76020
# Shear Modulus (GPa) = 10.08094 19.57546 14.82820
#
# Velocity S-wave (km/s) = 2.25517 3.14257 2.73510
# Velocity P-wave (km/s) = 3.09354 4.82220 4.05115
#
# Compressibility (1/GPa) = 0.18089027
#
# Stress axis : x y z
#
# Youngs Moduli (GPa) = 14.43237 42.61687 25.82861
#
# Poissons Ratio (x) = -0.44677 -0.48902
# Poissons Ratio (y) = -0.15130 0.12157
# Poissons Ratio (z) = -0.27325 0.20058
#
# Static dielectric constant tensor:
#      x y z
#    x 1.701600 0.000000 0.003290 
#    y 0.000000 1.695920 0.000000 
#    z 0.003290 0.000000 1.698660 
# 
# From -- ./inp_files/311657.got.cif
#   From: 2010.05.17/outbox.cif.g08.bks.cpg/sg12_156_cif.got.tgz:311657.got - 2010.06.03 13:09:07.
