data_PCOD9200791
_publ_section_title
;
Structure prediction by ZEFSAII (Michael W. Deem and Ramdas Pophale) SiO2 
 PCOD9200791
Probable space group: C 2/M
;
_chemical_formula_sum "Si O2"
_cell_formula_units_Z 40
_cell_length_a 19.977011
_cell_length_b 7.465836
_cell_length_c 25.504970
_cell_angle_alpha 90.000000
_cell_angle_beta 26.972498
_cell_angle_gamma 90.000000
_cell_volume 1725.325990
_symmetry_space_group_name_H-M "C 2/M"
_symmetry_group_IT_number 12
_symmetry_cell_setting 'monoclinic'
loop_
_space_group_symop_operation_xyz
x,y,z
-x,y,-z
-x,-y,-z
x,-y,z
1/2+x,1/2+y,z
1/2-x,1/2+y,-z
1/2-x,1/2-y,-z
1/2+x,1/2-y,z
loop_
_atom_site_type_symbol
_atom_site_label
_atom_site_fract_x
_atom_site_fract_y
_atom_site_fract_z
Si Si1 0.922233 0.283525 0.716532
Si Si2 0.898157 0.781238 0.023071
Si Si3 0.946295 0.211151 0.481883
Si Si4 0.146735 0.294971 0.643129
Si Si5 0.422129 0.287084 0.890081
O O1 0.923482 0.500000 0.718552
O O2 0.769939 0.223311 0.849187
O O3 0.934802 0.231600 0.647228
O O4 0.063107 0.215256 0.651192
O O5 0.897646 0.000000 0.022825
O O6 0.953616 0.724051 0.927283
O O7 0.000000 0.723906 0.000000
O O8 0.794947 0.288963 0.563297
O O9 0.000000 0.286039 0.500000
O O10 0.917653 0.000000 0.510791
O O11 0.182735 0.500000 0.603804
O O12 0.025168 0.295949 0.774050
O O13 0.445752 0.500000 0.871009
O O14 0.250000 0.250000 0.000000
#
# Coordination Sequence:
#
# PCOD9200791 Si02
#       5
#     8   8   8   8   8
#     4  10  20  37  60  82 109 147 192 235 273 328
#     4   9  19  35  55  82 116 148 180 228 281 325
#     4  10  23  40  57  81 116 150 182 234 294 337
#     4  10  21  39  59  81 114 150 188 234 279 330
#     4  11  21  36  60  87 116 148 186 229 279 335
#
# _framework density 23.184024999999998
#
# number of rings (size 3 to 8) (size 9 to 14) (size 15 to 20)
#    0.000    2.000    2.000    1.200    2.800    2.000 
#    0.000    0.000    0.000    3.000    0.000    0.000 
#    0.000    0.000    0.000    0.000    0.000    0.000 
#
# Total GULP energy -111820.679416 kJ/mol
# GULP energy per Si atom -5591.033971 kJ/mol
# Density = 2.313126 g / cm^3
# Si number density = 23.184025 Si / 1000 Ang^3
#
#
#
# Elastic Constant Matrix: (Units=GPa)
#
#
# Indices 1 2 3 4 5 6 
#
# 1 168.7849 9.3635 21.0386 0.0004 19.1100 0.0002
# 2 9.3635 76.0379 -3.5946 -0.0002 -8.0120 0.0001
# 3 21.0386 -3.5946 67.2184 0.0018 15.5566 -0.0001
# 4 0.0004 -0.0002 0.0018 15.0645 -0.0005 15.4863
# 5 19.1100 -8.0120 15.5566 -0.0005 42.9112 -0.0001
# 6 0.0002 0.0001 -0.0001 15.4863 -0.0001 -0.1371
#
#
#
# Elastic Compliance Matrix: (Units=1/GPa)
#
#
# Indices 1 2 3 4 5 6 
#
# 1 0.006462 -0.001135 -0.001494 0.000000 -0.002548 0.000000
# 2 -0.001135 0.013616 0.000413 0.000000 0.002898 0.000000
# 3 -0.001494 0.000413 0.016586 0.000000 -0.005271 -0.000002
# 4 0.000000 0.000000 0.000000 0.000567 0.000000 0.064022
# 5 -0.002548 0.002898 -0.005271 0.000000 0.026891 0.000001
# 6 0.000000 0.000000 -0.000002 0.064022 0.000001 -0.062278
#
#
# Mechanical properties :
#
#
# Convention : Reuss Voigt Hill
#
# Bulk Modulus (GPa) = 31.02419 40.62847 35.82633
# Shear Modulus (GPa) = 293.76650 30.58329 162.17490
#
# Velocity S-wave (km/s) = 11.26880 3.63596 8.37275
# Velocity P-wave (km/s) = 13.51759 5.93206 10.43826
#
# Compressibility (1/GPa) = 0.03223291
#
# Stress axis : x y z
#
# Youngs Moduli (GPa) = 154.74224 73.44321 60.29085
#
# Poissons Ratio (x) = 0.08335 0.09005
# Poissons Ratio (y) = 0.17562 -0.02488
# Poissons Ratio (z) = 0.23112 -0.03030
#
# Static dielectric constant tensor:
#      x y z
#    x 1.870740 0.000000 -0.018490 
#    y 0.000000 1.859790 0.000000 
#    z -0.018490 0.000000 1.824210 
# 
# From -- ./inp_files/151659.got.cif
#   From: 2010.05.17/outbox.cif.g08.bks.cpg/sg12_76_cif.got.tgz:151659.got - 2010.06.03 13:09:07.
