data_PCOD9200582
_publ_section_title
;
Structure prediction by ZEFSAII (Michael W. Deem and Ramdas Pophale) SiO2 
 PCOD9200582
Probable space group: C 2/M
;
_chemical_formula_sum "Si O2"
_cell_formula_units_Z 56
_cell_length_a 19.428353
_cell_length_b 7.521068
_cell_length_c 21.016477
_cell_angle_alpha 90.000000
_cell_angle_beta 53.321619
_cell_angle_gamma 90.000000
_cell_volume 2462.920386
_symmetry_space_group_name_H-M "C 2/M"
_symmetry_group_IT_number 12
_symmetry_cell_setting 'monoclinic'
loop_
_space_group_symop_operation_xyz
x,y,z
-x,y,-z
-x,-y,-z
x,-y,z
1/2+x,1/2+y,z
1/2-x,1/2+y,-z
1/2-x,1/2-y,-z
1/2+x,1/2-y,z
loop_
_atom_site_type_symbol
_atom_site_label
_atom_site_fract_x
_atom_site_fract_y
_atom_site_fract_z
Si Si1 0.904775 0.297365 0.753814
Si Si2 0.916771 0.706477 0.509572
Si Si3 0.153645 0.788736 0.075557
Si Si4 0.596346 0.217953 0.626659
Si Si5 0.730452 0.714201 0.798539
Si Si6 0.409577 0.282754 0.022367
Si Si7 0.767139 0.710235 0.344456
O O1 0.914345 0.500000 0.725137
O O2 0.870856 0.297681 0.844607
O O3 0.827069 0.215151 0.756248
O O4 0.000454 0.222466 0.698988
O O5 0.938637 0.500000 0.486196
O O6 0.894257 0.777834 0.451674
O O7 0.829089 0.715108 0.597472
O O8 0.000000 0.783874 0.500000
O O9 0.143449 0.000000 0.089700
O O10 0.250000 0.750000 0.000000
O O11 0.098578 0.726315 0.045926
O O12 0.669422 0.279990 0.635439
O O13 0.600257 0.000000 0.627334
O O14 0.734209 0.500000 0.802386
O O15 0.667626 0.777693 0.889273
O O16 0.698566 0.755642 0.745489
O O17 0.406342 0.500000 0.023863
O O18 0.500000 0.227005 0.000000
O O19 0.759110 0.500000 0.357535
#
# Coordination Sequence:
#
# PCOD9200582 Si02
#       7
#     8   8   8   8   8   8   8
#     4  10  20  38  60  82 110 147 192 237 278 328
#     4  10  20  39  66  88 107 147 196 227 264 331
#     4  11  21  36  58  84 112 148 189 236 287 334
#     4   9  20  37  58  84 117 149 182 229 281 333
#     4  10  20  37  59  80 108 153 197 231 273 333
#     4   9  19  35  55  80 111 146 190 239 280 324
#     4  11  23  37  55  85 122 150 176 228 290 332
#
# _framework density 22.737233
#
# number of rings (size 3 to 8) (size 9 to 14) (size 15 to 20)
#    0.000    2.000    1.429    2.143    2.000    3.143 
#    0.000    2.143    0.000    2.143    0.000    0.000 
#    0.000    0.000    0.000    0.000    0.000    0.000 
#
# Total GULP energy -156432.760958 kJ/mol
# GULP energy per Si atom -5586.884320 kJ/mol
# Density = 2.268548 g / cm^3
# Si number density = 22.737233 Si / 1000 Ang^3
#
#
#
# Elastic Constant Matrix: (Units=GPa)
#
#
# Indices 1 2 3 4 5 6 
#
# 1 146.8464 5.9232 14.2251 0.0001 15.0584 -0.0011
# 2 5.9232 64.2774 -8.6142 0.0006 -0.3481 -0.0038
# 3 14.2251 -8.6142 75.0593 0.0000 11.6150 0.0000
# 4 0.0001 0.0006 0.0000 16.3409 0.0001 7.8498
# 5 15.0584 -0.3481 11.6150 0.0001 43.2446 0.0002
# 6 -0.0011 -0.0038 0.0000 7.8498 0.0002 -0.0583
#
#
#
# Elastic Compliance Matrix: (Units=1/GPa)
#
#
# Indices 1 2 3 4 5 6 
#
# 1 0.007177 -0.000823 -0.001113 0.000001 -0.002207 -0.000001
# 2 -0.000823 0.015901 0.002000 0.000007 -0.000123 -0.000016
# 3 -0.001113 0.002000 0.014295 0.000001 -0.003436 -0.000002
# 4 0.000001 0.000007 0.000001 0.000931 -0.000001 0.125453
# 5 -0.002207 -0.000123 -0.003436 -0.000001 0.024815 0.000002
# 6 -0.000001 -0.000016 -0.000002 0.125453 0.000002 -0.261154
#
#
# Mechanical properties :
#
#
# Convention : Reuss Voigt Hill
#
# Bulk Modulus (GPa) = 26.66601 34.36128 30.51364
# Shear Modulus (GPa) = -26.93051 30.21537 1.64243
#
# Velocity S-wave (km/s) = -3.44528 3.64935 0.85084
# Velocity P-wave (km/s) = 2.01823 5.73604 3.79664
#
# Compressibility (1/GPa) = 0.03750093
#
# Stress axis : x y z
#
# Youngs Moduli (GPa) = 139.33123 62.89038 69.95497
#
# Poissons Ratio (x) = 0.05173 0.07787
# Poissons Ratio (y) = 0.11460 -0.13989
# Poissons Ratio (z) = 0.15509 -0.12576
#
# Static dielectric constant tensor:
#      x y z
#    x 1.854420 0.000000 0.012030 
#    y 0.000000 1.868560 0.000000 
#    z 0.012030 0.000000 1.800210 
# 
# From -- ./inp_files/275141.got.cif
#   From: 2010.05.17/outbox.cif.g08.bks.cpg/sg12_138_cif.got.tgz:275141.got - 2010.06.03 13:09:07.
