data_PCOD9200427
_publ_section_title
;
Structure prediction by ZEFSAII (Michael W. Deem and Ramdas Pophale) SiO2 
 PCOD9200427
Probable space group: C 2/M
;
_chemical_formula_sum "Si O2"
_cell_formula_units_Z 48
_cell_length_a 14.781857
_cell_length_b 29.477599
_cell_length_c 9.775355
_cell_angle_alpha 90.000000
_cell_angle_beta 40.691345
_cell_angle_gamma 90.000000
_cell_volume 2777.093458
_symmetry_space_group_name_H-M "C 2/M"
_symmetry_group_IT_number 12
_symmetry_cell_setting 'monoclinic'
loop_
_space_group_symop_operation_xyz
x,y,z
-x,y,-z
-x,-y,-z
x,-y,z
1/2+x,1/2+y,z
1/2-x,1/2+y,-z
1/2-x,1/2-y,-z
1/2+x,1/2-y,z
loop_
_atom_site_type_symbol
_atom_site_label
_atom_site_fract_x
_atom_site_fract_y
_atom_site_fract_z
Si Si1 0.901708 0.448153 0.481206
Si Si2 0.367249 0.552600 0.055532
Si Si3 0.437876 0.886615 0.920360
Si Si4 0.889294 0.104915 0.746381
Si Si5 0.420501 0.782061 0.947851
Si Si6 0.404063 0.288847 0.734252
O O1 0.877827 0.500000 0.458043
O O2 0.759201 0.428645 0.707472
O O3 0.000000 0.450556 0.500000
O O4 0.978229 0.418203 0.280285
O O5 0.330744 0.500000 0.067111
O O6 0.500000 0.553713 0.000000
O O7 0.396545 0.576929 0.878662
O O8 0.500000 0.892202 0.000000
O O9 0.272908 0.897476 0.112467
O O10 0.455912 0.833453 0.860210
O O11 0.919186 0.157686 0.745478
O O12 0.000000 0.091521 0.500000
O O13 0.252835 0.781529 0.139138
O O14 0.500000 0.775152 0.000000
O O15 0.449613 0.741970 0.808600
O O16 0.500000 0.275911 0.500000
#
# Coordination Sequence:
#
# PCOD9200427 Si02
#       6
#     8   8   8   8   8   8
#     4  10  20  37  58  80 110 144 182 229 272 315
#     4  10  22  39  57  81 112 145 183 226 271 323
#     4  10  21  36  56  83 110 143 183 224 273 324
#     4  10  21  37  56  79 112 146 180 224 272 325
#     4   9  19  36  54  78 109 138 178 223 265 319
#     4   9  19  36  54  77 108 142 176 219 269 317
#
# _framework density 17.284258999999999
#
# number of rings (size 3 to 8) (size 9 to 14) (size 15 to 20)
#    0.000    2.333    1.667    0.000    2.333    2.667 
#    3.000    0.000    0.000    0.000    0.000    0.000 
#    0.000    0.000    0.000    0.000    0.000    0.000 
#
# Total GULP energy -133670.199171 kJ/mol
# GULP energy per Si atom -5569.591632 kJ/mol
# Density = 1.724492 g / cm^3
# Si number density = 17.284259 Si / 1000 Ang^3
#
#
#
# Elastic Constant Matrix: (Units=GPa)
#
#
# Indices 1 2 3 4 5 6 
#
# 1 83.4751 46.8769 40.6247 0.0000 13.4484 0.0000
# 2 46.8769 72.2499 73.5922 0.0000 19.0165 0.0000
# 3 40.6247 73.5922 148.6964 0.0000 9.8691 0.0000
# 4 0.0000 0.0000 0.0000 50.5000 0.0000 70.1502
# 5 13.4484 19.0165 9.8691 0.0000 20.1451 0.0000
# 6 0.0000 0.0000 0.0000 70.1502 0.0000 183.4418
#
#
#
# Elastic Compliance Matrix: (Units=1/GPa)
#
#
# Indices 1 2 3 4 5 6 
#
# 1 0.019095 -0.014164 0.001811 0.000000 -0.000264 0.000000
# 2 -0.014164 0.049598 -0.018809 0.000000 -0.028149 0.000000
# 3 0.001811 -0.018809 0.014926 0.000000 0.009234 0.000000
# 4 0.000000 0.000000 0.000000 0.042241 0.000000 -0.016153
# 5 -0.000264 -0.028149 0.009234 0.000000 0.071864 0.000000
# 6 0.000000 0.000000 0.000000 -0.016153 0.000000 0.011629
#
#
# Mechanical properties :
#
#
# Convention : Reuss Voigt Hill
#
# Bulk Modulus (GPa) = 46.95943 69.62324 58.29134
# Shear Modulus (GPa) = 17.93559 60.37258 39.15408
#
# Velocity S-wave (km/s) = 3.22480 5.91651 4.76468
# Velocity P-wave (km/s) = 6.41044 9.32964 8.00424
#
# Compressibility (1/GPa) = 0.02129498
#
# Stress axis : x y z
#
# Youngs Moduli (GPa) = 52.36981 20.16218 66.99549
#
# Poissons Ratio (x) = 0.28557 -0.12130
# Poissons Ratio (y) = 0.74176 1.26011
# Poissons Ratio (z) = -0.09482 0.37923
#
# Static dielectric constant tensor:
#      x y z
#    x 1.580560 0.000000 -0.049150 
#    y 0.000000 1.606340 0.000000 
#    z -0.049150 0.000000 1.612190 
# 
# From -- ./inp_files/52400.got.cif
#   From: 2010.05.17/outbox.cif.g08.bks.cpg/sg12_27_cif.got.tgz:52400.got - 2010.06.03 13:09:07.
