data_PCOD9200023
_publ_section_title
;
Structure prediction by ZEFSAII (Michael W. Deem and Ramdas Pophale) SiO2 
 PCOD9200023
Probable space group: C 2/M
;
_chemical_formula_sum "Si O2"
_cell_formula_units_Z 56
_cell_length_a 18.795925
_cell_length_b 34.953514
_cell_length_c 7.942663
_cell_angle_alpha 90.000000
_cell_angle_beta 148.075218
_cell_angle_gamma 90.000000
_cell_volume 2759.412565
_symmetry_space_group_name_H-M "C 2/M"
_symmetry_group_IT_number 12
_symmetry_cell_setting 'monoclinic'
loop_
_space_group_symop_operation_xyz
x,y,z
-x,y,-z
-x,-y,-z
x,-y,z
1/2+x,1/2+y,z
1/2-x,1/2+y,-z
1/2-x,1/2-y,-z
1/2+x,1/2-y,z
loop_
_atom_site_type_symbol
_atom_site_label
_atom_site_fract_x
_atom_site_fract_y
_atom_site_fract_z
Si Si1 0.529576 0.292100 0.247366
Si Si2 0.873500 0.658421 0.359523
Si Si3 0.849860 0.917263 0.624341
Si Si4 0.153338 0.000000 0.365909
Si Si5 0.904331 0.500000 0.642002
Si Si6 0.749178 0.736983 0.194081
Si Si7 0.900861 0.585214 0.641423
Si Si8 0.383230 0.364979 0.376835
O O1 0.664940 0.267422 0.529082
O O2 0.547029 0.326961 0.409892
O O3 0.500000 0.306217 0.000000
O O4 0.403552 0.266849 0.053112
O O5 0.820210 0.695508 0.352207
O O6 0.918017 0.621611 0.556877
O O7 0.000000 0.670402 0.500000
O O8 0.746064 0.645465 0.992317
O O9 0.821720 0.959863 0.495273
O O10 0.746778 0.911651 0.570559
O O11 0.836480 0.888335 0.445213
O O12 0.000000 0.915198 0.000000
O O13 0.251813 0.000000 0.403814
O O14 0.000000 0.000000 0.000000
O O15 0.922023 0.542756 0.601381
O O16 0.000000 0.500000 0.000000
O O17 0.750000 0.750000 0.000000
O O18 0.000000 0.587359 0.000000
O O19 0.500000 0.384882 0.500000
#
# Coordination Sequence:
#
# PCOD9200023 Si02
#       8
#     8   8   8   4   4   8   8   8
#     4  12  26  44  68  97 121 157 216 254 298 365
#     4  12  25  40  62  91 128 162 205 251 316 374
#     4  10  20  36  63  87 121 160 207 255 299 360
#     4   8  16  32  54  88 116 156 202 248 304 356
#     4   8  16  34  62  84 120 162 202 252 312 368
#     4  12  24  47  68  90 126 170 200 251 320 371
#     4  10  21  40  62  93 122 162 212 259 307 366
#     4  12  23  41  61  89 124 167 201 246 316 374
#
# _framework density 20.294176
#
# number of rings (size 3 to 8) (size 9 to 14) (size 15 to 20)
#    0.000    1.143    2.857    3.857    2.000    0.571 
#    0.000    1.429    0.000    0.000    0.000    0.000 
#    0.000    0.000    0.000    0.000    0.000    0.000 
#
# Total GULP energy -156362.702558 kJ/mol
# GULP energy per Si atom -5584.382234 kJ/mol
# Density = 2.024799 g / cm^3
# Si number density = 20.294176 Si / 1000 Ang^3
#
#
#
# Elastic Constant Matrix: (Units=GPa)
#
#
# Indices 1 2 3 4 5 6 
#
# 1 25.6901 -11.6551 -0.4481 0.0000 1.9278 0.0000
# 2 -11.6551 80.1373 -8.4142 0.0000 -19.4673 0.0000
# 3 -0.4481 -8.4142 61.9978 0.0000 0.8634 0.0000
# 4 0.0000 0.0000 0.0000 33.6362 0.0000 -3.8032
# 5 1.9278 -19.4673 0.8634 0.0000 36.3016 0.0000
# 6 0.0000 0.0000 0.0000 -3.8032 0.0000 32.0580
#
#
#
# Elastic Compliance Matrix: (Units=1/GPa)
#
#
# Indices 1 2 3 4 5 6 
#
# 1 0.041803 0.006504 0.001168 0.000000 0.001240 0.000000
# 2 0.006504 0.015573 0.002050 0.000000 0.007957 0.000000
# 3 0.001168 0.002050 0.016407 0.000000 0.000647 0.000000
# 4 0.000000 0.000000 0.000000 0.030134 0.000000 0.003575
# 5 0.001240 0.007957 0.000647 0.000000 0.031733 0.000000
# 6 0.000000 0.000000 0.000000 0.003575 0.000000 0.031618
#
#
# Mechanical properties :
#
#
# Convention : Reuss Voigt Hill
#
# Bulk Modulus (GPa) = 10.72675 14.08784 12.40729
# Shear Modulus (GPa) = 27.94841 32.95533 30.45187
#
# Velocity S-wave (km/s) = 3.71504 4.03411 3.87786
# Velocity P-wave (km/s) = 4.86818 5.35310 5.11638
#
# Compressibility (1/GPa) = 0.09322490
#
# Stress axis : x y z
#
# Youngs Moduli (GPa) = 23.92147 64.21530 60.94884
#
# Poissons Ratio (x) = -0.41763 -0.07116
# Poissons Ratio (y) = -0.15558 -0.12493
# Poissons Ratio (z) = -0.02793 -0.13162
#
# Static dielectric constant tensor:
#      x y z
#    x 1.712020 0.000000 0.013930 
#    y 0.000000 1.759520 0.000000 
#    z 0.013930 0.000000 1.711030 
# 
# From -- ./inp_files/91688.got.cif
#   From: 2010.05.17/outbox.cif.g08.bks.cpg/sg12_46_cif.got.tgz:91688.got - 2010.06.03 13:09:07.
