data_PCOD9200131
_publ_section_title
;
Structure prediction by ZEFSAII (Michael W. Deem and Ramdas Pophale) SiO2 
 PCOD9200131
Probable space group: C 2/M
;
_chemical_formula_sum "Si O2"
_cell_formula_units_Z 48
_cell_length_a 30.212769
_cell_length_b 8.951354
_cell_length_c 15.434180
_cell_angle_alpha 90.000000
_cell_angle_beta 140.059713
_cell_angle_gamma 90.000000
_cell_volume 2679.725701
_symmetry_space_group_name_H-M "C 2/M"
_symmetry_group_IT_number 12
_symmetry_cell_setting 'monoclinic'
loop_
_space_group_symop_operation_xyz
x,y,z
-x,y,-z
-x,-y,-z
x,-y,z
1/2+x,1/2+y,z
1/2-x,1/2+y,-z
1/2-x,1/2-y,-z
1/2+x,1/2-y,z
loop_
_atom_site_type_symbol
_atom_site_label
_atom_site_fract_x
_atom_site_fract_y
_atom_site_fract_z
Si Si1 0.825155 0.679834 0.613368
Si Si2 0.926451 0.178750 0.110357
Si Si3 0.079316 0.679054 0.595698
Si Si4 0.928557 0.320108 0.615786
Si Si5 0.674613 0.678849 0.884291
Si Si6 0.923549 0.679789 0.919836
O O1 0.819562 0.500000 0.604192
O O2 0.750000 0.750000 0.500000
O O3 0.870173 0.723624 0.597018
O O4 0.868357 0.722032 0.763790
O O5 0.868682 0.219209 0.094448
O O6 0.999406 0.245098 0.250856
O O7 0.931071 0.000000 0.113231
O O8 0.910520 0.243905 0.992001
O O9 0.087244 0.500000 0.618570
O O10 0.090620 0.716087 0.511827
O O11 0.131143 0.761333 0.737503
O O12 0.000000 0.716312 0.500000
O O13 0.937707 0.500000 0.635129
O O14 0.679866 0.500000 0.888155
O O15 0.750000 0.750000 0.000000
O O16 0.922109 0.500000 0.928419
O O17 0.000000 0.718813 0.000000
#
# Coordination Sequence:
#
# PCOD9200131 Si02
#       6
#     8   8   8   8   8   8
#     4  10  22  39  59  85 119 155 190 237 291 345
#     4  11  23  37  59  91 120 151 196 250 298 343
#     4  10  20  36  64  93 117 153 198 243 297 358
#     4  10  20  38  62  87 117 156 197 238 290 357
#     4  11  25  42  60  86 124 161 198 249 302 354
#     4  10  20  38  63  87 116 156 200 238 286 354
#
# _framework density 17.912279999999999
#
# number of rings (size 3 to 8) (size 9 to 14) (size 15 to 20)
#    0.000    1.667    3.333    1.000    0.000    6.000 
#    0.000    5.000    0.000    0.000    0.000    0.000 
#    0.000    0.000    0.000    0.000    0.000    0.000 
#
# Total GULP energy -134092.633300 kJ/mol
# GULP energy per Si atom -5587.193054 kJ/mol
# Density = 1.787151 g / cm^3
# Si number density = 17.912280 Si / 1000 Ang^3
#
#
#
# Elastic Constant Matrix: (Units=GPa)
#
#
# Indices 1 2 3 4 5 6 
#
# 1 198.3020 66.5394 128.8060 0.0000 -7.7293 0.0000
# 2 66.5394 33.4278 62.2990 0.0000 -1.7828 0.0000
# 3 128.8060 62.2990 186.0662 0.0000 -0.0167 0.0000
# 4 0.0000 0.0000 0.0000 35.2249 0.0000 3.8100
# 5 -7.7293 -1.7828 -0.0167 0.0000 38.6276 0.0000
# 6 0.0000 0.0000 0.0000 3.8100 0.0000 27.9537
#
#
#
# Elastic Compliance Matrix: (Units=1/GPa)
#
#
# Indices 1 2 3 4 5 6 
#
# 1 0.015380 -0.028400 -0.001138 0.000000 0.001766 0.000000
# 2 -0.028400 0.132524 -0.024712 0.000000 0.000423 0.000000
# 3 -0.001138 -0.024712 0.014436 0.000000 -0.001362 0.000000
# 4 0.000000 0.000000 0.000000 0.028814 0.000000 -0.003927
# 5 0.001766 0.000423 -0.001362 0.000000 0.026261 0.000000
# 6 0.000000 0.000000 0.000000 -0.003927 0.000000 0.036309
#
#
# Mechanical properties :
#
#
# Convention : Reuss Voigt Hill
#
# Bulk Modulus (GPa) = 18.57319 103.67609 61.12464
# Shear Modulus (GPa) = 13.15197 31.03800 22.09498
#
# Velocity S-wave (km/s) = 2.71263 4.16718 3.51595
# Velocity P-wave (km/s) = 4.49473 9.00885 7.11906
#
# Compressibility (1/GPa) = 0.05384105
#
# Stress axis : x y z
#
# Youngs Moduli (GPa) = 65.01750 7.54578 69.27020
#
# Poissons Ratio (x) = 0.21430 0.07884
# Poissons Ratio (y) = 1.84650 1.71179
# Poissons Ratio (z) = 0.07400 0.18647
#
# Static dielectric constant tensor:
#      x y z
#    x 1.601560 0.000000 -0.011230 
#    y 0.000000 1.600580 0.000000 
#    z -0.011230 0.000000 1.573880 
# 
# From -- ./inp_files/229824.got.cif
#   From: 2010.05.17/outbox.cif.g08.bks.cpg/sg12_115_cif.got.tgz:229824.got - 2010.06.03 13:09:07.
