data_PCOD9200995
_publ_section_title
;
Structure prediction by ZEFSAII (Michael W. Deem and Ramdas Pophale) SiO2 
 PCOD9200995
Probable space group: C 2/M
;
_chemical_formula_sum "Si O2"
_cell_formula_units_Z 52
_cell_length_a 25.827092
_cell_length_b 20.679017
_cell_length_c 19.154641
_cell_angle_alpha 90.000000
_cell_angle_beta 166.851740
_cell_angle_gamma 90.000000
_cell_volume 2327.054767
_symmetry_space_group_name_H-M "C 2/M"
_symmetry_group_IT_number 12
_symmetry_cell_setting 'monoclinic'
loop_
_space_group_symop_operation_xyz
x,y,z
-x,y,-z
-x,-y,-z
x,-y,z
1/2+x,1/2+y,z
1/2-x,1/2+y,-z
1/2-x,1/2-y,-z
1/2+x,1/2-y,z
loop_
_atom_site_type_symbol
_atom_site_label
_atom_site_fract_x
_atom_site_fract_y
_atom_site_fract_z
Si Si1 0.854971 0.500000 0.587792
Si Si2 0.397649 0.249613 0.763815
Si Si3 0.263361 0.347872 0.847576
Si Si4 0.614619 0.589304 0.508655
Si Si5 0.033429 0.787033 0.741014
Si Si6 0.714597 0.000000 0.949475
Si Si7 0.327348 0.500000 0.933424
Si Si8 0.978486 0.597446 0.865350
O O1 0.587260 0.500000 0.248870
O O2 0.965949 0.500000 0.656810
O O3 0.938068 0.564306 0.738336
O O4 0.250000 0.250000 0.500000
O O5 0.188461 0.258002 0.541791
O O6 0.586031 0.304581 0.007407
O O7 0.484093 0.175316 0.879765
O O8 0.000000 0.326880 0.500000
O O9 0.384844 0.328868 0.082340
O O10 0.261733 0.424934 0.828158
O O11 0.555529 0.663764 0.433094
O O12 0.784138 0.571964 0.792782
O O13 0.370344 0.557624 0.182709
O O14 0.768902 0.577321 0.641502
O O15 0.250000 0.750000 0.000000
O O16 0.743628 0.000000 0.904506
#
# Coordination Sequence:
#
# PCOD9200995 Si02
#       8
#     4   8   8   8   8   4   4   8
#     4  12  23  38  68  96 127 185 210 269 327 387
#     4   9  20  40  61  91 127 164 218 263 316 397
#     4  11  24  43  70  94 121 176 224 274 330 387
#     4  10  20  37  60  88 131 176 203 267 325 397
#     4  10  21  38  64  93 133 168 205 268 341 383
#     4  12  23  38  64  93 129 168 224 256 327 396
#     4  12  23  50  67  87 136 173 223 278 335 389
#     4  10  20  37  61  91 132 173 217 256 332 390
#
# _framework density 22.345842000000001
#
# number of rings (size 3 to 8) (size 9 to 14) (size 15 to 20)
#    0.000    1.538    3.077    2.538    2.154    6.154 
#    0.000    0.000    0.000    0.923    0.000    0.000 
#    0.000    0.000    0.000    0.000    0.000    0.000 
#
# Total GULP energy -144818.784863 kJ/mol
# GULP energy per Si atom -5569.953264 kJ/mol
# Density = 2.229498 g / cm^3
# Si number density = 22.345842 Si / 1000 Ang^3
#
#
#
# Elastic Constant Matrix: (Units=GPa)
#
#
# Indices 1 2 3 4 5 6 
#
# 1 21.9650 21.9576 25.8547 0.0002 13.0970 0.0000
# 2 21.9576 110.3861 76.6875 -0.0025 22.2091 -0.0008
# 3 25.8547 76.6875 145.9877 0.0184 27.5100 0.0051
# 4 0.0002 -0.0025 0.0184 -38.9471 0.0074 -19.5693
# 5 13.0970 22.2091 27.5100 0.0074 33.2284 0.0022
# 6 0.0000 -0.0008 0.0051 -19.5693 0.0022 23.0298
#
#
#
# Elastic Compliance Matrix: (Units=1/GPa)
#
#
# Indices 1 2 3 4 5 6 
#
# 1 0.069319 -0.006223 -0.005501 -0.000005 -0.018608 -0.000001
# 2 -0.006223 0.015274 -0.006469 -0.000004 -0.002400 -0.000001
# 3 -0.005501 -0.006469 0.011847 0.000005 -0.003316 0.000001
# 4 -0.000005 -0.000004 0.000005 -0.017993 0.000006 -0.015290
# 5 -0.018608 -0.002400 -0.003316 0.000006 0.041779 0.000002
# 6 -0.000001 -0.000001 0.000001 -0.015290 0.000002 0.030430
#
#
# Mechanical properties :
#
#
# Convention : Reuss Voigt Hill
#
# Bulk Modulus (GPa) = 16.65170 58.59316 37.62243
# Shear Modulus (GPa) = 24.14759 13.71814 18.93286
#
# Velocity S-wave (km/s) = 3.29086 2.48039 2.91394
# Velocity P-wave (km/s) = 4.68056 5.87206 5.30984
#
# Compressibility (1/GPa) = 0.06005394
#
# Stress axis : x y z
#
# Youngs Moduli (GPa) = 14.42610 65.47022 84.40753
#
# Poissons Ratio (x) = 0.40743 0.46431
# Poissons Ratio (y) = 0.08978 0.54604
# Poissons Ratio (z) = 0.07936 0.42353
#
# Static dielectric constant tensor:
#      x y z
#    x 1.838220 0.000000 -0.022460 
#    y 0.000000 1.931690 0.000000 
#    z -0.022460 0.000000 1.811200 
# 
# From -- ./inp_files/354495.got.cif
#   From: 2010.05.17/outbox.cif.g08.bks.cpg/sg12_178_cif.got.tgz:354495.got - 2010.06.03 13:09:07.
