data_PCOD9200073
_publ_section_title
;
Structure prediction by ZEFSAII (Michael W. Deem and Ramdas Pophale) SiO2 
 PCOD9200073
Probable space group: C 2/M
;
_chemical_formula_sum "Si O2"
_cell_formula_units_Z 42
_cell_length_a 8.035076
_cell_length_b 26.968011
_cell_length_c 11.466122
_cell_angle_alpha 90.000000
_cell_angle_beta 140.176928
_cell_angle_gamma 90.000000
_cell_volume 1591.181376
_symmetry_space_group_name_H-M "C 2/M"
_symmetry_group_IT_number 12
_symmetry_cell_setting 'monoclinic'
loop_
_space_group_symop_operation_xyz
x,y,z
-x,y,-z
-x,-y,-z
x,-y,z
1/2+x,1/2+y,z
1/2-x,1/2+y,-z
1/2-x,1/2-y,-z
1/2+x,1/2-y,z
loop_
_atom_site_type_symbol
_atom_site_label
_atom_site_fract_x
_atom_site_fract_y
_atom_site_fract_z
Si Si1 0.027138 0.579333 0.270602
Si Si2 0.000000 0.000000 0.500000
Si Si3 0.355894 0.633510 0.794546
Si Si4 0.215923 0.052903 0.905597
Si Si5 0.046837 0.768759 0.794225
Si Si6 0.228422 0.322576 0.303663
O O1 0.275002 0.543996 0.403372
O O2 0.063214 0.628137 0.208047
O O3 0.913814 0.605253 0.324968
O O4 0.790362 0.550729 0.081740
O O5 0.360621 0.688516 0.745168
O O6 0.500000 0.637945 0.000000
O O7 0.522051 0.598627 0.795843
O O8 0.104681 0.000000 0.799991
O O9 0.500000 0.056148 0.000000
O O10 0.212448 0.794005 0.782483
O O11 0.894482 0.718986 0.678597
O O12 0.250000 0.750000 0.000000
O O13 0.500000 0.339821 0.500000
#
# Coordination Sequence:
#
# PCOD9200073 Si02
#       6
#     8   2   8   8   8   8
#     4  11  23  42  67  95 134 185 240 294 350 427
#     4  12  24  44  68  90 138 196 256 274 362 412
#     4  10  22  38  65 102 134 170 230 293 362 412
#     4  10  20  36  63  93 127 167 222 291 358 416
#     4  12  24  43  71 104 142 183 236 296 359 441
#     4  12  25  43  68  99 141 187 233 287 367 426
#
# _framework density 26.395482999999999
#
# number of rings (size 3 to 8) (size 9 to 14) (size 15 to 20)
#    0.000    0.952    1.905    6.857    1.333    1.143 
#    0.000    0.000    0.000    4.571    0.000    0.000 
#    0.000    0.000    0.000    0.000    0.000    0.000 
#
# Total GULP energy -117295.741990 kJ/mol
# GULP energy per Si atom -5585.511523 kJ/mol
# Density = 2.633541 g / cm^3
# Si number density = 26.395483 Si / 1000 Ang^3
#
#
#
# Elastic Constant Matrix: (Units=GPa)
#
#
# Indices 1 2 3 4 5 6 
#
# 1 121.5412 66.1503 8.5274 0.0000 17.1939 0.0000
# 2 66.1503 248.7847 9.9784 0.0000 23.2196 0.0000
# 3 8.5274 9.9784 40.1159 0.0000 12.9894 0.0000
# 4 0.0000 0.0000 0.0000 38.4833 0.0000 15.4088
# 5 17.1939 23.2196 12.9894 0.0000 41.7033 0.0000
# 6 0.0000 0.0000 0.0000 15.4088 0.0000 34.1466
#
#
#
# Elastic Compliance Matrix: (Units=1/GPa)
#
#
# Indices 1 2 3 4 5 6 
#
# 1 0.009930 -0.002374 -0.000692 0.000000 -0.002557 0.000000
# 2 -0.002374 0.004811 -0.000158 0.000000 -0.001651 0.000000
# 3 -0.000692 -0.000158 0.027797 0.000000 -0.008285 0.000000
# 4 0.000000 0.000000 0.000000 0.031716 0.000000 -0.014312
# 5 -0.002557 -0.001651 -0.008285 0.000000 0.028533 0.000000
# 6 0.000000 0.000000 0.000000 -0.014312 0.000000 0.035744
#
#
# Mechanical properties :
#
#
# Convention : Reuss Voigt Hill
#
# Bulk Modulus (GPa) = 27.70859 64.41713 46.06286
# Shear Modulus (GPa) = 31.84553 44.58568 38.21561
#
# Velocity S-wave (km/s) = 3.47721 4.11437 3.80914
# Velocity P-wave (km/s) = 5.16154 6.85772 6.06918
#
# Compressibility (1/GPa) = 0.03608990
#
# Stress axis : x y z
#
# Youngs Moduli (GPa) = 100.70541 207.85021 35.97549
#
# Poissons Ratio (x) = 0.49342 0.02491
# Poissons Ratio (y) = 0.23907 0.00567
# Poissons Ratio (z) = 0.06974 0.03274
#
# Static dielectric constant tensor:
#      x y z
#    x 2.359930 0.000000 -0.116820 
#    y 0.000000 1.994540 0.000000 
#    z -0.116820 0.000000 2.250240 
# 
# From -- ./inp_files/200015.got.cif
#   From: 2010.05.17/outbox.cif.g08.bks.cpg/sg12_101_cif.got.tgz:200015.got - 2010.06.03 13:09:07.
