data_PCOD9200297
_publ_section_title
;
Structure prediction by ZEFSAII (Michael W. Deem and Ramdas Pophale) SiO2 
 PCOD9200297
Probable space group: C 2/M
;
_chemical_formula_sum "Si O2"
_cell_formula_units_Z 50
_cell_length_a 13.684592
_cell_length_b 12.510282
_cell_length_c 20.857535
_cell_angle_alpha 90.000000
_cell_angle_beta 138.033597
_cell_angle_gamma 90.000000
_cell_volume 2387.755384
_symmetry_space_group_name_H-M "C 2/M"
_symmetry_group_IT_number 12
_symmetry_cell_setting 'monoclinic'
loop_
_space_group_symop_operation_xyz
x,y,z
-x,y,-z
-x,-y,-z
x,-y,z
1/2+x,1/2+y,z
1/2-x,1/2+y,-z
1/2-x,1/2-y,-z
1/2+x,1/2-y,z
loop_
_atom_site_type_symbol
_atom_site_label
_atom_site_fract_x
_atom_site_fract_y
_atom_site_fract_z
Si Si1 0.690584 0.373878 0.729364
Si Si2 0.842858 0.785189 0.424808
Si Si3 0.000000 0.000000 0.500000
Si Si4 0.605714 0.380053 0.342640
Si Si5 0.146080 0.208152 0.109555
Si Si6 0.031000 0.836675 0.862210
Si Si7 0.324423 0.882466 0.079233
O O1 0.721929 0.500000 0.735664
O O2 0.711577 0.309085 0.674080
O O3 0.521009 0.366985 0.666833
O O4 0.778004 0.314514 0.827532
O O5 0.723976 0.713979 0.402168
O O6 0.000000 0.726427 0.500000
O O7 0.887532 0.904208 0.469256
O O8 0.667769 0.500000 0.378153
O O9 0.522888 0.372397 0.233181
O O10 0.250723 0.146254 0.111588
O O11 0.088675 0.139199 0.141742
O O12 0.000000 0.236485 0.000000
O O13 0.058499 0.708889 0.877002
O O14 0.190339 0.877974 0.962762
O O15 0.388703 0.000000 0.110745
#
# Coordination Sequence:
#
# PCOD9200297 Si02
#       7
#     8   8   2   8   8   8   8
#     4  11  21  39  61  87 122 158 196 247 299 352
#     4  10  21  43  67  88 117 151 201 239 303 365
#     4   8  20  44  70  92 110 158 194 242 302 364
#     4  11  23  37  62  91 122 157 192 244 306 359
#     4  10  21  36  56  84 119 159 206 243 287 350
#     4  10  20  37  56  84 119 156 203 249 293 349
#     4  10  21  37  56  81 117 162 208 252 292 346
#
# _framework density 20.940166999999999
#
# number of rings (size 3 to 8) (size 9 to 14) (size 15 to 20)
#    0.480    1.280    4.000    0.480    0.000    5.440 
#    1.440    0.000    1.760    0.000    0.000    0.000 
#    0.000    0.000    0.000    0.000    0.000    0.000 
#
# Total GULP energy -139282.226112 kJ/mol
# GULP energy per Si atom -5571.289044 kJ/mol
# Density = 2.089251 g / cm^3
# Si number density = 20.940167 Si / 1000 Ang^3
#
#
#
# Elastic Constant Matrix: (Units=GPa)
#
#
# Indices 1 2 3 4 5 6 
#
# 1 41.4304 18.8256 2.5409 0.0000 1.5577 0.0000
# 2 18.8256 132.9715 10.1967 0.0000 14.4273 0.0000
# 3 2.5409 10.1967 44.8575 0.0000 -4.5669 0.0000
# 4 0.0000 0.0000 0.0000 9.4605 0.0000 -8.1392
# 5 1.5577 14.4273 -4.5669 0.0000 25.8317 0.0000
# 6 0.0000 0.0000 0.0000 -8.1392 0.0000 -25.5162
#
#
#
# Elastic Compliance Matrix: (Units=1/GPa)
#
#
# Indices 1 2 3 4 5 6 
#
# 1 0.025818 -0.003651 -0.000594 0.000000 0.000377 0.000000
# 2 -0.003651 0.008765 -0.002303 0.000000 -0.005083 0.000000
# 3 -0.000594 -0.002303 0.023406 0.000000 0.005460 0.000000
# 4 0.000000 0.000000 0.000000 0.082941 0.000000 -0.026457
# 5 0.000377 -0.005083 0.005460 0.000000 0.042493 0.000000
# 6 0.000000 0.000000 0.000000 -0.026457 0.000000 -0.030752
#
#
# Mechanical properties :
#
#
# Convention : Reuss Voigt Hill
#
# Bulk Modulus (GPa) = 22.27505 31.37621 26.82563
# Shear Modulus (GPa) = 27.66518 14.46827 21.06673
#
# Velocity S-wave (km/s) = 3.63871 2.63141 3.17526
# Velocity P-wave (km/s) = 5.32111 4.92430 5.12654
#
# Compressibility (1/GPa) = 0.04489327
#
# Stress axis : x y z
#
# Youngs Moduli (GPa) = 38.73285 114.08614 42.72422
#
# Poissons Ratio (x) = 0.41647 0.02539
# Poissons Ratio (y) = 0.14140 0.09840
# Poissons Ratio (z) = 0.02302 0.26276
#
# Static dielectric constant tensor:
#      x y z
#    x 1.796140 0.000000 -0.037970 
#    y 0.000000 1.733500 0.000000 
#    z -0.037970 0.000000 1.795810 
# 
# From -- ./inp_files/339656.got.cif
#   From: 2010.05.17/outbox.cif.g08.bks.cpg/sg12_170_cif.got.tgz:339656.got - 2010.06.03 13:09:07.
