data_PCOD9200887
_publ_section_title
;
Structure prediction by ZEFSAII (Michael W. Deem and Ramdas Pophale) SiO2 
 PCOD9200887
Probable space group: C 2/M
;
_chemical_formula_sum "Si O2"
_cell_formula_units_Z 48
_cell_length_a 9.037948
_cell_length_b 16.696648
_cell_length_c 19.321984
_cell_angle_alpha 90.000000
_cell_angle_beta 57.059173
_cell_angle_gamma 90.000000
_cell_volume 2446.995640
_symmetry_space_group_name_H-M "C 2/M"
_symmetry_group_IT_number 12
_symmetry_cell_setting 'monoclinic'
loop_
_space_group_symop_operation_xyz
x,y,z
-x,y,-z
-x,-y,-z
x,-y,z
1/2+x,1/2+y,z
1/2-x,1/2+y,-z
1/2-x,1/2-y,-z
1/2+x,1/2-y,z
loop_
_atom_site_type_symbol
_atom_site_label
_atom_site_fract_x
_atom_site_fract_y
_atom_site_fract_z
Si Si1 0.812388 0.793221 0.588835
Si Si2 0.650048 0.088303 0.519413
Si Si3 0.148541 0.912048 0.901439
Si Si4 0.701696 0.240923 0.933366
Si Si5 0.450910 0.644037 0.352701
Si Si6 0.593673 0.411241 0.171705
O O1 0.691950 0.851691 0.571708
O O2 0.687585 0.716066 0.627800
O O3 0.000000 0.780655 0.500000
O O4 0.881623 0.825928 0.644801
O O5 0.500000 0.107906 0.500000
O O6 0.834287 0.087954 0.431456
O O7 0.605844 0.000000 0.557583
O O8 0.242889 0.826318 0.886295
O O9 0.051128 0.910069 0.852582
O O10 0.239184 0.000000 0.884689
O O11 0.000000 0.910836 0.000000
O O12 0.785174 0.165270 0.874301
O O13 0.500000 0.225038 0.000000
O O14 0.750000 0.250000 0.000000
O O15 0.508255 0.602179 0.268021
O O16 0.678467 0.500000 0.146983
#
# Coordination Sequence:
#
# PCOD9200887 Si02
#       6
#     8   8   8   8   8   8
#     4  10  21  37  59  86 115 155 201 246 286 361
#     4  10  20  37  60  85 115 153 199 244 292 356
#     4   9  18  37  62  85 114 154 197 236 290 363
#     4  11  21  38  64  90 116 154 202 246 298 355
#     4  11  22  36  59  85 120 154 195 243 308 351
#     4  11  24  39  60  90 124 157 199 249 304 359
#
# _framework density 19.615891999999999
#
# number of rings (size 3 to 8) (size 9 to 14) (size 15 to 20)
#    0.000    1.667    3.333    4.000    2.333    4.000 
#    0.000    0.000    0.000    0.000    0.000    0.000 
#    0.000    0.000    0.000    0.000    0.000    0.000 
#
# Total GULP energy -133619.750452 kJ/mol
# GULP energy per Si atom -5567.489602 kJ/mol
# Density = 1.957124 g / cm^3
# Si number density = 19.615892 Si / 1000 Ang^3
#
#
#
# Elastic Constant Matrix: (Units=GPa)
#
#
# Indices 1 2 3 4 5 6 
#
# 1 92.0170 34.1246 7.6794 0.0000 14.7824 0.0000
# 2 34.1246 188.7368 22.5410 0.0000 0.2775 0.0000
# 3 7.6794 22.5410 56.3210 0.0000 22.7516 0.0000
# 4 0.0000 0.0000 0.0000 42.5437 0.0000 4.7809
# 5 14.7824 0.2775 22.7516 0.0000 25.8541 0.0000
# 6 0.0000 0.0000 0.0000 4.7809 0.0000 18.6600
#
#
#
# Elastic Compliance Matrix: (Units=1/GPa)
#
#
# Indices 1 2 3 4 5 6 
#
# 1 0.013358 -0.002842 0.003707 0.000000 -0.010869 0.000000
# 2 -0.002842 0.006318 -0.004298 0.000000 0.005339 0.000000
# 3 0.003707 -0.004298 0.030733 0.000000 -0.029118 0.000000
# 4 0.000000 0.000000 0.000000 0.024202 0.000000 -0.006201
# 5 -0.010869 0.005339 -0.029118 0.000000 0.070460 0.000000
# 6 0.000000 0.000000 0.000000 -0.006201 0.000000 0.055179
#
#
# Mechanical properties :
#
#
# Convention : Reuss Voigt Hill
#
# Bulk Modulus (GPa) = 22.96609 51.75165 37.35887
# Shear Modulus (GPa) = 22.56015 35.59355 29.07685
#
# Velocity S-wave (km/s) = 3.39498 4.26435 3.85426
# Velocity P-wave (km/s) = 5.20588 7.11941 6.23647
#
# Compressibility (1/GPa) = 0.04354246
#
# Stress axis : x y z
#
# Youngs Moduli (GPa) = 74.86000 158.28630 32.53877
#
# Poissons Ratio (x) = 0.44984 -0.12061
# Poissons Ratio (y) = 0.21275 0.13985
# Poissons Ratio (z) = -0.27749 0.68028
#
# Static dielectric constant tensor:
#      x y z
#    x 1.672750 0.000000 -0.000590 
#    y 0.000000 1.778730 0.000000 
#    z -0.000590 0.000000 1.652870 
# 
# From -- ./inp_files/256440.got.cif
#   From: 2010.05.17/outbox.cif.g08.bks.cpg/sg12_129_cif.got.tgz:256440.got - 2010.06.03 13:09:07.
