data_PCOD9200086
_publ_section_title
;
Structure prediction by ZEFSAII (Michael W. Deem and Ramdas Pophale) SiO2 
 PCOD9200086
Probable space group: C 2/M
;
_chemical_formula_sum "Si O2"
_cell_formula_units_Z 64
_cell_length_a 21.312631
_cell_length_b 28.918260
_cell_length_c 14.995102
_cell_angle_alpha 90.000000
_cell_angle_beta 20.296703
_cell_angle_gamma 90.000000
_cell_volume 3205.826496
_symmetry_space_group_name_H-M "C 2/M"
_symmetry_group_IT_number 12
_symmetry_cell_setting 'monoclinic'
loop_
_space_group_symop_operation_xyz
x,y,z
-x,y,-z
-x,-y,-z
x,-y,z
1/2+x,1/2+y,z
1/2-x,1/2+y,-z
1/2-x,1/2-y,-z
1/2+x,1/2-y,z
loop_
_atom_site_type_symbol
_atom_site_label
_atom_site_fract_x
_atom_site_fract_y
_atom_site_fract_z
Si Si1 0.605256 0.949554 0.953611
Si Si2 0.313462 0.365168 0.611839
Si Si3 0.749578 0.668093 0.488547
Si Si4 0.325123 0.312303 0.063038
Si Si5 0.211014 0.117931 0.725965
Si Si6 0.867412 0.706989 0.025657
Si Si7 0.757899 0.857763 0.969301
Si Si8 0.012706 0.446608 0.275974
O O1 0.742100 0.907356 0.765378
O O2 0.696403 0.000000 0.837761
O O3 0.500000 0.948750 0.000000
O O4 0.490007 0.945499 0.198078
O O5 0.245021 0.367789 0.601106
O O6 0.224456 0.318977 0.769326
O O7 0.527951 0.362981 0.329924
O O8 0.768579 0.643958 0.558625
O O9 0.544221 0.686380 0.759298
O O10 0.914684 0.703622 0.255988
O O11 0.274130 0.345560 0.213167
O O12 0.288870 0.258317 0.124608
O O13 0.234358 0.332967 0.095918
O O14 0.337639 0.073140 0.560343
O O15 0.000000 0.105372 0.000000
O O16 0.817988 0.676059 0.005543
O O17 0.665590 0.908087 0.091317
O O18 0.053589 0.500000 0.244917
#
# Coordination Sequence:
#
# PCOD9200086 Si02
#       8
#     8   8   8   8   8   8   8   8
#     4  10  20  36  63  95 123 158 204 255 321 382
#     4  11  22  37  60  92 130 161 199 254 317 374
#     4  10  21  39  64  90 129 161 205 264 315 361
#     4  10  25  40  61  89 122 170 214 256 310 359
#     4  10  21  42  64  91 123 157 210 266 307 367
#     4  12  21  39  63  90 124 167 208 255 310 377
#     4  11  24  43  57  89 130 163 205 259 303 374
#     4  11  23  42  67  91 123 168 207 260 322 372
#
# _framework density 19.963650000000001
#
# number of rings (size 3 to 8) (size 9 to 14) (size 15 to 20)
#    0.000    1.375    2.500    3.000    0.000    6.250 
#    4.500    2.500    0.000    4.500    0.000    0.000 
#    0.000    0.000    0.000    0.000    0.000    0.000 
#
# Total GULP energy -178671.324189 kJ/mol
# GULP energy per Si atom -5583.478881 kJ/mol
# Density = 1.991821 g / cm^3
# Si number density = 19.963650 Si / 1000 Ang^3
#
#
#
# Elastic Constant Matrix: (Units=GPa)
#
#
# Indices 1 2 3 4 5 6 
#
# 1 93.2681 41.2789 34.5031 -0.0082 4.7859 -0.0011
# 2 41.2789 147.0025 45.4346 0.1844 13.6765 0.0320
# 3 34.5031 45.4346 75.4047 -0.0691 17.6007 0.1061
# 4 -0.0082 0.1844 -0.0691 3.2719 0.0656 -2.5802
# 5 4.7859 13.6765 17.6007 0.0656 20.3722 -0.0273
# 6 -0.0011 0.0320 0.1061 -2.5802 -0.0273 21.7926
#
#
#
# Elastic Compliance Matrix: (Units=1/GPa)
#
#
# Indices 1 2 3 4 5 6 
#
# 1 0.013683 -0.002426 -0.005548 0.000019 0.003207 0.000038
# 2 -0.002426 0.008831 -0.003709 -0.000593 -0.002152 -0.000068
# 3 -0.005548 -0.003709 0.021484 0.000940 -0.014771 -0.000007
# 4 0.000019 -0.000593 0.000940 0.337196 -0.001452 0.039918
# 5 0.003207 -0.002152 -0.014771 -0.001452 0.062544 -0.000018
# 6 0.000038 -0.000068 -0.000007 0.039918 -0.000018 0.050613
#
#
# Mechanical properties :
#
#
# Convention : Reuss Voigt Hill
#
# Bulk Modulus (GPa) = 48.46812 62.01206 55.24009
# Shear Modulus (GPa) = 9.53113 22.05125 15.79119
#
# Velocity S-wave (km/s) = 2.18737 3.32711 2.81552
# Velocity P-wave (km/s) = 5.54169 6.77418 6.18869
#
# Compressibility (1/GPa) = 0.02063212
#
# Stress axis : x y z
#
# Youngs Moduli (GPa) = 73.08168 113.23410 46.54627
#
# Poissons Ratio (x) = 0.27471 0.25824
# Poissons Ratio (y) = 0.17730 0.17265
# Poissons Ratio (z) = 0.40546 0.42001
#
# Static dielectric constant tensor:
#      x y z
#    x 1.712820 -0.000020 0.000850 
#    y -0.000020 1.700610 0.000100 
#    z 0.000850 0.000100 1.714180 
# 
# From -- ./inp_files/235971.got.cif
#   From: 2010.05.17/outbox.cif.g08.bks.cpg/sg12_118_cif.got.tgz:235971.got - 2010.06.03 13:09:07.
