data_PCOD9200798
_publ_section_title
;
Structure prediction by ZEFSAII (Michael W. Deem and Ramdas Pophale) SiO2 
 PCOD9200798
Probable space group: C 2/M
;
_chemical_formula_sum "Si O2"
_cell_formula_units_Z 48
_cell_length_a 24.934858
_cell_length_b 11.092672
_cell_length_c 9.702245
_cell_angle_alpha 90.000000
_cell_angle_beta 113.105454
_cell_angle_gamma 90.000000
_cell_volume 2468.318668
_symmetry_space_group_name_H-M "C 2/M"
_symmetry_group_IT_number 12
_symmetry_cell_setting 'monoclinic'
loop_
_space_group_symop_operation_xyz
x,y,z
-x,y,-z
-x,-y,-z
x,-y,z
1/2+x,1/2+y,z
1/2-x,1/2+y,-z
1/2-x,1/2-y,-z
1/2+x,1/2-y,z
loop_
_atom_site_type_symbol
_atom_site_label
_atom_site_fract_x
_atom_site_fract_y
_atom_site_fract_z
Si Si1 0.004716 0.750602 0.165220
Si Si2 0.273429 0.362495 0.112199
Si Si3 0.413714 0.364816 0.540301
Si Si4 0.031604 0.500000 0.318353
Si Si5 0.396083 0.746328 0.249458
Si Si6 0.404126 0.000000 0.337433
Si Si7 0.275287 0.639624 0.436464
O O1 0.046372 0.840675 0.289085
O O2 0.031647 0.619120 0.226021
O O3 0.941333 0.756264 0.171616
O O4 0.000000 0.772846 0.000000
O O5 0.258452 0.500000 0.054019
O O6 0.343587 0.346085 0.179886
O O7 0.256529 0.349334 0.256849
O O8 0.250000 0.250000 0.000000
O O9 0.421874 0.500000 0.498501
O O10 0.428768 0.280339 0.426619
O O11 0.345695 0.348378 0.507846
O O12 0.082027 0.500000 0.485375
O O13 0.968752 0.500000 0.332787
O O14 0.372581 0.880961 0.251348
O O15 0.261494 0.500000 0.466417
O O16 0.250000 0.750000 0.500000
#
# Coordination Sequence:
#
# PCOD9200798 Si02
#       7
#     8   8   8   4   8   4   8
#     4  11  22  35  54  85 120 153 185 235 295 346
#     4  10  23  41  63  89 119 154 199 246 294 353
#     4  10  21  38  59  81 112 152 194 238 284 344
#     4   9  17  34  52  80 116 148 190 234 277 336
#     4  10  20  37  60  82 115 151 197 240 285 343
#     4   9  16  30  60  84 104 150 198 240 271 337
#     4   9  20  41  62  87 118 151 195 246 294 348
#
# _framework density 19.446435999999999
#
# number of rings (size 3 to 8) (size 9 to 14) (size 15 to 20)
#    0.000    2.167    1.667    2.250    1.167    4.333 
#    6.000    1.667    0.000    0.000    0.000    0.000 
#    0.000    0.000    0.000    0.000    0.000    0.000 
#
# Total GULP energy -133872.160161 kJ/mol
# GULP energy per Si atom -5578.006673 kJ/mol
# Density = 1.940218 g / cm^3
# Si number density = 19.446436 Si / 1000 Ang^3
#
#
#
# Elastic Constant Matrix: (Units=GPa)
#
#
# Indices 1 2 3 4 5 6 
#
# 1 36.7453 35.1940 33.5977 0.0000 -12.6335 0.0000
# 2 35.1940 134.4070 43.8371 0.0000 -15.7468 0.0000
# 3 33.5977 43.8371 113.2017 0.0000 -16.5527 0.0000
# 4 0.0000 0.0000 0.0000 30.6254 0.0000 4.3038
# 5 -12.6335 -15.7468 -16.5527 0.0000 25.5441 0.0000
# 6 0.0000 0.0000 0.0000 4.3038 0.0000 22.0738
#
#
#
# Elastic Compliance Matrix: (Units=1/GPa)
#
#
# Indices 1 2 3 4 5 6 
#
# 1 0.047625 -0.007989 -0.009188 0.000000 0.012676 0.000000
# 2 -0.007989 0.010138 -0.001346 0.000000 0.001426 0.000000
# 3 -0.009188 -0.001346 0.012479 0.000000 0.002712 0.000000
# 4 0.000000 0.000000 0.000000 0.033573 0.000000 -0.006546
# 5 0.012676 0.001426 0.002712 0.000000 0.048054 0.000000
# 6 0.000000 0.000000 0.000000 -0.006546 0.000000 0.046579
#
#
# Mechanical properties :
#
#
# Convention : Reuss Voigt Hill
#
# Bulk Modulus (GPa) = 30.12433 56.62351 43.37392
# Shear Modulus (GPa) = 20.27927 27.09700 23.68813
#
# Velocity S-wave (km/s) = 3.23279 3.73690 3.49395
# Velocity P-wave (km/s) = 5.42762 6.91376 6.21527
#
# Compressibility (1/GPa) = 0.03319576
#
# Stress axis : x y z
#
# Youngs Moduli (GPa) = 20.99758 98.63756 80.13713
#
# Poissons Ratio (x) = 0.78799 0.73627
# Poissons Ratio (y) = 0.16774 0.10790
# Poissons Ratio (z) = 0.19292 0.13281
#
# Static dielectric constant tensor:
#      x y z
#    x 1.662180 0.000000 0.010870 
#    y 0.000000 1.741290 0.000000 
#    z 0.010870 0.000000 1.672450 
# 
# From -- ./inp_files/95017.got.cif
#   From: 2010.05.17/outbox.cif.g08.bks.cpg/sg12_48_cif.got.tgz:95017.got - 2010.06.03 13:09:07.
