data_PCOD9200385
_publ_section_title
;
Structure prediction by ZEFSAII (Michael W. Deem and Ramdas Pophale) SiO2 
 PCOD9200385
Probable space group: C 2/M
;
_chemical_formula_sum "Si O2"
_cell_formula_units_Z 48
_cell_length_a 9.141234
_cell_length_b 13.400006
_cell_length_c 20.747117
_cell_angle_alpha 90.000000
_cell_angle_beta 74.655987
_cell_angle_gamma 90.000000
_cell_volume 2450.779601
_symmetry_space_group_name_H-M "C 2/M"
_symmetry_group_IT_number 12
_symmetry_cell_setting 'monoclinic'
loop_
_space_group_symop_operation_xyz
x,y,z
-x,y,-z
-x,-y,-z
x,-y,z
1/2+x,1/2+y,z
1/2-x,1/2+y,-z
1/2-x,1/2-y,-z
1/2+x,1/2-y,z
loop_
_atom_site_type_symbol
_atom_site_label
_atom_site_fract_x
_atom_site_fract_y
_atom_site_fract_z
Si Si1 0.855783 0.192457 0.239358
Si Si2 0.337443 0.110045 0.318679
Si Si3 0.052751 0.382768 0.919758
Si Si4 0.662695 0.753048 0.148178
Si Si5 0.641916 0.108758 0.361392
Si Si6 0.151655 0.206896 0.452994
O O1 0.818359 0.304819 0.268195
O O2 0.754342 0.177711 0.187901
O O3 0.799467 0.126094 0.305361
O O4 0.031270 0.191702 0.200757
O O5 0.510569 0.113523 0.323144
O O6 0.240267 0.135621 0.393721
O O7 0.301744 0.000000 0.298708
O O8 0.064930 0.500000 0.899041
O O9 0.211725 0.322899 0.894389
O O10 0.929182 0.322185 0.891420
O O11 0.000000 0.379984 0.000000
O O12 0.611383 0.196592 0.414591
O O13 0.638071 0.000000 0.392862
O O14 0.250000 0.250000 0.500000
O O15 0.000000 0.160550 0.500000
#
# Coordination Sequence:
#
# PCOD9200385 Si02
#       6
#     8   8   8   8   8   8
#     4  10  20  37  57  88 120 150 190 243 297 349
#     4  10  21  37  59  82 111 150 188 239 300 350
#     4  10  22  41  64  92 127 166 206 249 298 350
#     4  10  21  37  63  91 124 161 203 247 296 356
#     4  10  21  36  57  81 110 149 186 233 296 354
#     4  11  22  38  56  79 109 142 187 240 287 349
#
# _framework density 19.585602999999999
#
# number of rings (size 3 to 8) (size 9 to 14) (size 15 to 20)
#    0.000    1.833    3.333    0.500    0.000    5.333 
#    0.000    4.167    0.000    9.000    0.000    0.000 
#    0.000    0.000    0.000    0.000    0.000    0.000 
#
# Total GULP energy -133930.909986 kJ/mol
# GULP energy per Si atom -5580.454583 kJ/mol
# Density = 1.954103 g / cm^3
# Si number density = 19.585603 Si / 1000 Ang^3
#
#
#
# Elastic Constant Matrix: (Units=GPa)
#
#
# Indices 1 2 3 4 5 6 
#
# 1 90.6931 17.0383 28.2798 0.0000 -13.4612 0.0000
# 2 17.0383 98.7147 18.0817 0.0000 -2.4629 0.0000
# 3 28.2798 18.0817 73.8907 0.0000 -21.3144 0.0000
# 4 0.0000 0.0000 0.0000 1.7003 0.0000 0.8307
# 5 -13.4612 -2.4629 -21.3144 0.0000 39.6269 0.0000
# 6 0.0000 0.0000 0.0000 0.8307 0.0000 20.0567
#
#
#
# Elastic Compliance Matrix: (Units=1/GPa)
#
#
# Indices 1 2 3 4 5 6 
#
# 1 0.012846 -0.001441 -0.003943 0.000000 0.002154 0.000000
# 2 -0.001441 0.010793 -0.002411 0.000000 -0.001116 0.000000
# 3 -0.003943 -0.002411 0.017995 0.000000 0.008190 0.000000
# 4 0.000000 0.000000 0.000000 0.600265 0.000000 -0.024862
# 5 0.002154 -0.001116 0.008190 0.000000 0.030303 0.000000
# 6 0.000000 0.000000 0.000000 -0.024862 0.000000 0.050888
#
#
# Mechanical properties :
#
#
# Convention : Reuss Voigt Hill
#
# Bulk Modulus (GPa) = 38.39761 43.34424 40.87093
# Shear Modulus (GPa) = 6.69020 25.60337 16.14679
#
# Velocity S-wave (km/s) = 1.85021 3.61952 2.87439
# Velocity P-wave (km/s) = 4.92057 6.29656 5.65060
#
# Compressibility (1/GPa) = 0.02604329
#
# Stress axis : x y z
#
# Youngs Moduli (GPa) = 77.84532 92.65408 55.57122
#
# Poissons Ratio (x) = 0.13355 0.21909
# Poissons Ratio (y) = 0.11220 0.13400
# Poissons Ratio (z) = 0.30691 0.22342
#
# Static dielectric constant tensor:
#      x y z
#    x 1.698660 0.000000 -0.011040 
#    y 0.000000 1.680900 0.000000 
#    z -0.011040 0.000000 1.717380 
# 
# From -- ./inp_files/299574.got.cif
#   From: 2010.05.17/outbox.cif.g08.bks.cpg/sg12_150_cif.got.tgz:299574.got - 2010.06.03 13:09:07.
