data_PCOD9200455
_publ_section_title
;
Structure prediction by ZEFSAII (Michael W. Deem and Ramdas Pophale) SiO2 
 PCOD9200455
Probable space group: C 2/M
;
_chemical_formula_sum "Si O2"
_cell_formula_units_Z 64
_cell_length_a 21.028052
_cell_length_b 8.670807
_cell_length_c 32.778747
_cell_angle_alpha 90.000000
_cell_angle_beta 143.347907
_cell_angle_gamma 90.000000
_cell_volume 3567.731588
_symmetry_space_group_name_H-M "C 2/M"
_symmetry_group_IT_number 12
_symmetry_cell_setting 'monoclinic'
loop_
_space_group_symop_operation_xyz
x,y,z
-x,y,-z
-x,-y,-z
x,-y,z
1/2+x,1/2+y,z
1/2-x,1/2+y,-z
1/2-x,1/2-y,-z
1/2+x,1/2-y,z
loop_
_atom_site_type_symbol
_atom_site_label
_atom_site_fract_x
_atom_site_fract_y
_atom_site_fract_z
Si Si1 0.823772 0.685064 0.157403
Si Si2 0.237253 0.814697 0.448331
Si Si3 0.656933 0.685029 0.923691
Si Si4 0.401958 0.688075 0.921305
Si Si5 0.424698 0.686095 0.839279
Si Si6 0.312283 0.183555 0.705745
Si Si7 0.622493 0.186603 0.556325
Si Si8 0.043474 0.184982 0.291739
O O1 0.826654 0.500000 0.158024
O O2 0.832384 0.747994 0.116009
O O3 0.711690 0.735171 0.119016
O O4 0.926071 0.746608 0.234382
O O5 0.250000 0.750000 0.500000
O O6 0.328260 0.767347 0.462396
O O7 0.124640 0.770171 0.369620
O O8 0.239962 0.000000 0.451861
O O9 0.663208 0.500000 0.925447
O O10 0.542084 0.726999 0.883260
O O11 0.750000 0.750000 0.000000
O O12 0.404482 0.500000 0.922934
O O13 0.413679 0.735931 0.880426
O O14 0.500000 0.740591 0.000000
O O15 0.414655 0.500000 0.832359
O O16 0.339055 0.759018 0.764743
O O17 0.200344 0.243409 0.630442
O O18 0.401575 0.254685 0.721482
O O19 0.317080 0.000000 0.705992
O O20 0.500000 0.231165 0.500000
O O21 0.629716 0.000000 0.562463
O O22 0.038471 0.000000 0.287101
#
# Coordination Sequence:
#
# PCOD9200455 Si02
#       8
#     8   8   8   8   8   8   8   8
#     4  11  21  35  58  86 112 141 188 239 282 332
#     4   9  19  35  57  83 111 146 185 227 274 328
#     4  11  22  35  57  84 111 145 186 234 282 334
#     4   9  19  37  58  80 109 148 189 230 278 339
#     4  10  20  37  59  80 110 152 190 226 278 341
#     4  11  21  34  57  87 116 146 186 239 285 326
#     4   9  19  38  61  83 112 151 191 228 273 336
#     4  10  20  37  58  81 113 153 190 226 280 340
#
# _framework density 17.938568
#
# number of rings (size 3 to 8) (size 9 to 14) (size 15 to 20)
#    0.000    2.000    1.250    3.750    0.000    5.250 
#    2.250    1.250    0.000    2.625    0.000    0.000 
#    0.000    0.000    0.000    0.000    0.000    0.000 
#
# Total GULP energy -178673.930432 kJ/mol
# GULP energy per Si atom -5583.560326 kJ/mol
# Density = 1.789774 g / cm^3
# Si number density = 17.938568 Si / 1000 Ang^3
#
#
#
# Elastic Constant Matrix: (Units=GPa)
#
#
# Indices 1 2 3 4 5 6 
#
# 1 156.5509 39.9987 113.4967 0.0000 -0.8264 -0.0002
# 2 39.9987 35.1583 40.9623 0.0001 3.0816 -0.0005
# 3 113.4967 40.9623 175.7954 0.0000 0.6039 0.0000
# 4 0.0000 0.0001 0.0000 33.6446 0.0000 -1.3538
# 5 -0.8264 3.0816 0.6039 0.0000 37.8624 0.0000
# 6 -0.0002 -0.0005 0.0000 -1.3538 0.0000 23.7177
#
#
#
# Elastic Compliance Matrix: (Units=1/GPa)
#
#
# Indices 1 2 3 4 5 6 
#
# 1 0.013175 -0.007083 -0.006859 0.000000 0.000973 0.000000
# 2 -0.007083 0.043201 -0.005481 0.000000 -0.003583 0.000001
# 3 -0.006859 -0.005481 0.011394 0.000000 0.000115 0.000000
# 4 0.000000 0.000000 0.000000 0.029791 0.000000 0.001700
# 5 0.000973 -0.003583 0.000115 0.000000 0.026722 0.000000
# 6 0.000000 0.000001 0.000000 0.001700 0.000000 0.042260
#
#
# Mechanical properties :
#
#
# Convention : Reuss Voigt Hill
#
# Bulk Modulus (GPa) = 34.57419 84.04665 59.31042
# Shear Modulus (GPa) = 23.25254 30.58142 26.91698
#
# Velocity S-wave (km/s) = 3.60423 4.13338 3.87784
# Velocity P-wave (km/s) = 6.05278 8.35069 7.29281
#
# Compressibility (1/GPa) = 0.02892331
#
# Stress axis : x y z
#
# Youngs Moduli (GPa) = 75.89950 23.14768 87.76892
#
# Poissons Ratio (x) = 0.16396 0.60202
# Poissons Ratio (y) = 0.53760 0.48106
# Poissons Ratio (z) = 0.52060 0.12687
#
# Static dielectric constant tensor:
#      x y z
#    x 1.581200 0.000000 0.002580 
#    y 0.000000 1.613050 0.000000 
#    z 0.002580 0.000000 1.606990 
# 
# From -- ./inp_files/378426.got.cif
#   From: 2010.05.17/outbox.cif.g08.bks.cpg/sg12_190_cif.got.tgz:378426.got - 2010.06.03 13:09:07.
