data_PCOD9200950
_publ_section_title
;
Structure prediction by ZEFSAII (Michael W. Deem and Ramdas Pophale) SiO2 
 PCOD9200950
Probable space group: C 2/M
;
_chemical_formula_sum "Si O2"
_cell_formula_units_Z 40
_cell_length_a 25.573942
_cell_length_b 11.367893
_cell_length_c 22.830015
_cell_angle_alpha 90.000000
_cell_angle_beta 162.455906
_cell_angle_gamma 90.000000
_cell_volume 2000.710566
_symmetry_space_group_name_H-M "C 2/M"
_symmetry_group_IT_number 12
_symmetry_cell_setting 'monoclinic'
loop_
_space_group_symop_operation_xyz
x,y,z
-x,y,-z
-x,-y,-z
x,-y,z
1/2+x,1/2+y,z
1/2-x,1/2+y,-z
1/2-x,1/2-y,-z
1/2+x,1/2-y,z
loop_
_atom_site_type_symbol
_atom_site_label
_atom_site_fract_x
_atom_site_fract_y
_atom_site_fract_z
Si Si1 0.311615 0.784915 0.471808
Si Si2 0.201553 0.127078 0.729423
Si Si3 0.537448 0.134570 0.247812
Si Si4 0.838682 0.135878 0.175577
Si Si5 0.796783 0.872131 0.770083
O O1 0.364402 0.859439 0.585279
O O2 0.150029 0.706306 0.321239
O O3 0.484180 0.707670 0.643183
O O4 0.255094 0.853462 0.353262
O O5 0.213822 0.137356 0.812197
O O6 0.252342 0.249413 0.754119
O O7 0.000000 0.117013 0.500000
O O8 0.282825 0.000000 0.797771
O O9 0.524192 0.000000 0.214147
O O10 0.340030 0.179267 0.045033
O O11 0.871600 0.000000 0.192887
O O12 0.720417 0.000000 0.707770
O O13 0.000000 0.881478 0.000000
#
# Coordination Sequence:
#
# PCOD9200950 Si02
#       5
#     8   8   8   8   8
#     4  11  21  38  60  81 116 158 196 242 299 352
#     4  10  20  37  60  87 117 150 197 246 291 352
#     4  10  22  37  57  86 115 150 199 250 298 352
#     4  10  20  37  60  87 116 148 195 248 299 357
#     4  11  24  40  59  87 123 160 199 245 300 361
#
# _framework density 19.992895999999998
#
# number of rings (size 3 to 8) (size 9 to 14) (size 15 to 20)
#    0.000    1.600    2.000    3.000    0.000    1.600 
#    0.000    0.000    0.000    8.400    0.000    0.000 
#    0.000    0.000    0.000    0.000    0.000    0.000 
#
# Total GULP energy -111430.235207 kJ/mol
# GULP energy per Si atom -5571.511760 kJ/mol
# Density = 1.994739 g / cm^3
# Si number density = 19.992896 Si / 1000 Ang^3
#
#
#
# Elastic Constant Matrix: (Units=GPa)
#
#
# Indices 1 2 3 4 5 6 
#
# 1 48.1855 45.5235 13.4441 0.0018 5.4687 0.0009
# 2 45.5235 152.7258 32.3059 -0.0120 24.2907 0.0001
# 3 13.4441 32.3059 108.2918 -0.0030 10.8941 0.0007
# 4 0.0018 -0.0120 -0.0030 30.2306 -0.0021 19.3385
# 5 5.4687 24.2907 10.8941 -0.0021 22.5769 0.0013
# 6 0.0009 0.0001 0.0007 19.3385 0.0013 8.8134
#
#
#
# Elastic Compliance Matrix: (Units=1/GPa)
#
#
# Indices 1 2 3 4 5 6 
#
# 1 0.029190 -0.008933 -0.001277 0.000008 0.003156 -0.000020
# 2 -0.008933 0.010898 -0.001241 -0.000007 -0.008963 0.000017
# 3 -0.001277 -0.001241 0.010087 -0.000001 -0.003223 0.000002
# 4 0.000008 -0.000007 -0.000001 -0.081951 -0.000012 0.179820
# 5 0.003156 -0.008963 -0.003223 -0.000012 0.054728 0.000019
# 6 -0.000020 0.000017 0.000002 0.179820 0.000019 -0.281100
#
#
# Mechanical properties :
#
#
# Convention : Reuss Voigt Hill
#
# Bulk Modulus (GPa) = 36.66225 54.63893 45.65059
# Shear Modulus (GPa) = -22.10863 26.85281 2.37209
#
# Velocity S-wave (km/s) = -3.32900 3.66883 1.09043
# Velocity P-wave (km/s) = 1.89766 6.73317 4.94655
#
# Compressibility (1/GPa) = 0.02727601
#
# Stress axis : x y z
#
# Youngs Moduli (GPa) = 34.25779 91.75725 99.13604
#
# Poissons Ratio (x) = 0.81966 0.12655
# Poissons Ratio (y) = 0.30602 0.12298
# Poissons Ratio (z) = 0.04373 0.11383
#
# Static dielectric constant tensor:
#      x y z
#    x 1.694310 0.000000 -0.005550 
#    y 0.000000 1.781980 -0.000010 
#    z -0.005550 -0.000010 1.725230 
# 
# From -- ./inp_files/92736.got.cif
#   From: 2010.05.17/outbox.cif.g08.bks.cpg/sg12_47_cif.got.tgz:92736.got - 2010.06.03 13:09:07.
