data_PCOD9200115
_publ_section_title
;
Structure prediction by ZEFSAII (Michael W. Deem and Ramdas Pophale) SiO2 
 PCOD9200115
Probable space group: C 2/M
;
_chemical_formula_sum "Si O2"
_cell_formula_units_Z 40
_cell_length_a 9.523205
_cell_length_b 14.224392
_cell_length_c 12.845128
_cell_angle_alpha 90.000000
_cell_angle_beta 116.635003
_cell_angle_gamma 90.000000
_cell_volume 1555.373723
_symmetry_space_group_name_H-M "C 2/M"
_symmetry_group_IT_number 12
_symmetry_cell_setting 'monoclinic'
loop_
_space_group_symop_operation_xyz
x,y,z
-x,y,-z
-x,-y,-z
x,-y,z
1/2+x,1/2+y,z
1/2-x,1/2+y,-z
1/2-x,1/2-y,-z
1/2+x,1/2-y,z
loop_
_atom_site_type_symbol
_atom_site_label
_atom_site_fract_x
_atom_site_fract_y
_atom_site_fract_z
Si Si1 0.227035 0.133341 0.595639
Si Si2 0.050628 0.101565 0.743750
Si Si3 0.671289 0.608322 0.010020
Si Si4 0.568032 0.178719 0.765080
Si Si5 0.173777 0.354258 0.585036
O O1 0.124807 0.093779 0.654246
O O2 0.405711 0.123580 0.696135
O O3 0.177275 0.242115 0.571993
O O4 0.220575 0.103907 0.472200
O O5 0.005513 0.213354 0.730981
O O6 0.966124 0.000000 0.736703
O O7 0.164178 0.105885 0.882584
O O8 0.690739 0.500000 0.052256
O O9 0.823333 0.665561 0.099005
O O10 0.500000 0.640143 0.000000
O O11 0.685172 0.140427 0.712683
O O12 0.000000 0.388162 0.500000
#
# Coordination Sequence:
#
# PCOD9200115 Si02
#       5
#     8   8   8   8   8
#     4   9  18  34  60  88 117 152 197 246 297 350
#     4  10  22  38  58  88 124 157 197 250 303 353
#     4  10  23  41  60  85 121 161 205 251 299 362
#     4  10  20  36  64  88 117 161 203 245 301 359
#     4   8  16  33  57  87 117 154 194 239 294 360
#
# _framework density 25.717290999999999
#
# number of rings (size 3 to 8) (size 9 to 14) (size 15 to 20)
#    0.000    2.600    0.000    0.600    5.600    1.600 
#    0.000    3.000    0.000   63.600    0.000    0.000 
#    0.000    0.000    0.000    0.000    0.000    0.000 
#
# Total GULP energy -111351.417177 kJ/mol
# GULP energy per Si atom -5567.570859 kJ/mol
# Density = 2.565876 g / cm^3
# Si number density = 25.717291 Si / 1000 Ang^3
#
#
#
# Elastic Constant Matrix: (Units=GPa)
#
#
# Indices 1 2 3 4 5 6 
#
# 1 121.3087 27.4346 32.8149 0.0000 9.0528 0.0000
# 2 27.4346 121.4518 21.0074 0.0000 14.6567 0.0000
# 3 32.8149 21.0074 122.2630 0.0000 -4.9634 0.0000
# 4 0.0000 0.0000 0.0000 140.9312 0.0000 16.1151
# 5 9.0528 14.6567 -4.9634 0.0000 42.7219 0.0000
# 6 0.0000 0.0000 0.0000 16.1151 0.0000 2.6587
#
#
#
# Elastic Compliance Matrix: (Units=1/GPa)
#
#
# Indices 1 2 3 4 5 6 
#
# 1 0.009339 -0.001499 -0.002319 0.000000 -0.001734 0.000000
# 2 -0.001499 0.009154 -0.001291 0.000000 -0.002973 0.000000
# 3 -0.002319 -0.001291 0.009104 0.000000 0.001992 0.000000
# 4 0.000000 0.000000 0.000000 0.023119 0.000000 -0.140129
# 5 -0.001734 -0.002973 0.001992 0.000000 0.025026 0.000000
# 6 0.000000 0.000000 0.000000 -0.140129 0.000000 1.225463
#
#
# Mechanical properties :
#
#
# Convention : Reuss Voigt Hill
#
# Bulk Modulus (GPa) = 57.54263 58.61524 58.07894
# Shear Modulus (GPa) = 3.79588 56.18015 29.98801
#
# Velocity S-wave (km/s) = 1.21623 4.67896 3.41847
# Velocity P-wave (km/s) = 4.93922 7.21331 6.18174
#
# Compressibility (1/GPa) = 0.01737842
#
# Stress axis : x y z
#
# Youngs Moduli (GPa) = 107.07418 109.23593 109.83750
#
# Poissons Ratio (x) = 0.16376 0.25476
# Poissons Ratio (y) = 0.16052 0.14183
# Poissons Ratio (z) = 0.24835 0.14105
#
# Static dielectric constant tensor:
#      x y z
#    x 2.098640 0.000000 -0.004600 
#    y 0.000000 2.029240 0.000000 
#    z -0.004600 0.000000 2.001140 
# 
# From -- ./inp_files/129601.got.cif
#   From: 2010.05.17/outbox.cif.g08.bks.cpg/sg12_65_cif.got.tgz:129601.got - 2010.06.03 13:09:07.
