data_PCOD9200071
_publ_section_title
;
Structure prediction by ZEFSAII (Michael W. Deem and Ramdas Pophale) SiO2 
 PCOD9200071
Probable space group: C 2/M
;
_chemical_formula_sum "Si O2"
_cell_formula_units_Z 60
_cell_length_a 11.763513
_cell_length_b 26.770405
_cell_length_c 9.694055
_cell_angle_alpha 90.000000
_cell_angle_beta 86.097941
_cell_angle_gamma 90.000000
_cell_volume 3045.716824
_symmetry_space_group_name_H-M "C 2/M"
_symmetry_group_IT_number 12
_symmetry_cell_setting 'monoclinic'
loop_
_space_group_symop_operation_xyz
x,y,z
-x,y,-z
-x,-y,-z
x,-y,z
1/2+x,1/2+y,z
1/2-x,1/2+y,-z
1/2-x,1/2-y,-z
1/2+x,1/2-y,z
loop_
_atom_site_type_symbol
_atom_site_label
_atom_site_fract_x
_atom_site_fract_y
_atom_site_fract_z
Si Si1 0.000000 0.605017 0.000000
Si Si2 0.630491 0.285387 0.171380
Si Si3 0.512082 0.057679 0.708340
Si Si4 0.926647 0.943489 0.366309
Si Si5 0.200884 0.322698 0.080206
Si Si6 0.678473 0.905276 0.470342
Si Si7 0.297893 0.304815 0.523874
Si Si8 0.084488 0.158218 0.752993
O O1 0.968879 0.572559 0.136040
O O2 0.105823 0.639077 0.037936
O O3 0.640412 0.225794 0.152581
O O4 0.659869 0.303638 0.323046
O O5 0.503955 0.306785 0.159944
O O6 0.723550 0.306388 0.057556
O O7 0.412320 0.090110 0.645408
O O8 0.622440 0.067438 0.605595
O O9 0.478129 0.000000 0.699278
O O10 0.796068 0.931312 0.416924
O O11 0.961118 0.898011 0.263463
O O12 0.000000 0.939975 0.500000
O O13 0.937194 0.000000 0.311268
O O14 0.293877 0.343000 0.180854
O O15 0.705136 0.848431 0.510074
O O16 0.250000 0.250000 0.500000
O O17 0.391671 0.318508 0.400398
#
# Coordination Sequence:
#
# PCOD9200071 Si02
#       8
#     4   8   8   8   8   8   8   8
#     4  12  25  40  60  90 126 158 211 264 310 360
#     4  11  24  41  62  87 125 170 207 246 303 374
#     4  11  23  41  65  91 123 163 206 257 316 369
#     4  10  20  36  63  93 122 158 202 253 309 361
#     4  11  26  41  62  87 122 171 210 247 306 377
#     4  10  21  39  63  91 124 161 201 251 304 375
#     4  11  21  38  59  94 129 156 203 251 304 360
#     4  11  22  42  63  91 126 162 203 259 305 361
#
# _framework density 19.699795999999999
#
# number of rings (size 3 to 8) (size 9 to 14) (size 15 to 20)
#    0.000    1.200    1.333    6.600    3.733    1.067 
#    2.400    0.667    0.000    2.400    0.000    0.000 
#    0.000    0.000    0.000    0.000    0.000    0.000 
#
# Total GULP energy -167664.660623 kJ/mol
# GULP energy per Si atom -5588.822021 kJ/mol
# Density = 1.965496 g / cm^3
# Si number density = 19.699796 Si / 1000 Ang^3
#
#
#
# Elastic Constant Matrix: (Units=GPa)
#
#
# Indices 1 2 3 4 5 6 
#
# 1 75.1379 26.8160 18.8459 0.0000 5.7663 0.0000
# 2 26.8160 121.3936 26.1447 0.0000 8.2399 0.0000
# 3 18.8459 26.1447 118.9541 0.0000 7.1230 0.0000
# 4 0.0000 0.0000 0.0000 4.6232 0.0000 -17.4186
# 5 5.7663 8.2399 7.1230 0.0000 25.6110 0.0000
# 6 0.0000 0.0000 0.0000 -17.4186 0.0000 0.7161
#
#
#
# Elastic Compliance Matrix: (Units=1/GPa)
#
#
# Indices 1 2 3 4 5 6 
#
# 1 0.014868 -0.002800 -0.001621 0.000000 -0.001996 0.000000
# 2 -0.002800 0.009309 -0.001485 0.000000 -0.001951 0.000000
# 3 -0.001621 -0.001485 0.009091 0.000000 -0.001686 0.000000
# 4 0.000000 0.000000 0.000000 -0.002386 0.000000 -0.058043
# 5 -0.001996 -0.001951 -0.001686 0.000000 0.040592 0.000000
# 6 0.000000 0.000000 0.000000 -0.058043 0.000000 -0.015406
#
#
# Mechanical properties :
#
#
# Convention : Reuss Voigt Hill
#
# Bulk Modulus (GPa) = 46.60861 51.01099 48.80980
# Shear Modulus (GPa) = 66.63945 22.43531 44.53738
#
# Velocity S-wave (km/s) = 5.82245 3.37836 4.75995
# Velocity P-wave (km/s) = 8.30133 6.41624 7.41890
#
# Compressibility (1/GPa) = 0.02145526
#
# Stress axis : x y z
#
# Youngs Moduli (GPa) = 67.25970 107.42838 110.00155
#
# Poissons Ratio (x) = 0.30078 0.17827
# Poissons Ratio (y) = 0.18831 0.16341
# Poissons Ratio (z) = 0.10900 0.15958
#
# Static dielectric constant tensor:
#      x y z
#    x 1.696810 0.000000 0.008780 
#    y 0.000000 1.691760 0.000000 
#    z 0.008780 0.000000 1.696610 
# 
# From -- ./inp_files/53248.got.cif
#   From: 2010.05.17/outbox.cif.g08.bks.cpg/sg12_27_cif.got.tgz:53248.got - 2010.06.03 13:09:07.
