data_PCOD9200962
_publ_section_title
;
Structure prediction by ZEFSAII (Michael W. Deem and Ramdas Pophale) SiO2 
 PCOD9200962
Probable space group: C 2/M
;
_chemical_formula_sum "Si O2"
_cell_formula_units_Z 56
_cell_length_a 24.516397
_cell_length_b 26.892693
_cell_length_c 11.113043
_cell_angle_alpha 90.000000
_cell_angle_beta 156.603857
_cell_angle_gamma 90.000000
_cell_volume 2909.434798
_symmetry_space_group_name_H-M "C 2/M"
_symmetry_group_IT_number 12
_symmetry_cell_setting 'monoclinic'
loop_
_space_group_symop_operation_xyz
x,y,z
-x,y,-z
-x,-y,-z
x,-y,z
1/2+x,1/2+y,z
1/2-x,1/2+y,-z
1/2-x,1/2-y,-z
1/2+x,1/2-y,z
loop_
_atom_site_type_symbol
_atom_site_label
_atom_site_fract_x
_atom_site_fract_y
_atom_site_fract_z
Si Si1 0.312387 0.145546 0.386843
Si Si2 0.300304 0.350757 0.363620
Si Si3 0.617452 0.056695 0.324012
Si Si4 0.374036 0.556944 0.663627
Si Si5 0.557641 0.307865 0.752973
Si Si6 0.435820 0.192810 0.238798
Si Si7 0.165836 0.699207 0.324226
O O1 0.352943 0.088942 0.498319
O O2 0.443205 0.175316 0.603390
O O3 0.282244 0.167117 0.457858
O O4 0.184794 0.156464 0.041888
O O5 0.341750 0.405790 0.489726
O O6 0.435558 0.320655 0.598637
O O7 0.215873 0.327272 0.303824
O O8 0.193510 0.343332 0.038743
O O9 0.748079 0.055184 0.501382
O O10 0.577037 0.000000 0.272430
O O11 0.500000 0.079651 0.000000
O O12 0.403351 0.500000 0.683945
O O13 0.500000 0.575713 0.000000
O O14 0.500000 0.313109 0.500000
O O15 0.603964 0.250445 0.864031
O O16 0.500000 0.190591 0.500000
O O17 0.250000 0.750000 0.500000
O O18 0.000000 0.705272 0.000000
#
# Coordination Sequence:
#
# PCOD9200962 Si02
#       7
#     8   8   8   8   8   8   8
#     4  12  22  38  61  86 122 152 199 252 296 362
#     4  12  23  38  62  88 122 156 199 256 303 357
#     4  10  20  37  60  87 119 154 193 240 302 372
#     4  10  21  38  59  87 121 158 198 240 302 376
#     4  11  25  42  60  85 117 166 215 245 289 359
#     4  11  23  41  61  82 116 164 208 245 289 355
#     4  12  25  37  57  92 130 161 190 243 317 377
#
# _framework density 19.247724999999999
#
# number of rings (size 3 to 8) (size 9 to 14) (size 15 to 20)
#    0.000    0.857    2.857    5.571    2.000    2.286 
#    0.000    0.000    0.000    5.143    0.000    0.000 
#    0.000    0.000    0.000    0.000    0.000    0.000 
#
# Total GULP energy -156436.843952 kJ/mol
# GULP energy per Si atom -5587.030141 kJ/mol
# Density = 1.920392 g / cm^3
# Si number density = 19.247725 Si / 1000 Ang^3
#
#
#
# Elastic Constant Matrix: (Units=GPa)
#
#
# Indices 1 2 3 4 5 6 
#
# 1 54.3678 23.1638 11.7415 0.0000 -2.3032 0.0000
# 2 23.1638 108.4094 42.1950 0.0000 -21.8123 0.0000
# 3 11.7415 42.1950 126.9611 0.0000 -3.9496 0.0000
# 4 0.0000 0.0000 0.0000 31.8609 0.0000 -8.9681
# 5 -2.3032 -21.8123 -3.9496 0.0000 28.6705 0.0000
# 6 0.0000 0.0000 0.0000 -8.9681 0.0000 27.7761
#
#
#
# Elastic Compliance Matrix: (Units=1/GPa)
#
#
# Indices 1 2 3 4 5 6 
#
# 1 0.020349 -0.004565 -0.000424 0.000000 -0.001896 0.000000
# 2 -0.004565 0.013576 -0.003796 0.000000 0.009439 0.000000
# 3 -0.000424 -0.003796 0.009126 0.000000 -0.001665 0.000000
# 4 0.000000 0.000000 0.000000 0.034524 0.000000 0.011147
# 5 -0.001896 0.009439 -0.001665 0.000000 0.041679 0.000000
# 6 0.000000 0.000000 0.000000 0.011147 0.000000 0.039601
#
#
# Mechanical properties :
#
#
# Convention : Reuss Voigt Hill
#
# Bulk Modulus (GPa) = 39.24399 49.32656 44.28528
# Shear Modulus (GPa) = 27.03895 31.83734 29.43814
#
# Velocity S-wave (km/s) = 3.75211 4.07145 3.91504
# Velocity P-wave (km/s) = 6.26133 6.91268 6.59505
#
# Compressibility (1/GPa) = 0.02548161
#
# Stress axis : x y z
#
# Youngs Moduli (GPa) = 49.14188 73.65732 109.58292
#
# Poissons Ratio (x) = 0.33622 0.04645
# Poissons Ratio (y) = 0.22431 0.41601
# Poissons Ratio (z) = 0.02083 0.27962
#
# Static dielectric constant tensor:
#      x y z
#    x 1.706840 0.000000 0.022350 
#    y 0.000000 1.730660 0.000000 
#    z 0.022350 0.000000 1.799340 
# 
# From -- ./inp_files/185154.got.cif
#   From: 2010.05.17/outbox.cif.g08.bks.cpg/sg12_93_cif.got.tgz:185154.got - 2010.06.03 13:09:07.
