data_PCOD9200616
_publ_section_title
;
Structure prediction by ZEFSAII (Michael W. Deem and Ramdas Pophale) SiO2 
 PCOD9200616
Probable space group: C 2/M
;
_chemical_formula_sum "Si O2"
_cell_formula_units_Z 32
_cell_length_a 8.353423
_cell_length_b 16.152660
_cell_length_c 11.097956
_cell_angle_alpha 90.000000
_cell_angle_beta 110.504337
_cell_angle_gamma 90.000000
_cell_volume 1402.577466
_symmetry_space_group_name_H-M "C 2/M"
_symmetry_group_IT_number 12
_symmetry_cell_setting 'monoclinic'
loop_
_space_group_symop_operation_xyz
x,y,z
-x,y,-z
-x,-y,-z
x,-y,z
1/2+x,1/2+y,z
1/2-x,1/2+y,-z
1/2-x,1/2-y,-z
1/2+x,1/2-y,z
loop_
_atom_site_type_symbol
_atom_site_label
_atom_site_fract_x
_atom_site_fract_y
_atom_site_fract_z
Si Si1 0.207639 0.500000 0.064279
Si Si2 0.759509 0.665332 0.078698
Si Si3 0.032143 0.225562 0.231453
Si Si4 0.821659 0.822459 0.387766
Si Si5 0.185403 0.000000 0.622693
O O1 0.257409 0.582391 0.001642
O O2 0.285525 0.500000 0.221995
O O3 0.000000 0.500000 0.000000
O O4 0.384477 0.675847 0.856633
O O5 0.750000 0.750000 0.000000
O O6 0.950959 0.683800 0.179821
O O7 0.192672 0.247123 0.357974
O O8 0.886514 0.177562 0.265094
O O9 0.743098 0.911284 0.398639
O O10 0.000000 0.811155 0.500000
O O11 0.000000 0.000000 0.500000
#
# Coordination Sequence:
#
# PCOD9200616 Si02
#       5
#     4   8   8   8   4
#     4  12  22  37  63  89 116 158 200 242 298 354
#     4  11  22  37  57  85 120 154 191 245 299 351
#     4  10  21  37  57  85 119 150 194 249 295 347
#     4  10  20  37  59  82 113 157 199 239 292 354
#     4  10  22  37  55  81 115 150 190 238 290 348
#
# _framework density 22.815135999999999
#
# number of rings (size 3 to 8) (size 9 to 14) (size 15 to 20)
#    0.000    1.500    0.000    7.500    0.000    1.000 
#    0.000    3.750    0.000    0.000    0.000   21.000 
#    0.000    0.000    0.000    0.000    0.000    0.000 
#
# Total GULP energy -89082.028884 kJ/mol
# GULP energy per Si atom -5567.626805 kJ/mol
# Density = 2.276321 g / cm^3
# Si number density = 22.815136 Si / 1000 Ang^3
#
#
#
# Elastic Constant Matrix: (Units=GPa)
#
#
# Indices 1 2 3 4 5 6 
#
# 1 97.8528 26.3419 -3.3693 0.0000 -10.5655 0.0000
# 2 26.3419 111.3585 18.3118 0.0000 1.4200 0.0000
# 3 -3.3693 18.3118 111.0084 0.0000 6.1728 0.0000
# 4 0.0000 0.0000 0.0000 28.7256 0.0000 3.0926
# 5 -10.5655 1.4200 6.1728 0.0000 29.1945 0.0000
# 6 0.0000 0.0000 0.0000 3.0926 0.0000 24.6410
#
#
#
# Elastic Compliance Matrix: (Units=1/GPa)
#
#
# Indices 1 2 3 4 5 6 
#
# 1 0.011459 -0.002860 0.000588 0.000000 0.004162 0.000000
# 2 -0.002860 0.009945 -0.001662 0.000000 -0.001167 0.000000
# 3 0.000588 -0.001662 0.009395 0.000000 -0.001693 0.000000
# 4 0.000000 0.000000 0.000000 0.035289 0.000000 -0.004429
# 5 0.004162 -0.001167 -0.001693 0.000000 0.036174 0.000000
# 6 0.000000 0.000000 0.000000 -0.004429 0.000000 0.041139
#
#
# Mechanical properties :
#
#
# Convention : Reuss Voigt Hill
#
# Bulk Modulus (GPa) = 43.61235 44.75427 44.18331
# Shear Modulus (GPa) = 31.46389 35.10791 33.28590
#
# Velocity S-wave (km/s) = 3.71763 3.92701 3.82375
# Velocity P-wave (km/s) = 6.13063 6.34196 6.23719
#
# Compressibility (1/GPa) = 0.02292929
#
# Stress axis : x y z
#
# Youngs Moduli (GPa) = 87.26699 100.55412 106.44499
#
# Poissons Ratio (x) = 0.28763 -0.06262
# Poissons Ratio (y) = 0.24962 0.17695
# Poissons Ratio (z) = -0.05133 0.16716
#
# Static dielectric constant tensor:
#      x y z
#    x 1.882260 0.000000 0.049960 
#    y 0.000000 1.824140 0.000000 
#    z 0.049960 0.000000 2.241650 
# 
# From -- ./inp_files/195178.got.cif
#   From: 2010.05.17/outbox.cif.g08.bks.cpg/sg12_98_cif.got.tgz:195178.got - 2010.06.03 13:09:07.
