data_PCOD9200518
_publ_section_title
;
Structure prediction by ZEFSAII (Michael W. Deem and Ramdas Pophale) SiO2 
 PCOD9200518
Probable space group: C 2/M
;
_chemical_formula_sum "Si O2"
_cell_formula_units_Z 48
_cell_length_a 9.975589
_cell_length_b 28.439613
_cell_length_c 9.205143
_cell_angle_alpha 90.000000
_cell_angle_beta 81.530539
_cell_angle_gamma 90.000000
_cell_volume 2583.036596
_symmetry_space_group_name_H-M "C 2/M"
_symmetry_group_IT_number 12
_symmetry_cell_setting 'monoclinic'
loop_
_space_group_symop_operation_xyz
x,y,z
-x,y,-z
-x,-y,-z
x,-y,z
1/2+x,1/2+y,z
1/2-x,1/2+y,-z
1/2-x,1/2-y,-z
1/2+x,1/2-y,z
loop_
_atom_site_type_symbol
_atom_site_label
_atom_site_fract_x
_atom_site_fract_y
_atom_site_fract_z
Si Si1 0.611718 0.261815 0.108019
Si Si2 0.859558 0.446145 0.266680
Si Si3 0.963835 0.051338 0.674660
Si Si4 0.000000 0.609883 0.500000
Si Si5 0.500000 0.115966 0.000000
Si Si6 0.030131 0.144800 0.830344
Si Si7 0.655145 0.831249 0.231677
O O1 0.580457 0.313563 0.177799
O O2 0.605593 0.222462 0.232754
O O3 0.500000 0.256118 0.000000
O O4 0.750000 0.250000 0.000000
O O5 0.908565 0.500000 0.252495
O O6 0.697866 0.446419 0.285909
O O7 0.910316 0.422058 0.406921
O O8 0.914863 0.416393 0.122816
O O9 0.021622 0.098088 0.737242
O O10 0.000000 0.051907 0.500000
O O11 0.010023 0.000000 0.726730
O O12 0.092300 0.641277 0.378100
O O13 0.403295 0.146226 0.909101
O O14 0.182064 0.165286 0.793683
O O15 0.000000 0.130130 0.000000
#
# Coordination Sequence:
#
# PCOD9200518 Si02
#       7
#     8   8   8   4   4   8   8
#     4  11  21  37  62  89 117 155 197 246 304 354
#     4  10  20  37  58  85 116 156 202 248 299 354
#     4  10  22  40  61  86 120 161 197 240 302 365
#     4  10  23  36  58  84 124 158 195 242 304 360
#     4  10  21  34  62  84 120 154 201 248 302 348
#     4  11  22  38  63  89 120 152 208 250 301 349
#     4  11  21  39  57  89 120 160 197 249 298 368
#
# _framework density 18.58278
#
# number of rings (size 3 to 8) (size 9 to 14) (size 15 to 20)
#    0.000    1.500    4.167    2.500    0.000    0.333 
#    1.500    5.000    0.000    0.000    0.000    0.000 
#    0.000    0.000    0.000    0.000    0.000    0.000 
#
# Total GULP energy -133880.786889 kJ/mol
# GULP energy per Si atom -5578.366120 kJ/mol
# Density = 1.854048 g / cm^3
# Si number density = 18.582780 Si / 1000 Ang^3
#
#
#
# Elastic Constant Matrix: (Units=GPa)
#
#
# Indices 1 2 3 4 5 6 
#
# 1 69.1226 30.9213 11.3642 0.0000 -8.2504 0.0000
# 2 30.9213 162.3186 50.4979 0.0000 5.9338 0.0000
# 3 11.3642 50.4979 80.0702 0.0000 -2.4742 0.0000
# 4 0.0000 0.0000 0.0000 25.5971 0.0000 2.6984
# 5 -8.2504 5.9338 -2.4742 0.0000 20.5339 0.0000
# 6 0.0000 0.0000 0.0000 2.6984 0.0000 22.8605
#
#
#
# Elastic Compliance Matrix: (Units=1/GPa)
#
#
# Indices 1 2 3 4 5 6 
#
# 1 0.016978 -0.003542 0.000067 0.000000 0.007853 0.000000
# 2 -0.003542 0.008568 -0.005040 0.000000 -0.004507 0.000000
# 3 0.000067 -0.005040 0.015763 0.000000 0.003383 0.000000
# 4 0.000000 0.000000 0.000000 0.039559 0.000000 -0.004669
# 5 0.007853 -0.004507 0.003383 0.000000 0.053565 0.000000
# 6 0.000000 0.000000 0.000000 -0.004669 0.000000 0.044295
#
#
# Mechanical properties :
#
#
# Convention : Reuss Voigt Hill
#
# Bulk Modulus (GPa) = 41.18940 55.23090 48.21015
# Shear Modulus (GPa) = 24.52764 28.38019 26.45392
#
# Velocity S-wave (km/s) = 3.63700 3.91222 3.77712
# Velocity P-wave (km/s) = 6.31273 7.08473 6.70984
#
# Compressibility (1/GPa) = 0.02427809
#
# Stress axis : x y z
#
# Youngs Moduli (GPa) = 58.89994 116.70937 63.44040
#
# Poissons Ratio (x) = 0.41341 -0.00425
# Poissons Ratio (y) = 0.20863 0.31976
# Poissons Ratio (z) = -0.00395 0.58825
#
# Static dielectric constant tensor:
#      x y z
#    x 1.634630 0.000000 0.000980 
#    y 0.000000 1.698140 0.000000 
#    z 0.000980 0.000000 1.610200 
# 
# From -- ./inp_files/42296.got.cif
#   From: 2010.05.17/outbox.cif.g08.bks.cpg/sg12_22_cif.got.tgz:42296.got - 2010.06.03 13:09:07.
