data_PCOD9200477
_publ_section_title
;
Structure prediction by ZEFSAII (Michael W. Deem and Ramdas Pophale) SiO2 
 PCOD9200477
Probable space group: C 2/M
;
_chemical_formula_sum "Si O2"
_cell_formula_units_Z 56
_cell_length_a 27.414975
_cell_length_b 8.464093
_cell_length_c 12.997623
_cell_angle_alpha 90.000000
_cell_angle_beta 68.038217
_cell_angle_gamma 90.000000
_cell_volume 2797.145148
_symmetry_space_group_name_H-M "C 2/M"
_symmetry_group_IT_number 12
_symmetry_cell_setting 'monoclinic'
loop_
_space_group_symop_operation_xyz
x,y,z
-x,y,-z
-x,-y,-z
x,-y,z
1/2+x,1/2+y,z
1/2-x,1/2+y,-z
1/2-x,1/2-y,-z
1/2+x,1/2-y,z
loop_
_atom_site_type_symbol
_atom_site_label
_atom_site_fract_x
_atom_site_fract_y
_atom_site_fract_z
Si Si1 0.439537 0.806800 0.535209
Si Si2 0.948041 0.811530 0.100608
Si Si3 0.864609 0.307408 0.780118
Si Si4 0.137639 0.311293 0.988991
Si Si5 0.712900 0.311293 0.619452
Si Si6 0.754391 0.808724 0.176440
Si Si7 0.902847 0.688722 0.339139
O O1 0.500000 0.758395 0.500000
O O2 0.403025 0.753700 0.658722
O O3 0.418008 0.754836 0.441237
O O4 0.438482 0.000000 0.536672
O O5 0.942538 0.741407 0.218621
O O6 0.949932 0.000000 0.107599
O O7 0.897475 0.765025 0.072360
O O8 0.000000 0.755036 0.000000
O O9 0.864976 0.500000 0.778040
O O10 0.880593 0.259758 0.882765
O O11 0.804278 0.258988 0.807928
O O12 0.132855 0.500000 0.984674
O O13 0.198501 0.264186 0.926807
O O14 0.712481 0.500000 0.618027
O O15 0.750000 0.250000 0.500000
O O16 0.734364 0.262556 0.714208
O O17 0.654301 0.250266 0.647571
O O18 0.757309 0.000000 0.166359
O O19 0.901398 0.500000 0.342761
#
# Coordination Sequence:
#
# PCOD9200477 Si02
#       7
#     8   8   8   8   8   8   8
#     4   9  19  36  59  88 121 155 194 243 302 358
#     4  11  25  43  62  85 120 164 202 244 305 366
#     4   9  19  35  56  86 122 159 197 241 296 354
#     4  11  22  36  61  92 120 151 199 254 295 349
#     4  11  22  36  59  87 122 165 203 245 297 355
#     4  10  20  37  58  82 121 164 196 236 301 365
#     4  11  22  38  64  94 121 153 200 252 301 357
#
# _framework density 20.020413000000001
#
# number of rings (size 3 to 8) (size 9 to 14) (size 15 to 20)
#    0.000    1.714    1.429    3.000    2.000    4.000 
#    0.000    0.714    0.000    5.143    0.000    0.000 
#    0.000    0.000    0.000    0.000    0.000    0.000 
#
# Total GULP energy -156495.338956 kJ/mol
# GULP energy per Si atom -5589.119248 kJ/mol
# Density = 1.997485 g / cm^3
# Si number density = 20.020413 Si / 1000 Ang^3
#
#
#
# Elastic Constant Matrix: (Units=GPa)
#
#
# Indices 1 2 3 4 5 6 
#
# 1 43.8134 -3.2596 18.4233 0.0000 -2.5264 0.0000
# 2 -3.2596 13.9421 10.8970 0.0000 3.4405 0.0000
# 3 18.4233 10.8970 155.4309 0.0000 -0.0818 0.0000
# 4 0.0000 0.0000 0.0000 21.6251 0.0000 -4.3469
# 5 -2.5264 3.4405 -0.0818 0.0000 39.7595 0.0000
# 6 0.0000 0.0000 0.0000 -4.3469 0.0000 3.5404
#
#
#
# Elastic Compliance Matrix: (Units=1/GPa)
#
#
# Indices 1 2 3 4 5 6 
#
# 1 0.024992 0.008408 -0.003551 0.000000 0.000853 0.000000
# 2 0.008408 0.080472 -0.006642 0.000000 -0.006443 0.000000
# 3 -0.003551 -0.006642 0.007321 0.000000 0.000364 0.000000
# 4 0.000000 0.000000 0.000000 0.061395 0.000000 0.075381
# 5 0.000853 -0.006443 0.000364 0.000000 0.025764 0.000000
# 6 0.000000 0.000000 0.000000 0.075381 0.000000 0.375007
#
#
# Mechanical properties :
#
#
# Convention : Reuss Voigt Hill
#
# Bulk Modulus (GPa) = 9.15622 29.47862 19.31742
# Shear Modulus (GPa) = 8.13106 25.46006 16.79556
#
# Velocity S-wave (km/s) = 2.01747 3.56997 2.89956
# Velocity P-wave (km/s) = 3.16391 5.63464 4.56943
#
# Compressibility (1/GPa) = 0.10921532
#
# Stress axis : x y z
#
# Youngs Moduli (GPa) = 40.01254 12.42663 136.60250
#
# Poissons Ratio (x) = -0.10449 0.48513
# Poissons Ratio (y) = -0.33644 0.90729
# Poissons Ratio (z) = 0.14210 0.08254
#
# Static dielectric constant tensor:
#      x y z
#    x 1.677960 0.000000 0.001560 
#    y 0.000000 1.684990 0.000000 
#    z 0.001560 0.000000 1.708920 
# 
# From -- ./inp_files/180752.got.cif
#   From: 2010.05.17/outbox.cif.g08.bks.cpg/sg12_91_cif.got.tgz:180752.got - 2010.06.03 13:09:07.
