data_PCOD9200836
_publ_section_title
;
Structure prediction by ZEFSAII (Michael W. Deem and Ramdas Pophale) SiO2 
 PCOD9200836
Probable space group: C 2/M
;
_chemical_formula_sum "Si O2"
_cell_formula_units_Z 48
_cell_length_a 15.094781
_cell_length_b 7.581428
_cell_length_c 25.329918
_cell_angle_alpha 90.000000
_cell_angle_beta 139.237231
_cell_angle_gamma 90.000000
_cell_volume 1892.680407
_symmetry_space_group_name_H-M "C 2/M"
_symmetry_group_IT_number 12
_symmetry_cell_setting 'monoclinic'
loop_
_space_group_symop_operation_xyz
x,y,z
-x,y,-z
-x,-y,-z
x,-y,z
1/2+x,1/2+y,z
1/2-x,1/2+y,-z
1/2-x,1/2-y,-z
1/2+x,1/2-y,z
loop_
_atom_site_type_symbol
_atom_site_label
_atom_site_fract_x
_atom_site_fract_y
_atom_site_fract_z
Si Si1 0.167391 0.792251 0.637632
Si Si2 0.577261 0.210520 0.978177
Si Si3 0.833182 0.212443 0.147725
Si Si4 0.908358 0.708155 0.570141
Si Si5 0.405128 0.791733 0.681269
Si Si6 0.813574 0.715863 0.809140
O O1 0.258460 0.718373 0.631449
O O2 0.234650 0.720562 0.722031
O O3 0.006519 0.776380 0.568919
O O4 0.195224 0.000000 0.649948
O O5 0.469764 0.277877 0.886758
O O6 0.588355 0.000000 0.975213
O O7 0.500000 0.233121 0.000000
O O8 0.730047 0.279313 0.056027
O O9 0.765330 0.267232 0.173029
O O10 0.988026 0.269928 0.223313
O O11 0.832480 0.000000 0.145501
O O12 0.925465 0.500000 0.574663
O O13 0.750000 0.750000 0.500000
O O14 0.956625 0.783693 0.648953
O O15 0.392804 0.000000 0.665590
O O16 0.815601 0.500000 0.809463
#
# Coordination Sequence:
#
# PCOD9200836 Si02
#       6
#     8   8   8   8   8   8
#     4  10  20  37  60  84 110 145 184 219 263 323
#     4   7  11  20  40  74 106 134 181 233 263 290
#     4   9  15  27  51  78 105 143 190 230 259 304
#     4  11  24  42  62  84 110 140 173 218 273 328
#     4  10  22  37  55  82 116 145 172 219 280 326
#     4   8  13  25  49  77 104 140 186 227 259 304
#
# _framework density 25.360856999999999
#
# number of rings (size 3 to 8) (size 9 to 14) (size 15 to 20)
#    0.000    2.833    1.667    2.500    0.000    2.000 
#    0.000    4.167    0.000    5.500    0.000    0.000 
#    0.000    0.000    0.000    0.000    0.000    0.000 
#
# Total GULP energy -133980.553811 kJ/mol
# GULP energy per Si atom -5582.523075 kJ/mol
# Density = 2.530313 g / cm^3
# Si number density = 25.360857 Si / 1000 Ang^3
#
#
#
# Elastic Constant Matrix: (Units=GPa)
#
#
# Indices 1 2 3 4 5 6 
#
# 1 103.6264 3.1267 22.6903 0.0000 23.9853 0.0000
# 2 3.1267 54.8240 -21.4693 0.0000 -8.4856 0.0000
# 3 22.6903 -21.4693 91.4740 0.0000 25.4099 0.0000
# 4 0.0000 0.0000 0.0000 13.0726 0.0000 1.7658
# 5 23.9853 -8.4856 25.4099 0.0000 38.5096 0.0000
# 6 0.0000 0.0000 0.0000 1.7658 0.0000 -2.8527
#
#
#
# Elastic Compliance Matrix: (Units=1/GPa)
#
#
# Indices 1 2 3 4 5 6 
#
# 1 0.011615 -0.002312 -0.001558 0.000000 -0.006716 0.000000
# 2 -0.002312 0.020629 0.004595 0.000000 0.002954 0.000000
# 3 -0.001558 0.004595 0.014505 0.000000 -0.007588 0.000000
# 4 0.000000 0.000000 0.000000 0.070594 0.000000 0.043696
# 5 -0.006716 0.002954 -0.007588 0.000000 0.035808 0.000000
# 6 0.000000 0.000000 0.000000 0.043696 0.000000 -0.323495
#
#
# Mechanical properties :
#
#
# Convention : Reuss Voigt Hill
#
# Bulk Modulus (GPa) = 20.74827 28.73552 24.74190
# Shear Modulus (GPa) = -32.10752 26.11767 -2.99492
#
# Velocity S-wave (km/s) = -3.56199 3.21260 -1.08788
# Velocity P-wave (km/s) = 2.95263 5.01162 2.86341
#
# Compressibility (1/GPa) = 0.04819679
#
# Stress axis : x y z
#
# Youngs Moduli (GPa) = 86.09199 48.47655 68.94305
#
# Poissons Ratio (x) = 0.11209 0.10744
# Poissons Ratio (y) = 0.19906 -0.31677
# Poissons Ratio (z) = 0.13416 -0.22273
#
# Static dielectric constant tensor:
#      x y z
#    x 1.902880 0.000000 -0.032860 
#    y 0.000000 1.921830 0.000000 
#    z -0.032860 0.000000 2.068590 
# 
# From -- ./inp_files/360312.got.cif
#   From: 2010.05.17/outbox.cif.g08.bks.cpg/sg12_181_cif.got.tgz:360312.got - 2010.06.03 13:09:07.
