data_PCOD9200732
_publ_section_title
;
Structure prediction by ZEFSAII (Michael W. Deem and Ramdas Pophale) SiO2 
 PCOD9200732
Probable space group: C 2/M
;
_chemical_formula_sum "Si O2"
_cell_formula_units_Z 42
_cell_length_a 16.887716
_cell_length_b 21.548742
_cell_length_c 5.285455
_cell_angle_alpha 90.000000
_cell_angle_beta 124.616079
_cell_angle_gamma 90.000000
_cell_volume 1582.934359
_symmetry_space_group_name_H-M "C 2/M"
_symmetry_group_IT_number 12
_symmetry_cell_setting 'monoclinic'
loop_
_space_group_symop_operation_xyz
x,y,z
-x,y,-z
-x,-y,-z
x,-y,z
1/2+x,1/2+y,z
1/2-x,1/2+y,-z
1/2-x,1/2-y,-z
1/2+x,1/2-y,z
loop_
_atom_site_type_symbol
_atom_site_label
_atom_site_fract_x
_atom_site_fract_y
_atom_site_fract_z
Si Si1 0.896860 0.248171 0.389215
Si Si2 0.781181 0.928461 0.844513
Si Si3 0.114212 0.566521 0.176518
Si Si4 0.883941 0.110142 0.525633
Si Si5 0.387046 0.203949 0.870996
Si Si6 0.000000 0.000000 0.500000
O O1 0.917917 0.179963 0.536264
O O2 0.843156 0.283669 0.515265
O O3 0.000000 0.278523 0.500000
O O4 0.851091 0.252108 0.029121
O O5 0.671576 0.930200 0.546994
O O6 0.837996 0.896402 0.717789
O O7 0.817878 0.000000 0.927186
O O8 0.806501 0.901192 0.160760
O O9 0.146842 0.500000 0.118335
O O10 0.129334 0.633107 0.078561
O O11 0.000000 0.563103 0.000000
O O12 0.960084 0.055771 0.618084
O O13 0.500000 0.213236 0.000000
#
# Coordination Sequence:
#
# PCOD9200732 Si02
#       6
#     8   8   8   8   8   2
#     4  10  20  37  59  87 124 168 210 252 304 374
#     4  11  23  41  61  93 133 159 204 275 318 357
#     4   9  20  42  71  96 122 164 211 258 323 386
#     4  12  24  41  62  96 127 171 213 258 310 364
#     4   9  19  37  61  89 121 161 209 257 307 372
#     4  12  24  42  68  94 130 174 222 246 300 382
#
# _framework density 26.533000000000001
#
# number of rings (size 3 to 8) (size 9 to 14) (size 15 to 20)
#    0.000    1.714    2.857    1.143    0.000    3.048 
#    0.000   11.429    0.000   14.857    0.000    0.000 
#    0.000    0.000    0.000    0.000    0.000    0.000 
#
# Total GULP energy -117177.414451 kJ/mol
# GULP energy per Si atom -5579.876879 kJ/mol
# Density = 2.647261 g / cm^3
# Si number density = 26.533000 Si / 1000 Ang^3
#
#
#
# Elastic Constant Matrix: (Units=GPa)
#
#
# Indices 1 2 3 4 5 6 
#
# 1 103.7178 28.1806 57.2854 0.0000 -22.7244 0.0000
# 2 28.1806 170.4717 13.2404 0.0000 -28.7048 0.0000
# 3 57.2854 13.2404 100.2419 0.0000 -17.6282 0.0000
# 4 0.0000 0.0000 0.0000 34.0794 0.0000 9.6961
# 5 -22.7244 -28.7048 -17.6282 0.0000 49.3436 0.0000
# 6 0.0000 0.0000 0.0000 9.6961 0.0000 56.6427
#
#
#
# Elastic Compliance Matrix: (Units=1/GPa)
#
#
# Indices 1 2 3 4 5 6 
#
# 1 0.015071 -0.001314 -0.007846 0.000000 0.003373 0.000000
# 2 -0.001314 0.006622 0.000477 0.000000 0.003417 0.000000
# 3 -0.007846 0.000477 0.014736 0.000000 0.001929 0.000000
# 4 0.000000 0.000000 0.000000 0.030846 0.000000 -0.005280
# 5 0.003373 0.003417 0.001929 0.000000 0.024497 0.000000
# 6 0.000000 0.000000 0.000000 -0.005280 0.000000 0.018558
#
#
# Mechanical properties :
#
#
# Convention : Reuss Voigt Hill
#
# Bulk Modulus (GPa) = 52.45708 63.53826 57.99767
# Shear Modulus (GPa) = 37.29985 46.39481 41.84733
#
# Velocity S-wave (km/s) = 3.75346 4.18613 3.97568
# Velocity P-wave (km/s) = 6.21273 6.88213 6.55598
#
# Compressibility (1/GPa) = 0.01906320
#
# Stress axis : x y z
#
# Youngs Moduli (GPa) = 66.35204 151.01951 67.86227
#
# Poissons Ratio (x) = 0.19844 0.53244
# Poissons Ratio (y) = 0.08719 -0.03239
# Poissons Ratio (z) = 0.52059 -0.07208
#
# Static dielectric constant tensor:
#      x y z
#    x 2.145560 0.000000 0.190000 
#    y 0.000000 2.072250 0.000000 
#    z 0.190000 0.000000 2.439210 
# 
# From -- ./inp_files/21072.got.cif
#   From: 2010.05.17/outbox.cif.g08.bks.cpg/sg12_11_cif.got.tgz:21072.got - 2010.06.03 13:09:07.
