data_PCOD9200725
_publ_section_title
;
Structure prediction by ZEFSAII (Michael W. Deem and Ramdas Pophale) SiO2 
 PCOD9200725
Probable space group: C 2/M
;
_chemical_formula_sum "Si O2"
_cell_formula_units_Z 56
_cell_length_a 18.381548
_cell_length_b 13.943153
_cell_length_c 10.125532
_cell_angle_alpha 90.000000
_cell_angle_beta 116.685222
_cell_angle_gamma 90.000000
_cell_volume 2318.725217
_symmetry_space_group_name_H-M "C 2/M"
_symmetry_group_IT_number 12
_symmetry_cell_setting 'monoclinic'
loop_
_space_group_symop_operation_xyz
x,y,z
-x,y,-z
-x,-y,-z
x,-y,z
1/2+x,1/2+y,z
1/2-x,1/2+y,-z
1/2-x,1/2-y,-z
1/2+x,1/2-y,z
loop_
_atom_site_type_symbol
_atom_site_label
_atom_site_fract_x
_atom_site_fract_y
_atom_site_fract_z
Si Si1 0.126157 0.895696 0.744821
Si Si2 0.146679 0.352093 0.468008
Si Si3 0.617631 0.816444 0.722129
Si Si4 0.067858 0.106494 0.204018
Si Si5 0.293005 0.389687 0.902027
Si Si6 0.191058 0.130667 0.527405
Si Si7 0.002697 0.315678 0.153556
O O1 0.084812 0.793318 0.679143
O O2 0.190465 0.900830 0.677629
O O3 0.082471 0.000000 0.707849
O O4 0.167049 0.884275 0.921079
O O5 0.106506 0.374985 0.576723
O O6 0.179785 0.244782 0.519952
O O7 0.229176 0.400441 0.486624
O O8 0.082134 0.350217 0.297912
O O9 0.714860 0.821933 0.825120
O O10 0.572409 0.849401 0.817614
O O11 0.138786 0.128010 0.154093
O O12 0.112018 0.100834 0.380870
O O13 0.009469 0.198414 0.155181
O O14 0.033680 0.000000 0.150523
O O15 0.265112 0.500000 0.860160
O O16 0.000000 0.347863 0.000000
#
# Coordination Sequence:
#
# PCOD9200725 Si02
#       7
#     8   8   8   8   8   8   8
#     4  10  21  33  55  90 122 153 196 247 302 356
#     4   9  19  35  55  82 113 153 200 246 288 353
#     4  11  21  38  60  83 122 165 197 243 302 358
#     4  10  20  37  59  87 120 155 199 249 297 357
#     4  10  21  37  60  89 119 155 204 255 296 346
#     4   9  17  33  58  82 113 148 198 253 294 339
#     4  11  24  35  55  89 121 161 197 237 302 369
#
# _framework density 24.151201
#
# number of rings (size 3 to 8) (size 9 to 14) (size 15 to 20)
#    0.000    2.000    1.429    2.143    4.000    0.857 
#    0.000    0.000    0.000    9.000    0.000    0.000 
#    0.000    0.000    0.000    0.000    0.000    0.000 
#
# Total GULP energy -156337.056909 kJ/mol
# GULP energy per Si atom -5583.466318 kJ/mol
# Density = 2.409623 g / cm^3
# Si number density = 24.151201 Si / 1000 Ang^3
#
#
#
# Elastic Constant Matrix: (Units=GPa)
#
#
# Indices 1 2 3 4 5 6 
#
# 1 113.0284 8.0907 63.0652 0.0000 -37.8658 0.0000
# 2 8.0907 56.7863 0.7063 0.0000 -0.9121 0.0000
# 3 63.0652 0.7063 166.9266 0.0000 -35.0411 0.0000
# 4 0.0000 0.0000 0.0000 -957.2951 0.0000 309.3253
# 5 -37.8658 -0.9121 -35.0411 0.0000 43.4410 0.0000
# 6 0.0000 0.0000 0.0000 309.3253 0.0000 -101.3450
#
#
#
# Elastic Compliance Matrix: (Units=1/GPa)
#
#
# Indices 1 2 3 4 5 6 
#
# 1 0.013995 -0.001800 -0.003283 0.000000 0.009513 0.000000
# 2 -0.001800 0.017847 0.000426 0.000000 -0.000851 0.000000
# 3 -0.003283 0.000426 0.007982 0.000000 0.003586 0.000000
# 4 0.000000 0.000000 0.000000 -0.075916 0.000000 -0.231712
# 5 0.009513 -0.000851 0.003586 0.000000 0.034187 0.000000
# 6 0.000000 0.000000 0.000000 -0.231712 0.000000 -0.717098
#
#
# Mechanical properties :
#
#
# Convention : Reuss Voigt Hill
#
# Bulk Modulus (GPa) = 32.77603 53.38507 43.08055
# Shear Modulus (GPa) = -7.14776 -185.38122 -96.26449
#
# Velocity S-wave (km/s) = -1.72221 -8.77070 -6.32025
# Velocity P-wave (km/s) = 3.10579 8.96741 5.94847
#
# Compressibility (1/GPa) = 0.03051010
#
# Stress axis : x y z
#
# Youngs Moduli (GPa) = 71.45546 56.03049 125.28463
#
# Poissons Ratio (x) = 0.10087 0.41127
# Poissons Ratio (y) = 0.12864 -0.05337
# Poissons Ratio (z) = 0.23456 -0.02387
#
# Static dielectric constant tensor:
#      x y z
#    x 1.931300 0.000000 -0.051630 
#    y 0.000000 1.999600 0.000000 
#    z -0.051630 0.000000 1.909640 
# 
# From -- ./inp_files/76001.got.cif
#   From: 2010.05.17/outbox.cif.g08.bks.cpg/sg12_39_cif.got.tgz:76001.got - 2010.06.03 13:09:07.
