data_PCOD9200420
_publ_section_title
;
Structure prediction by ZEFSAII (Michael W. Deem and Ramdas Pophale) SiO2 
 PCOD9200420
Probable space group: C 2/M
;
_chemical_formula_sum "Si O2"
_cell_formula_units_Z 40
_cell_length_a 9.853419
_cell_length_b 15.022200
_cell_length_c 29.644603
_cell_angle_alpha 90.000000
_cell_angle_beta 28.380115
_cell_angle_gamma 90.000000
_cell_volume 2085.696941
_symmetry_space_group_name_H-M "C 2/M"
_symmetry_group_IT_number 12
_symmetry_cell_setting 'monoclinic'
loop_
_space_group_symop_operation_xyz
x,y,z
-x,y,-z
-x,-y,-z
x,-y,z
1/2+x,1/2+y,z
1/2-x,1/2+y,-z
1/2-x,1/2-y,-z
1/2+x,1/2-y,z
loop_
_atom_site_type_symbol
_atom_site_label
_atom_site_fract_x
_atom_site_fract_y
_atom_site_fract_z
Si Si1 0.623603 0.187876 0.771757
Si Si2 0.689756 0.348374 0.817343
Si Si3 0.961256 0.500000 0.855701
Si Si4 0.202887 0.000000 0.508579
Si Si5 0.593299 0.500000 0.048203
Si Si6 0.267173 0.313263 0.452593
Si Si7 0.554934 0.000000 0.661309
O O1 0.574012 0.266571 0.821999
O O2 0.391080 0.185603 0.799486
O O3 0.618157 0.091109 0.797102
O O4 0.935713 0.200655 0.659615
O O5 0.447434 0.412050 0.909707
O O6 0.884256 0.413897 0.729461
O O7 0.682029 0.500000 0.904796
O O8 0.861322 0.500000 0.936691
O O9 0.255090 0.086640 0.522903
O O10 0.393279 0.000000 0.407451
O O11 0.870246 0.000000 0.590961
O O12 0.250000 0.250000 0.500000
O O13 0.000000 0.291300 0.500000
#
# Coordination Sequence:
#
# PCOD9200420 Si02
#       7
#     8   8   4   4   4   8   4
#     4  11  21  37  58  84 115 152 187 241 280 342
#     4  10  20  37  60  85 115 146 195 233 292 342
#     4   9  19  37  61  84 113 147 193 228 292 342
#     4  11  22  37  57  78 114 155 198 240 282 330
#     4   8  18  37  61  85 110 151 186 233 278 368
#     4  12  25  38  57  86 120 155 200 238 283 338
#     4  10  20  37  58  79 109 159 196 232 287 342
#
# _framework density 19.178242000000001
#
# number of rings (size 3 to 8) (size 9 to 14) (size 15 to 20)
#    0.000    1.600    2.000    3.900    2.800    0.800 
#    0.000    2.000    0.000    1.200    0.000    0.000 
#    0.000    0.000    0.000    0.000    0.000    0.000 
#
# Total GULP energy -111770.810182 kJ/mol
# GULP energy per Si atom -5588.540509 kJ/mol
# Density = 1.913459 g / cm^3
# Si number density = 19.178242 Si / 1000 Ang^3
#
#
#
# Elastic Constant Matrix: (Units=GPa)
#
#
# Indices 1 2 3 4 5 6 
#
# 1 65.6900 31.1521 -2.1349 -0.0970 9.7707 0.0415
# 2 31.1521 123.5488 6.0256 -0.0829 15.8357 0.0288
# 3 -2.1349 6.0256 48.0082 -0.0690 24.6322 0.0412
# 4 -0.0970 -0.0829 -0.0690 -0.9819 -0.0282 18.7538
# 5 9.7707 15.8357 24.6322 -0.0282 28.4363 0.0026
# 6 0.0415 0.0288 0.0412 18.7538 0.0026 41.1711
#
#
#
# Elastic Compliance Matrix: (Units=1/GPa)
#
#
# Indices 1 2 3 4 5 6 
#
# 1 0.018670 -0.003759 0.006334 -0.000217 -0.009809 0.000077
# 2 -0.003759 0.009645 0.001287 -0.000047 -0.005195 0.000018
# 3 0.006334 0.001287 0.040381 -0.000345 -0.037873 0.000112
# 4 -0.000217 -0.000047 -0.000345 -0.104988 0.000291 0.047824
# 5 -0.009809 -0.005195 -0.037873 0.000291 0.074236 -0.000086
# 6 0.000077 0.000018 0.000112 0.047824 -0.000086 0.002505
#
#
# Mechanical properties :
#
#
# Convention : Reuss Voigt Hill
#
# Bulk Modulus (GPa) = 13.08534 34.14808 23.61671
# Shear Modulus (GPa) = 85.91346 27.20537 56.55942
#
# Velocity S-wave (km/s) = 6.70034 3.77046 5.43649
# Velocity P-wave (km/s) = 8.16684 6.06625 7.19363
#
# Compressibility (1/GPa) = 0.07642139
#
# Stress axis : x y z
#
# Youngs Moduli (GPa) = 53.56089 103.68194 24.76393
#
# Poissons Ratio (x) = 0.38979 -0.15687
# Poissons Ratio (y) = 0.20136 -0.03188
# Poissons Ratio (z) = -0.33928 -0.13348
#
# Static dielectric constant tensor:
#      x y z
#    x 1.647830 -0.000010 0.012410 
#    y -0.000010 1.651340 0.000010 
#    z 0.012410 0.000010 1.651320 
# 
# From -- ./inp_files/203534.got.cif
#   From: 2010.05.17/outbox.cif.g08.bks.cpg/sg12_102_cif.got.tgz:203534.got - 2010.06.03 13:09:07.
