data_PCOD9200856
_publ_section_title
;
Structure prediction by ZEFSAII (Michael W. Deem and Ramdas Pophale) SiO2 
 PCOD9200856
Probable space group: C 2/M
;
_chemical_formula_sum "Si O2"
_cell_formula_units_Z 64
_cell_length_a 30.998147
_cell_length_b 8.845851
_cell_length_c 16.617260
_cell_angle_alpha 90.000000
_cell_angle_beta 133.387545
_cell_angle_gamma 90.000000
_cell_volume 3311.343843
_symmetry_space_group_name_H-M "C 2/M"
_symmetry_group_IT_number 12
_symmetry_cell_setting 'monoclinic'
loop_
_space_group_symop_operation_xyz
x,y,z
-x,y,-z
-x,-y,-z
x,-y,z
1/2+x,1/2+y,z
1/2-x,1/2+y,-z
1/2-x,1/2-y,-z
1/2+x,1/2-y,z
loop_
_atom_site_type_symbol
_atom_site_label
_atom_site_fract_x
_atom_site_fract_y
_atom_site_fract_z
Si Si1 0.005314 0.318273 0.747958
Si Si2 0.342904 0.681543 0.781048
Si Si3 0.224974 0.823354 0.048694
Si Si4 0.705679 0.183946 0.589992
Si Si5 0.842459 0.676919 0.304695
Si Si6 0.044453 0.819625 0.628644
Si Si7 0.615203 0.180859 0.998876
Si Si8 0.878486 0.682671 0.659363
O O1 0.007084 0.500000 0.741491
O O2 0.023776 0.248104 0.686722
O O3 0.939526 0.276733 0.692606
O O4 0.053288 0.276139 0.877574
O O5 0.343775 0.500000 0.785012
O O6 0.273656 0.731909 0.688516
O O7 0.373483 0.745788 0.900001
O O8 0.373326 0.741505 0.739267
O O9 0.277616 0.814338 0.181571
O O10 0.167807 0.737009 0.008144
O O11 0.210844 0.000000 0.018105
O O12 0.250000 0.750000 0.000000
O O13 0.665468 0.233353 0.614115
O O14 0.676034 0.229716 0.468197
O O15 0.705455 0.000000 0.592126
O O16 0.859988 0.500000 0.328699
O O17 0.890415 0.764696 0.313891
O O18 0.000000 0.771858 0.500000
O O19 0.043609 0.000000 0.633085
O O20 0.617321 0.000000 0.009047
O O21 0.877087 0.500000 0.666519
#
# Coordination Sequence:
#
# PCOD9200856 Si02
#       8
#     8   8   8   8   8   8   8   8
#     4  10  23  42  63  86 116 159 209 250 292 354
#     4  11  22  39  61  89 123 156 194 244 306 367
#     4  11  22  37  58  86 119 154 195 244 295 352
#     4   9  18  36  61  88 118 151 194 245 298 359
#     4  10  20  37  60  84 114 156 200 239 288 353
#     4  11  24  39  57  88 126 158 196 247 300 353
#     4  11  23  40  61  87 119 158 203 250 298 353
#     4  10  21  39  63  88 114 151 201 253 299 352
#
# _framework density 19.327501999999999
#
# number of rings (size 3 to 8) (size 9 to 14) (size 15 to 20)
#    0.000    1.625    1.250    3.375    0.000    8.000 
#    0.000    3.750    0.000    0.000    0.000    0.000 
#    0.000    0.000    0.000    0.000    0.000    0.000 
#
# Total GULP energy -178866.360817 kJ/mol
# GULP energy per Si atom -5589.573776 kJ/mol
# Density = 1.928351 g / cm^3
# Si number density = 19.327502 Si / 1000 Ang^3
#
#
#
# Elastic Constant Matrix: (Units=GPa)
#
#
# Indices 1 2 3 4 5 6 
#
# 1 97.1515 26.5222 40.2278 0.0000 -11.7403 0.0000
# 2 26.5222 35.2114 39.9937 0.0000 -2.7525 0.0000
# 3 40.2278 39.9937 116.1761 0.0000 -11.0511 0.0000
# 4 0.0000 0.0000 0.0000 24.3273 0.0000 -3.7785
# 5 -11.7403 -2.7525 -11.0511 0.0000 37.7157 0.0000
# 6 0.0000 0.0000 0.0000 -3.7785 0.0000 30.3193
#
#
#
# Elastic Compliance Matrix: (Units=1/GPa)
#
#
# Indices 1 2 3 4 5 6 
#
# 1 0.013561 -0.008170 -0.001582 0.000000 0.003161 0.000000
# 2 -0.008170 0.051622 -0.015251 0.000000 -0.003244 0.000000
# 3 -0.001582 -0.015251 0.014662 0.000000 0.002690 0.000000
# 4 0.000000 0.000000 0.000000 0.041917 0.000000 0.005224
# 5 0.003161 -0.003244 0.002690 0.000000 0.028050 0.000000
# 6 0.000000 0.000000 0.000000 0.005224 0.000000 0.033633
#
#
# Mechanical properties :
#
#
# Convention : Reuss Voigt Hill
#
# Bulk Modulus (GPa) = 33.51374 51.33626 42.42500
# Shear Modulus (GPa) = 20.54257 27.92547 24.23402
#
# Velocity S-wave (km/s) = 3.26370 3.80525 3.54483
# Velocity P-wave (km/s) = 5.61960 6.77683 6.22517
#
# Compressibility (1/GPa) = 0.02983851
#
# Stress axis : x y z
#
# Youngs Moduli (GPa) = 73.74166 19.37159 68.20584
#
# Poissons Ratio (x) = 0.15826 0.10793
# Poissons Ratio (y) = 0.60246 1.04018
# Poissons Ratio (z) = 0.11669 0.29543
#
# Static dielectric constant tensor:
#      x y z
#    x 1.643620 0.000000 0.007830 
#    y 0.000000 1.652300 0.000000 
#    z 0.007830 0.000000 1.683910 
# 
# From -- ./inp_files/249937.got.cif
#   From: 2010.05.17/outbox.cif.g08.bks.cpg/sg12_125_cif.got.tgz:249937.got - 2010.06.03 13:09:07.
