data_PCOD9200156
_publ_section_title
;
Structure prediction by ZEFSAII (Michael W. Deem and Ramdas Pophale) SiO2 
 PCOD9200156
Probable space group: C 2/M
;
_chemical_formula_sum "Si O2"
_cell_formula_units_Z 56
_cell_length_a 18.382760
_cell_length_b 13.714366
_cell_length_c 21.740745
_cell_angle_alpha 90.000000
_cell_angle_beta 31.672909
_cell_angle_gamma 90.000000
_cell_volume 2877.911974
_symmetry_space_group_name_H-M "C 2/M"
_symmetry_group_IT_number 12
_symmetry_cell_setting 'monoclinic'
loop_
_space_group_symop_operation_xyz
x,y,z
-x,y,-z
-x,-y,-z
x,-y,z
1/2+x,1/2+y,z
1/2-x,1/2+y,-z
1/2-x,1/2-y,-z
1/2+x,1/2-y,z
loop_
_atom_site_type_symbol
_atom_site_label
_atom_site_fract_x
_atom_site_fract_y
_atom_site_fract_z
Si Si1 0.175597 0.881910 0.146026
Si Si2 0.869337 0.885376 0.138141
Si Si3 0.571032 0.384036 0.763838
Si Si4 0.699566 0.242545 0.466466
Si Si5 0.614735 0.738220 0.311676
Si Si6 0.016624 0.617589 0.059250
Si Si7 0.766214 0.116043 0.665881
O O1 0.128552 0.834402 0.243900
O O2 0.069554 0.851824 0.169020
O O3 0.172804 0.000000 0.153257
O O4 0.334885 0.850759 0.021862
O O5 0.923226 0.864857 0.168058
O O6 0.737428 0.817481 0.220032
O O7 0.830252 0.000000 0.162301
O O8 0.000000 0.869885 0.000000
O O9 0.580445 0.500000 0.748618
O O10 0.702268 0.333853 0.638276
O O11 0.750000 0.250000 0.500000
O O12 0.537789 0.216287 0.580024
O O13 0.718109 0.342019 0.413796
O O14 0.634811 0.674735 0.358919
O O15 0.020302 0.500000 0.053339
O O16 0.886312 0.639143 0.196172
O O17 0.000000 0.650668 0.000000
O O18 0.788537 0.000000 0.652595
#
# Coordination Sequence:
#
# PCOD9200156 Si02
#       7
#     8   8   8   8   8   8   8
#     4  10  20  36  64  99 129 165 205 254 329 393
#     4  10  24  46  69  95 126 167 220 269 314 372
#     4  10  22  44  68  88 124 172 216 265 318 374
#     4  12  26  44  58  91 131 168 222 260 308 383
#     4  12  23  38  69  93 127 166 212 268 314 386
#     4   9  17  33  58  92 131 160 196 246 310 394
#     4  11  24  41  65  98 133 167 206 264 328 381
#
# _framework density 19.458552999999998
#
# number of rings (size 3 to 8) (size 9 to 14) (size 15 to 20)
#    0.000    1.429    4.286    0.857    2.000    2.857 
#    2.571    2.857    0.000    0.000    0.000    0.000 
#    0.000    0.000    0.000    0.000    0.000    0.000 
#
# Total GULP energy -156468.819843 kJ/mol
# GULP energy per Si atom -5588.172137 kJ/mol
# Density = 1.941426 g / cm^3
# Si number density = 19.458553 Si / 1000 Ang^3
#
#
#
# Elastic Constant Matrix: (Units=GPa)
#
#
# Indices 1 2 3 4 5 6 
#
# 1 152.5034 52.7780 99.0347 -0.0001 -11.1838 0.0000
# 2 52.7780 76.4186 28.1489 -0.0005 -3.3484 0.0001
# 3 99.0347 28.1489 133.2198 -0.0008 -10.7904 0.0003
# 4 -0.0001 -0.0005 -0.0008 29.7906 0.0004 6.2858
# 5 -11.1838 -3.3484 -10.7904 0.0004 45.5372 -0.0002
# 6 0.0000 0.0001 0.0003 6.2858 -0.0002 16.5887
#
#
#
# Elastic Compliance Matrix: (Units=1/GPa)
#
#
# Indices 1 2 3 4 5 6 
#
# 1 0.015546 -0.007013 -0.010000 0.000000 0.000933 0.000000
# 2 -0.007013 0.017359 0.001539 0.000000 -0.000081 0.000000
# 3 -0.010000 0.001539 0.014707 0.000000 0.001142 0.000000
# 4 0.000000 0.000000 0.000000 0.036485 0.000000 -0.013825
# 5 0.000933 -0.000081 0.001142 0.000000 0.022454 0.000000
# 6 0.000000 0.000000 0.000000 -0.013825 0.000000 0.065521
#
#
# Mechanical properties :
#
#
# Convention : Reuss Voigt Hill
#
# Bulk Modulus (GPa) = 60.00503 80.22944 70.11723
# Shear Modulus (GPa) = 23.97230 30.52864 27.25047
#
# Velocity S-wave (km/s) = 3.51375 3.96524 3.74630
# Velocity P-wave (km/s) = 6.88231 7.89206 7.40442
#
# Compressibility (1/GPa) = 0.01666527
#
# Stress axis : x y z
#
# Youngs Moduli (GPa) = 64.32391 57.60798 67.99254
#
# Poissons Ratio (x) = 0.40399 0.67991
# Poissons Ratio (y) = 0.45108 -0.10462
# Poissons Ratio (z) = 0.64322 -0.08864
#
# Static dielectric constant tensor:
#      x y z
#    x 1.641110 0.000000 -0.046420 
#    y 0.000000 1.696500 0.000000 
#    z -0.046420 0.000000 1.633020 
# 
# From -- ./inp_files/316719.got.cif
#   From: 2010.05.17/outbox.cif.g08.bks.cpg/sg12_159_cif.got.tgz:316719.got - 2010.06.03 13:09:07.
