data_PCOD9200722
_publ_section_title
;
Structure prediction by ZEFSAII (Michael W. Deem and Ramdas Pophale) SiO2 
 PCOD9200722
Probable space group: C 2/M
;
_chemical_formula_sum "Si O2"
_cell_formula_units_Z 40
_cell_length_a 8.569382
_cell_length_b 24.285241
_cell_length_c 8.981312
_cell_angle_alpha 90.000000
_cell_angle_beta 102.365122
_cell_angle_gamma 90.000000
_cell_volume 1825.738637
_symmetry_space_group_name_H-M "C 2/M"
_symmetry_group_IT_number 12
_symmetry_cell_setting 'monoclinic'
loop_
_space_group_symop_operation_xyz
x,y,z
-x,y,-z
-x,-y,-z
x,-y,z
1/2+x,1/2+y,z
1/2-x,1/2+y,-z
1/2-x,1/2-y,-z
1/2+x,1/2-y,z
loop_
_atom_site_type_symbol
_atom_site_label
_atom_site_fract_x
_atom_site_fract_y
_atom_site_fract_z
Si Si1 0.948384 0.000000 0.157482
Si Si2 0.183456 0.199362 0.077903
Si Si3 0.286307 0.618857 0.160080
Si Si4 0.574119 0.689930 0.370730
Si Si5 0.343872 0.113538 0.565571
Si Si6 0.676194 0.500000 0.461042
O O1 0.849058 0.056026 0.166903
O O2 0.116298 0.000000 0.280145
O O3 0.000000 0.000000 0.000000
O O4 0.176137 0.213526 0.252169
O O5 0.250000 0.250000 0.000000
O O6 0.252899 0.144397 0.010863
O O7 0.000000 0.194580 0.000000
O O8 0.432498 0.654439 0.263610
O O9 0.146542 0.623407 0.254828
O O10 0.500000 0.722024 0.500000
O O11 0.701022 0.650129 0.472864
O O12 0.500000 0.123378 0.500000
O O13 0.279415 0.052193 0.526023
O O14 0.500000 0.500000 0.500000
#
# Coordination Sequence:
#
# PCOD9200722 Si02
#       6
#     4   8   8   8   8   4
#     4  12  20  32  64  92 112 154 210 242 283 350
#     4  10  22  40  62  87 120 156 200 250 306 357
#     4  10  20  37  59  87 118 155 202 241 291 367
#     4   9  18  37  60  84 112 153 203 241 285 362
#     4  11  21  34  55  87 121 158 198 245 296 350
#     4  12  19  36  59  83 121 167 201 236 291 355
#
# _framework density 21.908940999999999
#
# number of rings (size 3 to 8) (size 9 to 14) (size 15 to 20)
#    0.000    1.600    4.000    2.700    0.000    1.600 
#    0.000   10.000    0.000    1.200    0.000    0.000 
#    0.000    0.000    0.000    0.000    0.000    0.000 
#
# Total GULP energy -111406.534727 kJ/mol
# GULP energy per Si atom -5570.326736 kJ/mol
# Density = 2.185908 g / cm^3
# Si number density = 21.908941 Si / 1000 Ang^3
#
#
#
# Elastic Constant Matrix: (Units=GPa)
#
#
# Indices 1 2 3 4 5 6 
#
# 1 62.4843 1.7417 34.6645 0.0000 -34.4015 0.0000
# 2 1.7417 58.7842 31.6486 0.0000 -20.3183 0.0000
# 3 34.6645 31.6486 169.6519 0.0000 -55.0225 0.0000
# 4 0.0000 0.0000 0.0000 43.3286 0.0000 -1.0664
# 5 -34.4015 -20.3183 -55.0225 0.0000 47.1749 0.0000
# 6 0.0000 0.0000 0.0000 -1.0664 0.0000 17.1236
#
#
#
# Elastic Compliance Matrix: (Units=1/GPa)
#
#
# Indices 1 2 3 4 5 6 
#
# 1 0.029524 0.007563 0.000958 0.000000 0.025905 0.000000
# 2 0.007563 0.022167 -0.001279 0.000000 0.013570 0.000000
# 3 0.000958 -0.001279 0.009627 0.000000 0.011376 0.000000
# 4 0.000000 0.000000 0.000000 0.023115 0.000000 0.001440
# 5 0.025905 0.013570 0.011376 0.000000 0.059202 0.000000
# 6 0.000000 0.000000 0.000000 0.001440 0.000000 0.058489
#
#
# Mechanical properties :
#
#
# Convention : Reuss Voigt Hill
#
# Bulk Modulus (GPa) = 13.19241 47.44780 30.32011
# Shear Modulus (GPa) = 23.48462 36.38311 29.93386
#
# Velocity S-wave (km/s) = 3.27757 4.07953 3.70034
# Velocity P-wave (km/s) = 4.51197 6.62525 5.66797
#
# Compressibility (1/GPa) = 0.07580113
#
# Stress axis : x y z
#
# Youngs Moduli (GPa) = 33.87100 45.11304 103.87635
#
# Poissons Ratio (x) = -0.34120 -0.09953
# Poissons Ratio (y) = -0.25617 0.13289
# Poissons Ratio (z) = -0.03245 0.05771
#
# Static dielectric constant tensor:
#      x y z
#    x 1.813460 0.000000 -0.048890 
#    y 0.000000 1.766470 0.000000 
#    z -0.048890 0.000000 2.076360 
# 
# From -- ./inp_files/40439.got.cif
#   From: 2010.05.17/outbox.cif.g08.bks.cpg/sg12_21_cif.got.tgz:40439.got - 2010.06.03 13:09:07.
