data_PCOD9200271
_publ_section_title
;
Structure prediction by ZEFSAII (Michael W. Deem and Ramdas Pophale) SiO2 
 PCOD9200271
Probable space group: C 2/M
;
_chemical_formula_sum "Si O2"
_cell_formula_units_Z 56
_cell_length_a 30.493100
_cell_length_b 11.237796
_cell_length_c 9.174001
_cell_angle_alpha 90.000000
_cell_angle_beta 69.130334
_cell_angle_gamma 90.000000
_cell_volume 2937.454710
_symmetry_space_group_name_H-M "C 2/M"
_symmetry_group_IT_number 12
_symmetry_cell_setting 'monoclinic'
loop_
_space_group_symop_operation_xyz
x,y,z
-x,y,-z
-x,-y,-z
x,-y,z
1/2+x,1/2+y,z
1/2-x,1/2+y,-z
1/2-x,1/2-y,-z
1/2+x,1/2-y,z
loop_
_atom_site_type_symbol
_atom_site_label
_atom_site_fract_x
_atom_site_fract_y
_atom_site_fract_z
Si Si1 0.852175 0.859115 0.682123
Si Si2 0.198181 0.720386 0.500746
Si Si3 0.954207 0.858559 0.476098
Si Si4 0.949029 0.860694 0.135325
Si Si5 0.621216 0.138029 0.829760
Si Si6 0.747075 0.879648 0.185472
Si Si7 0.685148 0.799096 0.009483
O O1 0.823957 0.828611 0.567075
O O2 0.904882 0.812120 0.593500
O O3 0.832750 0.794924 0.848706
O O4 0.851524 0.000000 0.704630
O O5 0.250000 0.750000 0.500000
O O6 0.161148 0.671034 0.661583
O O7 0.209383 0.628950 0.357473
O O8 0.955747 0.847662 0.300889
O O9 0.000000 0.807240 0.500000
O O10 0.953263 0.000000 0.509520
O O11 0.915559 0.749499 0.130387
O O12 0.932226 0.000000 0.128498
O O13 0.000000 0.851010 0.000000
O O14 0.604855 0.000000 0.823093
O O15 0.645230 0.141669 0.961106
O O16 0.719701 0.877869 0.065512
O O17 0.775645 0.000000 0.168271
O O18 0.781486 0.769307 0.143145
#
# Coordination Sequence:
#
# PCOD9200271 Si02
#       7
#     8   8   8   8   8   8   8
#     4  10  21  37  61  90 123 162 214 270 320 380
#     4  11  22  40  57  87 124 174 218 260 312 375
#     4   9  18  35  61  91 121 153 194 256 326 380
#     4  10  23  43  68  97 126 158 206 268 325 384
#     4  12  25  42  64  93 131 173 214 261 324 391
#     4  10  20  37  56  78 115 161 212 262 304 354
#     4  10  22  37  55  85 119 162 212 254 310 369
#
# _framework density 19.064122000000001
#
# number of rings (size 3 to 8) (size 9 to 14) (size 15 to 20)
#    0.000    1.714    2.857    1.286    2.000    2.571 
#    0.000    0.000    0.000    0.429    0.000    0.000 
#    0.000    0.000    0.000    0.000    0.000    0.000 
#
# Total GULP energy -155897.646446 kJ/mol
# GULP energy per Si atom -5567.773087 kJ/mol
# Density = 1.902073 g / cm^3
# Si number density = 19.064122 Si / 1000 Ang^3
#
#
#
# Elastic Constant Matrix: (Units=GPa)
#
#
# Indices 1 2 3 4 5 6 
#
# 1 94.8754 37.9198 18.4573 0.0000 -5.7447 0.0000
# 2 37.9198 116.0599 27.3692 0.0000 -6.5716 0.0000
# 3 18.4573 27.3692 80.3689 0.0000 -13.6586 0.0000
# 4 0.0000 0.0000 0.0000 13.0816 0.0000 -36.8328
# 5 -5.7447 -6.5716 -13.6586 0.0000 29.7159 0.0000
# 6 0.0000 0.0000 0.0000 -36.8328 0.0000 142.8030
#
#
#
# Elastic Compliance Matrix: (Units=1/GPa)
#
#
# Indices 1 2 3 4 5 6 
#
# 1 0.012329 -0.003637 -0.001437 0.000000 0.000919 0.000000
# 2 -0.003637 0.010454 -0.002659 0.000000 0.000386 0.000000
# 3 -0.001437 -0.002659 0.014677 0.000000 0.005881 0.000000
# 4 0.000000 0.000000 0.000000 0.279217 0.000000 0.072018
# 5 0.000919 0.000386 0.005881 0.000000 0.036618 0.000000
# 6 0.000000 0.000000 0.000000 0.072018 0.000000 0.025578
#
#
# Mechanical properties :
#
#
# Convention : Reuss Voigt Hill
#
# Bulk Modulus (GPa) = 45.46648 50.97742 48.22195
# Shear Modulus (GPa) = 12.44802 50.95729 31.70266
#
# Velocity S-wave (km/s) = 2.55807 5.17566 4.08235
# Velocity P-wave (km/s) = 5.71192 7.90662 6.89712
#
# Compressibility (1/GPa) = 0.02199423
#
# Stress axis : x y z
#
# Youngs Moduli (GPa) = 81.10917 95.66100 68.13195
#
# Poissons Ratio (x) = 0.34796 0.09788
# Poissons Ratio (y) = 0.29503 0.18115
# Poissons Ratio (z) = 0.11652 0.25435
#
# Static dielectric constant tensor:
#      x y z
#    x 1.691550 0.000000 0.001380 
#    y 0.000000 1.686860 0.000000 
#    z 0.001380 0.000000 1.687700 
# 
# From -- ./inp_files/109843.got.cif
#   From: 2010.05.17/outbox.cif.g08.bks.cpg/sg12_55_cif.got.tgz:109843.got - 2010.06.03 13:09:07.
