data_PCOD9200109
_publ_section_title
;
Structure prediction by ZEFSAII (Michael W. Deem and Ramdas Pophale) SiO2 
 PCOD9200109
Probable space group: C 2/M
;
_chemical_formula_sum "Si O2"
_cell_formula_units_Z 46
_cell_length_a 13.914125
_cell_length_b 31.015247
_cell_length_c 9.014235
_cell_angle_alpha 90.000000
_cell_angle_beta 146.282476
_cell_angle_gamma 90.000000
_cell_volume 2159.386356
_symmetry_space_group_name_H-M "C 2/M"
_symmetry_group_IT_number 12
_symmetry_cell_setting 'monoclinic'
loop_
_space_group_symop_operation_xyz
x,y,z
-x,y,-z
-x,-y,-z
x,-y,z
1/2+x,1/2+y,z
1/2-x,1/2+y,-z
1/2-x,1/2-y,-z
1/2+x,1/2-y,z
loop_
_atom_site_type_symbol
_atom_site_label
_atom_site_fract_x
_atom_site_fract_y
_atom_site_fract_z
Si Si1 0.835566 0.573801 0.127297
Si Si2 0.969460 0.049754 0.792529
Si Si3 0.000000 0.349053 0.500000
Si Si4 0.500000 0.000000 0.500000
Si Si5 0.318805 0.605764 0.355348
Si Si6 0.509461 0.222400 0.264225
Si Si7 0.768749 0.792929 0.322813
O O1 0.859136 0.617673 0.252687
O O2 0.980390 0.538607 0.349502
O O3 0.657316 0.551903 0.954323
O O4 0.822109 0.586951 0.938808
O O5 0.840703 0.079596 0.534840
O O6 0.912024 0.000000 0.721594
O O7 0.000000 0.064218 0.000000
O O8 0.042348 0.317145 0.418796
O O9 0.500000 0.600694 0.500000
O O10 0.294250 0.656150 0.349227
O O11 0.637227 0.216569 0.288710
O O12 0.561971 0.265966 0.416174
O O13 0.321659 0.221778 0.946440
#
# Coordination Sequence:
#
# PCOD9200109 Si02
#       7
#     8   8   4   2   8   8   8
#     4  10  21  38  60  89 117 156 202 240 305 354
#     4  10  22  39  61  88 119 155 197 252 299 361
#     4  11  22  37  62  90 114 162 195 252 293 354
#     4  10  20  36  64  82 122 156 198 248 292 370
#     4  10  22  38  62  89 120 155 202 249 304 362
#     4  10  23  40  64  83 126 158 204 250 305 362
#     4  10  22  43  58  91 118 164 199 252 308 363
#
# _framework density 21.302350000000001
#
# number of rings (size 3 to 8) (size 9 to 14) (size 15 to 20)
#    0.000    1.913    2.609    0.000    4.870    4.522 
#    3.130    0.000    0.000    1.043    0.000    0.000 
#    0.000    0.000    0.000    0.000    0.000    0.000 
#
# Total GULP energy -128173.000951 kJ/mol
# GULP energy per Si atom -5572.739172 kJ/mol
# Density = 2.125386 g / cm^3
# Si number density = 21.302350 Si / 1000 Ang^3
#
#
#
# Elastic Constant Matrix: (Units=GPa)
#
#
# Indices 1 2 3 4 5 6 
#
# 1 46.7510 23.1902 33.7916 0.0000 -23.7371 0.0000
# 2 23.1902 158.4208 102.0645 0.0000 -42.9759 0.0000
# 3 33.7916 102.0645 161.9523 0.0000 -53.7366 0.0000
# 4 0.0000 0.0000 0.0000 51.3710 0.0000 8.9991
# 5 -23.7371 -42.9759 -53.7366 0.0000 37.0495 0.0000
# 6 0.0000 0.0000 0.0000 8.9991 0.0000 25.7975
#
#
#
# Elastic Compliance Matrix: (Units=1/GPa)
#
#
# Indices 1 2 3 4 5 6 
#
# 1 0.031892 0.001436 -0.000437 0.000000 0.021464 0.000000
# 2 0.001436 0.011203 -0.005287 0.000000 0.006246 0.000000
# 3 -0.000437 -0.005287 0.014400 0.000000 0.014473 0.000000
# 4 0.000000 0.000000 0.000000 0.020733 0.000000 -0.007232
# 5 0.021464 0.006246 0.014473 0.000000 0.068979 0.000000
# 6 0.000000 0.000000 0.000000 -0.007232 0.000000 0.041286
#
#
# Mechanical properties :
#
#
# Convention : Reuss Voigt Hill
#
# Bulk Modulus (GPa) = 20.44262 76.13518 48.28890
# Shear Modulus (GPa) = 23.43272 36.71547 30.07409
#
# Velocity S-wave (km/s) = 3.32023 4.15606 3.76143
# Velocity P-wave (km/s) = 4.93111 7.67126 6.44842
#
# Compressibility (1/GPa) = 0.04891741
#
# Stress axis : x y z
#
# Youngs Moduli (GPa) = 31.35607 89.26168 69.44365
#
# Poissons Ratio (x) = -0.12819 0.03038
# Poissons Ratio (y) = -0.04503 0.36717
# Poissons Ratio (z) = 0.01372 0.47196
#
# Static dielectric constant tensor:
#      x y z
#    x 1.793690 0.000000 0.037470 
#    y 0.000000 1.873330 0.000000 
#    z 0.037470 0.000000 1.837550 
# 
# From -- ./inp_files/68417.got.cif
#   From: 2010.05.17/outbox.cif.g08.bks.cpg/sg12_35_cif.got.tgz:68417.got - 2010.06.03 13:09:07.
