data_PCOD9200355
_publ_section_title
;
Structure prediction by ZEFSAII (Michael W. Deem and Ramdas Pophale) SiO2 
 PCOD9200355
Probable space group: C 2/M
;
_chemical_formula_sum "Si O2"
_cell_formula_units_Z 42
_cell_length_a 14.438803
_cell_length_b 10.787460
_cell_length_c 16.435926
_cell_angle_alpha 90.000000
_cell_angle_beta 55.587530
_cell_angle_gamma 90.000000
_cell_volume 2111.998102
_symmetry_space_group_name_H-M "C 2/M"
_symmetry_group_IT_number 12
_symmetry_cell_setting 'monoclinic'
loop_
_space_group_symop_operation_xyz
x,y,z
-x,y,-z
-x,-y,-z
x,-y,z
1/2+x,1/2+y,z
1/2-x,1/2+y,-z
1/2-x,1/2-y,-z
1/2+x,1/2-y,z
loop_
_atom_site_type_symbol
_atom_site_label
_atom_site_fract_x
_atom_site_fract_y
_atom_site_fract_z
Si Si1 0.890999 0.856904 0.382132
Si Si2 0.659644 0.763799 0.431964
Si Si3 0.255101 0.645017 0.767024
Si Si4 0.506084 0.143326 0.094398
Si Si5 0.000000 0.500000 0.500000
Si Si6 0.897570 0.146250 0.843278
O O1 0.788322 0.777258 0.398084
O O2 0.901192 0.823414 0.471992
O O3 0.001339 0.839613 0.272639
O O4 0.859617 0.000000 0.390667
O O5 0.671018 0.717923 0.334309
O O6 0.595195 0.892137 0.466255
O O7 0.281135 0.500000 0.744189
O O8 0.123631 0.662011 0.815067
O O9 0.287037 0.674047 0.844499
O O10 0.579482 0.251053 0.099439
O O11 0.539802 0.000000 0.098020
O O12 0.500000 0.152368 0.000000
O O13 0.895803 0.000000 0.870399
#
# Coordination Sequence:
#
# PCOD9200355 Si02
#       6
#     8   8   8   8   2   8
#     4  10  20  37  57  82 115 159 200 237 288 350
#     4  11  21  36  55  84 122 158 193 245 288 350
#     4  10  21  40  63  88 117 162 203 242 297 362
#     4  10  22  42  64  90 122 154 198 255 312 362
#     4  12  24  36  50  88 122 154 194 250 298 324
#     4  10  21  39  61  88 119 157 203 248 295 364
#
# _framework density 19.886382000000001
#
# number of rings (size 3 to 8) (size 9 to 14) (size 15 to 20)
#    0.000    1.714    2.857    1.714    0.000    1.143 
#    6.857    3.810    0.000    0.000    0.000    0.000 
#    0.000    0.000    0.000    0.000    0.000    0.000 
#
# Total GULP energy -116911.553444 kJ/mol
# GULP energy per Si atom -5567.216831 kJ/mol
# Density = 1.984112 g / cm^3
# Si number density = 19.886382 Si / 1000 Ang^3
#
#
#
# Elastic Constant Matrix: (Units=GPa)
#
#
# Indices 1 2 3 4 5 6 
#
# 1 62.3285 28.8726 -7.9534 0.0000 18.4054 0.0000
# 2 28.8726 58.6511 18.4048 0.0000 25.9800 0.0000
# 3 -7.9534 18.4048 51.9861 0.0000 16.2023 0.0000
# 4 0.0000 0.0000 0.0000 10.6498 0.0000 28.3026
# 5 18.4054 25.9800 16.2023 0.0000 26.0657 0.0000
# 6 0.0000 0.0000 0.0000 28.3026 0.0000 96.9941
#
#
#
# Elastic Compliance Matrix: (Units=1/GPa)
#
#
# Indices 1 2 3 4 5 6 
#
# 1 0.027582 -0.009780 0.013289 0.000000 -0.017988 0.000000
# 2 -0.009780 0.034109 -0.006361 0.000000 -0.023138 0.000000
# 3 0.013289 -0.006361 0.030349 0.000000 -0.021908 0.000000
# 4 0.000000 0.000000 0.000000 0.418200 0.000000 -0.122030
# 5 -0.017988 -0.023138 -0.021908 0.000000 0.087746 0.000000
# 6 0.000000 0.000000 0.000000 -0.122030 0.000000 0.045918
#
#
# Mechanical properties :
#
#
# Convention : Reuss Voigt Hill
#
# Bulk Modulus (GPa) = 11.58263 27.95709 19.76986
# Shear Modulus (GPa) = 7.37042 35.65138 21.51090
#
# Velocity S-wave (km/s) = 1.92725 4.23869 3.29247
# Velocity P-wave (km/s) = 3.28473 6.16800 4.94134
#
# Compressibility (1/GPa) = 0.08633619
#
# Stress axis : x y z
#
# Youngs Moduli (GPa) = 36.25555 29.31738 32.95010
#
# Poissons Ratio (x) = 0.28672 -0.43786
# Poissons Ratio (y) = 0.35457 0.20959
# Poissons Ratio (z) = -0.48179 0.18648
#
# Static dielectric constant tensor:
#      x y z
#    x 1.773960 0.000000 -0.011620 
#    y 0.000000 1.652270 0.000000 
#    z -0.011620 0.000000 1.712750 
# 
# From -- ./inp_files/212440.got.cif
#   From: 2010.05.17/outbox.cif.g08.bks.cpg/sg12_107_cif.got.tgz:212440.got - 2010.06.03 13:09:07.
