data_PCOD9200079
_publ_section_title
;
Structure prediction by ZEFSAII (Michael W. Deem and Ramdas Pophale) SiO2 
 PCOD9200079
Probable space group: C 2/M
;
_chemical_formula_sum "Si O2"
_cell_formula_units_Z 56
_cell_length_a 23.406883
_cell_length_b 27.093775
_cell_length_c 10.632768
_cell_angle_alpha 90.000000
_cell_angle_beta 157.803770
_cell_angle_gamma 90.000000
_cell_volume 2547.406478
_symmetry_space_group_name_H-M "C 2/M"
_symmetry_group_IT_number 12
_symmetry_cell_setting 'monoclinic'
loop_
_space_group_symop_operation_xyz
x,y,z
-x,y,-z
-x,-y,-z
x,-y,z
1/2+x,1/2+y,z
1/2-x,1/2+y,-z
1/2-x,1/2-y,-z
1/2+x,1/2-y,z
loop_
_atom_site_type_symbol
_atom_site_label
_atom_site_fract_x
_atom_site_fract_y
_atom_site_fract_z
Si Si1 0.322724 0.345321 0.140673
Si Si2 0.404054 0.131207 0.675682
Si Si3 0.681979 0.054247 0.859054
Si Si4 0.378893 0.053200 0.993190
Si Si5 0.698586 0.713807 0.145528
Si Si6 0.669021 0.408178 0.367516
Si Si7 0.347515 0.315967 0.475079
O O1 0.500000 0.355843 0.500000
O O2 0.292387 0.334597 0.225120
O O3 0.241698 0.394812 0.925160
O O4 0.292735 0.299341 0.986210
O O5 0.332508 0.180470 0.475812
O O6 0.256853 0.100747 0.417795
O O7 0.500000 0.139087 0.000000
O O8 0.507090 0.098561 0.793567
O O9 0.500000 0.055500 0.500000
O O10 0.727959 0.000000 0.903296
O O11 0.723256 0.056467 0.090972
O O12 0.269423 0.055136 0.652183
O O13 0.459192 0.000000 0.160994
O O14 0.741108 0.768501 0.276523
O O15 0.526153 0.699134 0.831616
O O16 0.667207 0.357367 0.447288
O O17 0.500000 0.424068 0.000000
#
# Coordination Sequence:
#
# PCOD9200079 Si02
#       7
#     8   8   8   8   8   8   8
#     4  10  22  41  62  89 126 158 201 259 310 370
#     4  10  23  39  61  90 122 162 206 251 309 358
#     4  10  20  36  63  94 124 161 204 251 311 373
#     4  10  22  41  65  93 126 164 209 256 312 374
#     4  11  24  40  62  90 123 163 210 257 312 370
#     4  11  22  41  63  88 128 161 206 261 306 367
#     4  11  24  40  62  91 122 164 210 255 314 371
#
# _framework density 21.983142000000001
#
# number of rings (size 3 to 8) (size 9 to 14) (size 15 to 20)
#    0.000    1.571    2.857    1.286    4.000    5.429 
#    0.000    0.000    0.000    0.857    0.000    0.000 
#    0.000    0.000    0.000    0.000    0.000    0.000 
#
# Total GULP energy -156251.674640 kJ/mol
# GULP energy per Si atom -5580.416951 kJ/mol
# Density = 2.193311 g / cm^3
# Si number density = 21.983142 Si / 1000 Ang^3
#
#
#
# Elastic Constant Matrix: (Units=GPa)
#
#
# Indices 1 2 3 4 5 6 
#
# 1 32.7556 2.5491 -0.3312 0.0000 4.0144 0.0000
# 2 2.5491 89.9472 15.2159 0.0000 3.4849 0.0000
# 3 -0.3312 15.2159 77.0967 0.0000 4.8416 0.0000
# 4 0.0000 0.0000 0.0000 24.6394 0.0000 1.6475
# 5 4.0144 3.4849 4.8416 0.0000 20.9096 0.0000
# 6 0.0000 0.0000 0.0000 1.6475 0.0000 18.7691
#
#
#
# Elastic Compliance Matrix: (Units=1/GPa)
#
#
# Indices 1 2 3 4 5 6 
#
# 1 0.031336 -0.000767 0.000665 0.000000 -0.006043 0.000000
# 2 -0.000767 0.011562 -0.002205 0.000000 -0.001269 0.000000
# 3 0.000665 -0.002205 0.013591 0.000000 -0.002907 0.000000
# 4 0.000000 0.000000 0.000000 0.040825 0.000000 -0.003584
# 5 -0.006043 -0.001269 -0.002907 0.000000 0.049870 0.000000
# 6 0.000000 0.000000 0.000000 -0.003584 0.000000 0.053594
#
#
# Mechanical properties :
#
#
# Convention : Reuss Voigt Hill
#
# Bulk Modulus (GPa) = 19.27676 26.07413 22.67545
# Shear Modulus (GPa) = 22.45349 25.02133 23.73741
#
# Velocity S-wave (km/s) = 3.19940 3.37739 3.28960
# Velocity P-wave (km/s) = 4.73668 5.20536 4.97654
#
# Compressibility (1/GPa) = 0.05187594
#
# Stress axis : x y z
#
# Youngs Moduli (GPa) = 31.91212 86.49324 73.57586
#
# Poissons Ratio (x) = 0.06630 -0.04895
# Poissons Ratio (y) = 0.02446 0.16226
# Poissons Ratio (z) = -0.02123 0.19075
#
# Static dielectric constant tensor:
#      x y z
#    x 1.862560 0.000000 -0.049900 
#    y 0.000000 1.834760 0.000000 
#    z -0.049900 0.000000 1.808460 
# 
# From -- ./inp_files/185161.got.cif
#   From: 2010.05.17/outbox.cif.g08.bks.cpg/sg12_93_cif.got.tgz:185161.got - 2010.06.03 13:09:07.
