data_PCOD9200562
_publ_section_title
;
Structure prediction by ZEFSAII (Michael W. Deem and Ramdas Pophale) SiO2 
 PCOD9200562
Probable space group: C 2/M
;
_chemical_formula_sum "Si O2"
_cell_formula_units_Z 56
_cell_length_a 11.848528
_cell_length_b 32.271754
_cell_length_c 14.447701
_cell_angle_alpha 90.000000
_cell_angle_beta 30.073716
_cell_angle_gamma 90.000000
_cell_volume 2768.356905
_symmetry_space_group_name_H-M "C 2/M"
_symmetry_group_IT_number 12
_symmetry_cell_setting 'monoclinic'
loop_
_space_group_symop_operation_xyz
x,y,z
-x,y,-z
-x,-y,-z
x,-y,z
1/2+x,1/2+y,z
1/2-x,1/2+y,-z
1/2-x,1/2-y,-z
1/2+x,1/2-y,z
loop_
_atom_site_type_symbol
_atom_site_label
_atom_site_fract_x
_atom_site_fract_y
_atom_site_fract_z
Si Si1 0.811203 0.548300 0.508381
Si Si2 0.284394 0.831871 0.720975
Si Si3 0.263353 0.170875 0.135439
Si Si4 0.238473 0.742923 0.712398
Si Si5 0.464625 0.821219 0.799944
Si Si6 0.185810 0.074964 0.795869
Si Si7 0.373249 0.384212 0.495947
O O1 0.823794 0.500000 0.476759
O O2 0.684227 0.554222 0.696480
O O3 0.691420 0.576091 0.517288
O O4 0.063692 0.566094 0.343408
O O5 0.500000 0.836223 0.500000
O O6 0.157790 0.789644 0.784725
O O7 0.368455 0.824311 0.765871
O O8 0.158753 0.875474 0.803189
O O9 0.266641 0.213540 0.192989
O O10 0.044319 0.145446 0.318633
O O11 0.500000 0.150006 0.000000
O O12 0.286147 0.175571 0.009674
O O13 0.500000 0.745019 0.500000
O O14 0.099655 0.720609 0.729895
O O15 0.650587 0.857575 0.676066
O O16 0.000000 0.059883 0.000000
O O17 0.500000 0.395130 0.500000
#
# Coordination Sequence:
#
# PCOD9200562 Si02
#       7
#     8   8   8   8   8   8   8
#     4  11  26  46  69 100 131 163 212 271 336 405
#     4  11  23  40  61  97 131 170 224 271 311 377
#     4  10  20  37  63  91 125 175 221 260 311 381
#     4  10  20  37  58  91 129 174 219 264 312 366
#     4  11  21  40  63  88 130 177 217 266 324 372
#     4  11  23  45  71  96 130 172 217 269 324 388
#     4  12  21  41  70  96 129 171 215 266 331 396
#
# _framework density 20.228605999999999
#
# number of rings (size 3 to 8) (size 9 to 14) (size 15 to 20)
#    0.000    1.143    7.143    0.857    2.000    6.000 
#    2.571    0.000    0.000    0.429    0.000    0.000 
#    0.000    0.000    0.000    0.000    0.000    0.000 
#
# Total GULP energy -156584.401942 kJ/mol
# GULP energy per Si atom -5592.300069 kJ/mol
# Density = 2.018256 g / cm^3
# Si number density = 20.228606 Si / 1000 Ang^3
#
#
#
# Elastic Constant Matrix: (Units=GPa)
#
#
# Indices 1 2 3 4 5 6 
#
# 1 73.5605 11.6869 15.8035 0.0000 4.2380 0.0000
# 2 11.6869 118.9678 14.8696 0.0000 -13.4421 0.0000
# 3 15.8035 14.8696 109.6045 -0.0003 22.6489 0.0002
# 4 0.0000 0.0000 -0.0003 67.6750 0.0001 -54.5406
# 5 4.2380 -13.4421 22.6489 0.0001 17.3136 -0.0001
# 6 0.0000 0.0000 0.0002 -54.5406 -0.0001 97.5961
#
#
#
# Elastic Compliance Matrix: (Units=1/GPa)
#
#
# Indices 1 2 3 4 5 6 
#
# 1 0.014290 -0.001620 -0.001176 0.000000 -0.003218 0.000000
# 2 -0.001620 0.010670 -0.004122 0.000000 0.014073 0.000000
# 3 -0.001176 -0.004122 0.014327 0.000000 -0.021655 0.000000
# 4 0.000000 0.000000 0.000000 0.026885 0.000000 0.015024
# 5 -0.003218 0.014073 -0.021655 0.000000 0.097800 0.000000
# 6 0.000000 0.000000 0.000000 0.015024 0.000000 0.018643
#
#
# Mechanical properties :
#
#
# Convention : Reuss Voigt Hill
#
# Bulk Modulus (GPa) = 39.29120 42.98367 41.13743
# Shear Modulus (GPa) = 24.39814 53.83514 39.11664
#
# Velocity S-wave (km/s) = 3.47669 5.16441 4.40219
# Velocity P-wave (km/s) = 5.96509 7.54033 6.79849
#
# Compressibility (1/GPa) = 0.02545099
#
# Stress axis : x y z
#
# Youngs Moduli (GPa) = 69.98065 93.71954 69.79735
#
# Poissons Ratio (x) = 0.15187 0.08205
# Poissons Ratio (y) = 0.11340 0.28771
# Poissons Ratio (z) = 0.08227 0.38631
#
# Static dielectric constant tensor:
#      x y z
#    x 1.715960 0.000000 0.002460 
#    y 0.000000 1.706840 0.000000 
#    z 0.002460 0.000000 1.754400 
# 
# From -- ./inp_files/210010.got.cif
#   From: 2010.05.17/outbox.cif.g08.bks.cpg/sg12_106_cif.got.tgz:210010.got - 2010.06.03 13:09:07.
