data_PCOD9200112
_publ_section_title
;
Structure prediction by ZEFSAII (Michael W. Deem and Ramdas Pophale) SiO2 
 PCOD9200112
Probable space group: C 2/M
;
_chemical_formula_sum "Si O2"
_cell_formula_units_Z 46
_cell_length_a 11.678265
_cell_length_b 28.178820
_cell_length_c 6.414713
_cell_angle_alpha 90.000000
_cell_angle_beta 113.751847
_cell_angle_gamma 90.000000
_cell_volume 1932.151195
_symmetry_space_group_name_H-M "C 2/M"
_symmetry_group_IT_number 12
_symmetry_cell_setting 'monoclinic'
loop_
_space_group_symop_operation_xyz
x,y,z
-x,y,-z
-x,-y,-z
x,-y,z
1/2+x,1/2+y,z
1/2-x,1/2+y,-z
1/2-x,1/2-y,-z
1/2+x,1/2-y,z
loop_
_atom_site_type_symbol
_atom_site_label
_atom_site_fract_x
_atom_site_fract_y
_atom_site_fract_z
Si Si1 0.702843 0.881371 0.150190
Si Si2 0.159168 0.925046 0.377575
Si Si3 0.500000 0.500000 0.500000
Si Si4 0.000000 0.245408 0.000000
Si Si5 0.650959 0.794264 0.416358
Si Si6 0.686461 0.662486 0.149268
Si Si7 0.608532 0.946256 0.746786
O O1 0.756525 0.918437 0.354132
O O2 0.671067 0.833606 0.250359
O O3 0.805188 0.864706 0.059258
O O4 0.605585 0.907935 0.928152
O O5 0.121728 0.872615 0.268966
O O6 0.257251 0.943174 0.273956
O O7 0.048662 0.958853 0.368122
O O8 0.977027 0.272187 0.764410
O O9 0.883302 0.211025 0.940370
O O10 0.750000 0.750000 0.500000
O O11 0.679930 0.824082 0.646581
O O12 0.500000 0.936989 0.500000
O O13 0.593647 0.000000 0.815024
#
# Coordination Sequence:
#
# PCOD9200112 Si02
#       7
#     8   8   2   4   8   8   8
#     4  10  22  40  65  90 130 175 212 271 335 383
#     4  10  23  42  62  98 136 167 219 269 324 392
#     4  12  24  40  68  98 134 172 212 272 326 386
#     4  10  20  36  64  87 119 174 212 254 340 384
#     4   9  20  39  58  88 123 157 217 276 313 392
#     4   9  21  41  59  90 132 167 216 267 318 401
#     4  10  22  42  66  94 130 175 227 275 320 389
#
# _framework density 23.807662000000001
#
# number of rings (size 3 to 8) (size 9 to 14) (size 15 to 20)
#    0.000    2.261    0.870    0.000    3.652    7.652 
#    0.000   10.435    0.000    0.000    0.000    0.000 
#    0.000    0.000    0.000    0.000    0.000    0.000 
#
# Total GULP energy -128040.280875 kJ/mol
# GULP energy per Si atom -5566.968734 kJ/mol
# Density = 2.375347 g / cm^3
# Si number density = 23.807662 Si / 1000 Ang^3
#
#
#
# Elastic Constant Matrix: (Units=GPa)
#
#
# Indices 1 2 3 4 5 6 
#
# 1 68.5685 23.8373 26.8385 0.0000 -12.4111 0.0000
# 2 23.8373 120.2911 62.9266 0.0000 2.6498 0.0000
# 3 26.8385 62.9266 104.3599 0.0000 3.1431 0.0000
# 4 0.0000 0.0000 0.0000 5.2111 0.0000 2.0515
# 5 -12.4111 2.6498 3.1431 0.0000 29.0160 0.0000
# 6 0.0000 0.0000 0.0000 2.0515 0.0000 25.7890
#
#
#
# Elastic Compliance Matrix: (Units=1/GPa)
#
#
# Indices 1 2 3 4 5 6 
#
# 1 0.018233 -0.001772 -0.003873 0.000000 0.008380 0.000000
# 2 -0.001772 0.012319 -0.006938 0.000000 -0.001131 0.000000
# 3 -0.003873 -0.006938 0.014841 0.000000 -0.002631 0.000000
# 4 0.000000 0.000000 0.000000 0.198102 0.000000 -0.015759
# 5 0.008380 -0.001131 -0.002631 0.000000 0.038436 0.000000
# 6 0.000000 0.000000 0.000000 -0.015759 0.000000 0.040030
#
#
# Mechanical properties :
#
#
# Convention : Reuss Voigt Hill
#
# Bulk Modulus (GPa) = 49.43979 57.82492 53.63236
# Shear Modulus (GPa) = 14.12956 23.97770 19.05363
#
# Velocity S-wave (km/s) = 2.43880 3.17699 2.83205
# Velocity P-wave (km/s) = 5.36113 6.14807 5.76804
#
# Compressibility (1/GPa) = 0.02022662
#
# Stress axis : x y z
#
# Youngs Moduli (GPa) = 54.84690 81.17770 67.38051
#
# Poissons Ratio (x) = 0.14381 0.26097
# Poissons Ratio (y) = 0.09716 0.46750
# Poissons Ratio (z) = 0.21243 0.56323
#
# Static dielectric constant tensor:
#      x y z
#    x 2.005190 0.000000 0.030270 
#    y 0.000000 1.921770 0.000000 
#    z 0.030270 0.000000 1.918800 
# 
# From -- ./inp_files/13271.got.cif
#   From: 2010.05.17/outbox.cif.g08.bks.cpg/sg12_7_cif.got.tgz:13271.got - 2010.06.03 13:09:07.
