data_PCOD9200036
_publ_section_title
;
Structure prediction by ZEFSAII (Michael W. Deem and Ramdas Pophale) SiO2 
 PCOD9200036
Probable space group: C 2/M
;
_chemical_formula_sum "Si O2"
_cell_formula_units_Z 56
_cell_length_a 11.209120
_cell_length_b 25.785574
_cell_length_c 11.562380
_cell_angle_alpha 90.000000
_cell_angle_beta 53.123674
_cell_angle_gamma 90.000000
_cell_volume 2673.308004
_symmetry_space_group_name_H-M "C 2/M"
_symmetry_group_IT_number 12
_symmetry_cell_setting 'monoclinic'
loop_
_space_group_symop_operation_xyz
x,y,z
-x,y,-z
-x,-y,-z
x,-y,z
1/2+x,1/2+y,z
1/2-x,1/2+y,-z
1/2-x,1/2-y,-z
1/2+x,1/2-y,z
loop_
_atom_site_type_symbol
_atom_site_label
_atom_site_fract_x
_atom_site_fract_y
_atom_site_fract_z
Si Si1 0.281893 0.616927 0.863839
Si Si2 0.345424 0.110669 0.634433
Si Si3 0.826729 0.276480 0.567550
Si Si4 0.533155 0.120673 0.192747
Si Si5 0.364277 0.788258 0.155105
Si Si6 0.069304 0.939416 0.703975
Si Si7 0.259361 0.561122 0.630586
O O1 0.249671 0.676973 0.854597
O O2 0.438810 0.598619 0.822251
O O3 0.286175 0.588535 0.737256
O O4 0.141938 0.602116 0.026210
O O5 0.500000 0.087106 0.500000
O O6 0.317971 0.161233 0.569800
O O7 0.370442 0.131030 0.749689
O O8 0.212348 0.070796 0.700033
O O9 0.750000 0.250000 0.500000
O O10 0.725566 0.255572 0.729504
O O11 0.000000 0.263591 0.500000
O O12 0.442892 0.170885 0.198449
O O13 0.408818 0.078688 0.298917
O O14 0.500000 0.767991 0.000000
O O15 0.128567 0.925757 0.539502
O O16 0.024666 0.000000 0.730695
O O17 0.269776 0.500000 0.639904
#
# Coordination Sequence:
#
# PCOD9200036 Si02
#       7
#     8   8   8   8   8   8   8
#     4  10  22  37  62  91 129 158 202 262 318 371
#     4  11  23  43  63  87 128 165 211 265 311 389
#     4  11  25  41  68 100 127 170 220 268 328 384
#     4  10  21  41  61  89 127 165 204 255 315 382
#     4   9  20  41  64  93 127 164 201 256 320 384
#     4  11  24  40  62  91 125 167 212 263 317 370
#     4  10  20  36  63  90 119 162 209 259 313 369
#
# _framework density 20.947828999999999
#
# number of rings (size 3 to 8) (size 9 to 14) (size 15 to 20)
#    0.000    1.714    1.429    3.857    4.000    4.286 
#    2.571    2.857    0.000    0.000    0.000    0.000 
#    0.000    0.000    0.000    0.000    0.000    0.000 
#
# Total GULP energy -156283.694063 kJ/mol
# GULP energy per Si atom -5581.560502 kJ/mol
# Density = 2.090015 g / cm^3
# Si number density = 20.947829 Si / 1000 Ang^3
#
#
#
# Elastic Constant Matrix: (Units=GPa)
#
#
# Indices 1 2 3 4 5 6 
#
# 1 80.8080 13.1993 13.7438 0.0000 -10.7573 0.0000
# 2 13.1993 21.7415 20.6793 0.0000 -20.3045 0.0000
# 3 13.7438 20.6793 85.3621 0.0000 -26.9067 0.0000
# 4 0.0000 0.0000 0.0000 19.6870 0.0000 -0.0002
# 5 -10.7573 -20.3045 -26.9067 0.0000 27.7477 0.0000
# 6 0.0000 0.0000 0.0000 -0.0002 0.0000 15.5377
#
#
#
# Elastic Compliance Matrix: (Units=1/GPa)
#
#
# Indices 1 2 3 4 5 6 
#
# 1 0.013811 -0.010604 -0.000595 0.000000 -0.002982 0.000000
# 2 -0.010604 0.153765 -0.001976 0.000000 0.106491 0.000000
# 3 -0.000595 -0.001976 0.016938 0.000000 0.014748 0.000000
# 4 0.000000 0.000000 0.000000 0.050795 0.000000 0.000001
# 5 -0.002982 0.106491 0.014748 0.000000 0.127110 0.000000
# 6 0.000000 0.000000 0.000000 0.000001 0.000000 0.064359
#
#
# Mechanical properties :
#
#
# Convention : Reuss Voigt Hill
#
# Bulk Modulus (GPa) = 6.32251 31.46180 18.89215
# Shear Modulus (GPa) = 9.88436 21.94709 15.91573
#
# Velocity S-wave (km/s) = 2.17458 3.24033 2.75940
# Velocity P-wave (km/s) = 3.05448 5.38994 4.38071
#
# Compressibility (1/GPa) = 0.15816507
#
# Stress axis : x y z
#
# Youngs Moduli (GPa) = 72.40465 6.50342 59.03912
#
# Poissons Ratio (x) = 0.06896 0.03511
# Poissons Ratio (y) = 0.76776 0.11667
# Poissons Ratio (z) = 0.04306 0.01285
#
# Static dielectric constant tensor:
#      x y z
#    x 1.862660 0.000000 0.031380 
#    y 0.000000 1.715780 0.000000 
#    z 0.031380 0.000000 1.755190 
# 
# From -- ./inp_files/136920.got.cif
#   From: 2010.05.17/outbox.cif.g08.bks.cpg/sg12_69_cif.got.tgz:136920.got - 2010.06.03 13:09:07.
